# generated using pymatgen
data_La20Si11Pd
_symmetry_space_group_name_H-M   'P 1'
_cell_length_a   7.89701400
_cell_length_b   7.89701400
_cell_length_c   14.54004800
_cell_angle_alpha   90.00000000
_cell_angle_beta   90.00000000
_cell_angle_gamma   90.00000000
_symmetry_Int_Tables_number   1
_chemical_formula_structural   La20Si11Pd
_chemical_formula_sum   'La20 Si11 Pd1'
_cell_volume   906.75854331
_cell_formula_units_Z   1
loop_
 _symmetry_equiv_pos_site_id
 _symmetry_equiv_pos_as_xyz
  1  'x, y, z'
loop_
 _atom_site_type_symbol
 _atom_site_label
 _atom_site_symmetry_multiplicity
 _atom_site_fract_x
 _atom_site_fract_y
 _atom_site_fract_z
 _atom_site_occupancy
  La  La0  1  0.500000  0.000000  0.777089  1
  La  La1  1  0.328862  0.314228  0.104911  1
  La  La2  1  0.828643  0.815314  0.895118  1
  La  La3  1  0.000000  0.500000  0.223450  1
  La  La4  1  0.827779  0.183366  0.394181  1
  La  La5  1  0.171357  0.184686  0.895118  1
  La  La6  1  0.671138  0.685772  0.104911  1
  La  La7  1  0.000000  0.500000  0.720039  1
  La  La8  1  0.811263  0.835281  0.606939  1
  La  La9  1  0.316634  0.327779  0.394181  1
  La  La10  1  0.185772  0.828862  0.104911  1
  La  La11  1  0.188737  0.164719  0.606939  1
  La  La12  1  0.814228  0.171138  0.104911  1
  La  La13  1  0.335281  0.688737  0.606939  1
  La  La14  1  0.500000  0.000000  0.274846  1
  La  La15  1  0.684686  0.328643  0.895118  1
  La  La16  1  0.664719  0.311263  0.606939  1
  La  La17  1  0.315314  0.671357  0.895118  1
  La  La18  1  0.172221  0.816634  0.394181  1
  La  La19  1  0.683366  0.672221  0.394181  1
  Si  Si20  1  0.613752  0.387352  0.248993  1
  Si  Si21  1  0.887522  0.114178  0.751574  1
  Si  Si22  1  0.500000  0.000000  0.495009  1
  Si  Si23  1  0.887352  0.886248  0.248993  1
  Si  Si24  1  0.000000  0.500000  0.005092  1
  Si  Si25  1  0.112478  0.885822  0.751574  1
  Si  Si26  1  0.385822  0.387522  0.751574  1
  Si  Si27  1  0.112648  0.113752  0.248993  1
  Si  Si28  1  0.386248  0.612648  0.248993  1
  Si  Si29  1  0.614178  0.612478  0.751574  1
  Si  Si30  1  0.500000  0.000000  0.995275  1
  Pd  Pd31  1  0.000000  0.500000  0.502331  1
