# generated using pymatgen
data_Ho2Er10ZnCo4Bi
_symmetry_space_group_name_H-M   'P 1'
_cell_length_a   8.30021049
_cell_length_b   8.30925493
_cell_length_c   8.30793275
_cell_angle_alpha   111.60534360
_cell_angle_beta   109.60259355
_cell_angle_gamma   107.27653920
_symmetry_Int_Tables_number   1
_chemical_formula_structural   Ho2Er10ZnCo4Bi
_chemical_formula_sum   'Ho2 Er10 Zn1 Co4 Bi1'
_cell_volume   440.22727004
_cell_formula_units_Z   1
loop_
 _symmetry_equiv_pos_site_id
 _symmetry_equiv_pos_as_xyz
  1  'x, y, z'
loop_
 _atom_site_type_symbol
 _atom_site_label
 _atom_site_symmetry_multiplicity
 _atom_site_fract_x
 _atom_site_fract_y
 _atom_site_fract_z
 _atom_site_occupancy
  Ho  Ho0  1  0.987551  0.780992  0.206588  1
  Ho  Ho1  1  0.012449  0.219008  0.793412  1
  Er  Er2  1  0.817905  0.713728  0.531927  1
  Er  Er3  1  0.182095  0.286272  0.468073  1
  Er  Er4  1  0.182029  0.713988  0.895776  1
  Er  Er5  1  0.817971  0.286012  0.104224  1
  Er  Er6  1  0.685598  0.378126  0.692016  1
  Er  Er7  1  0.314402  0.621874  0.307984  1
  Er  Er8  1  0.685577  0.993589  0.307455  1
  Er  Er9  1  0.314423  0.006411  0.692545  1
  Er  Er10  1  0.574497  0.781150  0.793386  1
  Er  Er11  1  0.425503  0.218850  0.206614  1
  Zn  Zn12  1  0.000000  0.000000  0.000000  1
  Co  Co13  1  0.623612  0.999708  0.623895  1
  Co  Co14  1  0.376388  0.000292  0.376105  1
  Co  Co15  1  0.112965  0.612888  0.500084  1
  Co  Co16  1  0.887035  0.387112  0.499916  1
  Bi  Bi17  1  0.500000  0.500000  0.000000  1
