# generated using pymatgen
data_Tb5Ho2ThC10
_symmetry_space_group_name_H-M   'P 1'
_cell_length_a   3.66950600
_cell_length_b   6.62260985
_cell_length_c   12.00228100
_cell_angle_alpha   88.99643916
_cell_angle_beta   90.00000000
_cell_angle_gamma   90.00000000
_symmetry_Int_Tables_number   1
_chemical_formula_structural   Tb5Ho2ThC10
_chemical_formula_sum   'Tb5 Ho2 Th1 C10'
_cell_volume   291.63117064
_cell_formula_units_Z   1
loop_
 _symmetry_equiv_pos_site_id
 _symmetry_equiv_pos_as_xyz
  1  'x, y, z'
loop_
 _atom_site_type_symbol
 _atom_site_label
 _atom_site_symmetry_multiplicity
 _atom_site_fract_x
 _atom_site_fract_y
 _atom_site_fract_z
 _atom_site_occupancy
  Tb  Tb0  1  0.000000  0.744781  0.456526  1
  Tb  Tb1  1  0.500000  0.102506  0.804349  1
  Tb  Tb2  1  0.500000  0.900805  0.198726  1
  Tb  Tb3  1  0.500000  0.610523  0.698940  1
  Tb  Tb4  1  0.500000  0.391227  0.298575  1
  Ho  Ho5  1  0.000000  0.758403  0.959814  1
  Ho  Ho6  1  0.000000  0.245113  0.040645  1
  Th  Th7  1  0.000000  0.241023  0.542548  1
  C  C8  1  0.500000  0.492688  0.499896  1
  C  C9  1  0.500000  0.001943  0.000328  1
  C  C10  1  0.000000  0.358036  0.743351  1
  C  C11  1  0.000000  0.645228  0.259782  1
  C  C12  1  0.000000  0.859765  0.768215  1
  C  C13  1  0.000000  0.141642  0.228992  1
  C  C14  1  0.000000  0.427445  0.847141  1
  C  C15  1  0.000000  0.583315  0.155090  1
  C  C16  1  0.000000  0.112667  0.340255  1
  C  C17  1  0.000000  0.882891  0.656829  1
