# generated using pymatgen
data_Ba4AgH12Pt
_symmetry_space_group_name_H-M   'P 1'
_cell_length_a   8.05376331
_cell_length_b   8.05376372
_cell_length_c   5.99076263
_cell_angle_alpha   90.07758565
_cell_angle_beta   90.07758092
_cell_angle_gamma   136.07930334
_symmetry_Int_Tables_number   1
_chemical_formula_structural   Ba4AgH12Pt
_chemical_formula_sum   'Ba4 Ag1 H12 Pt1'
_cell_volume   269.54107443
_cell_formula_units_Z   1
loop_
 _symmetry_equiv_pos_site_id
 _symmetry_equiv_pos_as_xyz
  1  'x, y, z'
loop_
 _atom_site_type_symbol
 _atom_site_label
 _atom_site_symmetry_multiplicity
 _atom_site_fract_x
 _atom_site_fract_y
 _atom_site_fract_z
 _atom_site_occupancy
  Ba  Ba0  1  0.352831  0.647169  0.000000  1
  Ba  Ba1  1  0.855538  0.144462  0.500000  1
  Ba  Ba2  1  0.647169  0.352831  0.000000  1
  Ba  Ba3  1  0.144462  0.855538  0.500000  1
  Ag  Ag4  1  0.000000  0.000000  0.000000  1
  H  H5  1  0.000441  0.498638  0.254819  1
  H  H6  1  0.501362  0.999559  0.745181  1
  H  H7  1  0.999559  0.501362  0.745181  1
  H  H8  1  0.498638  0.000441  0.254819  1
  H  H9  1  0.116565  0.883435  0.000000  1
  H  H10  1  0.612334  0.387666  0.500000  1
  H  H11  1  0.883435  0.116565  0.000000  1
  H  H12  1  0.387666  0.612334  0.500000  1
  H  H13  1  0.701519  0.701519  0.299247  1
  H  H14  1  0.298481  0.298481  0.700753  1
  H  H15  1  0.700519  0.700519  0.704738  1
  H  H16  1  0.299481  0.299481  0.295262  1
  Pt  Pt17  1  0.500000  0.500000  0.500000  1
