# generated using pymatgen
data_Pr2TaIr3
_symmetry_space_group_name_H-M   'P 1'
_cell_length_a   5.80270307
_cell_length_b   5.32839662
_cell_length_c   5.80270300
_cell_angle_alpha   57.00898464
_cell_angle_beta   59.99999469
_cell_angle_gamma   57.00898663
_symmetry_Int_Tables_number   1
_chemical_formula_structural   Pr2TaIr3
_chemical_formula_sum   'Pr2 Ta1 Ir3'
_cell_volume   120.82349937
_cell_formula_units_Z   1
loop_
 _symmetry_equiv_pos_site_id
 _symmetry_equiv_pos_as_xyz
  1  'x, y, z'
loop_
 _atom_site_type_symbol
 _atom_site_label
 _atom_site_symmetry_multiplicity
 _atom_site_fract_x
 _atom_site_fract_y
 _atom_site_fract_z
 _atom_site_occupancy
  Pr  Pr0  1  0.500682  0.497953  0.500682  1
  Pr  Pr1  1  0.749318  0.752047  0.749318  1
  Ta  Ta2  1  0.125000  0.625000  0.125000  1
  Ir  Ir3  1  0.625000  0.125000  0.125000  1
  Ir  Ir4  1  0.125000  0.125000  0.125000  1
  Ir  Ir5  1  0.125000  0.125000  0.625000  1
