# generated using pymatgen
data_Lu8Tl3Pt
_symmetry_space_group_name_H-M   'P 1'
_cell_length_a   10.27826200
_cell_length_b   10.27826200
_cell_length_c   6.89635400
_cell_angle_alpha   90.00000000
_cell_angle_beta   90.00000000
_cell_angle_gamma   120.00000000
_symmetry_Int_Tables_number   1
_chemical_formula_structural   Lu8Tl3Pt
_chemical_formula_sum   'Lu16 Tl6 Pt2'
_cell_volume   630.94215680
_cell_formula_units_Z   2
loop_
 _symmetry_equiv_pos_site_id
 _symmetry_equiv_pos_as_xyz
  1  'x, y, z'
loop_
 _atom_site_type_symbol
 _atom_site_label
 _atom_site_symmetry_multiplicity
 _atom_site_fract_x
 _atom_site_fract_y
 _atom_site_fract_z
 _atom_site_occupancy
  Lu  Lu0  1  0.531518  0.063036  0.526255  1
  Lu  Lu1  1  0.936964  0.468482  0.526255  1
  Lu  Lu2  1  0.531518  0.468482  0.526255  1
  Lu  Lu3  1  0.468482  0.936964  0.026255  1
  Lu  Lu4  1  0.063036  0.531518  0.026255  1
  Lu  Lu5  1  0.468482  0.531518  0.026255  1
  Lu  Lu6  1  0.175592  0.351184  0.730592  1
  Lu  Lu7  1  0.648816  0.824408  0.730592  1
  Lu  Lu8  1  0.175592  0.824408  0.730592  1
  Lu  Lu9  1  0.824408  0.648816  0.230592  1
  Lu  Lu10  1  0.351184  0.175592  0.230592  1
  Lu  Lu11  1  0.824408  0.175592  0.230592  1
  Lu  Lu12  1  0.666667  0.333333  0.900407  1
  Lu  Lu13  1  0.333333  0.666667  0.400407  1
  Lu  Lu14  1  0.000000  0.000000  0.504307  1
  Lu  Lu15  1  0.000000  0.000000  0.004307  1
  Tl  Tl16  1  0.837597  0.675194  0.768528  1
  Tl  Tl17  1  0.324806  0.162403  0.768528  1
  Tl  Tl18  1  0.837597  0.162403  0.768528  1
  Tl  Tl19  1  0.162403  0.324806  0.268528  1
  Tl  Tl20  1  0.675194  0.837597  0.268528  1
  Tl  Tl21  1  0.162403  0.837597  0.268528  1
  Pt  Pt22  1  0.666667  0.333333  0.297001  1
  Pt  Pt23  1  0.333333  0.666667  0.797001  1
