# generated using pymatgen
data_Dy3Y2Cr3(P3Ir4)4
_symmetry_space_group_name_H-M   'P 1'
_cell_length_a   12.64080900
_cell_length_b   12.64109045
_cell_length_c   3.96009800
_cell_angle_alpha   90.00000000
_cell_angle_beta   90.00000000
_cell_angle_gamma   119.99926087
_symmetry_Int_Tables_number   1
_chemical_formula_structural   Dy3Y2Cr3(P3Ir4)4
_chemical_formula_sum   'Dy3 Y2 Cr3 P12 Ir16'
_cell_volume   548.02353272
_cell_formula_units_Z   1
loop_
 _symmetry_equiv_pos_site_id
 _symmetry_equiv_pos_as_xyz
  1  'x, y, z'
loop_
 _atom_site_type_symbol
 _atom_site_label
 _atom_site_symmetry_multiplicity
 _atom_site_fract_x
 _atom_site_fract_y
 _atom_site_fract_z
 _atom_site_occupancy
  Dy  Dy0  1  0.333335  0.666662  0.500000  1
  Dy  Dy1  1  0.666674  0.333338  0.500000  1
  Dy  Dy2  1  0.810642  0.000000  0.000000  1
  Y  Y3  1  0.999994  0.810638  0.000000  1
  Y  Y4  1  0.189357  0.189362  0.000000  1
  Cr  Cr5  1  0.999993  0.453390  0.500000  1
  Cr  Cr6  1  0.546604  0.546610  0.500000  1
  Cr  Cr7  1  0.453401  0.000000  0.500000  1
  P  P8  1  0.999999  0.632213  0.500000  1
  P  P9  1  0.367786  0.367787  0.500000  1
  P  P10  1  0.632281  0.000000  0.500000  1
  P  P11  1  0.516261  0.684175  0.000000  1
  P  P12  1  0.315819  0.832081  0.000000  1
  P  P13  1  0.167921  0.483744  0.000000  1
  P  P14  1  0.483738  0.167919  0.000000  1
  P  P15  1  0.684177  0.516256  0.000000  1
  P  P16  1  0.832086  0.315825  0.000000  1
  P  P17  1  0.999942  0.177682  0.500000  1
  P  P18  1  0.822260  0.822318  0.500000  1
  P  P19  1  0.177737  0.000000  0.500000  1
  Ir  Ir20  1  0.509376  0.868598  0.000000  1
  Ir  Ir21  1  0.131407  0.640759  0.000000  1
  Ir  Ir22  1  0.359241  0.490652  0.000000  1
  Ir  Ir23  1  0.490649  0.359241  0.000000  1
  Ir  Ir24  1  0.868589  0.509348  0.000000  1
  Ir  Ir25  1  0.640779  0.131402  0.000000  1
  Ir  Ir26  1  0.999976  0.287307  0.000000  1
  Ir  Ir27  1  0.712669  0.712693  0.000000  1
  Ir  Ir28  1  0.287335  0.000000  0.000000  1
  Ir  Ir29  1  0.623720  0.802661  0.500000  1
  Ir  Ir30  1  0.197389  0.821055  0.500000  1
  Ir  Ir31  1  0.178942  0.376331  0.500000  1
  Ir  Ir32  1  0.376334  0.178945  0.500000  1
  Ir  Ir33  1  0.802611  0.623669  0.500000  1
  Ir  Ir34  1  0.821058  0.197339  0.500000  1
  Ir  Ir35  1  0.999921  0.000000  0.500000  1
