# generated using pymatgen
data_CePr4HoIr18
_symmetry_space_group_name_H-M   'P 1'
_cell_length_a   5.37878100
_cell_length_b   5.37887987
_cell_length_c   17.67371300
_cell_angle_alpha   90.00008693
_cell_angle_beta   89.99977677
_cell_angle_gamma   120.00222859
_symmetry_Int_Tables_number   1
_chemical_formula_structural   CePr4HoIr18
_chemical_formula_sum   'Ce1 Pr4 Ho1 Ir18'
_cell_volume   442.81710026
_cell_formula_units_Z   1
loop_
 _symmetry_equiv_pos_site_id
 _symmetry_equiv_pos_as_xyz
  1  'x, y, z'
loop_
 _atom_site_type_symbol
 _atom_site_label
 _atom_site_symmetry_multiplicity
 _atom_site_fract_x
 _atom_site_fract_y
 _atom_site_fract_z
 _atom_site_occupancy
  Ce  Ce0  1  0.666673  0.333337  0.250464  1
  Pr  Pr1  1  0.333331  0.666663  0.958894  1
  Pr  Pr2  1  0.666670  0.333330  0.040053  1
  Pr  Pr3  1  0.666660  0.333327  0.461035  1
  Pr  Pr4  1  0.333337  0.666669  0.748930  1
  Ho  Ho5  1  0.333329  0.666657  0.542755  1
  Ir  Ir6  1  0.166847  0.833159  0.373069  1
  Ir  Ir7  1  0.166849  0.333694  0.373071  1
  Ir  Ir8  1  0.666306  0.833153  0.373069  1
  Ir  Ir9  1  0.833339  0.166666  0.626467  1
  Ir  Ir10  1  0.833337  0.666669  0.626462  1
  Ir  Ir11  1  0.333332  0.166666  0.626456  1
  Ir  Ir12  1  0.833647  0.166356  0.870996  1
  Ir  Ir13  1  0.833650  0.667293  0.870999  1
  Ir  Ir14  1  0.332708  0.166355  0.871006  1
  Ir  Ir15  1  0.166299  0.833708  0.128764  1
  Ir  Ir16  1  0.166301  0.332598  0.128765  1
  Ir  Ir17  1  0.667401  0.833700  0.128766  1
  Ir  Ir18  1  0.333325  0.666670  0.250510  1
  Ir  Ir19  1  0.666625  0.333324  0.749202  1
  Ir  Ir20  1  0.000000  0.999997  0.251038  1
  Ir  Ir21  1  0.000053  0.000016  0.748947  1
  Ir  Ir22  1  0.999986  0.999995  0.500153  1
  Ir  Ir23  1  0.999999  0.999999  0.000132  1
