# generated using pymatgen
data_Dy20(Ir3Pt)3
_symmetry_space_group_name_H-M   'P 1'
_cell_length_a   10.97184688
_cell_length_b   10.97184688
_cell_length_c   6.34642831
_cell_angle_alpha   89.97500860
_cell_angle_beta   89.97500860
_cell_angle_gamma   90.18058708
_symmetry_Int_Tables_number   1
_chemical_formula_structural   Dy20(Ir3Pt)3
_chemical_formula_sum   'Dy20 Ir9 Pt3'
_cell_volume   763.98813635
_cell_formula_units_Z   1
loop_
 _symmetry_equiv_pos_site_id
 _symmetry_equiv_pos_as_xyz
  1  'x, y, z'
loop_
 _atom_site_type_symbol
 _atom_site_label
 _atom_site_symmetry_multiplicity
 _atom_site_fract_x
 _atom_site_fract_y
 _atom_site_fract_z
 _atom_site_occupancy
  Dy  Dy0  1  0.293792  0.087388  0.373139  1
  Dy  Dy1  1  0.292959  0.908539  0.877904  1
  Dy  Dy2  1  0.705267  0.090179  0.874825  1
  Dy  Dy3  1  0.704635  0.909706  0.374443  1
  Dy  Dy4  1  0.585696  0.791322  0.879289  1
  Dy  Dy5  1  0.585969  0.208720  0.379298  1
  Dy  Dy6  1  0.410749  0.791535  0.378863  1
  Dy  Dy7  1  0.413869  0.208802  0.879240  1
  Dy  Dy8  1  0.208678  0.414304  0.620711  1
  Dy  Dy9  1  0.208465  0.589251  0.121137  1
  Dy  Dy10  1  0.791280  0.414031  0.120702  1
  Dy  Dy11  1  0.791198  0.586131  0.620760  1
  Dy  Dy12  1  0.912612  0.706208  0.126861  1
  Dy  Dy13  1  0.909821  0.294733  0.625175  1
  Dy  Dy14  1  0.091461  0.707041  0.622096  1
  Dy  Dy15  1  0.090294  0.295365  0.125557  1
  Dy  Dy16  1  0.001272  0.998184  0.499399  1
  Dy  Dy17  1  0.001816  0.998728  0.000601  1
  Dy  Dy18  1  0.499787  0.499946  0.000328  1
  Dy  Dy19  1  0.500054  0.500213  0.499672  1
  Ir  Ir20  1  0.152322  0.847678  0.250000  1
  Ir  Ir21  1  0.654572  0.345428  0.750000  1
  Ir  Ir22  1  0.654828  0.654516  0.249685  1
  Ir  Ir23  1  0.345484  0.345172  0.250315  1
  Ir  Ir24  1  0.346279  0.653721  0.750000  1
  Ir  Ir25  1  0.500515  0.000111  0.123933  1
  Ir  Ir26  1  0.500374  0.000336  0.624889  1
  Ir  Ir27  1  0.999664  0.499626  0.875111  1
  Ir  Ir28  1  0.999889  0.499485  0.376067  1
  Pt  Pt29  1  0.846842  0.153158  0.250000  1
  Pt  Pt30  1  0.845849  0.846294  0.749909  1
  Pt  Pt31  1  0.153706  0.154151  0.750091  1
