# generated using pymatgen
data_V3Te6AsO22
_symmetry_space_group_name_H-M   'P 1'
_cell_length_a   6.75149859
_cell_length_b   7.91702809
_cell_length_c   10.93171004
_cell_angle_alpha   68.76163624
_cell_angle_beta   91.78316214
_cell_angle_gamma   78.81319053
_symmetry_Int_Tables_number   1
_chemical_formula_structural   V3Te6AsO22
_chemical_formula_sum   'V3 Te6 As1 O22'
_cell_volume   530.99015004
_cell_formula_units_Z   1
loop_
 _symmetry_equiv_pos_site_id
 _symmetry_equiv_pos_as_xyz
  1  'x, y, z'
loop_
 _atom_site_type_symbol
 _atom_site_label
 _atom_site_symmetry_multiplicity
 _atom_site_fract_x
 _atom_site_fract_y
 _atom_site_fract_z
 _atom_site_occupancy
  V  V0  1  0.307373  0.296764  0.108936  1
  V  V1  1  0.689271  0.704316  0.891720  1
  V  V2  1  0.196789  0.717228  0.395500  1
  Te  Te3  1  0.692742  0.774267  0.474894  1
  Te  Te4  1  0.312938  0.226615  0.523994  1
  Te  Te5  1  0.808041  0.335916  0.203153  1
  Te  Te6  1  0.189730  0.667855  0.797488  1
  Te  Te7  1  0.759067  0.947492  0.166451  1
  Te  Te8  1  0.233473  0.051547  0.833603  1
  As  As9  1  0.813237  0.283903  0.601097  1
  O  O10  1  0.194008  0.423153  0.942882  1
  O  O11  1  0.803270  0.577690  0.059135  1
  O  O12  1  0.738841  0.027761  0.315992  1
  O  O13  1  0.250625  0.963470  0.688455  1
  O  O14  1  0.478185  0.404248  0.151856  1
  O  O15  1  0.519113  0.596713  0.848496  1
  O  O16  1  0.703952  0.713947  0.319540  1
  O  O17  1  0.302846  0.279614  0.681450  1
  O  O18  1  0.072250  0.840086  0.237613  1
  O  O19  1  0.920075  0.166628  0.762948  1
  O  O20  1  0.016320  0.701438  0.506034  1
  O  O21  1  0.992649  0.302278  0.488540  1
  O  O22  1  0.820994  0.209281  0.082527  1
  O  O23  1  0.174163  0.788777  0.921975  1
  O  O24  1  0.438590  0.080671  0.118340  1
  O  O25  1  0.555342  0.919464  0.881951  1
  O  O26  1  0.372003  0.828997  0.436707  1
  O  O27  1  0.643970  0.173882  0.555845  1
  O  O28  1  0.120592  0.279448  0.221103  1
  O  O29  1  0.875330  0.724054  0.779815  1
  O  O30  1  0.316159  0.488747  0.412829  1
  O  O31  1  0.688062  0.503749  0.589127  1
