# generated using pymatgen
data_TbY11Ni6Bi
_symmetry_space_group_name_H-M   'P 1'
_cell_length_a   8.47912791
_cell_length_b   8.50040754
_cell_length_c   8.47912806
_cell_angle_alpha   109.67361830
_cell_angle_beta   109.24106735
_cell_angle_gamma   109.39727918
_symmetry_Int_Tables_number   1
_chemical_formula_structural   TbY11Ni6Bi
_chemical_formula_sum   'Tb1 Y11 Ni6 Bi1'
_cell_volume   471.04169673
_cell_formula_units_Z   1
loop_
 _symmetry_equiv_pos_site_id
 _symmetry_equiv_pos_as_xyz
  1  'x, y, z'
loop_
 _atom_site_type_symbol
 _atom_site_label
 _atom_site_symmetry_multiplicity
 _atom_site_fract_x
 _atom_site_fract_y
 _atom_site_fract_z
 _atom_site_occupancy
  Tb  Tb0  1  0.812279  0.503735  0.691457  1
  Y  Y1  1  0.692899  0.187429  0.880760  1
  Y  Y2  1  0.187458  0.880776  0.693317  1
  Y  Y3  1  0.306670  0.187429  0.494531  1
  Y  Y4  1  0.693076  0.812378  0.505339  1
  Y  Y5  1  0.494670  0.306858  0.187973  1
  Y  Y6  1  0.812721  0.119231  0.306510  1
  Y  Y7  1  0.880879  0.692911  0.187648  1
  Y  Y8  1  0.118886  0.306858  0.812188  1
  Y  Y9  1  0.307038  0.812378  0.119301  1
  Y  Y10  1  0.505262  0.692911  0.812031  1
  Y  Y11  1  0.187793  0.494885  0.307090  1
  Ni  Ni12  1  0.623993  0.124661  0.500668  1
  Ni  Ni13  1  0.500150  0.623460  0.123310  1
  Ni  Ni14  1  0.499458  0.376126  0.876668  1
  Ni  Ni15  1  0.376696  0.876580  0.499884  1
  Ni  Ni16  1  0.123518  0.500335  0.624002  1
  Ni  Ni17  1  0.876334  0.500335  0.376818  1
  Bi  Bi18  1  0.000220  0.000724  0.000505  1
