# generated using pymatgen
data_NdSm2Cd3Pb2Au
_symmetry_space_group_name_H-M   'P 1'
_cell_length_a   7.64130900
_cell_length_b   7.66430740
_cell_length_c   4.69171900
_cell_angle_alpha   90.00000000
_cell_angle_beta   90.00000000
_cell_angle_gamma   119.90078238
_symmetry_Int_Tables_number   1
_chemical_formula_structural   NdSm2Cd3Pb2Au
_chemical_formula_sum   'Nd1 Sm2 Cd3 Pb2 Au1'
_cell_volume   238.19719042
_cell_formula_units_Z   1
loop_
 _symmetry_equiv_pos_site_id
 _symmetry_equiv_pos_as_xyz
  1  'x, y, z'
loop_
 _atom_site_type_symbol
 _atom_site_label
 _atom_site_symmetry_multiplicity
 _atom_site_fract_x
 _atom_site_fract_y
 _atom_site_fract_z
 _atom_site_occupancy
  Nd  Nd0  1  0.596846  0.000000  0.000000  1
  Sm  Sm1  1  0.999710  0.598378  0.000000  1
  Sm  Sm2  1  0.401332  0.401622  0.000000  1
  Cd  Cd3  1  0.233881  0.000000  0.500000  1
  Cd  Cd4  1  0.000289  0.233907  0.500000  1
  Cd  Cd5  1  0.766383  0.766093  0.500000  1
  Pb  Pb6  1  0.331785  0.664493  0.500000  1
  Pb  Pb7  1  0.667293  0.335507  0.500000  1
  Au  Au8  1  0.002481  0.000000  0.000000  1
