# generated using pymatgen
data_Ho12Si12Tc3Ru
_symmetry_space_group_name_H-M   'P 1'
_cell_length_a   4.14907300
_cell_length_b   10.86024948
_cell_length_c   12.42035943
_cell_angle_alpha   89.99033494
_cell_angle_beta   90.00000000
_cell_angle_gamma   90.00000000
_symmetry_Int_Tables_number   1
_chemical_formula_structural   Ho12Si12Tc3Ru
_chemical_formula_sum   'Ho12 Si12 Tc3 Ru1'
_cell_volume   559.66098938
_cell_formula_units_Z   1
loop_
 _symmetry_equiv_pos_site_id
 _symmetry_equiv_pos_as_xyz
  1  'x, y, z'
loop_
 _atom_site_type_symbol
 _atom_site_label
 _atom_site_symmetry_multiplicity
 _atom_site_fract_x
 _atom_site_fract_y
 _atom_site_fract_z
 _atom_site_occupancy
  Ho  Ho0  1  0.250000  0.879629  0.020619  1
  Ho  Ho1  1  0.250000  0.621495  0.521766  1
  Ho  Ho2  1  0.750000  0.119949  0.979344  1
  Ho  Ho3  1  0.750000  0.379439  0.479792  1
  Ho  Ho4  1  0.250000  0.922780  0.605621  1
  Ho  Ho5  1  0.250000  0.577260  0.104388  1
  Ho  Ho6  1  0.750000  0.077354  0.394915  1
  Ho  Ho7  1  0.750000  0.422272  0.893754  1
  Ho  Ho8  1  0.250000  0.667300  0.800074  1
  Ho  Ho9  1  0.250000  0.833746  0.299792  1
  Ho  Ho10  1  0.750000  0.334629  0.200312  1
  Ho  Ho11  1  0.750000  0.162116  0.699781  1
  Si  Si12  1  0.250000  0.011359  0.821527  1
  Si  Si13  1  0.250000  0.489279  0.321257  1
  Si  Si14  1  0.750000  0.987933  0.178632  1
  Si  Si15  1  0.750000  0.512846  0.679074  1
  Si  Si16  1  0.250000  0.249135  0.843457  1
  Si  Si17  1  0.250000  0.249236  0.344572  1
  Si  Si18  1  0.750000  0.749261  0.155271  1
  Si  Si19  1  0.750000  0.751499  0.656908  1
  Si  Si20  1  0.250000  0.198947  0.541525  1
  Si  Si21  1  0.250000  0.300052  0.040916  1
  Si  Si22  1  0.750000  0.801625  0.459057  1
  Si  Si23  1  0.750000  0.700296  0.958054  1
  Tc  Tc24  1  0.250000  0.389125  0.680920  1
  Tc  Tc25  1  0.250000  0.111518  0.180219  1
  Tc  Tc26  1  0.750000  0.612699  0.319245  1
  Ru  Ru27  1  0.750000  0.887218  0.819208  1
