# generated using pymatgen
data_Dy5(TlBi)2
_symmetry_space_group_name_H-M   'P 1'
_cell_length_a   8.90127381
_cell_length_b   8.90127391
_cell_length_c   8.23770600
_cell_angle_alpha   90.00000000
_cell_angle_beta   90.00000000
_cell_angle_gamma   124.91560494
_symmetry_Int_Tables_number   1
_chemical_formula_structural   Dy5(TlBi)2
_chemical_formula_sum   'Dy10 Tl4 Bi4'
_cell_volume   535.20770486
_cell_formula_units_Z   2
loop_
 _symmetry_equiv_pos_site_id
 _symmetry_equiv_pos_as_xyz
  1  'x, y, z'
loop_
 _atom_site_type_symbol
 _atom_site_label
 _atom_site_symmetry_multiplicity
 _atom_site_fract_x
 _atom_site_fract_y
 _atom_site_fract_z
 _atom_site_occupancy
  Dy  Dy0  1  0.034348  0.300662  0.334031  1
  Dy  Dy1  1  0.965652  0.699338  0.665969  1
  Dy  Dy2  1  0.465652  0.199338  0.834031  1
  Dy  Dy3  1  0.800662  0.534348  0.165969  1
  Dy  Dy4  1  0.534348  0.800662  0.165969  1
  Dy  Dy5  1  0.199338  0.465652  0.834031  1
  Dy  Dy6  1  0.699338  0.965652  0.665969  1
  Dy  Dy7  1  0.300662  0.034348  0.334031  1
  Dy  Dy8  1  0.000000  0.000000  0.000000  1
  Dy  Dy9  1  0.500000  0.500000  0.500000  1
  Tl  Tl10  1  0.365938  0.365938  0.133611  1
  Tl  Tl11  1  0.634062  0.634062  0.866389  1
  Tl  Tl12  1  0.134062  0.134062  0.633611  1
  Tl  Tl13  1  0.865938  0.865938  0.366389  1
  Bi  Bi14  1  0.794363  0.205637  0.000000  1
  Bi  Bi15  1  0.205637  0.794363  0.000000  1
  Bi  Bi16  1  0.705637  0.294363  0.500000  1
  Bi  Bi17  1  0.294363  0.705637  0.500000  1
