# generated using pymatgen
data_YbPr6FeBr12
_symmetry_space_group_name_H-M   'P 1'
_cell_length_a   9.60804304
_cell_length_b   9.60804368
_cell_length_c   9.60804353
_cell_angle_alpha   107.17945091
_cell_angle_beta   107.17944976
_cell_angle_gamma   107.17944608
_symmetry_Int_Tables_number   1
_chemical_formula_structural   YbPr6FeBr12
_chemical_formula_sum   'Yb1 Pr6 Fe1 Br12'
_cell_volume   735.02431026
_cell_formula_units_Z   1
loop_
 _symmetry_equiv_pos_site_id
 _symmetry_equiv_pos_as_xyz
  1  'x, y, z'
loop_
 _atom_site_type_symbol
 _atom_site_label
 _atom_site_symmetry_multiplicity
 _atom_site_fract_x
 _atom_site_fract_y
 _atom_site_fract_z
 _atom_site_occupancy
  Yb  Yb0  1  0.500000  0.500000  0.500000  1
  Pr  Pr1  1  0.974356  0.896183  0.690109  1
  Pr  Pr2  1  0.025644  0.103817  0.309891  1
  Pr  Pr3  1  0.103817  0.309891  0.025644  1
  Pr  Pr4  1  0.309891  0.025644  0.103817  1
  Pr  Pr5  1  0.896183  0.690109  0.974356  1
  Pr  Pr6  1  0.690109  0.974356  0.896183  1
  Fe  Fe7  1  0.000000  0.000000  0.000000  1
  Br  Br8  1  0.542514  0.619858  0.829639  1
  Br  Br9  1  0.457486  0.380142  0.170361  1
  Br  Br10  1  0.315049  0.929556  0.779225  1
  Br  Br11  1  0.380142  0.170361  0.457486  1
  Br  Br12  1  0.929556  0.779225  0.315049  1
  Br  Br13  1  0.684951  0.070444  0.220775  1
  Br  Br14  1  0.070444  0.220775  0.684951  1
  Br  Br15  1  0.779225  0.315049  0.929556  1
  Br  Br16  1  0.220775  0.684951  0.070444  1
  Br  Br17  1  0.829639  0.542514  0.619858  1
  Br  Br18  1  0.170361  0.457486  0.380142  1
  Br  Br19  1  0.619858  0.829639  0.542514  1
