# generated using pymatgen
data_Yb3HfH10
_symmetry_space_group_name_H-M   'P 1'
_cell_length_a   6.28079975
_cell_length_b   6.28079999
_cell_length_c   6.28080000
_cell_angle_alpha   130.40367203
_cell_angle_beta   130.95228005
_cell_angle_gamma   72.32610616
_symmetry_Int_Tables_number   1
_chemical_formula_structural   Yb3HfH10
_chemical_formula_sum   'Yb3 Hf1 H10'
_cell_volume   139.29569570
_cell_formula_units_Z   1
loop_
 _symmetry_equiv_pos_site_id
 _symmetry_equiv_pos_as_xyz
  1  'x, y, z'
loop_
 _atom_site_type_symbol
 _atom_site_label
 _atom_site_symmetry_multiplicity
 _atom_site_fract_x
 _atom_site_fract_y
 _atom_site_fract_z
 _atom_site_occupancy
  Yb  Yb0  1  0.491108  0.991108  0.500000  1
  Yb  Yb1  1  0.736600  0.736600  0.000000  1
  Yb  Yb2  1  0.016766  0.516766  0.500000  1
  Hf  Hf3  1  0.272162  0.272162  0.000000  1
  H  H4  1  0.364169  0.342685  0.435614  1
  H  H5  1  0.907070  0.928554  0.564386  1
  H  H6  1  0.627107  0.141384  0.039878  1
  H  H7  1  0.101506  0.587229  0.960122  1
  H  H8  1  0.364169  0.928554  0.021484  1
  H  H9  1  0.907070  0.342685  0.978516  1
  H  H10  1  0.627107  0.587229  0.485723  1
  H  H11  1  0.101506  0.141384  0.514277  1
  H  H12  1  0.255995  0.755995  0.500000  1
  H  H13  1  0.477663  0.477663  0.000000  1
