# generated using pymatgen
data_Cs2Sb(TeO4)3
_symmetry_space_group_name_H-M   'P 1'
_cell_length_a   7.39190369
_cell_length_b   7.39190413
_cell_length_c   7.39147631
_cell_angle_alpha   60.21564606
_cell_angle_beta   60.21564609
_cell_angle_gamma   60.22238254
_symmetry_Int_Tables_number   1
_chemical_formula_structural   Cs2Sb(TeO4)3
_chemical_formula_sum   'Cs2 Sb1 Te3 O12'
_cell_volume   286.98953291
_cell_formula_units_Z   1
loop_
 _symmetry_equiv_pos_site_id
 _symmetry_equiv_pos_as_xyz
  1  'x, y, z'
loop_
 _atom_site_type_symbol
 _atom_site_label
 _atom_site_symmetry_multiplicity
 _atom_site_fract_x
 _atom_site_fract_y
 _atom_site_fract_z
 _atom_site_occupancy
  Cs  Cs0  1  0.120678  0.134340  0.625072  1
  Cs  Cs1  1  0.865660  0.879322  0.374928  1
  Sb  Sb2  1  0.497431  0.502569  0.000000  1
  Te  Te3  1  0.497672  0.002201  0.999965  1
  Te  Te4  1  0.997799  0.502328  0.000035  1
  Te  Te5  1  0.497694  0.502306  0.500000  1
  O  O6  1  0.817606  0.822015  0.929543  1
  O  O7  1  0.427835  0.430885  0.324711  1
  O  O8  1  0.427429  0.827212  0.928483  1
  O  O9  1  0.817431  0.431706  0.319750  1
  O  O10  1  0.822283  0.431633  0.929611  1
  O  O11  1  0.427796  0.821862  0.319792  1
  O  O12  1  0.177985  0.182394  0.070457  1
  O  O13  1  0.569115  0.572165  0.675289  1
  O  O14  1  0.568367  0.177717  0.070389  1
  O  O15  1  0.178138  0.572204  0.680208  1
  O  O16  1  0.172788  0.572571  0.071517  1
  O  O17  1  0.568294  0.182569  0.680250  1
