# generated using pymatgen
data_Er2TmGaSi2Ag3
_symmetry_space_group_name_H-M   'P 1'
_cell_length_a   7.06983210
_cell_length_b   7.07186051
_cell_length_c   4.15888300
_cell_angle_alpha   90.00000000
_cell_angle_beta   90.00000000
_cell_angle_gamma   120.00948771
_symmetry_Int_Tables_number   1
_chemical_formula_structural   Er2TmGaSi2Ag3
_chemical_formula_sum   'Er2 Tm1 Ga1 Si2 Ag3'
_cell_volume   180.05641192
_cell_formula_units_Z   1
loop_
 _symmetry_equiv_pos_site_id
 _symmetry_equiv_pos_as_xyz
  1  'x, y, z'
loop_
 _atom_site_type_symbol
 _atom_site_label
 _atom_site_symmetry_multiplicity
 _atom_site_fract_x
 _atom_site_fract_y
 _atom_site_fract_z
 _atom_site_occupancy
  Er  Er0  1  0.422106  0.422123  0.500000  1
  Er  Er1  1  0.577894  0.000017  0.500000  1
  Tm  Tm2  1  0.000000  0.577888  0.500000  1
  Ga  Ga3  1  0.000000  0.999903  0.500000  1
  Si  Si4  1  0.666790  0.333418  0.000000  1
  Si  Si5  1  0.333210  0.666629  0.000000  1
  Ag  Ag6  1  0.745582  0.745507  0.000000  1
  Ag  Ag7  1  0.254418  0.999925  0.000000  1
  Ag  Ag8  1  0.000000  0.254589  0.000000  1
