# generated using pymatgen
data_Dy2Mn3Fe4Ni5P7
_symmetry_space_group_name_H-M   'P 1'
_cell_length_a   9.05417149
_cell_length_b   9.08197409
_cell_length_c   3.65234700
_cell_angle_alpha   90.00000000
_cell_angle_beta   90.00000000
_cell_angle_gamma   119.70111298
_symmetry_Int_Tables_number   1
_chemical_formula_structural   Dy2Mn3Fe4Ni5P7
_chemical_formula_sum   'Dy2 Mn3 Fe4 Ni5 P7'
_cell_volume   260.87458787
_cell_formula_units_Z   1
loop_
 _symmetry_equiv_pos_site_id
 _symmetry_equiv_pos_as_xyz
  1  'x, y, z'
loop_
 _atom_site_type_symbol
 _atom_site_label
 _atom_site_symmetry_multiplicity
 _atom_site_fract_x
 _atom_site_fract_y
 _atom_site_fract_z
 _atom_site_occupancy
  Dy  Dy0  1  0.333504  0.666093  0.000000  1
  Dy  Dy1  1  0.000793  0.002029  0.500000  1
  Mn  Mn2  1  0.764437  0.548703  0.500000  1
  Mn  Mn3  1  0.450864  0.211858  0.500000  1
  Mn  Mn4  1  0.788963  0.234797  0.500000  1
  Fe  Fe5  1  0.040394  0.277509  0.000000  1
  Fe  Fe6  1  0.939785  0.488670  0.000000  1
  Fe  Fe7  1  0.509278  0.451762  0.000000  1
  Fe  Fe8  1  0.546593  0.058191  0.000000  1
  Ni  Ni9  1  0.728196  0.771846  0.000000  1
  Ni  Ni10  1  0.231772  0.958781  0.000000  1
  Ni  Ni11  1  0.103517  0.716683  0.500000  1
  Ni  Ni12  1  0.280195  0.384300  0.500000  1
  Ni  Ni13  1  0.616436  0.896532  0.500000  1
  P  P14  1  0.960904  0.740613  0.000000  1
  P  P15  1  0.258048  0.220763  0.000000  1
  P  P16  1  0.783444  0.047421  0.000000  1
  P  P17  1  0.063082  0.442556  0.500000  1
  P  P18  1  0.552409  0.618458  0.500000  1
  P  P19  1  0.381291  0.930314  0.500000  1
  P  P20  1  0.666096  0.332118  0.000000  1
