# generated using pymatgen
data_CsAlGeS4
_symmetry_space_group_name_H-M   'P 1'
_cell_length_a   16.51953300
_cell_length_b   6.99215522
_cell_length_c   7.92371995
_cell_angle_alpha   70.90371364
_cell_angle_beta   90.00000000
_cell_angle_gamma   90.00000000
_symmetry_Int_Tables_number   1
_chemical_formula_structural   CsAlGeS4
_chemical_formula_sum   'Cs4 Al4 Ge4 S16'
_cell_volume   864.88032937
_cell_formula_units_Z   4
loop_
 _symmetry_equiv_pos_site_id
 _symmetry_equiv_pos_as_xyz
  1  'x, y, z'
loop_
 _atom_site_type_symbol
 _atom_site_label
 _atom_site_symmetry_multiplicity
 _atom_site_fract_x
 _atom_site_fract_y
 _atom_site_fract_z
 _atom_site_occupancy
  Cs  Cs0  1  0.396325  0.955299  0.176867  1
  Cs  Cs1  1  0.896325  0.044701  0.823133  1
  Cs  Cs2  1  0.603833  0.529233  0.825717  1
  Cs  Cs3  1  0.103833  0.470767  0.174283  1
  Al  Al4  1  0.582947  0.174103  0.471897  1
  Al  Al5  1  0.082947  0.825897  0.528103  1
  Al  Al6  1  0.272191  0.592174  0.702136  1
  Al  Al7  1  0.772191  0.407826  0.297864  1
  Ge  Ge8  1  0.419625  0.324316  0.537109  1
  Ge  Ge9  1  0.919625  0.675684  0.462891  1
  Ge  Ge10  1  0.725248  0.912772  0.280748  1
  Ge  Ge11  1  0.225248  0.087228  0.719252  1
  S  S12  1  0.597643  0.901633  0.376140  1
  S  S13  1  0.097643  0.098367  0.623860  1
  S  S14  1  0.405831  0.591989  0.628477  1
  S  S15  1  0.905831  0.408011  0.371523  1
  S  S16  1  0.800703  0.789799  0.534253  1
  S  S17  1  0.300703  0.210201  0.465747  1
  S  S18  1  0.199505  0.716545  0.453538  1
  S  S19  1  0.699505  0.283455  0.546462  1
  S  S20  1  0.765483  0.220725  0.108779  1
  S  S21  1  0.265483  0.779275  0.891221  1
  S  S22  1  0.236857  0.279838  0.893993  1
  S  S23  1  0.736857  0.720162  0.106007  1
  S  S24  1  0.000549  0.909826  0.279225  1
  S  S25  1  0.500549  0.090174  0.720775  1
  S  S26  1  0.993260  0.601825  0.714422  1
  S  S27  1  0.493260  0.398175  0.285578  1
