# generated using pymatgen
data_Nb12Zn5Ga3N4
_symmetry_space_group_name_H-M   'P 1'
_cell_length_a   7.04507350
_cell_length_b   7.04507429
_cell_length_c   7.04507372
_cell_angle_alpha   89.94722268
_cell_angle_beta   90.05277106
_cell_angle_gamma   90.05276757
_symmetry_Int_Tables_number   1
_chemical_formula_structural   Nb12Zn5Ga3N4
_chemical_formula_sum   'Nb12 Zn5 Ga3 N4'
_cell_volume   349.66816523
_cell_formula_units_Z   1
loop_
 _symmetry_equiv_pos_site_id
 _symmetry_equiv_pos_as_xyz
  1  'x, y, z'
loop_
 _atom_site_type_symbol
 _atom_site_label
 _atom_site_symmetry_multiplicity
 _atom_site_fract_x
 _atom_site_fract_y
 _atom_site_fract_z
 _atom_site_occupancy
  Nb  Nb0  1  0.793386  0.956584  0.374176  1
  Nb  Nb1  1  0.706476  0.043747  0.874444  1
  Nb  Nb2  1  0.206276  0.456277  0.126295  1
  Nb  Nb3  1  0.293145  0.544033  0.624316  1
  Nb  Nb4  1  0.956253  0.374444  0.793524  1
  Nb  Nb5  1  0.043416  0.874176  0.706614  1
  Nb  Nb6  1  0.455967  0.124316  0.206855  1
  Nb  Nb7  1  0.543723  0.626295  0.293724  1
  Nb  Nb8  1  0.373705  0.793724  0.956277  1
  Nb  Nb9  1  0.875684  0.706855  0.044033  1
  Nb  Nb10  1  0.125824  0.206614  0.456584  1
  Nb  Nb11  1  0.625556  0.293524  0.543747  1
  Zn  Zn12  1  0.180098  0.819902  0.319902  1
  Zn  Zn13  1  0.322486  0.182375  0.820869  1
  Zn  Zn14  1  0.817625  0.320869  0.177514  1
  Zn  Zn15  1  0.679131  0.677514  0.682375  1
  Zn  Zn16  1  0.570650  0.429350  0.929350  1
  Ga  Ga17  1  0.428183  0.927973  0.572531  1
  Ga  Ga18  1  0.927469  0.571817  0.427973  1
  Ga  Ga19  1  0.072027  0.072531  0.071817  1
  N  N20  1  0.875900  0.124100  0.624100  1
  N  N21  1  0.624380  0.874697  0.122662  1
  N  N22  1  0.125303  0.622662  0.875620  1
  N  N23  1  0.377338  0.375620  0.374697  1
