# generated using pymatgen
data_TaB3Mo
_symmetry_space_group_name_H-M   'P 1'
_cell_length_a   9.75688716
_cell_length_b   9.75688798
_cell_length_c   3.10238300
_cell_angle_alpha   90.00000000
_cell_angle_beta   90.00000000
_cell_angle_gamma   160.71277077
_symmetry_Int_Tables_number   1
_chemical_formula_structural   TaB3Mo
_chemical_formula_sum   'Ta2 B6 Mo2'
_cell_volume   97.55103262
_cell_formula_units_Z   2
loop_
 _symmetry_equiv_pos_site_id
 _symmetry_equiv_pos_as_xyz
  1  'x, y, z'
loop_
 _atom_site_type_symbol
 _atom_site_label
 _atom_site_symmetry_multiplicity
 _atom_site_fract_x
 _atom_site_fract_y
 _atom_site_fract_z
 _atom_site_occupancy
  Ta  Ta0  1  0.928967  0.071030  0.250001  1
  Ta  Ta1  1  0.071030  0.928967  0.749999  1
  B  B2  1  0.617776  0.382221  0.250001  1
  B  B3  1  0.523275  0.476722  0.250001  1
  B  B4  1  0.331206  0.668791  0.250001  1
  B  B5  1  0.668791  0.331206  0.749999  1
  B  B6  1  0.476722  0.523275  0.749999  1
  B  B7  1  0.382221  0.617776  0.749999  1
  Mo  Mo8  1  0.201349  0.798648  0.250001  1
  Mo  Mo9  1  0.798648  0.201349  0.749999  1
