# generated using pymatgen
data_CsYSiS4
_symmetry_space_group_name_H-M   'P 1'
_cell_length_a   6.76656300
_cell_length_b   6.45132796
_cell_length_c   18.98565337
_cell_angle_alpha   71.82952682
_cell_angle_beta   90.00000000
_cell_angle_gamma   90.00000000
_symmetry_Int_Tables_number   1
_chemical_formula_structural   CsYSiS4
_chemical_formula_sum   'Cs4 Y4 Si4 S16'
_cell_volume   787.45754164
_cell_formula_units_Z   4
loop_
 _symmetry_equiv_pos_site_id
 _symmetry_equiv_pos_as_xyz
  1  'x, y, z'
loop_
 _atom_site_type_symbol
 _atom_site_label
 _atom_site_symmetry_multiplicity
 _atom_site_fract_x
 _atom_site_fract_y
 _atom_site_fract_z
 _atom_site_occupancy
  Cs  Cs0  1  0.248985  0.718907  0.033803  1
  Cs  Cs1  1  0.251015  0.718907  0.533803  1
  Cs  Cs2  1  0.748985  0.281093  0.466197  1
  Cs  Cs3  1  0.751015  0.281093  0.966197  1
  Y  Y4  1  0.777435  0.228415  0.228573  1
  Y  Y5  1  0.222565  0.771585  0.771427  1
  Y  Y6  1  0.722565  0.228415  0.728573  1
  Y  Y7  1  0.277435  0.771585  0.271427  1
  Si  Si8  1  0.262010  0.217276  0.830803  1
  Si  Si9  1  0.237990  0.217276  0.330803  1
  Si  Si10  1  0.762010  0.782724  0.669197  1
  Si  Si11  1  0.737990  0.782724  0.169197  1
  S  S12  1  0.499584  0.978125  0.658743  1
  S  S13  1  0.177213  0.421822  0.221039  1
  S  S14  1  0.500416  0.021875  0.341257  1
  S  S15  1  0.999584  0.021875  0.841257  1
  S  S16  1  0.322787  0.421822  0.721039  1
  S  S17  1  0.255007  0.414459  0.901369  1
  S  S18  1  0.744993  0.585541  0.098631  1
  S  S19  1  0.822787  0.578178  0.778961  1
  S  S20  1  0.755007  0.585541  0.598631  1
  S  S21  1  0.244993  0.414459  0.401369  1
  S  S22  1  0.490574  0.976123  0.851972  1
  S  S23  1  0.990574  0.023877  0.648028  1
  S  S24  1  0.509426  0.023877  0.148028  1
  S  S25  1  0.000416  0.978125  0.158743  1
  S  S26  1  0.009426  0.976123  0.351972  1
  S  S27  1  0.677213  0.578178  0.278961  1
