# generated using pymatgen
data_GdInTe2(ClO3)2
_symmetry_space_group_name_H-M   'P 1'
_cell_length_a   7.10915262
_cell_length_b   7.52452741
_cell_length_c   8.50658142
_cell_angle_alpha   75.80057843
_cell_angle_beta   90.03235656
_cell_angle_gamma   91.96954094
_symmetry_Int_Tables_number   1
_chemical_formula_structural   GdInTe2(ClO3)2
_chemical_formula_sum   'Gd2 In2 Te4 Cl4 O12'
_cell_volume   440.86499664
_cell_formula_units_Z   2
loop_
 _symmetry_equiv_pos_site_id
 _symmetry_equiv_pos_as_xyz
  1  'x, y, z'
loop_
 _atom_site_type_symbol
 _atom_site_label
 _atom_site_symmetry_multiplicity
 _atom_site_fract_x
 _atom_site_fract_y
 _atom_site_fract_z
 _atom_site_occupancy
  Gd  Gd0  1  0.748431  0.784815  0.373706  1
  Gd  Gd1  1  0.251569  0.215185  0.626294  1
  In  In2  1  0.249203  0.701262  0.675118  1
  In  In3  1  0.750797  0.298738  0.324882  1
  Te  Te4  1  0.717797  0.948317  0.716325  1
  Te  Te5  1  0.218551  0.570865  0.282948  1
  Te  Te6  1  0.781449  0.429135  0.717052  1
  Te  Te7  1  0.282203  0.051683  0.283675  1
  Cl  Cl8  1  0.701775  0.596755  0.112751  1
  Cl  Cl9  1  0.298225  0.403245  0.887249  1
  Cl  Cl10  1  0.804235  0.118605  0.114704  1
  Cl  Cl11  1  0.195765  0.881395  0.885296  1
  O  O12  1  0.792931  0.029816  0.491065  1
  O  O13  1  0.443020  0.236214  0.345814  1
  O  O14  1  0.049515  0.756606  0.291458  1
  O  O15  1  0.549368  0.137983  0.713758  1
  O  O16  1  0.941638  0.649221  0.658826  1
  O  O17  1  0.058362  0.350779  0.341174  1
  O  O18  1  0.450632  0.862017  0.286242  1
  O  O19  1  0.556980  0.763786  0.654186  1
  O  O20  1  0.707819  0.474649  0.491847  1
  O  O21  1  0.207069  0.970184  0.508935  1
  O  O22  1  0.292181  0.525351  0.508153  1
  O  O23  1  0.950485  0.243394  0.708542  1
