# generated using pymatgen
data_Rb4LaUTe6
_symmetry_space_group_name_H-M   'P 1'
_cell_length_a   8.34845418
_cell_length_b   8.34845406
_cell_length_c   8.98212037
_cell_angle_alpha   80.96944215
_cell_angle_beta   80.96943933
_cell_angle_gamma   120.00573055
_symmetry_Int_Tables_number   1
_chemical_formula_structural   Rb4LaUTe6
_chemical_formula_sum   'Rb4 La1 U1 Te6'
_cell_volume   514.71153964
_cell_formula_units_Z   1
loop_
 _symmetry_equiv_pos_site_id
 _symmetry_equiv_pos_as_xyz
  1  'x, y, z'
loop_
 _atom_site_type_symbol
 _atom_site_label
 _atom_site_symmetry_multiplicity
 _atom_site_fract_x
 _atom_site_fract_y
 _atom_site_fract_z
 _atom_site_occupancy
  Rb  Rb0  1  0.500002  0.499998  0.000000  1
  Rb  Rb1  1  0.655758  0.344242  0.500000  1
  Rb  Rb2  1  0.344066  0.655934  0.500000  1
  Rb  Rb3  1  0.000263  0.999737  0.500000  1
  La  La4  1  0.832359  0.167641  0.000000  1
  U  U5  1  0.167647  0.832353  0.000000  1
  Te  Te6  1  0.817501  0.797527  0.202513  1
  Te  Te7  1  0.202473  0.182499  0.797487  1
  Te  Te8  1  0.410191  0.043225  0.205034  1
  Te  Te9  1  0.549003  0.936038  0.794600  1
  Te  Te10  1  0.956775  0.589809  0.794966  1
  Te  Te11  1  0.063962  0.450997  0.205400  1
