# generated using pymatgen
data_Tb4Dy4In3Fe
_symmetry_space_group_name_H-M   'P 1'
_cell_length_a   10.38041001
_cell_length_b   10.38084277
_cell_length_c   7.06458300
_cell_angle_alpha   89.99952828
_cell_angle_beta   89.99867730
_cell_angle_gamma   119.99917257
_symmetry_Int_Tables_number   1
_chemical_formula_structural   Tb4Dy4In3Fe
_chemical_formula_sum   'Tb8 Dy8 In6 Fe2'
_cell_volume   659.27697024
_cell_formula_units_Z   2
loop_
 _symmetry_equiv_pos_site_id
 _symmetry_equiv_pos_as_xyz
  1  'x, y, z'
loop_
 _atom_site_type_symbol
 _atom_site_label
 _atom_site_symmetry_multiplicity
 _atom_site_fract_x
 _atom_site_fract_y
 _atom_site_fract_z
 _atom_site_occupancy
  Tb  Tb0  1  0.536715  0.073415  0.787708  1
  Tb  Tb1  1  0.926578  0.463285  0.787703  1
  Tb  Tb2  1  0.536725  0.463280  0.787710  1
  Tb  Tb3  1  0.463281  0.926569  0.287667  1
  Tb  Tb4  1  0.073448  0.536727  0.287666  1
  Tb  Tb5  1  0.463271  0.536732  0.287667  1
  Tb  Tb6  1  0.999979  0.000023  0.775373  1
  Tb  Tb7  1  0.000020  0.999980  0.275378  1
  Dy  Dy8  1  0.822105  0.644232  0.492568  1
  Dy  Dy9  1  0.355777  0.177899  0.492572  1
  Dy  Dy10  1  0.822111  0.177896  0.492546  1
  Dy  Dy11  1  0.177895  0.355765  0.992557  1
  Dy  Dy12  1  0.644236  0.822105  0.992554  1
  Dy  Dy13  1  0.177900  0.822105  0.992513  1
  Dy  Dy14  1  0.666651  0.333343  0.177823  1
  Dy  Dy15  1  0.333346  0.666663  0.677857  1
  In  In16  1  0.836764  0.673516  0.036374  1
  In  In17  1  0.326419  0.163206  0.036351  1
  In  In18  1  0.836756  0.163240  0.036401  1
  In  In19  1  0.163243  0.326444  0.536297  1
  In  In20  1  0.673570  0.836777  0.536260  1
  In  In21  1  0.163200  0.836795  0.536283  1
  Fe  Fe22  1  0.666675  0.333329  0.560171  1
  Fe  Fe23  1  0.333335  0.666675  0.060076  1
