# generated using pymatgen
data_Ba4Si8Pt7Au
_symmetry_space_group_name_H-M   'P 1'
_cell_length_a   7.05172612
_cell_length_b   7.81804429
_cell_length_c   8.09791429
_cell_angle_alpha   93.50892057
_cell_angle_beta   90.05139905
_cell_angle_gamma   89.90554124
_symmetry_Int_Tables_number   1
_chemical_formula_structural   Ba4Si8Pt7Au
_chemical_formula_sum   'Ba4 Si8 Pt7 Au1'
_cell_volume   445.60603756
_cell_formula_units_Z   1
loop_
 _symmetry_equiv_pos_site_id
 _symmetry_equiv_pos_as_xyz
  1  'x, y, z'
loop_
 _atom_site_type_symbol
 _atom_site_label
 _atom_site_symmetry_multiplicity
 _atom_site_fract_x
 _atom_site_fract_y
 _atom_site_fract_z
 _atom_site_occupancy
  Ba  Ba0  1  0.364068  0.999681  0.248087  1
  Ba  Ba1  1  0.864055  0.498628  0.749184  1
  Ba  Ba2  1  0.136335  0.499904  0.245929  1
  Ba  Ba3  1  0.634274  0.999162  0.748242  1
  Si  Si4  1  0.407937  0.359767  0.929365  1
  Si  Si5  1  0.103436  0.136591  0.578883  1
  Si  Si6  1  0.578127  0.368016  0.422857  1
  Si  Si7  1  0.911897  0.848834  0.424553  1
  Si  Si8  1  0.906521  0.138063  0.069016  1
  Si  Si9  1  0.592307  0.641379  0.071875  1
  Si  Si10  1  0.093249  0.859559  0.927018  1
  Si  Si11  1  0.407217  0.642738  0.572787  1
  Pt  Pt12  1  0.350679  0.341631  0.631712  1
  Pt  Pt13  1  0.646097  0.663938  0.370082  1
  Pt  Pt14  1  0.148128  0.836320  0.628131  1
  Pt  Pt15  1  0.152160  0.162209  0.874855  1
  Pt  Pt16  1  0.649624  0.336305  0.127714  1
  Pt  Pt17  1  0.851982  0.837058  0.127286  1
  Pt  Pt18  1  0.350031  0.660392  0.871796  1
  Au  Au19  1  0.851871  0.169824  0.380629  1
