# generated using pymatgen
data_DyY2Er17Pt16
_symmetry_space_group_name_H-M   'P 1'
_cell_length_a   7.43727585
_cell_length_b   7.51548470
_cell_length_c   14.69496791
_cell_angle_alpha   90.03856364
_cell_angle_beta   89.94057489
_cell_angle_gamma   89.97326138
_symmetry_Int_Tables_number   1
_chemical_formula_structural   DyY2Er17Pt16
_chemical_formula_sum   'Dy1 Y2 Er17 Pt16'
_cell_volume   821.37058784
_cell_formula_units_Z   1
loop_
 _symmetry_equiv_pos_site_id
 _symmetry_equiv_pos_as_xyz
  1  'x, y, z'
loop_
 _atom_site_type_symbol
 _atom_site_label
 _atom_site_symmetry_multiplicity
 _atom_site_fract_x
 _atom_site_fract_y
 _atom_site_fract_z
 _atom_site_occupancy
  Dy  Dy0  1  0.499837  0.321735  0.906996  1
  Y  Y1  1  0.499927  0.678211  0.407585  1
  Y  Y2  1  0.000181  0.821833  0.092526  1
  Er  Er3  1  0.682155  0.989274  0.249968  1
  Er  Er4  1  0.182062  0.510846  0.250051  1
  Er  Er5  1  0.817551  0.489335  0.749618  1
  Er  Er6  1  0.318060  0.010527  0.749938  1
  Er  Er7  1  0.655798  0.832843  0.622225  1
  Er  Er8  1  0.155018  0.667413  0.877252  1
  Er  Er9  1  0.845455  0.332230  0.377849  1
  Er  Er10  1  0.344928  0.167651  0.122201  1
  Er  Er11  1  0.345365  0.167473  0.378210  1
  Er  Er12  1  0.845157  0.332317  0.121840  1
  Er  Er13  1  0.154939  0.667904  0.621967  1
  Er  Er14  1  0.655198  0.832278  0.877891  1
  Er  Er15  1  0.999312  0.821233  0.406794  1
  Er  Er16  1  0.498550  0.679650  0.093308  1
  Er  Er17  1  0.501015  0.319827  0.593549  1
  Er  Er18  1  0.001355  0.180128  0.906599  1
  Er  Er19  1  0.000409  0.179253  0.592941  1
  Pt  Pt20  1  0.819063  0.643234  0.251137  1
  Pt  Pt21  1  0.319285  0.856605  0.249593  1
  Pt  Pt22  1  0.681390  0.143294  0.748913  1
  Pt  Pt23  1  0.179404  0.355612  0.749432  1
  Pt  Pt24  1  0.548325  0.386143  0.249624  1
  Pt  Pt25  1  0.048357  0.113873  0.250578  1
  Pt  Pt26  1  0.952149  0.887183  0.749912  1
  Pt  Pt27  1  0.451307  0.613427  0.749300  1
  Pt  Pt28  1  0.815732  0.530449  0.542768  1
  Pt  Pt29  1  0.314841  0.967229  0.958021  1
  Pt  Pt30  1  0.685655  0.033840  0.459168  1
  Pt  Pt31  1  0.185366  0.467090  0.041359  1
  Pt  Pt32  1  0.182279  0.466188  0.458900  1
  Pt  Pt33  1  0.682249  0.032587  0.041699  1
  Pt  Pt34  1  0.315073  0.969513  0.542748  1
  Pt  Pt35  1  0.817250  0.531768  0.957538  1
