# generated using pymatgen
data_Tb3SmHo(In2Pd)2
_symmetry_space_group_name_H-M   'P 1'
_cell_length_a   3.64246200
_cell_length_b   8.20352527
_cell_length_c   18.41047161
_cell_angle_alpha   89.97059402
_cell_angle_beta   90.00000000
_cell_angle_gamma   90.00000000
_symmetry_Int_Tables_number   1
_chemical_formula_structural   Tb3SmHo(In2Pd)2
_chemical_formula_sum   'Tb6 Sm2 Ho2 In8 Pd4'
_cell_volume   550.12376466
_cell_formula_units_Z   2
loop_
 _symmetry_equiv_pos_site_id
 _symmetry_equiv_pos_as_xyz
  1  'x, y, z'
loop_
 _atom_site_type_symbol
 _atom_site_label
 _atom_site_symmetry_multiplicity
 _atom_site_fract_x
 _atom_site_fract_y
 _atom_site_fract_z
 _atom_site_occupancy
  Tb  Tb0  1  0.000000  0.739611  0.280739  1
  Tb  Tb1  1  0.000000  0.260389  0.719261  1
  Tb  Tb2  1  0.000000  0.760604  0.780576  1
  Tb  Tb3  1  0.000000  0.239396  0.219424  1
  Tb  Tb4  1  0.000000  0.617968  0.083345  1
  Tb  Tb5  1  0.000000  0.382032  0.916655  1
  Sm  Sm6  1  0.000000  0.500000  0.500000  1
  Sm  Sm7  1  0.000000  0.000000  0.000000  1
  Ho  Ho8  1  0.000000  0.882370  0.583721  1
  Ho  Ho9  1  0.000000  0.117630  0.416279  1
  In  In10  1  0.500000  0.706074  0.931306  1
  In  In11  1  0.500000  0.293926  0.068694  1
  In  In12  1  0.500000  0.795398  0.431745  1
  In  In13  1  0.500000  0.204602  0.568255  1
  In  In14  1  0.500000  0.582179  0.651222  1
  In  In15  1  0.500000  0.417821  0.348778  1
  In  In16  1  0.500000  0.919083  0.151520  1
  In  In17  1  0.500000  0.080917  0.848480  1
  Pd  Pd18  1  0.500000  0.523322  0.196035  1
  Pd  Pd19  1  0.500000  0.476678  0.803965  1
  Pd  Pd20  1  0.500000  0.976250  0.695409  1
  Pd  Pd21  1  0.500000  0.023750  0.304591  1
