# generated using pymatgen
data_Dy11Y2Lu7Bi12
_symmetry_space_group_name_H-M   'P 1'
_cell_length_a   8.19442174
_cell_length_b   9.47276081
_cell_length_c   12.00453744
_cell_angle_alpha   89.98294851
_cell_angle_beta   90.07304976
_cell_angle_gamma   89.98449829
_symmetry_Int_Tables_number   1
_chemical_formula_structural   Dy11Y2Lu7Bi12
_chemical_formula_sum   'Dy11 Y2 Lu7 Bi12'
_cell_volume   931.83694592
_cell_formula_units_Z   1
loop_
 _symmetry_equiv_pos_site_id
 _symmetry_equiv_pos_as_xyz
  1  'x, y, z'
loop_
 _atom_site_type_symbol
 _atom_site_label
 _atom_site_symmetry_multiplicity
 _atom_site_fract_x
 _atom_site_fract_y
 _atom_site_fract_z
 _atom_site_occupancy
  Dy  Dy0  1  0.186118  0.750374  0.719132  1
  Dy  Dy1  1  0.686453  0.750738  0.781579  1
  Dy  Dy2  1  0.813970  0.249695  0.281273  1
  Dy  Dy3  1  0.313715  0.250346  0.218783  1
  Dy  Dy4  1  0.192104  0.564253  0.440741  1
  Dy  Dy5  1  0.693422  0.562411  0.059302  1
  Dy  Dy6  1  0.193553  0.936991  0.440095  1
  Dy  Dy7  1  0.306480  0.062097  0.940755  1
  Dy  Dy8  1  0.807069  0.437522  0.559360  1
  Dy  Dy9  1  0.356244  0.751877  0.216011  1
  Dy  Dy10  1  0.853311  0.750743  0.283191  1
  Y  Y11  1  0.645529  0.250648  0.783852  1
  Y  Y12  1  0.146221  0.250534  0.716286  1
  Lu  Lu13  1  0.024188  0.750300  0.989220  1
  Lu  Lu14  1  0.525243  0.750452  0.510910  1
  Lu  Lu15  1  0.975679  0.250449  0.010739  1
  Lu  Lu16  1  0.476048  0.250061  0.489082  1
  Lu  Lu17  1  0.307269  0.431994  0.940961  1
  Lu  Lu18  1  0.806357  0.067335  0.559565  1
  Lu  Lu19  1  0.692634  0.932038  0.058768  1
  Bi  Bi20  1  0.434460  0.003630  0.671891  1
  Bi  Bi21  1  0.933990  0.496829  0.828365  1
  Bi  Bi22  1  0.566273  0.503848  0.327831  1
  Bi  Bi23  1  0.065625  0.996771  0.171690  1
  Bi  Bi24  1  0.566940  0.996795  0.328415  1
  Bi  Bi25  1  0.066637  0.504382  0.171376  1
  Bi  Bi26  1  0.433036  0.496829  0.671666  1
  Bi  Bi27  1  0.933197  0.004225  0.828584  1
  Bi  Bi28  1  0.405105  0.745669  0.957118  1
  Bi  Bi29  1  0.905485  0.754571  0.542609  1
  Bi  Bi30  1  0.594614  0.246019  0.042573  1
  Bi  Bi31  1  0.093034  0.249574  0.458277  1
