# generated using pymatgen
data_Nd4SeS5
_symmetry_space_group_name_H-M   'P 1'
_cell_length_a   4.06636200
_cell_length_b   7.59973524
_cell_length_c   15.82746270
_cell_angle_alpha   90.08814063
_cell_angle_beta   90.00000000
_cell_angle_gamma   90.00000000
_symmetry_Int_Tables_number   1
_chemical_formula_structural   Nd4SeS5
_chemical_formula_sum   'Nd8 Se2 S10'
_cell_volume   489.11984709
_cell_formula_units_Z   2
loop_
 _symmetry_equiv_pos_site_id
 _symmetry_equiv_pos_as_xyz
  1  'x, y, z'
loop_
 _atom_site_type_symbol
 _atom_site_label
 _atom_site_symmetry_multiplicity
 _atom_site_fract_x
 _atom_site_fract_y
 _atom_site_fract_z
 _atom_site_occupancy
  Nd  Nd0  1  0.750000  0.248263  0.543288  1
  Nd  Nd1  1  0.250000  0.751737  0.456712  1
  Nd  Nd2  1  0.750000  0.735071  0.955444  1
  Nd  Nd3  1  0.250000  0.264929  0.044556  1
  Nd  Nd4  1  0.250000  0.145785  0.798056  1
  Nd  Nd5  1  0.750000  0.854215  0.201944  1
  Nd  Nd6  1  0.250000  0.641471  0.707978  1
  Nd  Nd7  1  0.750000  0.358529  0.292022  1
  Se  Se8  1  0.250000  0.007152  0.611281  1
  Se  Se9  1  0.750000  0.992848  0.388719  1
  S  S10  1  0.250000  0.510037  0.892056  1
  S  S11  1  0.750000  0.489963  0.107944  1
  S  S12  1  0.750000  0.355179  0.719772  1
  S  S13  1  0.250000  0.644821  0.280228  1
  S  S14  1  0.750000  0.853109  0.783205  1
  S  S15  1  0.250000  0.146891  0.216795  1
  S  S16  1  0.250000  0.374504  0.430742  1
  S  S17  1  0.750000  0.625496  0.569258  1
  S  S18  1  0.250000  0.874317  0.066780  1
  S  S19  1  0.750000  0.125683  0.933220  1
