# generated using pymatgen
data_Er5Tm(Si3Ru)8
_symmetry_space_group_name_H-M   'P 1'
_cell_length_a   10.10346317
_cell_length_b   10.10346254
_cell_length_c   8.11643303
_cell_angle_alpha   89.99497798
_cell_angle_beta   89.99498928
_cell_angle_gamma   132.64834346
_symmetry_Int_Tables_number   1
_chemical_formula_structural   Er5Tm(Si3Ru)8
_chemical_formula_sum   'Er5 Tm1 Si24 Ru8'
_cell_volume   609.40155083
_cell_formula_units_Z   1
loop_
 _symmetry_equiv_pos_site_id
 _symmetry_equiv_pos_as_xyz
  1  'x, y, z'
loop_
 _atom_site_type_symbol
 _atom_site_label
 _atom_site_symmetry_multiplicity
 _atom_site_fract_x
 _atom_site_fract_y
 _atom_site_fract_z
 _atom_site_occupancy
  Er  Er0  1  0.497665  0.997721  0.250066  1
  Er  Er1  1  0.002279  0.502335  0.749934  1
  Er  Er2  1  0.502335  0.002279  0.749934  1
  Er  Er3  1  0.997721  0.497665  0.250066  1
  Er  Er4  1  0.000000  0.000000  0.000000  1
  Tm  Tm5  1  0.500000  0.500000  0.500000  1
  Si  Si6  1  0.388509  0.154750  0.005021  1
  Si  Si7  1  0.654405  0.887293  0.495142  1
  Si  Si8  1  0.112707  0.345595  0.504858  1
  Si  Si9  1  0.845250  0.611491  0.994979  1
  Si  Si10  1  0.611491  0.845250  0.994979  1
  Si  Si11  1  0.345595  0.112707  0.504858  1
  Si  Si12  1  0.887293  0.654405  0.495142  1
  Si  Si13  1  0.154750  0.388509  0.005021  1
  Si  Si14  1  0.612238  0.378604  0.229043  1
  Si  Si15  1  0.878139  0.112829  0.271815  1
  Si  Si16  1  0.887171  0.121861  0.728185  1
  Si  Si17  1  0.621396  0.387762  0.770957  1
  Si  Si18  1  0.387762  0.621396  0.770957  1
  Si  Si19  1  0.121861  0.887171  0.728185  1
  Si  Si20  1  0.704843  0.295157  0.000000  1
  Si  Si21  1  0.795020  0.204980  0.500000  1
  Si  Si22  1  0.295157  0.704843  0.000000  1
  Si  Si23  1  0.204980  0.795020  0.500000  1
  Si  Si24  1  0.168582  0.168582  0.333742  1
  Si  Si25  1  0.667054  0.667054  0.167764  1
  Si  Si26  1  0.332946  0.332946  0.832236  1
  Si  Si27  1  0.831418  0.831418  0.666258  1
  Si  Si28  1  0.378604  0.612238  0.229043  1
  Si  Si29  1  0.112829  0.878139  0.271815  1
  Ru  Ru30  1  0.627325  0.627325  0.873282  1
  Ru  Ru31  1  0.125642  0.125642  0.628382  1
  Ru  Ru32  1  0.874358  0.874358  0.371618  1
  Ru  Ru33  1  0.372675  0.372675  0.126718  1
  Ru  Ru34  1  0.330372  0.669628  0.500000  1
  Ru  Ru35  1  0.169680  0.830320  0.000000  1
  Ru  Ru36  1  0.669628  0.330372  0.500000  1
  Ru  Ru37  1  0.830320  0.169680  0.000000  1
