# generated using pymatgen
data_TbNd11(SiBr3)4
_symmetry_space_group_name_H-M   'P 1'
_cell_length_a   10.40860520
_cell_length_b   10.42665831
_cell_length_c   10.43019664
_cell_angle_alpha   109.43628632
_cell_angle_beta   109.36604957
_cell_angle_gamma   109.56275450
_symmetry_Int_Tables_number   1
_chemical_formula_structural   TbNd11(SiBr3)4
_chemical_formula_sum   'Tb1 Nd11 Si4 Br12'
_cell_volume   871.90136264
_cell_formula_units_Z   1
loop_
 _symmetry_equiv_pos_site_id
 _symmetry_equiv_pos_as_xyz
  1  'x, y, z'
loop_
 _atom_site_type_symbol
 _atom_site_label
 _atom_site_symmetry_multiplicity
 _atom_site_fract_x
 _atom_site_fract_y
 _atom_site_fract_z
 _atom_site_occupancy
  Tb  Tb0  1  0.485202  0.235201  0.470403  1
  Nd  Nd1  1  0.262073  0.012079  0.024154  1
  Nd  Nd2  1  0.024255  0.261833  0.012878  1
  Nd  Nd3  1  0.488623  0.751045  0.012878  1
  Nd  Nd4  1  0.749745  0.238073  0.262168  1
  Nd  Nd5  1  0.012424  0.024098  0.262170  1
  Nd  Nd6  1  0.011714  0.488515  0.750354  1
  Nd  Nd7  1  0.238641  0.261839  0.750354  1
  Nd  Nd8  1  0.261763  0.750036  0.238022  1
  Nd  Nd9  1  0.238683  0.476334  0.489057  1
  Nd  Nd10  1  0.476260  0.487986  0.238022  1
  Nd  Nd11  1  0.750373  0.012722  0.489056  1
  Si  Si12  1  0.000167  0.250167  0.500335  1
  Si  Si13  1  0.250128  0.500128  0.000255  1
  Si  Si14  1  0.500097  0.002051  0.252482  1
  Si  Si15  1  0.252387  0.250432  0.252484  1
  Br  Br16  1  0.755008  0.745685  0.250585  1
  Br  Br17  1  0.504729  0.249817  0.995893  1
  Br  Br18  1  0.258884  0.003861  0.505739  1
  Br  Br19  1  0.508332  0.497670  0.749013  1
  Br  Br20  1  0.995943  0.991053  0.745999  1
  Br  Br21  1  0.745653  0.995653  0.991305  1
  Br  Br22  1  0.504582  0.754582  0.509165  1
  Br  Br23  1  0.746855  0.501878  0.505740  1
  Br  Br24  1  0.995577  0.504899  0.250584  1
  Br  Br25  1  0.991164  0.746075  0.995893  1
  Br  Br26  1  0.250056  0.754945  0.745999  1
  Br  Br27  1  0.740683  0.251343  0.749013  1
