# generated using pymatgen
data_Dy8Nb12Si15Sn
_symmetry_space_group_name_H-M   'P 1'
_cell_length_a   6.91805859
_cell_length_b   7.10846380
_cell_length_c   13.52835562
_cell_angle_alpha   90.15719155
_cell_angle_beta   89.77203064
_cell_angle_gamma   90.04293527
_symmetry_Int_Tables_number   1
_chemical_formula_structural   Dy8Nb12Si15Sn
_chemical_formula_sum   'Dy8 Nb12 Si15 Sn1'
_cell_volume   665.27286912
_cell_formula_units_Z   1
loop_
 _symmetry_equiv_pos_site_id
 _symmetry_equiv_pos_as_xyz
  1  'x, y, z'
loop_
 _atom_site_type_symbol
 _atom_site_label
 _atom_site_symmetry_multiplicity
 _atom_site_fract_x
 _atom_site_fract_y
 _atom_site_fract_z
 _atom_site_occupancy
  Dy  Dy0  1  0.503431  0.328828  0.095940  1
  Dy  Dy1  1  0.998741  0.166548  0.400640  1
  Dy  Dy2  1  0.509112  0.679039  0.599148  1
  Dy  Dy3  1  0.996188  0.828397  0.905481  1
  Dy  Dy4  1  0.496076  0.671361  0.905032  1
  Dy  Dy5  1  0.994992  0.835593  0.597331  1
  Dy  Dy6  1  0.507444  0.324390  0.400097  1
  Dy  Dy7  1  0.003669  0.172446  0.095395  1
  Nb  Nb8  1  0.664018  0.008338  0.751140  1
  Nb  Nb9  1  0.164002  0.489843  0.756192  1
  Nb  Nb10  1  0.335265  0.991659  0.248797  1
  Nb  Nb11  1  0.835881  0.509485  0.248938  1
  Nb  Nb12  1  0.828971  0.321346  0.627818  1
  Nb  Nb13  1  0.337058  0.174453  0.875779  1
  Nb  Nb14  1  0.162984  0.675638  0.124595  1
  Nb  Nb15  1  0.661712  0.826661  0.372683  1
  Nb  Nb16  1  0.158105  0.684663  0.368626  1
  Nb  Nb17  1  0.660751  0.824001  0.124487  1
  Nb  Nb18  1  0.837027  0.324364  0.875717  1
  Nb  Nb19  1  0.347265  0.161235  0.630306  1
  Si  Si20  1  0.798733  0.624054  0.751311  1
  Si  Si21  1  0.294323  0.870905  0.752323  1
  Si  Si22  1  0.203475  0.376076  0.249184  1
  Si  Si23  1  0.703107  0.124275  0.247849  1
  Si  Si24  1  0.540781  0.377128  0.751924  1
  Si  Si25  1  0.042643  0.125613  0.750985  1
  Si  Si26  1  0.457646  0.624447  0.249243  1
  Si  Si27  1  0.954723  0.877084  0.246382  1
  Si  Si28  1  0.664295  0.038668  0.538349  1
  Si  Si29  1  0.162267  0.462994  0.960323  1
  Si  Si30  1  0.336793  0.963557  0.040639  1
  Si  Si31  1  0.828223  0.539608  0.457151  1
  Si  Si32  1  0.336383  0.961548  0.459931  1
  Si  Si33  1  0.837932  0.536766  0.041138  1
  Si  Si34  1  0.662370  0.036833  0.959608  1
  Sn  Sn35  1  0.173612  0.462158  0.539519  1
