# generated using pymatgen
data_Tb8Zr3ScGa20
_symmetry_space_group_name_H-M   'P 1'
_cell_length_a   6.03675621
_cell_length_b   9.48851700
_cell_length_c   11.35810540
_cell_angle_alpha   90.00000000
_cell_angle_beta   89.96976108
_cell_angle_gamma   90.00000000
_symmetry_Int_Tables_number   1
_chemical_formula_structural   Tb8Zr3ScGa20
_chemical_formula_sum   'Tb8 Zr3 Sc1 Ga20'
_cell_volume   650.59064089
_cell_formula_units_Z   1
loop_
 _symmetry_equiv_pos_site_id
 _symmetry_equiv_pos_as_xyz
  1  'x, y, z'
loop_
 _atom_site_type_symbol
 _atom_site_label
 _atom_site_symmetry_multiplicity
 _atom_site_fract_x
 _atom_site_fract_y
 _atom_site_fract_z
 _atom_site_occupancy
  Tb  Tb0  1  0.889064  0.510044  0.351993  1
  Tb  Tb1  1  0.612123  0.990094  0.852840  1
  Tb  Tb2  1  0.111037  0.010040  0.647261  1
  Tb  Tb3  1  0.388688  0.489683  0.147504  1
  Tb  Tb4  1  0.111037  0.489960  0.647261  1
  Tb  Tb5  1  0.388688  0.010317  0.147504  1
  Tb  Tb6  1  0.889064  0.989956  0.351993  1
  Tb  Tb7  1  0.612123  0.509906  0.852840  1
  Zr  Zr8  1  0.855226  0.750000  0.075201  1
  Zr  Zr9  1  0.642920  0.750000  0.576109  1
  Zr  Zr10  1  0.145882  0.250000  0.923671  1
  Sc  Sc11  1  0.350068  0.250000  0.423987  1
  Ga  Ga12  1  0.876246  0.051550  0.088391  1
  Ga  Ga13  1  0.624277  0.448891  0.588877  1
  Ga  Ga14  1  0.123239  0.552178  0.911976  1
  Ga  Ga15  1  0.377364  0.947582  0.411626  1
  Ga  Ga16  1  0.123239  0.947822  0.911976  1
  Ga  Ga17  1  0.377364  0.552418  0.411626  1
  Ga  Ga18  1  0.876246  0.448450  0.088391  1
  Ga  Ga19  1  0.624277  0.051109  0.588877  1
  Ga  Ga20  1  0.165826  0.750000  0.250284  1
  Ga  Ga21  1  0.333621  0.750000  0.750453  1
  Ga  Ga22  1  0.834362  0.250000  0.749731  1
  Ga  Ga23  1  0.665691  0.250000  0.250233  1
  Ga  Ga24  1  0.382512  0.750000  0.003019  1
  Ga  Ga25  1  0.118299  0.750000  0.503149  1
  Ga  Ga26  1  0.618187  0.250000  0.996746  1
  Ga  Ga27  1  0.881810  0.250000  0.497786  1
  Ga  Ga28  1  0.601001  0.750000  0.294243  1
  Ga  Ga29  1  0.898411  0.750000  0.794008  1
  Ga  Ga30  1  0.400987  0.250000  0.706535  1
  Ga  Ga31  1  0.101121  0.250000  0.203909  1
