# generated using pymatgen
data_Na15Sn3Sb
_symmetry_space_group_name_H-M   'P 1'
_cell_length_a   11.32369673
_cell_length_b   11.34290649
_cell_length_c   11.31935370
_cell_angle_alpha   109.49076715
_cell_angle_beta   109.42195061
_cell_angle_gamma   109.55080369
_symmetry_Int_Tables_number   1
_chemical_formula_structural   Na15Sn3Sb
_chemical_formula_sum   'Na30 Sn6 Sb2'
_cell_volume   1118.52162576
_cell_formula_units_Z   2
loop_
 _symmetry_equiv_pos_site_id
 _symmetry_equiv_pos_as_xyz
  1  'x, y, z'
loop_
 _atom_site_type_symbol
 _atom_site_label
 _atom_site_symmetry_multiplicity
 _atom_site_fract_x
 _atom_site_fract_y
 _atom_site_fract_z
 _atom_site_occupancy
  Na  Na0  1  0.625712  0.374241  0.248854  1
  Na  Na1  1  0.247259  0.623852  0.373424  1
  Na  Na2  1  0.750081  0.875086  0.125002  1
  Na  Na3  1  0.125079  0.750085  0.874998  1
  Na  Na4  1  0.373835  0.250428  0.626576  1
  Na  Na5  1  0.876858  0.125387  0.751146  1
  Na  Na6  1  0.083385  0.276300  0.114326  1
  Na  Na7  1  0.693072  0.031314  0.916845  1
  Na  Na8  1  0.884445  0.469498  0.161344  1
  Na  Na9  1  0.160024  0.883607  0.469151  1
  Na  Na10  1  0.337511  0.808206  0.724352  1
  Na  Na11  1  0.724171  0.339512  0.810325  1
  Na  Na12  1  0.030853  0.915157  0.692045  1
  Na  Na13  1  0.223101  0.308154  0.838656  1
  Na  Na14  1  0.190873  0.414457  0.530849  1
  Na  Na15  1  0.971228  0.385381  0.661819  1
  Na  Na16  1  0.307376  0.837908  0.221357  1
  Na  Na17  1  0.530853  0.191458  0.413283  1
  Na  Na18  1  0.384088  0.661060  0.969146  1
  Na  Na19  1  0.113159  0.083853  0.275648  1
  Na  Na20  1  0.276228  0.114470  0.083155  1
  Na  Na21  1  0.838808  0.223111  0.307955  1
  Na  Na22  1  0.413847  0.529187  0.189675  1
  Na  Na23  1  0.661934  0.969645  0.383185  1
  Na  Na24  1  0.617571  0.778176  0.586717  1
  Na  Na25  1  0.586018  0.616551  0.778643  1
  Na  Na26  1  0.778749  0.586459  0.616815  1
  Na  Na27  1  0.809409  0.723562  0.338181  1
  Na  Na28  1  0.914943  0.691914  0.030854  1
  Na  Na29  1  0.469060  0.161975  0.885674  1
  Sn  Sn30  1  0.581178  0.498567  0.998309  1
  Sn  Sn31  1  0.001031  0.582453  0.500471  1
  Sn  Sn32  1  0.082869  0.500258  0.001691  1
  Sn  Sn33  1  0.000560  0.081983  0.499529  1
  Sn  Sn34  1  0.499611  0.001117  0.083623  1
  Sn  Sn35  1  0.915988  0.917494  0.916377  1
  Sb  Sb36  1  0.419204  0.418651  0.419171  1
  Sb  Sb37  1  0.500033  0.999480  0.580829  1
