# generated using pymatgen
data_Pr20Ir4Pt7Rh
_symmetry_space_group_name_H-M   'P 1'
_cell_length_a   11.51422912
_cell_length_b   11.51553603
_cell_length_c   6.58832400
_cell_angle_alpha   90.03213506
_cell_angle_beta   90.03495560
_cell_angle_gamma   89.98244116
_symmetry_Int_Tables_number   1
_chemical_formula_structural   Pr20Ir4Pt7Rh
_chemical_formula_sum   'Pr20 Ir4 Pt7 Rh1'
_cell_volume   873.56214309
_cell_formula_units_Z   1
loop_
 _symmetry_equiv_pos_site_id
 _symmetry_equiv_pos_as_xyz
  1  'x, y, z'
loop_
 _atom_site_type_symbol
 _atom_site_label
 _atom_site_symmetry_multiplicity
 _atom_site_fract_x
 _atom_site_fract_y
 _atom_site_fract_z
 _atom_site_occupancy
  Pr  Pr0  1  0.295202  0.088916  0.376054  1
  Pr  Pr1  1  0.295803  0.906205  0.875741  1
  Pr  Pr2  1  0.704622  0.089118  0.874998  1
  Pr  Pr3  1  0.704128  0.910174  0.376086  1
  Pr  Pr4  1  0.586761  0.793414  0.874645  1
  Pr  Pr5  1  0.589624  0.206028  0.377462  1
  Pr  Pr6  1  0.408534  0.792020  0.382861  1
  Pr  Pr7  1  0.409820  0.204374  0.875510  1
  Pr  Pr8  1  0.206415  0.413406  0.624687  1
  Pr  Pr9  1  0.207695  0.591356  0.118120  1
  Pr  Pr10  1  0.794232  0.410464  0.123377  1
  Pr  Pr11  1  0.795794  0.589974  0.623867  1
  Pr  Pr12  1  0.911195  0.704567  0.124804  1
  Pr  Pr13  1  0.911009  0.295524  0.624369  1
  Pr  Pr14  1  0.093628  0.704026  0.623610  1
  Pr  Pr15  1  0.089747  0.296079  0.124790  1
  Pr  Pr16  1  0.999431  0.999397  0.500330  1
  Pr  Pr17  1  0.000619  0.000576  0.999658  1
  Pr  Pr18  1  0.498136  0.501371  0.999682  1
  Pr  Pr19  1  0.498623  0.501875  0.500329  1
  Ir  Ir20  1  0.346962  0.653263  0.749761  1
  Ir  Ir21  1  0.500256  0.001096  0.615675  1
  Ir  Ir22  1  0.998906  0.499760  0.884686  1
  Ir  Ir23  1  0.999729  0.499794  0.383050  1
  Pt  Pt24  1  0.845863  0.153778  0.249872  1
  Pt  Pt25  1  0.845676  0.846594  0.750501  1
  Pt  Pt26  1  0.153622  0.154123  0.749239  1
  Pt  Pt27  1  0.153589  0.846755  0.249879  1
  Pt  Pt28  1  0.653800  0.345997  0.749825  1
  Pt  Pt29  1  0.655181  0.655195  0.249861  1
  Pt  Pt30  1  0.345142  0.344483  0.249824  1
  Rh  Rh31  1  0.500256  0.000297  0.116845  1
