# generated using pymatgen
data_Zr6In5GaPt6
_symmetry_space_group_name_H-M   'P 1'
_cell_length_a   7.48570884
_cell_length_b   7.45892788
_cell_length_c   7.29125104
_cell_angle_alpha   89.99999516
_cell_angle_beta   89.94550934
_cell_angle_gamma   119.88172656
_symmetry_Int_Tables_number   1
_chemical_formula_structural   Zr6In5GaPt6
_chemical_formula_sum   'Zr6 In5 Ga1 Pt6'
_cell_volume   352.98652045
_cell_formula_units_Z   1
loop_
 _symmetry_equiv_pos_site_id
 _symmetry_equiv_pos_as_xyz
  1  'x, y, z'
loop_
 _atom_site_type_symbol
 _atom_site_label
 _atom_site_symmetry_multiplicity
 _atom_site_fract_x
 _atom_site_fract_y
 _atom_site_fract_z
 _atom_site_occupancy
  Zr  Zr0  1  0.384322  0.408711  0.746514  1
  Zr  Zr1  1  0.021025  0.607303  0.746162  1
  Zr  Zr2  1  0.594360  0.982437  0.751981  1
  Zr  Zr3  1  0.615678  0.024389  0.253486  1
  Zr  Zr4  1  0.978975  0.586279  0.253838  1
  Zr  Zr5  1  0.405640  0.388077  0.248019  1
  In  In6  1  0.259788  0.996427  0.000297  1
  In  In7  1  0.740212  0.736639  0.999703  1
  In  In8  1  0.000000  0.268123  0.000000  1
  In  In9  1  0.724331  0.722977  0.500017  1
  In  In10  1  0.275669  0.998646  0.499983  1
  Ga  Ga11  1  0.000000  0.274622  0.500000  1
  Pt  Pt12  1  0.663579  0.331240  0.961593  1
  Pt  Pt13  1  0.000542  0.011355  0.734811  1
  Pt  Pt14  1  0.675038  0.329668  0.535709  1
  Pt  Pt15  1  0.324962  0.654632  0.464291  1
  Pt  Pt16  1  0.336421  0.667662  0.038407  1
  Pt  Pt17  1  0.999458  0.010813  0.265189  1
