# generated using pymatgen
data_Hf6NbAl6W3N2
_symmetry_space_group_name_H-M   'P 1'
_cell_length_a   7.92046100
_cell_length_b   7.92046310
_cell_length_c   5.37693000
_cell_angle_alpha   90.00000000
_cell_angle_beta   90.00000000
_cell_angle_gamma   120.00000374
_symmetry_Int_Tables_number   1
_chemical_formula_structural   Hf6NbAl6W3N2
_chemical_formula_sum   'Hf6 Nb1 Al6 W3 N2'
_cell_volume   292.12318904
_cell_formula_units_Z   1
loop_
 _symmetry_equiv_pos_site_id
 _symmetry_equiv_pos_as_xyz
  1  'x, y, z'
loop_
 _atom_site_type_symbol
 _atom_site_label
 _atom_site_symmetry_multiplicity
 _atom_site_fract_x
 _atom_site_fract_y
 _atom_site_fract_z
 _atom_site_occupancy
  Hf  Hf0  1  0.231794  0.000324  0.250250  1
  Hf  Hf1  1  0.999676  0.231470  0.250250  1
  Hf  Hf2  1  0.768530  0.768206  0.250250  1
  Hf  Hf3  1  0.768530  0.000324  0.749750  1
  Hf  Hf4  1  0.999676  0.768206  0.749750  1
  Hf  Hf5  1  0.231794  0.231470  0.749750  1
  Nb  Nb6  1  0.333333  0.666667  0.500000  1
  Al  Al7  1  0.587858  0.002519  0.246155  1
  Al  Al8  1  0.997481  0.585339  0.246155  1
  Al  Al9  1  0.414661  0.412142  0.246155  1
  Al  Al10  1  0.414661  0.002519  0.753845  1
  Al  Al11  1  0.997481  0.412142  0.753845  1
  Al  Al12  1  0.587858  0.585339  0.753845  1
  W  W13  1  0.666667  0.333333  0.000000  1
  W  W14  1  0.333333  0.666667  0.000000  1
  W  W15  1  0.666667  0.333333  0.500000  1
  N  N16  1  0.000000  0.000000  0.000000  1
  N  N17  1  0.000000  0.000000  0.500000  1
