# generated using pymatgen
data_Ce2Dy3Tm3(CdRu)2
_symmetry_space_group_name_H-M   'P 1'
_cell_length_a   9.57734296
_cell_length_b   9.57734347
_cell_length_c   9.57734300
_cell_angle_alpha   59.99999815
_cell_angle_beta   59.99999640
_cell_angle_gamma   59.99999736
_symmetry_Int_Tables_number   1
_chemical_formula_structural   Ce2Dy3Tm3(CdRu)2
_chemical_formula_sum   'Ce4 Dy6 Tm6 Cd4 Ru4'
_cell_volume   621.18379684
_cell_formula_units_Z   2
loop_
 _symmetry_equiv_pos_site_id
 _symmetry_equiv_pos_as_xyz
  1  'x, y, z'
loop_
 _atom_site_type_symbol
 _atom_site_label
 _atom_site_symmetry_multiplicity
 _atom_site_fract_x
 _atom_site_fract_y
 _atom_site_fract_z
 _atom_site_occupancy
  Ce  Ce0  1  0.346583  0.346583  0.960253  1
  Ce  Ce1  1  0.346583  0.960253  0.346583  1
  Ce  Ce2  1  0.960253  0.346583  0.346583  1
  Ce  Ce3  1  0.346583  0.346583  0.346583  1
  Dy  Dy4  1  0.562010  0.562010  0.937990  1
  Dy  Dy5  1  0.937990  0.562010  0.937990  1
  Dy  Dy6  1  0.562010  0.937990  0.937990  1
  Dy  Dy7  1  0.937990  0.937990  0.562010  1
  Dy  Dy8  1  0.562010  0.937990  0.562010  1
  Dy  Dy9  1  0.937990  0.562010  0.562010  1
  Tm  Tm10  1  0.187126  0.187126  0.812874  1
  Tm  Tm11  1  0.812874  0.187126  0.812874  1
  Tm  Tm12  1  0.187125  0.812875  0.812874  1
  Tm  Tm13  1  0.812874  0.812875  0.187126  1
  Tm  Tm14  1  0.187125  0.812874  0.187125  1
  Tm  Tm15  1  0.812874  0.187126  0.187126  1
  Cd  Cd16  1  0.581050  0.581050  0.256848  1
  Cd  Cd17  1  0.581050  0.256848  0.581050  1
  Cd  Cd18  1  0.256848  0.581050  0.581050  1
  Cd  Cd19  1  0.581050  0.581050  0.581050  1
  Ru  Ru20  1  0.144086  0.144086  0.567742  1
  Ru  Ru21  1  0.144086  0.567742  0.144086  1
  Ru  Ru22  1  0.567742  0.144086  0.144086  1
  Ru  Ru23  1  0.144086  0.144086  0.144086  1
