# generated using pymatgen
data_PuU7(B6Mo)4
_symmetry_space_group_name_H-M   'P 1'
_cell_length_a   3.69661300
_cell_length_b   9.27159580
_cell_length_c   11.36568606
_cell_angle_alpha   89.95139556
_cell_angle_beta   90.00000000
_cell_angle_gamma   90.00000000
_symmetry_Int_Tables_number   1
_chemical_formula_structural   PuU7(B6Mo)4
_chemical_formula_sum   'Pu1 U7 B24 Mo4'
_cell_volume   389.54171897
_cell_formula_units_Z   1
loop_
 _symmetry_equiv_pos_site_id
 _symmetry_equiv_pos_as_xyz
  1  'x, y, z'
loop_
 _atom_site_type_symbol
 _atom_site_label
 _atom_site_symmetry_multiplicity
 _atom_site_fract_x
 _atom_site_fract_y
 _atom_site_fract_z
 _atom_site_occupancy
  Pu  Pu0  1  0.000000  0.335526  0.408003  1
  U  U1  1  0.000000  0.664157  0.591744  1
  U  U2  1  0.000000  0.834752  0.092485  1
  U  U3  1  0.000000  0.165337  0.907815  1
  U  U4  1  0.000000  0.956642  0.394298  1
  U  U5  1  0.000000  0.044666  0.605190  1
  U  U6  1  0.000000  0.455995  0.105890  1
  U  U7  1  0.000000  0.543596  0.894760  1
  B  B8  1  0.500000  0.551929  0.433512  1
  B  B9  1  0.500000  0.450741  0.567902  1
  B  B10  1  0.500000  0.049472  0.066309  1
  B  B11  1  0.500000  0.949803  0.932784  1
  B  B12  1  0.500000  0.743655  0.424479  1
  B  B13  1  0.500000  0.255666  0.576667  1
  B  B14  1  0.500000  0.243321  0.075843  1
  B  B15  1  0.500000  0.756444  0.924029  1
  B  B16  1  0.500000  0.804175  0.272656  1
  B  B17  1  0.500000  0.196099  0.727718  1
  B  B18  1  0.500000  0.303417  0.226260  1
  B  B19  1  0.500000  0.696019  0.772508  1
  B  B20  1  0.500000  0.644838  0.187544  1
  B  B21  1  0.500000  0.355226  0.812998  1
  B  B22  1  0.500000  0.143440  0.311976  1
  B  B23  1  0.500000  0.855105  0.687448  1
  B  B24  1  0.500000  0.985801  0.218073  1
  B  B25  1  0.500000  0.014141  0.781570  1
  B  B26  1  0.500000  0.486817  0.280610  1
  B  B27  1  0.500000  0.514707  0.718354  1
  B  B28  1  0.500000  0.642422  0.039304  1
  B  B29  1  0.500000  0.358145  0.960980  1
  B  B30  1  0.500000  0.139667  0.461106  1
  B  B31  1  0.500000  0.857594  0.539681  1
  Mo  Mo32  1  0.000000  0.647647  0.319675  1
  Mo  Mo33  1  0.000000  0.355173  0.681970  1
  Mo  Mo34  1  0.000000  0.143131  0.177758  1
  Mo  Mo35  1  0.000000  0.854734  0.820099  1
