# generated using pymatgen
data_DyY3Sb6Rh7
_symmetry_space_group_name_H-M   'P 1'
_cell_length_a   7.62826083
_cell_length_b   7.61524502
_cell_length_c   7.61524497
_cell_angle_alpha   109.43656419
_cell_angle_beta   109.50585405
_cell_angle_gamma   109.50584920
_symmetry_Int_Tables_number   1
_chemical_formula_structural   DyY3Sb6Rh7
_chemical_formula_sum   'Dy1 Y3 Sb6 Rh7'
_cell_volume   340.39692453
_cell_formula_units_Z   1
loop_
 _symmetry_equiv_pos_site_id
 _symmetry_equiv_pos_as_xyz
  1  'x, y, z'
loop_
 _atom_site_type_symbol
 _atom_site_label
 _atom_site_symmetry_multiplicity
 _atom_site_fract_x
 _atom_site_fract_y
 _atom_site_fract_z
 _atom_site_occupancy
  Dy  Dy0  1  0.500000  0.000000  0.000000  1
  Y  Y1  1  0.000000  0.500000  0.000000  1
  Y  Y2  1  0.000000  0.000000  0.500000  1
  Y  Y3  1  0.500000  0.500000  0.500000  1
  Sb  Sb4  1  0.317166  0.000000  0.317139  1
  Sb  Sb5  1  0.000027  0.682861  0.682861  1
  Sb  Sb6  1  0.682834  0.682861  0.000000  1
  Sb  Sb7  1  0.682834  0.000000  0.682861  1
  Sb  Sb8  1  0.999973  0.317139  0.317139  1
  Sb  Sb9  1  0.317166  0.317139  0.000000  1
  Rh  Rh10  1  0.250434  0.500867  0.750434  1
  Rh  Rh11  1  0.500000  0.249566  0.750434  1
  Rh  Rh12  1  0.749566  0.249566  0.499133  1
  Rh  Rh13  1  0.500000  0.750434  0.249566  1
  Rh  Rh14  1  0.000000  0.000000  0.000000  1
  Rh  Rh15  1  0.250434  0.750434  0.500867  1
  Rh  Rh16  1  0.749566  0.499133  0.249566  1
