# generated using pymatgen
data_YEr3(Co5As3)4
_symmetry_space_group_name_H-M   'P 1'
_cell_length_a   3.77796800
_cell_length_b   12.16193701
_cell_length_c   10.66462602
_cell_angle_alpha   89.99439754
_cell_angle_beta   90.00000000
_cell_angle_gamma   90.00000000
_symmetry_Int_Tables_number   1
_chemical_formula_structural   YEr3(Co5As3)4
_chemical_formula_sum   'Y1 Er3 Co20 As12'
_cell_volume   490.01192958
_cell_formula_units_Z   1
loop_
 _symmetry_equiv_pos_site_id
 _symmetry_equiv_pos_as_xyz
  1  'x, y, z'
loop_
 _atom_site_type_symbol
 _atom_site_label
 _atom_site_symmetry_multiplicity
 _atom_site_fract_x
 _atom_site_fract_y
 _atom_site_fract_z
 _atom_site_occupancy
  Y  Y0  1  0.750000  0.201616  0.417636  1
  Er  Er1  1  0.750000  0.701478  0.082062  1
  Er  Er2  1  0.250000  0.298605  0.919154  1
  Er  Er3  1  0.250000  0.798655  0.581261  1
  Co  Co4  1  0.750000  0.697352  0.383971  1
  Co  Co5  1  0.250000  0.303308  0.616642  1
  Co  Co6  1  0.250000  0.802528  0.884207  1
  Co  Co7  1  0.750000  0.197264  0.115118  1
  Co  Co8  1  0.750000  0.990849  0.211906  1
  Co  Co9  1  0.250000  0.008542  0.787773  1
  Co  Co10  1  0.250000  0.509110  0.712691  1
  Co  Co11  1  0.750000  0.491302  0.287468  1
  Co  Co12  1  0.750000  0.677708  0.784289  1
  Co  Co13  1  0.250000  0.322281  0.215620  1
  Co  Co14  1  0.250000  0.821900  0.283412  1
  Co  Co15  1  0.750000  0.177869  0.716472  1
  Co  Co16  1  0.750000  0.931716  0.969203  1
  Co  Co17  1  0.250000  0.067878  0.029936  1
  Co  Co18  1  0.250000  0.568791  0.469660  1
  Co  Co19  1  0.750000  0.432815  0.531187  1
  Co  Co20  1  0.750000  0.987109  0.593000  1
  Co  Co21  1  0.250000  0.011314  0.406972  1
  Co  Co22  1  0.250000  0.512406  0.092982  1
  Co  Co23  1  0.750000  0.487637  0.907538  1
  As  As24  1  0.750000  0.615152  0.584876  1
  As  As25  1  0.250000  0.386446  0.415362  1
  As  As26  1  0.250000  0.885200  0.084426  1
  As  As27  1  0.750000  0.114543  0.915123  1
  As  As28  1  0.750000  0.890233  0.399518  1
  As  As29  1  0.250000  0.109326  0.600799  1
  As  As30  1  0.250000  0.609722  0.900283  1
  As  As31  1  0.750000  0.390316  0.100273  1
  As  As32  1  0.750000  0.869812  0.768506  1
  As  As33  1  0.250000  0.129302  0.230303  1
  As  As34  1  0.250000  0.629684  0.268667  1
  As  As35  1  0.750000  0.370229  0.731706  1
