# generated using pymatgen
data_Rb2Al3SiAu6
_symmetry_space_group_name_H-M   'P 1'
_cell_length_a   5.59309304
_cell_length_b   7.15565762
_cell_length_c   13.54061800
_cell_angle_alpha   90.00000000
_cell_angle_beta   90.00000000
_cell_angle_gamma   89.62362735
_symmetry_Int_Tables_number   1
_chemical_formula_structural   Rb2Al3SiAu6
_chemical_formula_sum   'Rb4 Al6 Si2 Au12'
_cell_volume   541.91442630
_cell_formula_units_Z   2
loop_
 _symmetry_equiv_pos_site_id
 _symmetry_equiv_pos_as_xyz
  1  'x, y, z'
loop_
 _atom_site_type_symbol
 _atom_site_label
 _atom_site_symmetry_multiplicity
 _atom_site_fract_x
 _atom_site_fract_y
 _atom_site_fract_z
 _atom_site_occupancy
  Rb  Rb0  1  0.250063  0.100894  0.071393  1
  Rb  Rb1  1  0.249937  0.399106  0.571393  1
  Rb  Rb2  1  0.749946  0.896930  0.928078  1
  Rb  Rb3  1  0.750054  0.603070  0.428078  1
  Al  Al4  1  0.999189  0.902391  0.657534  1
  Al  Al5  1  0.500811  0.597609  0.157534  1
  Al  Al6  1  0.502404  0.097381  0.340418  1
  Al  Al7  1  0.997596  0.402619  0.840418  1
  Al  Al8  1  0.006388  0.095356  0.345917  1
  Al  Al9  1  0.493612  0.404644  0.845917  1
  Si  Si10  1  0.499810  0.903119  0.657080  1
  Si  Si11  1  0.000190  0.596881  0.157080  1
  Au  Au12  1  0.251788  0.117427  0.782605  1
  Au  Au13  1  0.248212  0.382573  0.282605  1
  Au  Au14  1  0.758883  0.879987  0.214343  1
  Au  Au15  1  0.741117  0.620013  0.714343  1
  Au  Au16  1  0.245666  0.694461  0.785704  1
  Au  Au17  1  0.254334  0.805539  0.285704  1
  Au  Au18  1  0.756984  0.305372  0.214280  1
  Au  Au19  1  0.743016  0.194628  0.714280  1
  Au  Au20  1  0.242388  0.566761  0.000017  1
  Au  Au21  1  0.257612  0.933239  0.500017  1
  Au  Au22  1  0.748059  0.427252  0.002633  1
  Au  Au23  1  0.751941  0.072748  0.502633  1
