# generated using pymatgen
data_Pa3Zn3Rh2Au
_symmetry_space_group_name_H-M   'P 1'
_cell_length_a   7.27036700
_cell_length_b   7.27036717
_cell_length_c   3.86073500
_cell_angle_alpha   90.00000000
_cell_angle_beta   90.00000000
_cell_angle_gamma   119.99999468
_symmetry_Int_Tables_number   1
_chemical_formula_structural   Pa3Zn3Rh2Au
_chemical_formula_sum   'Pa3 Zn3 Rh2 Au1'
_cell_volume   176.73124057
_cell_formula_units_Z   1
loop_
 _symmetry_equiv_pos_site_id
 _symmetry_equiv_pos_as_xyz
  1  'x, y, z'
loop_
 _atom_site_type_symbol
 _atom_site_label
 _atom_site_symmetry_multiplicity
 _atom_site_fract_x
 _atom_site_fract_y
 _atom_site_fract_z
 _atom_site_occupancy
  Pa  Pa0  1  0.000000  0.419474  0.500000  1
  Pa  Pa1  1  0.580526  0.580526  0.500000  1
  Pa  Pa2  1  0.419474  0.000000  0.500000  1
  Zn  Zn3  1  0.000000  0.746842  0.000000  1
  Zn  Zn4  1  0.253158  0.253158  0.000000  1
  Zn  Zn5  1  0.746842  0.000000  0.000000  1
  Rh  Rh6  1  0.333333  0.666667  0.000000  1
  Rh  Rh7  1  0.666667  0.333333  0.000000  1
  Au  Au8  1  0.000000  0.000000  0.500000  1
