# generated using pymatgen
data_URe2TeF24
_symmetry_space_group_name_H-M   'P 1'
_cell_length_a   5.41973093
_cell_length_b   9.22892700
_cell_length_c   10.00125964
_cell_angle_alpha   90.00000000
_cell_angle_beta   89.70599560
_cell_angle_gamma   90.00000000
_symmetry_Int_Tables_number   1
_chemical_formula_structural   URe2TeF24
_chemical_formula_sum   'U1 Re2 Te1 F24'
_cell_volume   500.23943013
_cell_formula_units_Z   1
loop_
 _symmetry_equiv_pos_site_id
 _symmetry_equiv_pos_as_xyz
  1  'x, y, z'
loop_
 _atom_site_type_symbol
 _atom_site_label
 _atom_site_symmetry_multiplicity
 _atom_site_fract_x
 _atom_site_fract_y
 _atom_site_fract_z
 _atom_site_occupancy
  U  U0  1  0.406951  0.250000  0.372341  1
  Re  Re1  1  0.593292  0.750000  0.629242  1
  Re  Re2  1  0.092818  0.250000  0.870936  1
  Te  Te3  1  0.906019  0.750000  0.127697  1
  F  F4  1  0.565160  0.405630  0.257616  1
  F  F5  1  0.053269  0.607361  0.232515  1
  F  F6  1  0.446113  0.895162  0.732276  1
  F  F7  1  0.946776  0.104358  0.769257  1
  F  F8  1  0.180605  0.750000  0.014405  1
  F  F9  1  0.705725  0.250000  0.493863  1
  F  F10  1  0.810935  0.250000  0.979311  1
  F  F11  1  0.313182  0.750000  0.521460  1
  F  F12  1  0.631133  0.750000  0.240788  1
  F  F13  1  0.107769  0.250000  0.250709  1
  F  F14  1  0.374903  0.250000  0.761962  1
  F  F15  1  0.874411  0.750000  0.736715  1
  F  F16  1  0.759295  0.892553  0.022382  1
  F  F17  1  0.248362  0.093790  0.486819  1
  F  F18  1  0.240970  0.394941  0.972765  1
  F  F19  1  0.741183  0.604697  0.526656  1
  F  F20  1  0.240970  0.105059  0.972765  1
  F  F21  1  0.741183  0.895303  0.526656  1
  F  F22  1  0.759295  0.607447  0.022382  1
  F  F23  1  0.248362  0.406210  0.486819  1
  F  F24  1  0.053269  0.892639  0.232515  1
  F  F25  1  0.565160  0.094370  0.257616  1
  F  F26  1  0.946776  0.395642  0.769257  1
  F  F27  1  0.446113  0.604838  0.732276  1
