# generated using pymatgen
data_Dy4Er4Tc3B24Os
_symmetry_space_group_name_H-M   'P 1'
_cell_length_a   3.66507800
_cell_length_b   9.13728246
_cell_length_c   11.52561001
_cell_angle_alpha   89.95209178
_cell_angle_beta   90.00000000
_cell_angle_gamma   90.00000000
_symmetry_Int_Tables_number   1
_chemical_formula_structural   Dy4Er4Tc3B24Os
_chemical_formula_sum   'Dy4 Er4 Tc3 B24 Os1'
_cell_volume   385.97932326
_cell_formula_units_Z   1
loop_
 _symmetry_equiv_pos_site_id
 _symmetry_equiv_pos_as_xyz
  1  'x, y, z'
loop_
 _atom_site_type_symbol
 _atom_site_label
 _atom_site_symmetry_multiplicity
 _atom_site_fract_x
 _atom_site_fract_y
 _atom_site_fract_z
 _atom_site_occupancy
  Dy  Dy0  1  0.000000  0.323443  0.413890  1
  Dy  Dy1  1  0.000000  0.675667  0.584483  1
  Dy  Dy2  1  0.000000  0.822784  0.087260  1
  Dy  Dy3  1  0.000000  0.178195  0.914406  1
  Er  Er4  1  0.000000  0.942639  0.370067  1
  Er  Er5  1  0.000000  0.058101  0.629957  1
  Er  Er6  1  0.000000  0.442963  0.130171  1
  Er  Er7  1  0.000000  0.556887  0.869544  1
  Tc  Tc8  1  0.000000  0.638871  0.320063  1
  Tc  Tc9  1  0.000000  0.361202  0.680453  1
  Tc  Tc10  1  0.000000  0.138373  0.178702  1
  B  B11  1  0.500000  0.553267  0.432723  1
  B  B12  1  0.500000  0.446709  0.567070  1
  B  B13  1  0.500000  0.053183  0.067119  1
  B  B14  1  0.500000  0.946156  0.932691  1
  B  B15  1  0.500000  0.749094  0.418566  1
  B  B16  1  0.500000  0.250558  0.581493  1
  B  B17  1  0.500000  0.249655  0.081499  1
  B  B18  1  0.500000  0.750779  0.918216  1
  B  B19  1  0.500000  0.792045  0.265644  1
  B  B20  1  0.500000  0.208143  0.734842  1
  B  B21  1  0.500000  0.291971  0.234649  1
  B  B22  1  0.500000  0.708727  0.765355  1
  B  B23  1  0.500000  0.630617  0.185427  1
  B  B24  1  0.500000  0.369301  0.815130  1
  B  B25  1  0.500000  0.130195  0.314291  1
  B  B26  1  0.500000  0.869320  0.685506  1
  B  B27  1  0.500000  0.981787  0.212107  1
  B  B28  1  0.500000  0.017036  0.787906  1
  B  B29  1  0.500000  0.482071  0.287771  1
  B  B30  1  0.500000  0.517746  0.712076  1
  B  B31  1  0.500000  0.600941  0.027862  1
  B  B32  1  0.500000  0.400092  0.972038  1
  B  B33  1  0.500000  0.100753  0.472084  1
  B  B34  1  0.500000  0.899336  0.528321  1
  Os  Os35  1  0.000000  0.861393  0.820614  1
