# generated using pymatgen
data_Pr4InIr
_symmetry_space_group_name_H-M   'P 1'
_cell_length_a   10.08471665
_cell_length_b   10.08471678
_cell_length_c   10.08471700
_cell_angle_alpha   60.00000256
_cell_angle_beta   60.00000214
_cell_angle_gamma   60.00000184
_symmetry_Int_Tables_number   1
_chemical_formula_structural   Pr4InIr
_chemical_formula_sum   'Pr16 In4 Ir4'
_cell_volume   725.23064229
_cell_formula_units_Z   4
loop_
 _symmetry_equiv_pos_site_id
 _symmetry_equiv_pos_as_xyz
  1  'x, y, z'
loop_
 _atom_site_type_symbol
 _atom_site_label
 _atom_site_symmetry_multiplicity
 _atom_site_fract_x
 _atom_site_fract_y
 _atom_site_fract_z
 _atom_site_occupancy
  Pr  Pr0  1  0.348222  0.348222  0.348222  1
  Pr  Pr1  1  0.348222  0.348222  0.955333  1
  Pr  Pr2  1  0.348222  0.955333  0.348222  1
  Pr  Pr3  1  0.955333  0.348222  0.348222  1
  Pr  Pr4  1  0.808168  0.191832  0.191832  1
  Pr  Pr5  1  0.191832  0.808168  0.808168  1
  Pr  Pr6  1  0.191832  0.808168  0.191832  1
  Pr  Pr7  1  0.808168  0.191832  0.808168  1
  Pr  Pr8  1  0.191832  0.191832  0.808168  1
  Pr  Pr9  1  0.808168  0.808168  0.191832  1
  Pr  Pr10  1  0.939877  0.560123  0.560123  1
  Pr  Pr11  1  0.560123  0.939877  0.939877  1
  Pr  Pr12  1  0.560123  0.939877  0.560123  1
  Pr  Pr13  1  0.939877  0.560123  0.939877  1
  Pr  Pr14  1  0.560123  0.560123  0.939877  1
  Pr  Pr15  1  0.939877  0.939877  0.560123  1
  In  In16  1  0.580657  0.580657  0.580657  1
  In  In17  1  0.580657  0.580657  0.258028  1
  In  In18  1  0.580657  0.258028  0.580657  1
  In  In19  1  0.258028  0.580657  0.580657  1
  Ir  Ir20  1  0.141293  0.141293  0.141293  1
  Ir  Ir21  1  0.141293  0.141293  0.576122  1
  Ir  Ir22  1  0.141293  0.576122  0.141293  1
  Ir  Ir23  1  0.576122  0.141293  0.141293  1
