# generated using pymatgen
data_Dy20Ir7Ru5
_symmetry_space_group_name_H-M   'P 1'
_cell_length_a   10.83560731
_cell_length_b   10.83560731
_cell_length_c   6.39587635
_cell_angle_alpha   89.97310887
_cell_angle_beta   89.97310887
_cell_angle_gamma   89.99484657
_symmetry_Int_Tables_number   1
_chemical_formula_structural   Dy20Ir7Ru5
_chemical_formula_sum   'Dy20 Ir7 Ru5'
_cell_volume   750.94214135
_cell_formula_units_Z   1
loop_
 _symmetry_equiv_pos_site_id
 _symmetry_equiv_pos_as_xyz
  1  'x, y, z'
loop_
 _atom_site_type_symbol
 _atom_site_label
 _atom_site_symmetry_multiplicity
 _atom_site_fract_x
 _atom_site_fract_y
 _atom_site_fract_z
 _atom_site_occupancy
  Dy  Dy0  1  0.293558  0.086733  0.378752  1
  Dy  Dy1  1  0.293138  0.913152  0.878782  1
  Dy  Dy2  1  0.707228  0.087092  0.879211  1
  Dy  Dy3  1  0.706800  0.913484  0.378145  1
  Dy  Dy4  1  0.586834  0.793652  0.878839  1
  Dy  Dy5  1  0.587576  0.206523  0.378893  1
  Dy  Dy6  1  0.413081  0.793591  0.378844  1
  Dy  Dy7  1  0.412984  0.206215  0.878346  1
  Dy  Dy8  1  0.206348  0.413166  0.621161  1
  Dy  Dy9  1  0.206409  0.586919  0.121156  1
  Dy  Dy10  1  0.793477  0.412424  0.121107  1
  Dy  Dy11  1  0.793785  0.587016  0.621654  1
  Dy  Dy12  1  0.913267  0.706442  0.121248  1
  Dy  Dy13  1  0.912908  0.292772  0.620789  1
  Dy  Dy14  1  0.086848  0.706862  0.621218  1
  Dy  Dy15  1  0.086516  0.293200  0.121855  1
  Dy  Dy16  1  0.999480  0.000948  0.499315  1
  Dy  Dy17  1  0.999052  0.000520  0.000685  1
  Dy  Dy18  1  0.500167  0.500056  0.000090  1
  Dy  Dy19  1  0.499944  0.499833  0.499910  1
  Ir  Ir20  1  0.846895  0.846598  0.749869  1
  Ir  Ir21  1  0.153402  0.153105  0.750131  1
  Ir  Ir22  1  0.153146  0.846854  0.250000  1
  Ir  Ir23  1  0.652180  0.347820  0.750000  1
  Ir  Ir24  1  0.652958  0.652770  0.249809  1
  Ir  Ir25  1  0.347230  0.347042  0.250191  1
  Ir  Ir26  1  0.347318  0.652682  0.750000  1
  Ru  Ru27  1  0.847668  0.152332  0.250000  1
  Ru  Ru28  1  0.500131  0.000115  0.123542  1
  Ru  Ru29  1  0.499796  0.000011  0.623567  1
  Ru  Ru30  1  0.999989  0.500204  0.876433  1
  Ru  Ru31  1  0.999885  0.499869  0.376458  1
