# generated using pymatgen
data_CaDy(MgRh)2
_symmetry_space_group_name_H-M   'P 1'
_cell_length_a   4.12161800
_cell_length_b   7.12150679
_cell_length_c   8.52850400
_cell_angle_alpha   89.82880046
_cell_angle_beta   90.00000000
_cell_angle_gamma   90.00000000
_symmetry_Int_Tables_number   1
_chemical_formula_structural   CaDy(MgRh)2
_chemical_formula_sum   'Ca2 Dy2 Mg4 Rh4'
_cell_volume   250.32864554
_cell_formula_units_Z   2
loop_
 _symmetry_equiv_pos_site_id
 _symmetry_equiv_pos_as_xyz
  1  'x, y, z'
loop_
 _atom_site_type_symbol
 _atom_site_label
 _atom_site_symmetry_multiplicity
 _atom_site_fract_x
 _atom_site_fract_y
 _atom_site_fract_z
 _atom_site_occupancy
  Ca  Ca0  1  0.250000  0.532071  0.175561  1
  Ca  Ca1  1  0.750000  0.467929  0.824439  1
  Dy  Dy2  1  0.750000  0.964143  0.673531  1
  Dy  Dy3  1  0.250000  0.035857  0.326469  1
  Mg  Mg4  1  0.250000  0.635319  0.559766  1
  Mg  Mg5  1  0.750000  0.364681  0.440234  1
  Mg  Mg6  1  0.750000  0.859434  0.056286  1
  Mg  Mg7  1  0.250000  0.140566  0.943714  1
  Rh  Rh8  1  0.250000  0.775482  0.857813  1
  Rh  Rh9  1  0.750000  0.224518  0.142187  1
  Rh  Rh10  1  0.750000  0.755402  0.376105  1
  Rh  Rh11  1  0.250000  0.244598  0.623895  1
