# generated using pymatgen
data_Sc4Al6ReIr
_symmetry_space_group_name_H-M   'P 1'
_cell_length_a   5.28835000
_cell_length_b   5.28835098
_cell_length_c   8.62225600
_cell_angle_alpha   90.00000000
_cell_angle_beta   90.00000000
_cell_angle_gamma   120.00000637
_symmetry_Int_Tables_number   1
_chemical_formula_structural   Sc4Al6ReIr
_chemical_formula_sum   'Sc4 Al6 Re1 Ir1'
_cell_volume   208.82956241
_cell_formula_units_Z   1
loop_
 _symmetry_equiv_pos_site_id
 _symmetry_equiv_pos_as_xyz
  1  'x, y, z'
loop_
 _atom_site_type_symbol
 _atom_site_label
 _atom_site_symmetry_multiplicity
 _atom_site_fract_x
 _atom_site_fract_y
 _atom_site_fract_z
 _atom_site_occupancy
  Sc  Sc0  1  0.333333  0.666667  0.056746  1
  Sc  Sc1  1  0.666667  0.333333  0.553064  1
  Sc  Sc2  1  0.333333  0.666667  0.446936  1
  Sc  Sc3  1  0.666667  0.333333  0.943254  1
  Al  Al4  1  0.834593  0.669186  0.252261  1
  Al  Al5  1  0.165407  0.834593  0.747739  1
  Al  Al6  1  0.669186  0.834593  0.747739  1
  Al  Al7  1  0.330814  0.165407  0.252261  1
  Al  Al8  1  0.834593  0.165407  0.252261  1
  Al  Al9  1  0.165407  0.330814  0.747739  1
  Re  Re10  1  0.000000  0.000000  0.000000  1
  Ir  Ir11  1  0.000000  0.000000  0.500000  1
