# generated using pymatgen
data_TbYb6Dy3Ru4
_symmetry_space_group_name_H-M   'P 1'
_cell_length_a   8.48451089
_cell_length_b   8.48389780
_cell_length_c   7.42529415
_cell_angle_alpha   83.23752518
_cell_angle_beta   83.24677796
_cell_angle_gamma   43.79953637
_symmetry_Int_Tables_number   1
_chemical_formula_structural   TbYb6Dy3Ru4
_chemical_formula_sum   'Tb1 Yb6 Dy3 Ru4'
_cell_volume   366.95011376
_cell_formula_units_Z   1
loop_
 _symmetry_equiv_pos_site_id
 _symmetry_equiv_pos_as_xyz
  1  'x, y, z'
loop_
 _atom_site_type_symbol
 _atom_site_label
 _atom_site_symmetry_multiplicity
 _atom_site_fract_x
 _atom_site_fract_y
 _atom_site_fract_z
 _atom_site_occupancy
  Tb  Tb0  1  0.969092  0.200610  0.080985  1
  Yb  Yb1  1  0.202322  0.974603  0.583460  1
  Yb  Yb2  1  0.025328  0.797692  0.916539  1
  Yb  Yb3  1  0.202125  0.365589  0.317019  1
  Yb  Yb4  1  0.634418  0.797958  0.183000  1
  Yb  Yb5  1  0.804204  0.628623  0.678544  1
  Yb  Yb6  1  0.371467  0.195793  0.821439  1
  Dy  Dy7  1  0.799480  0.030883  0.418930  1
  Dy  Dy8  1  0.565109  0.434856  0.750000  1
  Dy  Dy9  1  0.416313  0.583614  0.250028  1
  Ru  Ru10  1  0.177910  0.603489  0.573032  1
  Ru  Ru11  1  0.396637  0.821998  0.926927  1
  Ru  Ru12  1  0.816881  0.381206  0.418367  1
  Ru  Ru13  1  0.618714  0.183088  0.081730  1
