# generated using pymatgen
data_Li2Nd3AgPb3
_symmetry_space_group_name_H-M   'P 1'
_cell_length_a   7.61522200
_cell_length_b   7.61066618
_cell_length_c   4.75199800
_cell_angle_alpha   90.00000000
_cell_angle_beta   90.00000000
_cell_angle_gamma   120.01981251
_symmetry_Int_Tables_number   1
_chemical_formula_structural   Li2Nd3AgPb3
_chemical_formula_sum   'Li2 Nd3 Ag1 Pb3'
_cell_volume   238.46540528
_cell_formula_units_Z   1
loop_
 _symmetry_equiv_pos_site_id
 _symmetry_equiv_pos_as_xyz
  1  'x, y, z'
loop_
 _atom_site_type_symbol
 _atom_site_label
 _atom_site_symmetry_multiplicity
 _atom_site_fract_x
 _atom_site_fract_y
 _atom_site_fract_z
 _atom_site_occupancy
  Li  Li0  1  0.771884  0.767688  0.000000  1
  Li  Li1  1  0.004195  0.232312  0.000000  1
  Nd  Nd2  1  0.554448  0.000000  0.500000  1
  Nd  Nd3  1  0.430108  0.426377  0.500000  1
  Nd  Nd4  1  0.003731  0.573623  0.500000  1
  Ag  Ag5  1  0.237177  0.000000  0.000000  1
  Pb  Pb6  1  0.988746  0.000000  0.500000  1
  Pb  Pb7  1  0.334935  0.660160  0.000000  1
  Pb  Pb8  1  0.674776  0.339840  0.000000  1
