# generated using pymatgen
data_Lu12Co8Cu
_symmetry_space_group_name_H-M   'P 1'
_cell_length_a   3.96071301
_cell_length_b   11.11685063
_cell_length_c   11.10811401
_cell_angle_alpha   60.00602918
_cell_angle_beta   89.99867215
_cell_angle_gamma   89.99214306
_symmetry_Int_Tables_number   1
_chemical_formula_structural   Lu12Co8Cu
_chemical_formula_sum   'Lu12 Co8 Cu1'
_cell_volume   423.59661734
_cell_formula_units_Z   1
loop_
 _symmetry_equiv_pos_site_id
 _symmetry_equiv_pos_as_xyz
  1  'x, y, z'
loop_
 _atom_site_type_symbol
 _atom_site_label
 _atom_site_symmetry_multiplicity
 _atom_site_fract_x
 _atom_site_fract_y
 _atom_site_fract_z
 _atom_site_occupancy
  Lu  Lu0  1  0.749108  0.619013  0.864244  1
  Lu  Lu1  1  0.749075  0.516602  0.619267  1
  Lu  Lu2  1  0.749098  0.864130  0.516600  1
  Lu  Lu3  1  0.250892  0.380987  0.135756  1
  Lu  Lu4  1  0.250925  0.483398  0.380733  1
  Lu  Lu5  1  0.250902  0.135870  0.483400  1
  Lu  Lu6  1  0.750786  0.768623  0.256219  1
  Lu  Lu7  1  0.750840  0.975045  0.768805  1
  Lu  Lu8  1  0.750757  0.256387  0.974981  1
  Lu  Lu9  1  0.249214  0.231377  0.743781  1
  Lu  Lu10  1  0.249160  0.024955  0.231195  1
  Lu  Lu11  1  0.249243  0.743613  0.025019  1
  Co  Co12  1  0.751080  0.333382  0.333446  1
  Co  Co13  1  0.248920  0.666618  0.666554  1
  Co  Co14  1  0.748698  0.282095  0.563042  1
  Co  Co15  1  0.748753  0.155562  0.281629  1
  Co  Co16  1  0.748599  0.563068  0.154946  1
  Co  Co17  1  0.251302  0.717905  0.436958  1
  Co  Co18  1  0.251247  0.844438  0.718371  1
  Co  Co19  1  0.251401  0.436932  0.845054  1
  Cu  Cu20  1  0.500000  0.000000  0.000000  1
