# generated using pymatgen
data_Rb4Na2GdErSb4
_symmetry_space_group_name_H-M   'P 1'
_cell_length_a   11.36605311
_cell_length_b   11.36605279
_cell_length_c   7.47695700
_cell_angle_alpha   90.00000000
_cell_angle_beta   90.00000000
_cell_angle_gamma   98.59229747
_symmetry_Int_Tables_number   1
_chemical_formula_structural   Rb4Na2GdErSb4
_chemical_formula_sum   'Rb8 Na4 Gd2 Er2 Sb8'
_cell_volume   955.08573381
_cell_formula_units_Z   2
loop_
 _symmetry_equiv_pos_site_id
 _symmetry_equiv_pos_as_xyz
  1  'x, y, z'
loop_
 _atom_site_type_symbol
 _atom_site_label
 _atom_site_symmetry_multiplicity
 _atom_site_fract_x
 _atom_site_fract_y
 _atom_site_fract_z
 _atom_site_occupancy
  Rb  Rb0  1  0.071437  0.428563  0.250000  1
  Rb  Rb1  1  0.428563  0.071437  0.750000  1
  Rb  Rb2  1  0.928551  0.571449  0.750000  1
  Rb  Rb3  1  0.571449  0.928551  0.250000  1
  Rb  Rb4  1  0.675979  0.324042  0.216076  1
  Rb  Rb5  1  0.824021  0.175958  0.716076  1
  Rb  Rb6  1  0.324042  0.675979  0.783924  1
  Rb  Rb7  1  0.175958  0.824021  0.283924  1
  Na  Na8  1  0.381405  0.381405  0.000000  1
  Na  Na9  1  0.118595  0.118595  0.500000  1
  Na  Na10  1  0.618622  0.618622  0.000000  1
  Na  Na11  1  0.881378  0.881378  0.500000  1
  Gd  Gd12  1  0.130728  0.130728  0.000000  1
  Gd  Gd13  1  0.369272  0.369272  0.500000  1
  Er  Er14  1  0.869287  0.869287  0.000000  1
  Er  Er15  1  0.630713  0.630713  0.500000  1
  Sb  Sb16  1  0.846340  0.653659  0.250000  1
  Sb  Sb17  1  0.653659  0.846340  0.750000  1
  Sb  Sb18  1  0.153625  0.346374  0.750000  1
  Sb  Sb19  1  0.346374  0.153625  0.250000  1
  Sb  Sb20  1  0.899608  0.100271  0.210924  1
  Sb  Sb21  1  0.600392  0.399729  0.710924  1
  Sb  Sb22  1  0.100271  0.899608  0.789076  1
  Sb  Sb23  1  0.399729  0.600392  0.289076  1
