# generated using pymatgen
data_Tb3ErV4F28
_symmetry_space_group_name_H-M   'P 1'
_cell_length_a   5.52438107
_cell_length_b   8.84241816
_cell_length_c   11.81280364
_cell_angle_alpha   63.45975975
_cell_angle_beta   89.98240249
_cell_angle_gamma   89.99443935
_symmetry_Int_Tables_number   1
_chemical_formula_structural   Tb3ErV4F28
_chemical_formula_sum   'Tb3 Er1 V4 F28'
_cell_volume   516.23401302
_cell_formula_units_Z   1
loop_
 _symmetry_equiv_pos_site_id
 _symmetry_equiv_pos_as_xyz
  1  'x, y, z'
loop_
 _atom_site_type_symbol
 _atom_site_label
 _atom_site_symmetry_multiplicity
 _atom_site_fract_x
 _atom_site_fract_y
 _atom_site_fract_z
 _atom_site_occupancy
  Tb  Tb0  1  0.758065  0.806216  0.771203  1
  Tb  Tb1  1  0.258048  0.192821  0.729174  1
  Tb  Tb2  1  0.242131  0.190530  0.229680  1
  Er  Er3  1  0.741597  0.805949  0.271358  1
  V  V4  1  0.753738  0.272271  0.955062  1
  V  V5  1  0.253827  0.727141  0.543876  1
  V  V6  1  0.245306  0.726843  0.047238  1
  V  V7  1  0.745843  0.274600  0.453833  1
  F  F8  1  0.450643  0.706180  0.926357  1
  F  F9  1  0.950128  0.294815  0.575060  1
  F  F10  1  0.549269  0.293701  0.075739  1
  F  F11  1  0.047429  0.706398  0.423550  1
  F  F12  1  0.463305  0.285485  0.543849  1
  F  F13  1  0.964189  0.715455  0.956535  1
  F  F14  1  0.536727  0.716429  0.453175  1
  F  F15  1  0.036215  0.284044  0.044885  1
  F  F16  1  0.766857  0.504956  0.862733  1
  F  F17  1  0.267782  0.495174  0.636422  1
  F  F18  1  0.233139  0.494962  0.138982  1
  F  F19  1  0.734184  0.507253  0.361778  1
  F  F20  1  0.756234  0.043141  0.045214  1
  F  F21  1  0.256373  0.956898  0.453557  1
  F  F22  1  0.243395  0.956477  0.955807  1
  F  F23  1  0.743471  0.044973  0.544674  1
  F  F24  1  0.980479  0.731604  0.639792  1
  F  F25  1  0.479310  0.268865  0.859470  1
  F  F26  1  0.019473  0.268389  0.358716  1
  F  F27  1  0.519173  0.732368  0.143357  1
  F  F28  1  0.039738  0.749154  0.169965  1
  F  F29  1  0.543446  0.253203  0.330464  1
  F  F30  1  0.956086  0.252401  0.830899  1
  F  F31  1  0.456936  0.748041  0.667594  1
  F  F32  1  0.428030  0.971395  0.232195  1
  F  F33  1  0.922249  0.022622  0.267644  1
  F  F34  1  0.578621  0.027047  0.768550  1
  F  F35  1  0.078564  0.972200  0.731612  1
