# generated using pymatgen
data_RbBa3IrO6
_symmetry_space_group_name_H-M   'P 1'
_cell_length_a   7.34955536
_cell_length_b   7.34955425
_cell_length_c   7.34955491
_cell_angle_alpha   87.63665131
_cell_angle_beta   87.63665434
_cell_angle_gamma   87.63665012
_symmetry_Int_Tables_number   1
_chemical_formula_structural   RbBa3IrO6
_chemical_formula_sum   'Rb2 Ba6 Ir2 O12'
_cell_volume   396.00724558
_cell_formula_units_Z   2
loop_
 _symmetry_equiv_pos_site_id
 _symmetry_equiv_pos_as_xyz
  1  'x, y, z'
loop_
 _atom_site_type_symbol
 _atom_site_label
 _atom_site_symmetry_multiplicity
 _atom_site_fract_x
 _atom_site_fract_y
 _atom_site_fract_z
 _atom_site_occupancy
  Rb  Rb0  1  0.250000  0.250000  0.250000  1
  Rb  Rb1  1  0.750000  0.750000  0.750000  1
  Ba  Ba2  1  0.112340  0.750000  0.387660  1
  Ba  Ba3  1  0.387660  0.112340  0.750000  1
  Ba  Ba4  1  0.887660  0.250000  0.612340  1
  Ba  Ba5  1  0.612340  0.887660  0.250000  1
  Ba  Ba6  1  0.750000  0.387660  0.112340  1
  Ba  Ba7  1  0.250000  0.612340  0.887660  1
  Ir  Ir8  1  0.000000  0.000000  0.000000  1
  Ir  Ir9  1  0.500000  0.500000  0.500000  1
  O  O10  1  0.431037  0.761141  0.567500  1
  O  O11  1  0.567500  0.431037  0.761141  1
  O  O12  1  0.761141  0.567500  0.431037  1
  O  O13  1  0.068963  0.932500  0.738859  1
  O  O14  1  0.738859  0.068963  0.932500  1
  O  O15  1  0.932500  0.738859  0.068963  1
  O  O16  1  0.568963  0.238859  0.432500  1
  O  O17  1  0.432500  0.568963  0.238859  1
  O  O18  1  0.238859  0.432500  0.568963  1
  O  O19  1  0.931037  0.067500  0.261141  1
  O  O20  1  0.067500  0.261141  0.931037  1
  O  O21  1  0.261141  0.931037  0.067500  1
