# generated using pymatgen
data_Tm4ScAl3Ir4
_symmetry_space_group_name_H-M   'P 1'
_cell_length_a   6.84806170
_cell_length_b   4.24716800
_cell_length_c   8.01699744
_cell_angle_alpha   90.00000000
_cell_angle_beta   90.98751436
_cell_angle_gamma   90.00000000
_symmetry_Int_Tables_number   1
_chemical_formula_structural   Tm4ScAl3Ir4
_chemical_formula_sum   'Tm4 Sc1 Al3 Ir4'
_cell_volume   233.13868423
_cell_formula_units_Z   1
loop_
 _symmetry_equiv_pos_site_id
 _symmetry_equiv_pos_as_xyz
  1  'x, y, z'
loop_
 _atom_site_type_symbol
 _atom_site_label
 _atom_site_symmetry_multiplicity
 _atom_site_fract_x
 _atom_site_fract_y
 _atom_site_fract_z
 _atom_site_occupancy
  Tm  Tm0  1  0.982507  0.750000  0.183220  1
  Tm  Tm1  1  0.461028  0.750000  0.330768  1
  Tm  Tm2  1  0.525180  0.250000  0.672892  1
  Tm  Tm3  1  0.040833  0.250000  0.818841  1
  Sc  Sc4  1  0.637528  0.250000  0.062967  1
  Al  Al5  1  0.140295  0.250000  0.437790  1
  Al  Al6  1  0.859255  0.750000  0.556635  1
  Al  Al7  1  0.359297  0.750000  0.937018  1
  Ir  Ir8  1  0.260870  0.250000  0.124471  1
  Ir  Ir9  1  0.765800  0.250000  0.385250  1
  Ir  Ir10  1  0.227785  0.750000  0.620426  1
  Ir  Ir11  1  0.739618  0.750000  0.869721  1
