# generated using pymatgen
data_HoLu3ReB12Rh
_symmetry_space_group_name_H-M   'P 1'
_cell_length_a   3.62722200
_cell_length_b   9.05440600
_cell_length_c   11.44372100
_cell_angle_alpha   90.38814732
_cell_angle_beta   90.00000000
_cell_angle_gamma   90.00000000
_symmetry_Int_Tables_number   1
_chemical_formula_structural   HoLu3ReB12Rh
_chemical_formula_sum   'Ho2 Lu6 Re2 B24 Rh2'
_cell_volume   375.82995917
_cell_formula_units_Z   2
loop_
 _symmetry_equiv_pos_site_id
 _symmetry_equiv_pos_as_xyz
  1  'x, y, z'
loop_
 _atom_site_type_symbol
 _atom_site_label
 _atom_site_symmetry_multiplicity
 _atom_site_fract_x
 _atom_site_fract_y
 _atom_site_fract_z
 _atom_site_occupancy
  Ho  Ho0  1  0.000000  0.317803  0.410972  1
  Ho  Ho1  1  0.000000  0.682197  0.589028  1
  Lu  Lu2  1  0.000000  0.825637  0.082220  1
  Lu  Lu3  1  0.000000  0.174363  0.917780  1
  Lu  Lu4  1  0.000000  0.945542  0.371741  1
  Lu  Lu5  1  0.000000  0.054458  0.628259  1
  Lu  Lu6  1  0.000000  0.442338  0.126071  1
  Lu  Lu7  1  0.000000  0.557662  0.873929  1
  Re  Re8  1  0.000000  0.138436  0.179319  1
  Re  Re9  1  0.000000  0.861564  0.820681  1
  B  B10  1  0.500000  0.554759  0.434103  1
  B  B11  1  0.500000  0.445241  0.565897  1
  B  B12  1  0.500000  0.052690  0.066628  1
  B  B13  1  0.500000  0.947310  0.933372  1
  B  B14  1  0.500000  0.750501  0.420970  1
  B  B15  1  0.500000  0.249499  0.579030  1
  B  B16  1  0.500000  0.249484  0.080340  1
  B  B17  1  0.500000  0.750516  0.919660  1
  B  B18  1  0.500000  0.792335  0.264199  1
  B  B19  1  0.500000  0.207665  0.735801  1
  B  B20  1  0.500000  0.293536  0.234580  1
  B  B21  1  0.500000  0.706464  0.765420  1
  B  B22  1  0.500000  0.632281  0.182215  1
  B  B23  1  0.500000  0.367719  0.817785  1
  B  B24  1  0.500000  0.130917  0.315279  1
  B  B25  1  0.500000  0.869083  0.684721  1
  B  B26  1  0.500000  0.981375  0.212896  1
  B  B27  1  0.500000  0.018625  0.787104  1
  B  B28  1  0.500000  0.483083  0.286955  1
  B  B29  1  0.500000  0.516917  0.713045  1
  B  B30  1  0.500000  0.604665  0.028992  1
  B  B31  1  0.500000  0.395335  0.971008  1
  B  B32  1  0.500000  0.104215  0.471983  1
  B  B33  1  0.500000  0.895785  0.528017  1
  Rh  Rh34  1  0.000000  0.638908  0.320069  1
  Rh  Rh35  1  0.000000  0.361092  0.679931  1
