# generated using pymatgen
data_Sc3Pa2Si12Ir19
_symmetry_space_group_name_H-M   'P 1'
_cell_length_a   12.75826700
_cell_length_b   12.75826696
_cell_length_c   3.95459900
_cell_angle_alpha   90.00000000
_cell_angle_beta   90.00000000
_cell_angle_gamma   120.00000269
_symmetry_Int_Tables_number   1
_chemical_formula_structural   Sc3Pa2Si12Ir19
_chemical_formula_sum   'Sc3 Pa2 Si12 Ir19'
_cell_volume   557.46350907
_cell_formula_units_Z   1
loop_
 _symmetry_equiv_pos_site_id
 _symmetry_equiv_pos_as_xyz
  1  'x, y, z'
loop_
 _atom_site_type_symbol
 _atom_site_label
 _atom_site_symmetry_multiplicity
 _atom_site_fract_x
 _atom_site_fract_y
 _atom_site_fract_z
 _atom_site_occupancy
  Sc  Sc0  1  0.814765  0.000000  0.500000  1
  Sc  Sc1  1  0.000000  0.814765  0.500000  1
  Sc  Sc2  1  0.185235  0.185235  0.500000  1
  Pa  Pa3  1  0.333333  0.666667  0.000000  1
  Pa  Pa4  1  0.666667  0.333333  0.000000  1
  Si  Si5  1  0.176989  0.000000  0.000000  1
  Si  Si6  1  0.000000  0.176989  0.000000  1
  Si  Si7  1  0.823011  0.823011  0.000000  1
  Si  Si8  1  0.163175  0.476119  0.500000  1
  Si  Si9  1  0.523881  0.687054  0.500000  1
  Si  Si10  1  0.312946  0.836825  0.500000  1
  Si  Si11  1  0.687054  0.523881  0.500000  1
  Si  Si12  1  0.836825  0.312946  0.500000  1
  Si  Si13  1  0.476119  0.163175  0.500000  1
  Si  Si14  1  0.637144  0.000000  0.000000  1
  Si  Si15  1  0.000000  0.637144  0.000000  1
  Si  Si16  1  0.362856  0.362856  0.000000  1
  Ir  Ir17  1  0.450297  0.000000  0.000000  1
  Ir  Ir18  1  0.000000  0.450297  0.000000  1
  Ir  Ir19  1  0.549703  0.549703  0.000000  1
  Ir  Ir20  1  0.360658  0.489480  0.500000  1
  Ir  Ir21  1  0.510520  0.871178  0.500000  1
  Ir  Ir22  1  0.128822  0.639342  0.500000  1
  Ir  Ir23  1  0.871178  0.510520  0.500000  1
  Ir  Ir24  1  0.639342  0.128822  0.500000  1
  Ir  Ir25  1  0.489480  0.360658  0.500000  1
  Ir  Ir26  1  0.182136  0.375357  0.000000  1
  Ir  Ir27  1  0.624643  0.806779  0.000000  1
  Ir  Ir28  1  0.193221  0.817864  0.000000  1
  Ir  Ir29  1  0.806779  0.624643  0.000000  1
  Ir  Ir30  1  0.817864  0.193221  0.000000  1
  Ir  Ir31  1  0.375357  0.182136  0.000000  1
  Ir  Ir32  1  0.275338  0.000000  0.500000  1
  Ir  Ir33  1  0.000000  0.275338  0.500000  1
  Ir  Ir34  1  0.724662  0.724662  0.500000  1
  Ir  Ir35  1  0.000000  0.000000  0.000000  1
