# generated using pymatgen
data_Tb10CdTcHg2
_symmetry_space_group_name_H-M   'P 1'
_cell_length_a   9.65799900
_cell_length_b   9.65800001
_cell_length_c   9.81656600
_cell_angle_alpha   90.00000000
_cell_angle_beta   90.00000000
_cell_angle_gamma   120.17913090
_symmetry_Int_Tables_number   1
_chemical_formula_structural   Tb10CdTcHg2
_chemical_formula_sum   'Tb20 Cd2 Tc2 Hg4'
_cell_volume   791.54904058
_cell_formula_units_Z   2
loop_
 _symmetry_equiv_pos_site_id
 _symmetry_equiv_pos_as_xyz
  1  'x, y, z'
loop_
 _atom_site_type_symbol
 _atom_site_label
 _atom_site_symmetry_multiplicity
 _atom_site_fract_x
 _atom_site_fract_y
 _atom_site_fract_z
 _atom_site_occupancy
  Tb  Tb0  1  0.001688  0.998312  0.493490  1
  Tb  Tb1  1  0.001688  0.998312  0.006510  1
  Tb  Tb2  1  0.209695  0.790305  0.438791  1
  Tb  Tb3  1  0.209257  0.419027  0.439766  1
  Tb  Tb4  1  0.580973  0.790743  0.439766  1
  Tb  Tb5  1  0.790147  0.209853  0.559954  1
  Tb  Tb6  1  0.790138  0.580958  0.560022  1
  Tb  Tb7  1  0.419042  0.209862  0.560022  1
  Tb  Tb8  1  0.790147  0.209853  0.940046  1
  Tb  Tb9  1  0.790138  0.580958  0.939978  1
  Tb  Tb10  1  0.419042  0.209862  0.939978  1
  Tb  Tb11  1  0.209695  0.790305  0.061209  1
  Tb  Tb12  1  0.209257  0.419027  0.060234  1
  Tb  Tb13  1  0.580973  0.790743  0.060234  1
  Tb  Tb14  1  0.540214  0.459786  0.250000  1
  Tb  Tb15  1  0.540379  0.080284  0.250000  1
  Tb  Tb16  1  0.919716  0.459621  0.250000  1
  Tb  Tb17  1  0.459457  0.540543  0.750000  1
  Tb  Tb18  1  0.457028  0.919124  0.750000  1
  Tb  Tb19  1  0.080876  0.542972  0.750000  1
  Cd  Cd20  1  0.112372  0.228618  0.750000  1
  Cd  Cd21  1  0.771382  0.887628  0.750000  1
  Tc  Tc22  1  0.333212  0.666788  0.250000  1
  Tc  Tc23  1  0.666383  0.333617  0.750000  1
  Hg  Hg24  1  0.880870  0.119130  0.250000  1
  Hg  Hg25  1  0.880962  0.760474  0.250000  1
  Hg  Hg26  1  0.239526  0.119038  0.250000  1
  Hg  Hg27  1  0.115743  0.884257  0.750000  1
