# generated using pymatgen
data_YbDyPa2Ge6Os7
_symmetry_space_group_name_H-M   'P 1'
_cell_length_a   7.25725443
_cell_length_b   7.21946820
_cell_length_c   7.24307824
_cell_angle_alpha   109.37302851
_cell_angle_beta   109.51353131
_cell_angle_gamma   109.38169081
_symmetry_Int_Tables_number   1
_chemical_formula_structural   YbDyPa2Ge6Os7
_chemical_formula_sum   'Yb1 Dy1 Pa2 Ge6 Os7'
_cell_volume   292.65446737
_cell_formula_units_Z   1
loop_
 _symmetry_equiv_pos_site_id
 _symmetry_equiv_pos_as_xyz
  1  'x, y, z'
loop_
 _atom_site_type_symbol
 _atom_site_label
 _atom_site_symmetry_multiplicity
 _atom_site_fract_x
 _atom_site_fract_y
 _atom_site_fract_z
 _atom_site_occupancy
  Yb  Yb0  1  0.000000  0.000000  0.500000  1
  Dy  Dy1  1  0.000000  0.500000  0.000000  1
  Pa  Pa2  1  0.500000  0.000000  0.000000  1
  Pa  Pa3  1  0.500000  0.500000  0.500000  1
  Ge  Ge4  1  0.696505  0.691923  0.009162  1
  Ge  Ge5  1  0.303496  0.995414  0.312649  1
  Ge  Ge6  1  0.999988  0.309007  0.313002  1
  Ge  Ge7  1  0.303495  0.308077  0.990838  1
  Ge  Ge8  1  0.696504  0.004586  0.687351  1
  Ge  Ge9  1  0.000012  0.690993  0.686998  1
  Os  Os10  1  0.742417  0.248783  0.493264  1
  Os  Os11  1  0.742416  0.493572  0.249097  1
  Os  Os12  1  0.500298  0.250119  0.750171  1
  Os  Os13  1  0.257584  0.506428  0.750903  1
  Os  Os14  1  0.257583  0.751217  0.506736  1
  Os  Os15  1  0.499702  0.749881  0.249829  1
  Os  Os16  1  0.000000  0.000000  0.000000  1
