# generated using pymatgen
data_Zr8CrSi16Ru11
_symmetry_space_group_name_H-M   'P 1'
_cell_length_a   9.90905558
_cell_length_b   9.93027249
_cell_length_c   13.35778764
_cell_angle_alpha   53.93694698
_cell_angle_beta   53.98896973
_cell_angle_gamma   31.37044172
_symmetry_Int_Tables_number   1
_chemical_formula_structural   Zr8CrSi16Ru11
_chemical_formula_sum   'Zr8 Cr1 Si16 Ru11'
_cell_volume   541.62866159
_cell_formula_units_Z   1
loop_
 _symmetry_equiv_pos_site_id
 _symmetry_equiv_pos_as_xyz
  1  'x, y, z'
loop_
 _atom_site_type_symbol
 _atom_site_label
 _atom_site_symmetry_multiplicity
 _atom_site_fract_x
 _atom_site_fract_y
 _atom_site_fract_z
 _atom_site_occupancy
  Zr  Zr0  1  0.035845  0.295295  0.637225  1
  Zr  Zr1  1  0.706256  0.963265  0.860687  1
  Zr  Zr2  1  0.961285  0.704910  0.362830  1
  Zr  Zr3  1  0.294684  0.038356  0.137384  1
  Zr  Zr4  1  0.296929  0.557197  0.648049  1
  Zr  Zr5  1  0.444542  0.702216  0.850055  1
  Zr  Zr6  1  0.706759  0.436613  0.359506  1
  Zr  Zr7  1  0.553208  0.298732  0.148554  1
  Cr  Cr8  1  0.895702  0.147693  0.582734  1
  Si  Si9  1  0.973780  0.252256  0.893797  1
  Si  Si10  1  0.744989  0.033717  0.606036  1
  Si  Si11  1  0.028345  0.746363  0.104647  1
  Si  Si12  1  0.252077  0.973742  0.396712  1
  Si  Si13  1  0.143653  0.386530  0.895874  1
  Si  Si14  1  0.611005  0.858753  0.603623  1
  Si  Si15  1  0.857083  0.612002  0.104757  1
  Si  Si16  1  0.389245  0.139107  0.397082  1
  Si  Si17  1  0.084807  0.572181  0.566376  1
  Si  Si18  1  0.427513  0.914537  0.933686  1
  Si  Si19  1  0.915849  0.424166  0.436381  1
  Si  Si20  1  0.573439  0.084793  0.065301  1
  Si  Si21  1  0.624031  0.378917  0.747685  1
  Si  Si22  1  0.381909  0.616832  0.249902  1
  Si  Si23  1  0.117914  0.884132  0.745667  1
  Si  Si24  1  0.873256  0.126765  0.251019  1
  Ru  Ru25  1  0.864691  0.091217  0.916640  1
  Ru  Ru26  1  0.101670  0.855975  0.416318  1
  Ru  Ru27  1  0.134618  0.908670  0.084647  1
  Ru  Ru28  1  0.831984  0.643019  0.781103  1
  Ru  Ru29  1  0.355199  0.168610  0.719351  1
  Ru  Ru30  1  0.171767  0.353824  0.219006  1
  Ru  Ru31  1  0.648454  0.827613  0.279562  1
  Ru  Ru32  1  0.241577  0.515010  0.931271  1
  Ru  Ru33  1  0.481092  0.763593  0.564668  1
  Ru  Ru34  1  0.757314  0.486406  0.068472  1
  Ru  Ru35  1  0.517530  0.236993  0.433393  1
