# generated using pymatgen
data_LiPr16Cd(HgIr2)2
_symmetry_space_group_name_H-M   'P 1'
_cell_length_a   10.03506027
_cell_length_b   10.03802987
_cell_length_c   10.03802959
_cell_angle_alpha   60.01967328
_cell_angle_beta   59.95534021
_cell_angle_gamma   59.95533388
_symmetry_Int_Tables_number   1
_chemical_formula_structural   LiPr16Cd(HgIr2)2
_chemical_formula_sum   'Li1 Pr16 Cd1 Hg2 Ir4'
_cell_volume   714.61622248
_cell_formula_units_Z   1
loop_
 _symmetry_equiv_pos_site_id
 _symmetry_equiv_pos_as_xyz
  1  'x, y, z'
loop_
 _atom_site_type_symbol
 _atom_site_label
 _atom_site_symmetry_multiplicity
 _atom_site_fract_x
 _atom_site_fract_y
 _atom_site_fract_z
 _atom_site_occupancy
  Li  Li0  1  0.569253  0.564980  0.564980  1
  Pr  Pr1  1  0.349790  0.349444  0.349444  1
  Pr  Pr2  1  0.347697  0.347815  0.957295  1
  Pr  Pr3  1  0.347697  0.957295  0.347815  1
  Pr  Pr4  1  0.955246  0.348491  0.348491  1
  Pr  Pr5  1  0.808503  0.193217  0.193217  1
  Pr  Pr6  1  0.186548  0.811948  0.811948  1
  Pr  Pr7  1  0.191331  0.809893  0.192038  1
  Pr  Pr8  1  0.810882  0.188671  0.811556  1
  Pr  Pr9  1  0.191331  0.192038  0.809893  1
  Pr  Pr10  1  0.810882  0.811556  0.188671  1
  Pr  Pr11  1  0.938319  0.562125  0.562125  1
  Pr  Pr12  1  0.560257  0.939540  0.939540  1
  Pr  Pr13  1  0.560749  0.939076  0.562156  1
  Pr  Pr14  1  0.938434  0.561188  0.939036  1
  Pr  Pr15  1  0.560749  0.562156  0.939076  1
  Pr  Pr16  1  0.938434  0.939036  0.561188  1
  Cd  Cd17  1  0.259208  0.581148  0.581148  1
  Hg  Hg18  1  0.585634  0.589059  0.246390  1
  Hg  Hg19  1  0.585634  0.246390  0.589059  1
  Ir  Ir20  1  0.141905  0.142363  0.142363  1
  Ir  Ir21  1  0.142731  0.143393  0.576074  1
  Ir  Ir22  1  0.142731  0.576074  0.143393  1
  Ir  Ir23  1  0.576054  0.143103  0.143103  1
