# generated using pymatgen
data_Zr2InCoPt
_symmetry_space_group_name_H-M   'P 1'
_cell_length_a   7.51192900
_cell_length_b   7.49295900
_cell_length_c   3.29722700
_cell_angle_alpha   90.00000000
_cell_angle_beta   90.00000000
_cell_angle_gamma   90.00000000
_symmetry_Int_Tables_number   1
_chemical_formula_structural   Zr2InCoPt
_chemical_formula_sum   'Zr4 In2 Co2 Pt2'
_cell_volume   185.58961815
_cell_formula_units_Z   2
loop_
 _symmetry_equiv_pos_site_id
 _symmetry_equiv_pos_as_xyz
  1  'x, y, z'
loop_
 _atom_site_type_symbol
 _atom_site_label
 _atom_site_symmetry_multiplicity
 _atom_site_fract_x
 _atom_site_fract_y
 _atom_site_fract_z
 _atom_site_occupancy
  Zr  Zr0  1  0.669099  0.187441  0.500000  1
  Zr  Zr1  1  0.169098  0.312558  0.500000  1
  Zr  Zr2  1  0.828340  0.640842  0.500000  1
  Zr  Zr3  1  0.328340  0.859158  0.500000  1
  In  In4  1  0.996987  0.003610  0.000000  1
  In  In5  1  0.496987  0.496390  0.000000  1
  Co  Co6  1  0.374302  0.130151  0.000000  1
  Co  Co7  1  0.874302  0.369848  0.000000  1
  Pt  Pt8  1  0.131271  0.624229  0.000000  1
  Pt  Pt9  1  0.631271  0.875770  0.000000  1
