# generated using pymatgen
data_Sc5Nb3(P3Rh4)4
_symmetry_space_group_name_H-M   'P 1'
_cell_length_a   12.66164800
_cell_length_b   12.66164815
_cell_length_c   3.87062700
_cell_angle_alpha   90.00000000
_cell_angle_beta   90.00000000
_cell_angle_gamma   119.99999960
_symmetry_Int_Tables_number   1
_chemical_formula_structural   Sc5Nb3(P3Rh4)4
_chemical_formula_sum   'Sc5 Nb3 P12 Rh16'
_cell_volume   537.39352830
_cell_formula_units_Z   1
loop_
 _symmetry_equiv_pos_site_id
 _symmetry_equiv_pos_as_xyz
  1  'x, y, z'
loop_
 _atom_site_type_symbol
 _atom_site_label
 _atom_site_symmetry_multiplicity
 _atom_site_fract_x
 _atom_site_fract_y
 _atom_site_fract_z
 _atom_site_occupancy
  Sc  Sc0  1  0.815062  0.000000  0.500000  1
  Sc  Sc1  1  0.000000  0.815062  0.500000  1
  Sc  Sc2  1  0.184938  0.184938  0.500000  1
  Sc  Sc3  1  0.333333  0.666667  0.000000  1
  Sc  Sc4  1  0.666667  0.333333  0.000000  1
  Nb  Nb5  1  0.450855  0.000000  0.000000  1
  Nb  Nb6  1  0.000000  0.450855  0.000000  1
  Nb  Nb7  1  0.549145  0.549145  0.000000  1
  P  P8  1  0.174257  0.000000  0.000000  1
  P  P9  1  0.000000  0.174257  0.000000  1
  P  P10  1  0.825743  0.825743  0.000000  1
  P  P11  1  0.516056  0.682972  0.500000  1
  P  P12  1  0.317028  0.833084  0.500000  1
  P  P13  1  0.166916  0.483944  0.500000  1
  P  P14  1  0.483944  0.166916  0.500000  1
  P  P15  1  0.682972  0.516056  0.500000  1
  P  P16  1  0.833084  0.317028  0.500000  1
  P  P17  1  0.644698  0.000000  0.000000  1
  P  P18  1  0.000000  0.644698  0.000000  1
  P  P19  1  0.355302  0.355302  0.000000  1
  Rh  Rh20  1  0.277743  0.000000  0.500000  1
  Rh  Rh21  1  0.000000  0.277743  0.500000  1
  Rh  Rh22  1  0.722257  0.722257  0.500000  1
  Rh  Rh23  1  0.628740  0.806151  0.000000  1
  Rh  Rh24  1  0.193849  0.822589  0.000000  1
  Rh  Rh25  1  0.177411  0.371260  0.000000  1
  Rh  Rh26  1  0.371260  0.177411  0.000000  1
  Rh  Rh27  1  0.806151  0.628740  0.000000  1
  Rh  Rh28  1  0.822589  0.193849  0.000000  1
  Rh  Rh29  1  0.510824  0.864682  0.500000  1
  Rh  Rh30  1  0.135318  0.646142  0.500000  1
  Rh  Rh31  1  0.353858  0.489176  0.500000  1
  Rh  Rh32  1  0.489176  0.353858  0.500000  1
  Rh  Rh33  1  0.864682  0.510824  0.500000  1
  Rh  Rh34  1  0.646142  0.135318  0.500000  1
  Rh  Rh35  1  0.000000  0.000000  0.000000  1
