# generated using pymatgen
data_Ho5BiPb2Se
_symmetry_space_group_name_H-M   'P 1'
_cell_length_a   9.23102600
_cell_length_b   9.26883021
_cell_length_c   6.66618900
_cell_angle_alpha   90.00000000
_cell_angle_beta   90.00000000
_cell_angle_gamma   120.13556111
_symmetry_Int_Tables_number   1
_chemical_formula_structural   Ho5BiPb2Se
_chemical_formula_sum   'Ho10 Bi2 Pb4 Se2'
_cell_volume   493.27406853
_cell_formula_units_Z   2
loop_
 _symmetry_equiv_pos_site_id
 _symmetry_equiv_pos_as_xyz
  1  'x, y, z'
loop_
 _atom_site_type_symbol
 _atom_site_label
 _atom_site_symmetry_multiplicity
 _atom_site_fract_x
 _atom_site_fract_y
 _atom_site_fract_z
 _atom_site_occupancy
  Ho  Ho0  1  0.750260  0.747631  0.750000  1
  Ho  Ho1  1  0.249740  0.997372  0.750000  1
  Ho  Ho2  1  0.000000  0.252308  0.750000  1
  Ho  Ho3  1  0.252458  0.251431  0.250000  1
  Ho  Ho4  1  0.747542  0.998972  0.250000  1
  Ho  Ho5  1  0.000000  0.747724  0.250000  1
  Ho  Ho6  1  0.668772  0.335076  0.001440  1
  Ho  Ho7  1  0.331228  0.666305  0.001440  1
  Ho  Ho8  1  0.331228  0.666305  0.498560  1
  Ho  Ho9  1  0.668772  0.335076  0.498560  1
  Bi  Bi10  1  0.395269  0.395270  0.750000  1
  Bi  Bi11  1  0.604731  0.000001  0.750000  1
  Pb  Pb12  1  0.000000  0.604105  0.750000  1
  Pb  Pb13  1  0.605429  0.606342  0.250000  1
  Pb  Pb14  1  0.394571  0.000913  0.250000  1
  Pb  Pb15  1  0.000000  0.394018  0.250000  1
  Se  Se16  1  0.000000  0.000575  0.999830  1
  Se  Se17  1  0.000000  0.000575  0.500170  1
