# generated using pymatgen
data_Y4AlIr7
_symmetry_space_group_name_H-M   'P 1'
_cell_length_a   5.47345400
_cell_length_b   5.47345468
_cell_length_c   16.79174700
_cell_angle_alpha   90.00000000
_cell_angle_beta   90.00000000
_cell_angle_gamma   119.99999587
_symmetry_Int_Tables_number   1
_chemical_formula_structural   Y4AlIr7
_chemical_formula_sum   'Y8 Al2 Ir14'
_cell_volume   435.66184991
_cell_formula_units_Z   2
loop_
 _symmetry_equiv_pos_site_id
 _symmetry_equiv_pos_as_xyz
  1  'x, y, z'
loop_
 _atom_site_type_symbol
 _atom_site_label
 _atom_site_symmetry_multiplicity
 _atom_site_fract_x
 _atom_site_fract_y
 _atom_site_fract_z
 _atom_site_occupancy
  Y  Y0  1  0.000000  0.000000  0.094270  1
  Y  Y1  1  0.666667  0.333333  0.157818  1
  Y  Y2  1  0.666667  0.333333  0.342182  1
  Y  Y3  1  0.000000  0.000000  0.405730  1
  Y  Y4  1  0.000000  0.000000  0.590990  1
  Y  Y5  1  0.333333  0.666666  0.654094  1
  Y  Y6  1  0.333333  0.666666  0.845907  1
  Y  Y7  1  0.000000  0.000000  0.909010  1
  Al  Al8  1  0.333333  0.666666  0.131241  1
  Al  Al9  1  0.333333  0.666666  0.368759  1
  Ir  Ir10  1  0.498293  0.996584  0.004369  1
  Ir  Ir11  1  0.003416  0.501708  0.004369  1
  Ir  Ir12  1  0.498293  0.501708  0.004369  1
  Ir  Ir13  1  0.162142  0.324284  0.250000  1
  Ir  Ir14  1  0.162142  0.837858  0.250000  1
  Ir  Ir15  1  0.675716  0.837858  0.250000  1
  Ir  Ir16  1  0.498293  0.996584  0.495631  1
  Ir  Ir17  1  0.003416  0.501708  0.495631  1
  Ir  Ir18  1  0.498293  0.501708  0.495631  1
  Ir  Ir19  1  0.666667  0.333333  0.621237  1
  Ir  Ir20  1  0.325583  0.162791  0.750000  1
  Ir  Ir21  1  0.837208  0.162791  0.750000  1
  Ir  Ir22  1  0.837209  0.674417  0.750000  1
  Ir  Ir23  1  0.666667  0.333333  0.878763  1
