# generated using pymatgen
data_Er7TmTi12Si15Pt
_symmetry_space_group_name_H-M   'P 1'
_cell_length_a   7.06165943
_cell_length_b   7.01100545
_cell_length_c   12.92731236
_cell_angle_alpha   89.91094931
_cell_angle_beta   89.92164882
_cell_angle_gamma   90.01615397
_symmetry_Int_Tables_number   1
_chemical_formula_structural   Er7TmTi12Si15Pt
_chemical_formula_sum   'Er7 Tm1 Ti12 Si15 Pt1'
_cell_volume   640.02121209
_cell_formula_units_Z   1
loop_
 _symmetry_equiv_pos_site_id
 _symmetry_equiv_pos_as_xyz
  1  'x, y, z'
loop_
 _atom_site_type_symbol
 _atom_site_label
 _atom_site_symmetry_multiplicity
 _atom_site_fract_x
 _atom_site_fract_y
 _atom_site_fract_z
 _atom_site_occupancy
  Er  Er0  1  0.501434  0.838741  0.717710  1
  Er  Er1  1  0.500642  0.159753  0.216895  1
  Er  Er2  1  0.842026  0.496997  0.282960  1
  Er  Er3  1  0.157075  0.502088  0.782998  1
  Er  Er4  1  0.659563  0.997584  0.967737  1
  Er  Er5  1  0.001785  0.339293  0.534482  1
  Er  Er6  1  0.998883  0.659946  0.033346  1
  Tm  Tm7  1  0.340329  0.001819  0.465881  1
  Ti  Ti8  1  0.326068  0.326727  0.001294  1
  Ti  Ti9  1  0.173946  0.826332  0.249913  1
  Ti  Ti10  1  0.822909  0.172911  0.749776  1
  Ti  Ti11  1  0.673688  0.671937  0.499307  1
  Ti  Ti12  1  0.154591  0.010932  0.876572  1
  Ti  Ti13  1  0.491895  0.651951  0.126229  1
  Ti  Ti14  1  0.502273  0.345426  0.626281  1
  Ti  Ti15  1  0.654329  0.496481  0.875623  1
  Ti  Ti16  1  0.348542  0.506983  0.373203  1
  Ti  Ti17  1  0.847255  0.992482  0.375059  1
  Ti  Ti18  1  0.007683  0.151492  0.125333  1
  Ti  Ti19  1  0.987954  0.848795  0.618985  1
  Si  Si20  1  0.368613  0.703081  0.934376  1
  Si  Si21  1  0.631946  0.296831  0.433231  1
  Si  Si22  1  0.703204  0.369093  0.067312  1
  Si  Si23  1  0.301097  0.632379  0.564143  1
  Si  Si24  1  0.795689  0.868699  0.182668  1
  Si  Si25  1  0.131140  0.202738  0.316275  1
  Si  Si26  1  0.868417  0.798426  0.816723  1
  Si  Si27  1  0.292261  0.953742  0.065760  1
  Si  Si28  1  0.547231  0.791394  0.314966  1
  Si  Si29  1  0.456932  0.213123  0.818347  1
  Si  Si30  1  0.790109  0.547438  0.685803  1
  Si  Si31  1  0.207571  0.453403  0.184924  1
  Si  Si32  1  0.706102  0.046798  0.562982  1
  Si  Si33  1  0.952001  0.291865  0.936881  1
  Si  Si34  1  0.048228  0.708166  0.433225  1
  Pt  Pt35  1  0.206589  0.124153  0.682803  1
