# generated using pymatgen
data_TmZn2CuAgRh
_symmetry_space_group_name_H-M   'P 1'
_cell_length_a   5.25978727
_cell_length_b   5.12800189
_cell_length_c   5.12800242
_cell_angle_alpha   60.77331580
_cell_angle_beta   59.66613560
_cell_angle_gamma   59.66613686
_symmetry_Int_Tables_number   1
_chemical_formula_structural   TmZn2CuAgRh
_chemical_formula_sum   'Tm1 Zn2 Cu1 Ag1 Rh1'
_cell_volume   97.85591887
_cell_formula_units_Z   1
loop_
 _symmetry_equiv_pos_site_id
 _symmetry_equiv_pos_as_xyz
  1  'x, y, z'
loop_
 _atom_site_type_symbol
 _atom_site_label
 _atom_site_symmetry_multiplicity
 _atom_site_fract_x
 _atom_site_fract_y
 _atom_site_fract_z
 _atom_site_occupancy
  Tm  Tm0  1  0.243532  0.256034  0.256034  1
  Zn  Zn1  1  0.628353  0.623239  0.118873  1
  Zn  Zn2  1  0.628353  0.118873  0.623239  1
  Cu  Cu3  1  0.123487  0.625062  0.625062  1
  Ag  Ag4  1  0.001352  0.004476  0.004476  1
  Rh  Rh5  1  0.624922  0.622317  0.622317  1
