# generated using pymatgen
data_Er3Pa(Al8Pt3)3
_symmetry_space_group_name_H-M   'P 1'
_cell_length_a   7.54406812
_cell_length_b   7.54339991
_cell_length_c   13.11890830
_cell_angle_alpha   84.51985250
_cell_angle_beta   101.02437223
_cell_angle_gamma   119.88881711
_symmetry_Int_Tables_number   1
_chemical_formula_structural   Er3Pa(Al8Pt3)3
_chemical_formula_sum   'Er3 Pa1 Al24 Pt9'
_cell_volume   635.32676013
_cell_formula_units_Z   1
loop_
 _symmetry_equiv_pos_site_id
 _symmetry_equiv_pos_as_xyz
  1  'x, y, z'
loop_
 _atom_site_type_symbol
 _atom_site_label
 _atom_site_symmetry_multiplicity
 _atom_site_fract_x
 _atom_site_fract_y
 _atom_site_fract_z
 _atom_site_occupancy
  Er  Er0  1  0.267360  0.001060  0.807509  1
  Er  Er1  1  0.062146  0.668293  0.192290  1
  Er  Er2  1  0.938013  0.332456  0.807637  1
  Pa  Pa3  1  0.733612  0.998919  0.195174  1
  Al  Al4  1  0.807875  0.869269  0.815161  1
  Al  Al5  1  0.192281  0.132994  0.183930  1
  Al  Al6  1  0.981940  0.666172  0.943812  1
  Al  Al7  1  0.018659  0.334854  0.055807  1
  Al  Al8  1  0.397805  0.663989  0.816686  1
  Al  Al9  1  0.599964  0.334431  0.182705  1
  Al  Al10  1  0.883179  0.665482  0.670718  1
  Al  Al11  1  0.119952  0.337348  0.329529  1
  Al  Al12  1  0.602713  0.457856  0.816155  1
  Al  Al13  1  0.398885  0.542030  0.183254  1
  Al  Al14  1  0.229546  0.339405  0.669503  1
  Al  Al15  1  0.769899  0.657065  0.331057  1
  Al  Al16  1  0.852861  0.334176  0.559072  1
  Al  Al17  1  0.186629  0.999417  0.559022  1
  Al  Al18  1  0.814002  0.000439  0.441924  1
  Al  Al19  1  0.351203  0.998620  0.055823  1
  Al  Al20  1  0.647827  0.000704  0.944065  1
  Al  Al21  1  0.555915  0.994022  0.670389  1
  Al  Al22  1  0.441334  0.006386  0.329374  1
  Al  Al23  1  0.520083  0.666104  0.562309  1
  Al  Al24  1  0.479125  0.332653  0.438712  1
  Al  Al25  1  0.683780  0.667315  0.047204  1
  Al  Al26  1  0.316572  0.332154  0.952171  1
  Al  Al27  1  0.147640  0.666868  0.441384  1
  Pt  Pt28  1  0.328251  0.671675  0.000828  1
  Pt  Pt29  1  0.545645  0.324421  0.637472  1
  Pt  Pt30  1  0.454268  0.676099  0.361239  1
  Pt  Pt31  1  0.888007  0.008766  0.638597  1
  Pt  Pt32  1  0.110314  0.990821  0.359533  1
  Pt  Pt33  1  0.672310  0.328321  0.000723  1
  Pt  Pt34  1  0.204007  0.666708  0.639011  1
  Pt  Pt35  1  0.796019  0.332921  0.359646  1
  Pt  Pt36  1  0.000378  0.999788  0.000578  1
