# generated using pymatgen
data_MgMnZn4(AsO4)4
_symmetry_space_group_name_H-M   'P 1'
_cell_length_a   8.68323755
_cell_length_b   5.37029246
_cell_length_c   9.09200561
_cell_angle_alpha   60.41617356
_cell_angle_beta   90.16166912
_cell_angle_gamma   90.03582570
_symmetry_Int_Tables_number   1
_chemical_formula_structural   MgMnZn4(AsO4)4
_chemical_formula_sum   'Mg1 Mn1 Zn4 As4 O16'
_cell_volume   368.70080854
_cell_formula_units_Z   1
loop_
 _symmetry_equiv_pos_site_id
 _symmetry_equiv_pos_as_xyz
  1  'x, y, z'
loop_
 _atom_site_type_symbol
 _atom_site_label
 _atom_site_symmetry_multiplicity
 _atom_site_fract_x
 _atom_site_fract_y
 _atom_site_fract_z
 _atom_site_occupancy
  Mg  Mg0  1  0.500000  0.000000  0.500000  1
  Mn  Mn1  1  0.000000  0.000000  0.000000  1
  Zn  Zn2  1  0.363724  0.984763  0.111205  1
  Zn  Zn3  1  0.636276  0.015237  0.888795  1
  Zn  Zn4  1  0.860067  0.022620  0.389386  1
  Zn  Zn5  1  0.139933  0.977380  0.610614  1
  As  As6  1  0.691011  0.649477  0.308003  1
  As  As7  1  0.308989  0.350523  0.691997  1
  As  As8  1  0.198155  0.346981  0.199228  1
  As  As9  1  0.801845  0.653019  0.800772  1
  O  O10  1  0.633931  0.725790  0.461011  1
  O  O11  1  0.366069  0.274210  0.538989  1
  O  O12  1  0.145059  0.280472  0.040274  1
  O  O13  1  0.854941  0.719528  0.959726  1
  O  O14  1  0.567788  0.793924  0.135512  1
  O  O15  1  0.432212  0.206076  0.864488  1
  O  O16  1  0.068433  0.205014  0.364999  1
  O  O17  1  0.931567  0.794986  0.635001  1
  O  O18  1  0.868208  0.823494  0.249683  1
  O  O19  1  0.131792  0.176506  0.750317  1
  O  O20  1  0.372762  0.165054  0.261897  1
  O  O21  1  0.627238  0.834946  0.738103  1
  O  O22  1  0.695334  0.286164  0.383101  1
  O  O23  1  0.304666  0.713836  0.616899  1
  O  O24  1  0.203131  0.709306  0.124919  1
  O  O25  1  0.796869  0.290694  0.875081  1
