# generated using pymatgen
data_La4Zn3GaPd4
_symmetry_space_group_name_H-M   'P 1'
_cell_length_a   7.23134826
_cell_length_b   4.49612900
_cell_length_c   8.10656176
_cell_angle_alpha   90.00000000
_cell_angle_beta   90.10962370
_cell_angle_gamma   90.00000000
_symmetry_Int_Tables_number   1
_chemical_formula_structural   La4Zn3GaPd4
_chemical_formula_sum   'La4 Zn3 Ga1 Pd4'
_cell_volume   263.56876515
_cell_formula_units_Z   1
loop_
 _symmetry_equiv_pos_site_id
 _symmetry_equiv_pos_as_xyz
  1  'x, y, z'
loop_
 _atom_site_type_symbol
 _atom_site_label
 _atom_site_symmetry_multiplicity
 _atom_site_fract_x
 _atom_site_fract_y
 _atom_site_fract_z
 _atom_site_occupancy
  La  La0  1  0.028425  0.250000  0.305865  1
  La  La1  1  0.534479  0.250000  0.194106  1
  La  La2  1  0.966574  0.750000  0.693203  1
  La  La3  1  0.467024  0.750000  0.804784  1
  Zn  Zn4  1  0.153422  0.250000  0.929806  1
  Zn  Zn5  1  0.344222  0.750000  0.427636  1
  Zn  Zn6  1  0.845912  0.750000  0.072603  1
  Ga  Ga7  1  0.656054  0.250000  0.569942  1
  Pd  Pd8  1  0.276505  0.250000  0.606247  1
  Pd  Pd9  1  0.769909  0.250000  0.891271  1
  Pd  Pd10  1  0.727400  0.750000  0.396843  1
  Pd  Pd11  1  0.230073  0.750000  0.107694  1
