# generated using pymatgen
data_Hf6AlHgC4
_symmetry_space_group_name_H-M   'P 1'
_cell_length_a   3.30408800
_cell_length_b   3.30408787
_cell_length_c   19.87017900
_cell_angle_alpha   90.00000000
_cell_angle_beta   90.00000000
_cell_angle_gamma   120.00000125
_symmetry_Int_Tables_number   1
_chemical_formula_structural   Hf6AlHgC4
_chemical_formula_sum   'Hf6 Al1 Hg1 C4'
_cell_volume   187.86055479
_cell_formula_units_Z   1
loop_
 _symmetry_equiv_pos_site_id
 _symmetry_equiv_pos_as_xyz
  1  'x, y, z'
loop_
 _atom_site_type_symbol
 _atom_site_label
 _atom_site_symmetry_multiplicity
 _atom_site_fract_x
 _atom_site_fract_y
 _atom_site_fract_z
 _atom_site_occupancy
  Hf  Hf0  1  0.000000  0.000000  0.997789  1
  Hf  Hf1  1  0.333333  0.666667  0.126396  1
  Hf  Hf2  1  0.333333  0.666667  0.373604  1
  Hf  Hf3  1  0.000000  0.000000  0.502211  1
  Hf  Hf4  1  0.666666  0.333333  0.630967  1
  Hf  Hf5  1  0.666666  0.333333  0.869033  1
  Al  Al6  1  0.000000  0.000000  0.750000  1
  Hg  Hg7  1  0.000000  0.000000  0.250000  1
  C  C8  1  0.666666  0.333333  0.067883  1
  C  C9  1  0.666666  0.333333  0.432117  1
  C  C10  1  0.333333  0.666667  0.571600  1
  C  C11  1  0.333333  0.666667  0.928400  1
