# generated using pymatgen
data_CaYb9(MoN5)2
_symmetry_space_group_name_H-M   'P 1'
_cell_length_a   6.84714447
_cell_length_b   6.84165975
_cell_length_c   8.82590233
_cell_angle_alpha   80.01564492
_cell_angle_beta   79.90842325
_cell_angle_gamma   59.49511174
_symmetry_Int_Tables_number   1
_chemical_formula_structural   CaYb9(MoN5)2
_chemical_formula_sum   'Ca1 Yb9 Mo2 N10'
_cell_volume   348.97547669
_cell_formula_units_Z   1
loop_
 _symmetry_equiv_pos_site_id
 _symmetry_equiv_pos_as_xyz
  1  'x, y, z'
loop_
 _atom_site_type_symbol
 _atom_site_label
 _atom_site_symmetry_multiplicity
 _atom_site_fract_x
 _atom_site_fract_y
 _atom_site_fract_z
 _atom_site_occupancy
  Ca  Ca0  1  0.133713  0.638147  0.156784  1
  Yb  Yb1  1  0.873523  0.349589  0.834436  1
  Yb  Yb2  1  0.871155  0.872896  0.827856  1
  Yb  Yb3  1  0.738602  0.738657  0.520924  1
  Yb  Yb4  1  0.757505  0.245694  0.505392  1
  Yb  Yb5  1  0.632650  0.136496  0.156340  1
  Yb  Yb6  1  0.349231  0.874584  0.834174  1
  Yb  Yb7  1  0.246743  0.756795  0.505930  1
  Yb  Yb8  1  0.246223  0.246090  0.491911  1
  Yb  Yb9  1  0.141008  0.141587  0.162308  1
  Mo  Mo10  1  0.631562  0.630260  0.220824  1
  Mo  Mo11  1  0.368364  0.367778  0.776169  1
  N  N12  1  0.909612  0.468243  0.320747  1
  N  N13  1  0.997174  0.001120  0.012308  1
  N  N14  1  0.677231  0.677221  0.005736  1
  N  N15  1  0.530533  0.530753  0.692132  1
  N  N16  1  0.470097  0.909843  0.319979  1
  N  N17  1  0.532634  0.089536  0.681526  1
  N  N18  1  0.472464  0.467785  0.299347  1
  N  N19  1  0.326844  0.321349  0.992310  1
  N  N20  1  0.065437  0.065343  0.646368  1
  N  N21  1  0.089983  0.532523  0.682304  1
