# generated using pymatgen
data_Ho8Al2NiRu
_symmetry_space_group_name_H-M   'P 1'
_cell_length_a   9.39605794
_cell_length_b   9.39763250
_cell_length_c   9.39763328
_cell_angle_alpha   60.21007184
_cell_angle_beta   60.00553595
_cell_angle_gamma   60.00554692
_symmetry_Int_Tables_number   1
_chemical_formula_structural   Ho8Al2NiRu
_chemical_formula_sum   'Ho16 Al4 Ni2 Ru2'
_cell_volume   587.74491432
_cell_formula_units_Z   2
loop_
 _symmetry_equiv_pos_site_id
 _symmetry_equiv_pos_as_xyz
  1  'x, y, z'
loop_
 _atom_site_type_symbol
 _atom_site_label
 _atom_site_symmetry_multiplicity
 _atom_site_fract_x
 _atom_site_fract_y
 _atom_site_fract_z
 _atom_site_occupancy
  Ho  Ho0  1  0.441228  0.434567  0.061592  1
  Ho  Ho1  1  0.648469  0.648913  0.054150  1
  Ho  Ho2  1  0.192650  0.805966  0.193214  1
  Ho  Ho3  1  0.062613  0.434567  0.061592  1
  Ho  Ho4  1  0.191859  0.808141  0.808141  1
  Ho  Ho5  1  0.060035  0.439965  0.439965  1
  Ho  Ho6  1  0.806925  0.193075  0.193075  1
  Ho  Ho7  1  0.646593  0.649905  0.649905  1
  Ho  Ho8  1  0.808170  0.193214  0.805966  1
  Ho  Ho9  1  0.192650  0.193214  0.805966  1
  Ho  Ho10  1  0.053599  0.649905  0.649905  1
  Ho  Ho11  1  0.435140  0.064860  0.064860  1
  Ho  Ho12  1  0.062613  0.061592  0.434567  1
  Ho  Ho13  1  0.648469  0.054150  0.648913  1
  Ho  Ho14  1  0.808170  0.805966  0.193214  1
  Ho  Ho15  1  0.441228  0.061592  0.434567  1
  Al  Al16  1  0.423120  0.422114  0.422114  1
  Al  Al17  1  0.423025  0.421903  0.732049  1
  Al  Al18  1  0.423025  0.732049  0.421903  1
  Al  Al19  1  0.732654  0.422114  0.422114  1
  Ni  Ni20  1  0.424674  0.858911  0.858911  1
  Ni  Ni21  1  0.857504  0.858911  0.858911  1
  Ru  Ru22  1  0.857796  0.426386  0.858022  1
  Ru  Ru23  1  0.857796  0.858022  0.426386  1
