# generated using pymatgen
data_HoEr3Tm4(B6Ru)4
_symmetry_space_group_name_H-M   'P 1'
_cell_length_a   3.62403100
_cell_length_b   9.07627500
_cell_length_c   11.44781700
_cell_angle_alpha   90.00123926
_cell_angle_beta   90.00000000
_cell_angle_gamma   90.00000000
_symmetry_Int_Tables_number   1
_chemical_formula_structural   HoEr3Tm4(B6Ru)4
_chemical_formula_sum   'Ho1 Er3 Tm4 B24 Ru4'
_cell_volume   376.54963268
_cell_formula_units_Z   1
loop_
 _symmetry_equiv_pos_site_id
 _symmetry_equiv_pos_as_xyz
  1  'x, y, z'
loop_
 _atom_site_type_symbol
 _atom_site_label
 _atom_site_symmetry_multiplicity
 _atom_site_fract_x
 _atom_site_fract_y
 _atom_site_fract_z
 _atom_site_occupancy
  Ho  Ho0  1  0.000000  0.321939  0.414153  1
  Er  Er1  1  0.000000  0.678120  0.585834  1
  Er  Er2  1  0.000000  0.821899  0.085761  1
  Er  Er3  1  0.000000  0.178079  0.914187  1
  Tm  Tm4  1  0.000000  0.943713  0.372465  1
  Tm  Tm5  1  0.000000  0.056158  0.627588  1
  Tm  Tm6  1  0.000000  0.443806  0.127483  1
  Tm  Tm7  1  0.000000  0.556244  0.872487  1
  B  B8  1  0.500000  0.554235  0.433282  1
  B  B9  1  0.500000  0.445995  0.566848  1
  B  B10  1  0.500000  0.054058  0.066682  1
  B  B11  1  0.500000  0.945931  0.933297  1
  B  B12  1  0.500000  0.748823  0.419903  1
  B  B13  1  0.500000  0.251160  0.580304  1
  B  B14  1  0.500000  0.248782  0.080085  1
  B  B15  1  0.500000  0.751229  0.919886  1
  B  B16  1  0.500000  0.791672  0.265780  1
  B  B17  1  0.500000  0.208333  0.734247  1
  B  B18  1  0.500000  0.291577  0.234049  1
  B  B19  1  0.500000  0.708354  0.765800  1
  B  B20  1  0.500000  0.631376  0.184493  1
  B  B21  1  0.500000  0.368656  0.815498  1
  B  B22  1  0.500000  0.131194  0.315381  1
  B  B23  1  0.500000  0.868642  0.684526  1
  B  B24  1  0.500000  0.982677  0.212979  1
  B  B25  1  0.500000  0.017278  0.787012  1
  B  B26  1  0.500000  0.482909  0.286903  1
  B  B27  1  0.500000  0.517319  0.713034  1
  B  B28  1  0.500000  0.606362  0.029274  1
  B  B29  1  0.500000  0.393653  0.970721  1
  B  B30  1  0.500000  0.106053  0.470803  1
  B  B31  1  0.500000  0.893670  0.529269  1
  Ru  Ru32  1  0.000000  0.638146  0.320719  1
  Ru  Ru33  1  0.000000  0.362029  0.679330  1
  Ru  Ru34  1  0.000000  0.137902  0.179123  1
  Ru  Ru35  1  0.000000  0.862028  0.820815  1
