# generated using pymatgen
data_NdDy4HoTa2O14
_symmetry_space_group_name_H-M   'P 1'
_cell_length_a   6.51047965
_cell_length_b   6.51230164
_cell_length_c   7.52338313
_cell_angle_alpha   89.88873827
_cell_angle_beta   90.09409724
_cell_angle_gamma   108.70690624
_symmetry_Int_Tables_number   1
_chemical_formula_structural   NdDy4HoTa2O14
_chemical_formula_sum   'Nd1 Dy4 Ho1 Ta2 O14'
_cell_volume   302.12612578
_cell_formula_units_Z   1
loop_
 _symmetry_equiv_pos_site_id
 _symmetry_equiv_pos_as_xyz
  1  'x, y, z'
loop_
 _atom_site_type_symbol
 _atom_site_label
 _atom_site_symmetry_multiplicity
 _atom_site_fract_x
 _atom_site_fract_y
 _atom_site_fract_z
 _atom_site_occupancy
  Nd  Nd0  1  0.520377  0.520325  0.499757  1
  Dy  Dy1  1  0.460678  0.460271  0.000243  1
  Dy  Dy2  1  0.999687  0.535220  0.239877  1
  Dy  Dy3  1  0.998980  0.465330  0.744461  1
  Dy  Dy4  1  0.534815  0.999670  0.760078  1
  Ho  Ho5  1  0.466125  0.998426  0.255116  1
  Ta  Ta6  1  0.001693  0.001671  0.499693  1
  Ta  Ta7  1  0.997430  0.997607  0.000345  1
  O  O8  1  0.933004  0.066788  0.749683  1
  O  O9  1  0.067595  0.933224  0.250332  1
  O  O10  1  0.358914  0.643068  0.241292  1
  O  O11  1  0.641269  0.358767  0.758782  1
  O  O12  1  0.367369  0.631493  0.758357  1
  O  O13  1  0.630600  0.365465  0.241921  1
  O  O14  1  0.326848  0.080930  0.975951  1
  O  O15  1  0.674444  0.924443  0.473223  1
  O  O16  1  0.311824  0.057607  0.541988  1
  O  O17  1  0.693557  0.952734  0.044516  1
  O  O18  1  0.057941  0.311901  0.457289  1
  O  O19  1  0.951940  0.693597  0.956584  1
  O  O20  1  0.923477  0.674591  0.525640  1
  O  O21  1  0.081433  0.326872  0.024875  1
