# generated using pymatgen
data_Tb3NdIrRh3O14
_symmetry_space_group_name_H-M   'P 1'
_cell_length_a   7.31266391
_cell_length_b   7.27033891
_cell_length_c   7.27033800
_cell_angle_alpha   60.00000414
_cell_angle_beta   60.19128245
_cell_angle_gamma   60.19128547
_symmetry_Int_Tables_number   1
_chemical_formula_structural   Tb3NdIrRh3O14
_chemical_formula_sum   'Tb3 Nd1 Ir1 Rh3 O14'
_cell_volume   274.10661206
_cell_formula_units_Z   1
loop_
 _symmetry_equiv_pos_site_id
 _symmetry_equiv_pos_as_xyz
  1  'x, y, z'
loop_
 _atom_site_type_symbol
 _atom_site_label
 _atom_site_symmetry_multiplicity
 _atom_site_fract_x
 _atom_site_fract_y
 _atom_site_fract_z
 _atom_site_occupancy
  Tb  Tb0  1  0.125000  0.625000  0.125000  1
  Tb  Tb1  1  0.125000  0.125000  0.625000  1
  Tb  Tb2  1  0.125000  0.125000  0.125000  1
  Nd  Nd3  1  0.625000  0.125000  0.125000  1
  Ir  Ir4  1  0.125000  0.625000  0.625000  1
  Rh  Rh5  1  0.625000  0.125000  0.625000  1
  Rh  Rh6  1  0.625000  0.625000  0.125000  1
  Rh  Rh7  1  0.625000  0.625000  0.625000  1
  O  O8  1  0.719505  0.703407  0.288544  1
  O  O9  1  0.287945  0.293668  0.709193  1
  O  O10  1  0.719505  0.288544  0.703407  1
  O  O11  1  0.287945  0.709193  0.293668  1
  O  O12  1  0.287945  0.709193  0.709193  1
  O  O13  1  0.719505  0.288544  0.288544  1
  O  O14  1  0.530495  0.546593  0.961456  1
  O  O15  1  0.962055  0.956332  0.540807  1
  O  O16  1  0.530495  0.961456  0.546593  1
  O  O17  1  0.962055  0.540807  0.956332  1
  O  O18  1  0.962055  0.540807  0.540807  1
  O  O19  1  0.530495  0.961456  0.961456  1
  O  O20  1  0.240344  0.253219  0.253219  1
  O  O21  1  0.009656  0.996781  0.996781  1
