# generated using pymatgen
data_Sc5Nb3(NiP)12
_symmetry_space_group_name_H-M   'P 1'
_cell_length_a   3.59263400
_cell_length_b   9.95527405
_cell_length_c   12.16349904
_cell_angle_alpha   90.01007170
_cell_angle_beta   90.00000000
_cell_angle_gamma   90.00000000
_symmetry_Int_Tables_number   1
_chemical_formula_structural   Sc5Nb3(NiP)12
_chemical_formula_sum   'Sc5 Nb3 Ni12 P12'
_cell_volume   435.03551588
_cell_formula_units_Z   1
loop_
 _symmetry_equiv_pos_site_id
 _symmetry_equiv_pos_as_xyz
  1  'x, y, z'
loop_
 _atom_site_type_symbol
 _atom_site_label
 _atom_site_symmetry_multiplicity
 _atom_site_fract_x
 _atom_site_fract_y
 _atom_site_fract_z
 _atom_site_occupancy
  Sc  Sc0  1  0.750000  0.841091  0.503703  1
  Sc  Sc1  1  0.250000  0.425483  0.708314  1
  Sc  Sc2  1  0.250000  0.072979  0.207973  1
  Sc  Sc3  1  0.750000  0.572735  0.289871  1
  Sc  Sc4  1  0.750000  0.927068  0.792503  1
  Nb  Nb5  1  0.250000  0.337997  0.995268  1
  Nb  Nb6  1  0.250000  0.162814  0.495418  1
  Nb  Nb7  1  0.750000  0.663033  0.005386  1
  Ni  Ni8  1  0.250000  0.902794  0.978895  1
  Ni  Ni9  1  0.250000  0.594675  0.482313  1
  Ni  Ni10  1  0.750000  0.097885  0.018943  1
  Ni  Ni11  1  0.750000  0.402971  0.519958  1
  Ni  Ni12  1  0.250000  0.135104  0.717865  1
  Ni  Ni13  1  0.250000  0.369220  0.216501  1
  Ni  Ni14  1  0.750000  0.868534  0.282189  1
  Ni  Ni15  1  0.750000  0.630492  0.784502  1
  Ni  Ni16  1  0.250000  0.769570  0.163020  1
  Ni  Ni17  1  0.250000  0.727277  0.667371  1
  Ni  Ni18  1  0.750000  0.231983  0.834797  1
  Ni  Ni19  1  0.750000  0.269975  0.334424  1
  P  P20  1  0.250000  0.107293  0.900046  1
  P  P21  1  0.250000  0.393213  0.399513  1
  P  P22  1  0.750000  0.893751  0.099082  1
  P  P23  1  0.750000  0.603881  0.602714  1
  P  P24  1  0.250000  0.733773  0.856506  1
  P  P25  1  0.250000  0.762510  0.353593  1
  P  P26  1  0.750000  0.265487  0.143465  1
  P  P27  1  0.750000  0.233825  0.643071  1
  P  P28  1  0.250000  0.553185  0.121338  1
  P  P29  1  0.250000  0.947546  0.626447  1
  P  P30  1  0.750000  0.446778  0.878324  1
  P  P31  1  0.750000  0.055076  0.376686  1
