# generated using pymatgen
data_ThCdTeO6
_symmetry_space_group_name_H-M   'P 1'
_cell_length_a   5.35219500
_cell_length_b   5.35219500
_cell_length_c   9.31512600
_cell_angle_alpha   90.00000000
_cell_angle_beta   90.00000000
_cell_angle_gamma   90.00000000
_symmetry_Int_Tables_number   1
_chemical_formula_structural   ThCdTeO6
_chemical_formula_sum   'Th2 Cd2 Te2 O12'
_cell_volume   266.84101852
_cell_formula_units_Z   2
loop_
 _symmetry_equiv_pos_site_id
 _symmetry_equiv_pos_as_xyz
  1  'x, y, z'
loop_
 _atom_site_type_symbol
 _atom_site_label
 _atom_site_symmetry_multiplicity
 _atom_site_fract_x
 _atom_site_fract_y
 _atom_site_fract_z
 _atom_site_occupancy
  Th  Th0  1  0.500000  0.000000  0.127933  1
  Th  Th1  1  0.000000  0.500000  0.872066  1
  Cd  Cd2  1  0.000000  0.000000  0.500000  1
  Cd  Cd3  1  0.500000  0.500000  0.500000  1
  Te  Te4  1  0.000000  0.500000  0.248672  1
  Te  Te5  1  0.500000  0.000000  0.751328  1
  O  O6  1  0.824565  0.324566  0.088109  1
  O  O7  1  0.175434  0.675435  0.088109  1
  O  O8  1  0.254751  0.245248  0.256865  1
  O  O9  1  0.745248  0.754752  0.256865  1
  O  O10  1  0.803069  0.303069  0.381469  1
  O  O11  1  0.196930  0.696930  0.381469  1
  O  O12  1  0.303069  0.196930  0.618532  1
  O  O13  1  0.696930  0.803069  0.618532  1
  O  O14  1  0.754752  0.254751  0.743135  1
  O  O15  1  0.245248  0.745248  0.743135  1
  O  O16  1  0.324566  0.175434  0.911892  1
  O  O17  1  0.675435  0.824565  0.911892  1
