# generated using pymatgen
data_SmAl4(FeRe)4
_symmetry_space_group_name_H-M   'P 1'
_cell_length_a   4.83034510
_cell_length_b   6.70478517
_cell_length_c   6.70478563
_cell_angle_alpha   82.54452158
_cell_angle_beta   68.88650857
_cell_angle_gamma   68.88652044
_symmetry_Int_Tables_number   1
_chemical_formula_structural   SmAl4(FeRe)4
_chemical_formula_sum   'Sm1 Al4 Fe4 Re4'
_cell_volume   188.96833609
_cell_formula_units_Z   1
loop_
 _symmetry_equiv_pos_site_id
 _symmetry_equiv_pos_as_xyz
  1  'x, y, z'
loop_
 _atom_site_type_symbol
 _atom_site_label
 _atom_site_symmetry_multiplicity
 _atom_site_fract_x
 _atom_site_fract_y
 _atom_site_fract_z
 _atom_site_occupancy
  Sm  Sm0  1  0.000000  0.000000  0.000000  1
  Al  Al1  1  0.500000  0.775335  0.224665  1
  Al  Al2  1  0.500000  0.224665  0.775335  1
  Al  Al3  1  0.724665  0.775335  0.775335  1
  Al  Al4  1  0.275335  0.224665  0.224665  1
  Fe  Fe5  1  0.000000  0.000000  0.500000  1
  Fe  Fe6  1  0.500000  0.000000  0.500000  1
  Fe  Fe7  1  0.500000  0.500000  0.000000  1
  Fe  Fe8  1  0.000000  0.500000  0.000000  1
  Re  Re9  1  0.000000  0.359032  0.640968  1
  Re  Re10  1  0.000000  0.640968  0.359032  1
  Re  Re11  1  0.640968  0.359032  0.359032  1
  Re  Re12  1  0.359032  0.640968  0.640968  1
