# generated using pymatgen
data_DyEr3(SiRh2)8
_symmetry_space_group_name_H-M   'P 1'
_cell_length_a   4.11748300
_cell_length_b   9.08597260
_cell_length_c   11.28448524
_cell_angle_alpha   90.08680320
_cell_angle_beta   90.00000000
_cell_angle_gamma   90.00000000
_symmetry_Int_Tables_number   1
_chemical_formula_structural   DyEr3(SiRh2)8
_chemical_formula_sum   'Dy1 Er3 Si8 Rh16'
_cell_volume   422.16720404
_cell_formula_units_Z   1
loop_
 _symmetry_equiv_pos_site_id
 _symmetry_equiv_pos_as_xyz
  1  'x, y, z'
loop_
 _atom_site_type_symbol
 _atom_site_label
 _atom_site_symmetry_multiplicity
 _atom_site_fract_x
 _atom_site_fract_y
 _atom_site_fract_z
 _atom_site_occupancy
  Dy  Dy0  1  0.250000  0.148381  0.825162  1
  Er  Er1  1  0.250000  0.352548  0.324794  1
  Er  Er2  1  0.750000  0.852003  0.175187  1
  Er  Er3  1  0.750000  0.648085  0.674785  1
  Si  Si4  1  0.250000  0.412555  0.636367  1
  Si  Si5  1  0.250000  0.088018  0.137196  1
  Si  Si6  1  0.750000  0.588103  0.362892  1
  Si  Si7  1  0.750000  0.911221  0.863345  1
  Si  Si8  1  0.250000  0.616112  0.058275  1
  Si  Si9  1  0.250000  0.883720  0.558355  1
  Si  Si10  1  0.750000  0.383397  0.941879  1
  Si  Si11  1  0.750000  0.115921  0.441919  1
  Rh  Rh12  1  0.250000  0.615440  0.500686  1
  Rh  Rh13  1  0.250000  0.884053  0.001145  1
  Rh  Rh14  1  0.750000  0.384679  0.498219  1
  Rh  Rh15  1  0.750000  0.114064  0.000836  1
  Rh  Rh16  1  0.250000  0.684649  0.268778  1
  Rh  Rh17  1  0.250000  0.814952  0.768741  1
  Rh  Rh18  1  0.750000  0.317600  0.730117  1
  Rh  Rh19  1  0.750000  0.185033  0.232050  1
  Rh  Rh20  1  0.250000  0.173175  0.558676  1
  Rh  Rh21  1  0.250000  0.327031  0.059680  1
  Rh  Rh22  1  0.750000  0.827121  0.440407  1
  Rh  Rh23  1  0.750000  0.672564  0.940892  1
  Rh  Rh24  1  0.250000  0.006668  0.344042  1
  Rh  Rh25  1  0.250000  0.493368  0.844421  1
  Rh  Rh26  1  0.750000  0.992630  0.655452  1
  Rh  Rh27  1  0.750000  0.506912  0.155702  1
