# generated using pymatgen
data_Dy6Al24CuRu7
_symmetry_space_group_name_H-M   'P 1'
_cell_length_a   8.82168200
_cell_length_b   8.81682289
_cell_length_c   9.53940598
_cell_angle_alpha   89.87167589
_cell_angle_beta   90.00000000
_cell_angle_gamma   120.01823251
_symmetry_Int_Tables_number   1
_chemical_formula_structural   Dy6Al24CuRu7
_chemical_formula_sum   'Dy6 Al24 Cu1 Ru7'
_cell_volume   642.44241648
_cell_formula_units_Z   1
loop_
 _symmetry_equiv_pos_site_id
 _symmetry_equiv_pos_as_xyz
  1  'x, y, z'
loop_
 _atom_site_type_symbol
 _atom_site_label
 _atom_site_symmetry_multiplicity
 _atom_site_fract_x
 _atom_site_fract_y
 _atom_site_fract_z
 _atom_site_occupancy
  Dy  Dy0  1  0.191668  0.806920  0.250248  1
  Dy  Dy1  1  0.194277  0.388553  0.248380  1
  Dy  Dy2  1  0.615251  0.806920  0.250248  1
  Dy  Dy3  1  0.808332  0.193080  0.749752  1
  Dy  Dy4  1  0.805723  0.611447  0.751620  1
  Dy  Dy5  1  0.384749  0.193080  0.749752  1
  Al  Al6  1  0.561615  0.439401  0.250783  1
  Al  Al7  1  0.561305  0.122611  0.249374  1
  Al  Al8  1  0.877786  0.439401  0.250783  1
  Al  Al9  1  0.438385  0.560599  0.749217  1
  Al  Al10  1  0.438695  0.877389  0.750626  1
  Al  Al11  1  0.122214  0.560599  0.749217  1
  Al  Al12  1  0.324433  0.167438  0.421162  1
  Al  Al13  1  0.843005  0.167438  0.421162  1
  Al  Al14  1  0.836869  0.673739  0.422268  1
  Al  Al15  1  0.675567  0.832562  0.578838  1
  Al  Al16  1  0.156995  0.832562  0.578838  1
  Al  Al17  1  0.163131  0.326261  0.577732  1
  Al  Al18  1  0.674183  0.837635  0.923765  1
  Al  Al19  1  0.163452  0.837635  0.923765  1
  Al  Al20  1  0.163077  0.326155  0.922331  1
  Al  Al21  1  0.325817  0.162365  0.076235  1
  Al  Al22  1  0.836548  0.162365  0.076235  1
  Al  Al23  1  0.836923  0.673845  0.077669  1
  Al  Al24  1  0.668061  0.336121  0.518517  1
  Al  Al25  1  0.331939  0.663879  0.481483  1
  Al  Al26  1  0.333691  0.667382  0.017725  1
  Al  Al27  1  0.666309  0.332618  0.982275  1
  Al  Al28  1  0.999311  0.998623  0.249768  1
  Al  Al29  1  0.000689  0.001377  0.750232  1
  Cu  Cu30  1  0.500000  0.000000  0.500000  1
  Ru  Ru31  1  0.000000  0.000000  0.500000  1
  Ru  Ru32  1  0.000000  0.000000  0.000000  1
  Ru  Ru33  1  0.500000  0.500000  0.500000  1
  Ru  Ru34  1  0.000000  0.500000  0.500000  1
  Ru  Ru35  1  0.500000  0.500000  0.000000  1
  Ru  Ru36  1  0.500000  0.000000  0.000000  1
  Ru  Ru37  1  0.000000  0.500000  0.000000  1
