# generated using pymatgen
data_SmPa3(SnRh2)2
_symmetry_space_group_name_H-M   'P 1'
_cell_length_a   7.68157117
_cell_length_b   7.68157165
_cell_length_c   3.67454100
_cell_angle_alpha   90.00000000
_cell_angle_beta   90.00000000
_cell_angle_gamma   92.41320918
_symmetry_Int_Tables_number   1
_chemical_formula_structural   SmPa3(SnRh2)2
_chemical_formula_sum   'Sm1 Pa3 Sn2 Rh4'
_cell_volume   216.62965938
_cell_formula_units_Z   1
loop_
 _symmetry_equiv_pos_site_id
 _symmetry_equiv_pos_as_xyz
  1  'x, y, z'
loop_
 _atom_site_type_symbol
 _atom_site_label
 _atom_site_symmetry_multiplicity
 _atom_site_fract_x
 _atom_site_fract_y
 _atom_site_fract_z
 _atom_site_occupancy
  Sm  Sm0  1  0.824883  0.675117  0.500000  1
  Pa  Pa1  1  0.674646  0.170232  0.500000  1
  Pa  Pa2  1  0.329768  0.825354  0.500000  1
  Pa  Pa3  1  0.170222  0.329778  0.500000  1
  Sn  Sn4  1  0.000320  0.993496  0.000000  1
  Sn  Sn5  1  0.506504  0.499680  0.000000  1
  Rh  Rh6  1  0.152942  0.624597  0.000000  1
  Rh  Rh7  1  0.875403  0.347058  0.000000  1
  Rh  Rh8  1  0.609953  0.890047  0.000000  1
  Rh  Rh9  1  0.355359  0.144641  0.000000  1
