# generated using pymatgen
data_LiPaCo4P3
_symmetry_space_group_name_H-M   'P 1'
_cell_length_a   3.73552900
_cell_length_b   10.35140200
_cell_length_c   11.82078100
_cell_angle_alpha   90.00000000
_cell_angle_beta   90.00000000
_cell_angle_gamma   90.00000000
_symmetry_Int_Tables_number   1
_chemical_formula_structural   LiPaCo4P3
_chemical_formula_sum   'Li4 Pa4 Co16 P12'
_cell_volume   457.08551479
_cell_formula_units_Z   4
loop_
 _symmetry_equiv_pos_site_id
 _symmetry_equiv_pos_as_xyz
  1  'x, y, z'
loop_
 _atom_site_type_symbol
 _atom_site_label
 _atom_site_symmetry_multiplicity
 _atom_site_fract_x
 _atom_site_fract_y
 _atom_site_fract_z
 _atom_site_occupancy
  Li  Li0  1  0.250000  0.802187  0.493545  1
  Li  Li1  1  0.750000  0.197813  0.506455  1
  Li  Li2  1  0.750000  0.302187  0.006455  1
  Li  Li3  1  0.250000  0.697813  0.993545  1
  Pa  Pa4  1  0.250000  0.920986  0.199610  1
  Pa  Pa5  1  0.750000  0.079014  0.800390  1
  Pa  Pa6  1  0.750000  0.420986  0.300390  1
  Pa  Pa7  1  0.250000  0.579014  0.699610  1
  Co  Co8  1  0.250000  0.091637  0.978457  1
  Co  Co9  1  0.750000  0.908363  0.021543  1
  Co  Co10  1  0.750000  0.591637  0.521543  1
  Co  Co11  1  0.250000  0.408363  0.478457  1
  Co  Co12  1  0.250000  0.281353  0.674808  1
  Co  Co13  1  0.750000  0.718647  0.325192  1
  Co  Co14  1  0.750000  0.781353  0.825192  1
  Co  Co15  1  0.250000  0.218647  0.174808  1
  Co  Co16  1  0.250000  0.618202  0.200926  1
  Co  Co17  1  0.750000  0.381798  0.799074  1
  Co  Co18  1  0.750000  0.118202  0.299074  1
  Co  Co19  1  0.250000  0.881798  0.700926  1
  Co  Co20  1  0.250000  0.030462  0.430856  1
  Co  Co21  1  0.750000  0.969538  0.569144  1
  Co  Co22  1  0.750000  0.530462  0.069144  1
  Co  Co23  1  0.250000  0.469538  0.930856  1
  P  P24  1  0.250000  0.078566  0.614329  1
  P  P25  1  0.750000  0.921434  0.385671  1
  P  P26  1  0.750000  0.578566  0.885671  1
  P  P27  1  0.250000  0.421434  0.114329  1
  P  P28  1  0.250000  0.224072  0.361491  1
  P  P29  1  0.750000  0.775928  0.638509  1
  P  P30  1  0.750000  0.724072  0.138509  1
  P  P31  1  0.250000  0.275928  0.861491  1
  P  P32  1  0.250000  0.891348  0.894112  1
  P  P33  1  0.750000  0.108652  0.105888  1
  P  P34  1  0.750000  0.391348  0.605888  1
  P  P35  1  0.250000  0.608652  0.394112  1
