# generated using pymatgen
data_Li4Ac3YSi8
_symmetry_space_group_name_H-M   'P 1'
_cell_length_a   3.95051400
_cell_length_b   7.91236738
_cell_length_c   10.88599610
_cell_angle_alpha   90.23411377
_cell_angle_beta   90.00000000
_cell_angle_gamma   90.00000000
_symmetry_Int_Tables_number   1
_chemical_formula_structural   Li4Ac3YSi8
_chemical_formula_sum   'Li4 Ac3 Y1 Si8'
_cell_volume   340.27073383
_cell_formula_units_Z   1
loop_
 _symmetry_equiv_pos_site_id
 _symmetry_equiv_pos_as_xyz
  1  'x, y, z'
loop_
 _atom_site_type_symbol
 _atom_site_label
 _atom_site_symmetry_multiplicity
 _atom_site_fract_x
 _atom_site_fract_y
 _atom_site_fract_z
 _atom_site_occupancy
  Li  Li0  1  0.250000  0.993992  0.389392  1
  Li  Li1  1  0.250000  0.501021  0.113707  1
  Li  Li2  1  0.750000  0.000728  0.606069  1
  Li  Li3  1  0.750000  0.503797  0.888539  1
  Ac  Ac4  1  0.250000  0.144010  0.868210  1
  Ac  Ac5  1  0.250000  0.636690  0.631450  1
  Ac  Ac6  1  0.750000  0.862870  0.135489  1
  Y  Y7  1  0.750000  0.367536  0.366971  1
  Si  Si8  1  0.250000  0.220765  0.563941  1
  Si  Si9  1  0.250000  0.718506  0.924029  1
  Si  Si10  1  0.750000  0.766156  0.423646  1
  Si  Si11  1  0.750000  0.290568  0.086447  1
  Si  Si12  1  0.250000  0.654988  0.322822  1
  Si  Si13  1  0.250000  0.178441  0.187860  1
  Si  Si14  1  0.750000  0.328186  0.667494  1
  Si  Si15  1  0.750000  0.831744  0.823936  1
