# generated using pymatgen
data_Hf8Nb12Si15Ni
_symmetry_space_group_name_H-M   'P 1'
_cell_length_a   6.66085770
_cell_length_b   6.84972079
_cell_length_c   13.10439000
_cell_angle_alpha   90.00000000
_cell_angle_beta   90.00000000
_cell_angle_gamma   89.88813867
_symmetry_Int_Tables_number   1
_chemical_formula_structural   Hf8Nb12Si15Ni
_chemical_formula_sum   'Hf8 Nb12 Si15 Ni1'
_cell_volume   597.88685697
_cell_formula_units_Z   1
loop_
 _symmetry_equiv_pos_site_id
 _symmetry_equiv_pos_as_xyz
  1  'x, y, z'
loop_
 _atom_site_type_symbol
 _atom_site_label
 _atom_site_symmetry_multiplicity
 _atom_site_fract_x
 _atom_site_fract_y
 _atom_site_fract_z
 _atom_site_occupancy
  Hf  Hf0  1  0.497541  0.673119  0.593509  1
  Hf  Hf1  1  0.996406  0.827365  0.907215  1
  Hf  Hf2  1  0.502518  0.326480  0.092390  1
  Hf  Hf3  1  0.998864  0.174183  0.404783  1
  Hf  Hf4  1  0.502518  0.326480  0.407610  1
  Hf  Hf5  1  0.998864  0.174183  0.095217  1
  Hf  Hf6  1  0.497541  0.673119  0.906491  1
  Hf  Hf7  1  0.996406  0.827365  0.592785  1
  Nb  Nb8  1  0.663802  0.170512  0.623483  1
  Nb  Nb9  1  0.163874  0.328736  0.876405  1
  Nb  Nb10  1  0.339287  0.824690  0.124879  1
  Nb  Nb11  1  0.839438  0.677128  0.376667  1
  Nb  Nb12  1  0.339287  0.824690  0.375121  1
  Nb  Nb13  1  0.839438  0.677128  0.123333  1
  Nb  Nb14  1  0.663802  0.170512  0.876517  1
  Nb  Nb15  1  0.163874  0.328736  0.623595  1
  Nb  Nb16  1  0.838201  0.497114  0.750000  1
  Nb  Nb17  1  0.336720  0.003168  0.750000  1
  Nb  Nb18  1  0.158450  0.502380  0.250000  1
  Nb  Nb19  1  0.665615  0.999872  0.250000  1
  Si  Si20  1  0.671807  0.965898  0.460701  1
  Si  Si21  1  0.170805  0.534593  0.039400  1
  Si  Si22  1  0.328571  0.034571  0.962637  1
  Si  Si23  1  0.828207  0.464497  0.537661  1
  Si  Si24  1  0.328571  0.034571  0.537363  1
  Si  Si25  1  0.828207  0.464497  0.962339  1
  Si  Si26  1  0.671807  0.965898  0.039299  1
  Si  Si27  1  0.170805  0.534593  0.460600  1
  Si  Si28  1  0.461609  0.387399  0.750000  1
  Si  Si29  1  0.960201  0.113183  0.750000  1
  Si  Si30  1  0.547068  0.603928  0.250000  1
  Si  Si31  1  0.041277  0.888240  0.250000  1
  Si  Si32  1  0.703193  0.860123  0.750000  1
  Si  Si33  1  0.204750  0.640456  0.750000  1
  Si  Si34  1  0.299043  0.138507  0.250000  1
  Ni  Ni35  1  0.781629  0.362079  0.250000  1
