# generated using pymatgen
data_Dy8HoEr(SiB4)4
_symmetry_space_group_name_H-M   'P 1'
_cell_length_a   7.22454600
_cell_length_b   7.22454600
_cell_length_c   8.07340300
_cell_angle_alpha   90.00000000
_cell_angle_beta   90.00000000
_cell_angle_gamma   90.00000000
_symmetry_Int_Tables_number   1
_chemical_formula_structural   Dy8HoEr(SiB4)4
_chemical_formula_sum   'Dy8 Ho1 Er1 Si4 B16'
_cell_volume   421.38372020
_cell_formula_units_Z   1
loop_
 _symmetry_equiv_pos_site_id
 _symmetry_equiv_pos_as_xyz
  1  'x, y, z'
loop_
 _atom_site_type_symbol
 _atom_site_label
 _atom_site_symmetry_multiplicity
 _atom_site_fract_x
 _atom_site_fract_y
 _atom_site_fract_z
 _atom_site_occupancy
  Dy  Dy0  1  0.680318  0.180192  0.224358  1
  Dy  Dy1  1  0.319682  0.819808  0.775642  1
  Dy  Dy2  1  0.319682  0.819808  0.224358  1
  Dy  Dy3  1  0.819808  0.680318  0.224358  1
  Dy  Dy4  1  0.819808  0.680318  0.775642  1
  Dy  Dy5  1  0.680318  0.180192  0.775642  1
  Dy  Dy6  1  0.180192  0.319682  0.775642  1
  Dy  Dy7  1  0.180192  0.319682  0.224358  1
  Ho  Ho8  1  0.500000  0.500000  0.500000  1
  Er  Er9  1  0.000000  0.000000  0.500000  1
  Si  Si10  1  0.114896  0.615651  0.500000  1
  Si  Si11  1  0.885104  0.384349  0.500000  1
  Si  Si12  1  0.384349  0.114896  0.500000  1
  Si  Si13  1  0.615651  0.885104  0.500000  1
  B  B14  1  0.172518  0.039112  0.000000  1
  B  B15  1  0.827482  0.960888  0.000000  1
  B  B16  1  0.960888  0.172518  0.000000  1
  B  B17  1  0.327483  0.539131  0.000000  1
  B  B18  1  0.039112  0.827482  0.000000  1
  B  B19  1  0.672517  0.460869  0.000000  1
  B  B20  1  0.539131  0.672517  0.000000  1
  B  B21  1  0.460869  0.327483  0.000000  1
  B  B22  1  0.089821  0.589795  0.000000  1
  B  B23  1  0.910179  0.410205  0.000000  1
  B  B24  1  0.410205  0.089821  0.000000  1
  B  B25  1  0.589795  0.910179  0.000000  1
  B  B26  1  0.000000  0.000000  0.163088  1
  B  B27  1  0.000000  0.000000  0.836912  1
  B  B28  1  0.500000  0.500000  0.837091  1
  B  B29  1  0.500000  0.500000  0.162909  1
