# generated using pymatgen
data_LaTm9Pt8
_symmetry_space_group_name_H-M   'P 1'
_cell_length_a   7.42606800
_cell_length_b   7.50052583
_cell_length_c   14.73558140
_cell_angle_alpha   89.86996118
_cell_angle_beta   90.00000000
_cell_angle_gamma   90.00000000
_symmetry_Int_Tables_number   1
_chemical_formula_structural   LaTm9Pt8
_chemical_formula_sum   'La2 Tm18 Pt16'
_cell_volume   820.76114705
_cell_formula_units_Z   2
loop_
 _symmetry_equiv_pos_site_id
 _symmetry_equiv_pos_as_xyz
  1  'x, y, z'
loop_
 _atom_site_type_symbol
 _atom_site_label
 _atom_site_symmetry_multiplicity
 _atom_site_fract_x
 _atom_site_fract_y
 _atom_site_fract_z
 _atom_site_occupancy
  La  La0  1  0.484169  0.673413  0.908687  1
  La  La1  1  0.984169  0.826587  0.591313  1
  Tm  Tm2  1  0.638029  0.168767  0.621810  1
  Tm  Tm3  1  0.138029  0.331233  0.878190  1
  Tm  Tm4  1  0.355236  0.836942  0.124478  1
  Tm  Tm5  1  0.855236  0.663058  0.375522  1
  Tm  Tm6  1  0.360066  0.831086  0.377851  1
  Tm  Tm7  1  0.860066  0.668914  0.122149  1
  Tm  Tm8  1  0.639828  0.168022  0.879753  1
  Tm  Tm9  1  0.139828  0.331978  0.620247  1
  Tm  Tm10  1  0.485789  0.672164  0.594476  1
  Tm  Tm11  1  0.985789  0.827836  0.905524  1
  Tm  Tm12  1  0.513913  0.318842  0.096489  1
  Tm  Tm13  1  0.013913  0.181158  0.403511  1
  Tm  Tm14  1  0.513770  0.323216  0.405461  1
  Tm  Tm15  1  0.013770  0.176784  0.094539  1
  Tm  Tm16  1  0.803018  0.508743  0.749789  1
  Tm  Tm17  1  0.303018  0.991257  0.750211  1
  Tm  Tm18  1  0.198627  0.490202  0.249695  1
  Tm  Tm19  1  0.698627  0.009798  0.250305  1
  Pt  Pt20  1  0.692813  0.976057  0.453672  1
  Pt  Pt21  1  0.192813  0.523943  0.046328  1
  Pt  Pt22  1  0.301015  0.037782  0.961937  1
  Pt  Pt23  1  0.801015  0.462218  0.538063  1
  Pt  Pt24  1  0.314212  0.037430  0.538447  1
  Pt  Pt25  1  0.814212  0.462570  0.961553  1
  Pt  Pt26  1  0.696971  0.974298  0.043670  1
  Pt  Pt27  1  0.196971  0.525702  0.456330  1
  Pt  Pt28  1  0.435814  0.378411  0.747507  1
  Pt  Pt29  1  0.935814  0.121589  0.752493  1
  Pt  Pt30  1  0.564332  0.614397  0.249500  1
  Pt  Pt31  1  0.064332  0.885603  0.250500  1
  Pt  Pt32  1  0.664536  0.860067  0.749294  1
  Pt  Pt33  1  0.164536  0.639933  0.750706  1
  Pt  Pt34  1  0.337862  0.143379  0.250417  1
  Pt  Pt35  1  0.837862  0.356621  0.249583  1
