# generated using pymatgen
data_Hf4Nb2Al16Ir7
_symmetry_space_group_name_H-M   'P 1'
_cell_length_a   8.66519846
_cell_length_b   8.68035617
_cell_length_c   8.68035736
_cell_angle_alpha   59.88449119
_cell_angle_beta   60.05775188
_cell_angle_gamma   60.05775367
_symmetry_Int_Tables_number   1
_chemical_formula_structural   Hf4Nb2Al16Ir7
_chemical_formula_sum   'Hf4 Nb2 Al16 Ir7'
_cell_volume   461.67463077
_cell_formula_units_Z   1
loop_
 _symmetry_equiv_pos_site_id
 _symmetry_equiv_pos_as_xyz
  1  'x, y, z'
loop_
 _atom_site_type_symbol
 _atom_site_label
 _atom_site_symmetry_multiplicity
 _atom_site_fract_x
 _atom_site_fract_y
 _atom_site_fract_z
 _atom_site_occupancy
  Hf  Hf0  1  0.311590  0.688410  0.311590  1
  Hf  Hf1  1  0.688410  0.311590  0.688410  1
  Hf  Hf2  1  0.311590  0.311590  0.688410  1
  Hf  Hf3  1  0.688410  0.688410  0.311590  1
  Nb  Nb4  1  0.668057  0.331943  0.331943  1
  Nb  Nb5  1  0.331943  0.668057  0.668057  1
  Al  Al6  1  0.338537  0.337826  0.337826  1
  Al  Al7  1  0.661463  0.662174  0.662174  1
  Al  Al8  1  0.337826  0.338537  0.985810  1
  Al  Al9  1  0.337826  0.985810  0.338537  1
  Al  Al10  1  0.662174  0.661463  0.014190  1
  Al  Al11  1  0.662174  0.014190  0.661463  1
  Al  Al12  1  0.985810  0.337826  0.337826  1
  Al  Al13  1  0.014190  0.662174  0.662174  1
  Al  Al14  1  0.117052  0.121045  0.121045  1
  Al  Al15  1  0.882948  0.878955  0.878955  1
  Al  Al16  1  0.121045  0.117052  0.640856  1
  Al  Al17  1  0.121045  0.640856  0.117052  1
  Al  Al18  1  0.878955  0.882948  0.359144  1
  Al  Al19  1  0.878955  0.359144  0.882948  1
  Al  Al20  1  0.640856  0.121045  0.121045  1
  Al  Al21  1  0.359144  0.878955  0.878955  1
  Ir  Ir22  1  0.500000  0.000000  0.000000  1
  Ir  Ir23  1  0.000000  0.500000  0.500000  1
  Ir  Ir24  1  0.000000  0.500000  0.000000  1
  Ir  Ir25  1  0.500000  0.000000  0.500000  1
  Ir  Ir26  1  0.000000  0.000000  0.500000  1
  Ir  Ir27  1  0.500000  0.500000  0.000000  1
  Ir  Ir28  1  0.000000  0.000000  0.000000  1
