# generated using pymatgen
data_Ba2ZrCu2Se5
_symmetry_space_group_name_H-M   'P 1'
_cell_length_a   4.17271622
_cell_length_b   7.43819023
_cell_length_c   9.38702885
_cell_angle_alpha   104.01961699
_cell_angle_beta   102.84180712
_cell_angle_gamma   106.28960320
_symmetry_Int_Tables_number   1
_chemical_formula_structural   Ba2ZrCu2Se5
_chemical_formula_sum   'Ba2 Zr1 Cu2 Se5'
_cell_volume   257.81254962
_cell_formula_units_Z   1
loop_
 _symmetry_equiv_pos_site_id
 _symmetry_equiv_pos_as_xyz
  1  'x, y, z'
loop_
 _atom_site_type_symbol
 _atom_site_label
 _atom_site_symmetry_multiplicity
 _atom_site_fract_x
 _atom_site_fract_y
 _atom_site_fract_z
 _atom_site_occupancy
  Ba  Ba0  1  0.474113  0.650221  0.298005  1
  Ba  Ba1  1  0.525887  0.349779  0.701995  1
  Zr  Zr2  1  0.000000  0.000000  0.000000  1
  Cu  Cu3  1  0.733384  0.182392  0.284376  1
  Cu  Cu4  1  0.266616  0.817608  0.715624  1
  Se  Se5  1  0.665410  0.278295  0.052526  1
  Se  Se6  1  0.154537  0.007935  0.301140  1
  Se  Se7  1  0.000001  0.500001  0.500000  1
  Se  Se8  1  0.845463  0.992065  0.698861  1
  Se  Se9  1  0.334591  0.721707  0.947474  1
