# generated using pymatgen
data_Nd4Sn5PRh7
_symmetry_space_group_name_H-M   'P 1'
_cell_length_a   7.66910951
_cell_length_b   7.66911109
_cell_length_c   7.66910928
_cell_angle_alpha   110.40618537
_cell_angle_beta   107.61704851
_cell_angle_gamma   110.40618876
_symmetry_Int_Tables_number   1
_chemical_formula_structural   Nd4Sn5PRh7
_chemical_formula_sum   'Nd4 Sn5 P1 Rh7'
_cell_volume   346.95497100
_cell_formula_units_Z   1
loop_
 _symmetry_equiv_pos_site_id
 _symmetry_equiv_pos_as_xyz
  1  'x, y, z'
loop_
 _atom_site_type_symbol
 _atom_site_label
 _atom_site_symmetry_multiplicity
 _atom_site_fract_x
 _atom_site_fract_y
 _atom_site_fract_z
 _atom_site_occupancy
  Nd  Nd0  1  0.469063  0.455795  0.469063  1
  Nd  Nd1  1  0.013268  0.544205  0.013268  1
  Nd  Nd2  1  0.469063  0.000000  0.013268  1
  Nd  Nd3  1  0.013268  0.000000  0.469063  1
  Sn  Sn4  1  0.708828  0.000000  0.708828  1
  Sn  Sn5  1  0.660537  0.678998  0.981540  1
  Sn  Sn6  1  0.302542  0.321002  0.981540  1
  Sn  Sn7  1  0.981540  0.678998  0.660537  1
  Sn  Sn8  1  0.981540  0.321002  0.302542  1
  P  P9  1  0.376507  0.000000  0.376507  1
  Rh  Rh10  1  0.508602  0.758735  0.267337  1
  Rh  Rh11  1  0.749866  0.241265  0.508602  1
  Rh  Rh12  1  0.267337  0.758735  0.508602  1
  Rh  Rh13  1  0.236005  0.500000  0.736005  1
  Rh  Rh14  1  0.017427  0.000000  0.017427  1
  Rh  Rh15  1  0.508602  0.241265  0.749866  1
  Rh  Rh16  1  0.736005  0.500000  0.236005  1
