# generated using pymatgen
data_Pr2GaP3Ir4
_symmetry_space_group_name_H-M   'P 1'
_cell_length_a   4.26793100
_cell_length_b   4.26793100
_cell_length_c   9.66346600
_cell_angle_alpha   90.00000000
_cell_angle_beta   90.00000000
_cell_angle_gamma   90.00000000
_symmetry_Int_Tables_number   1
_chemical_formula_structural   Pr2GaP3Ir4
_chemical_formula_sum   'Pr2 Ga1 P3 Ir4'
_cell_volume   176.02230431
_cell_formula_units_Z   1
loop_
 _symmetry_equiv_pos_site_id
 _symmetry_equiv_pos_as_xyz
  1  'x, y, z'
loop_
 _atom_site_type_symbol
 _atom_site_label
 _atom_site_symmetry_multiplicity
 _atom_site_fract_x
 _atom_site_fract_y
 _atom_site_fract_z
 _atom_site_occupancy
  Pr  Pr0  1  0.000000  0.500000  0.267041  1
  Pr  Pr1  1  0.500000  0.000000  0.737154  1
  Ga  Ga2  1  0.500000  0.000000  0.135900  1
  P  P3  1  0.000000  0.500000  0.866551  1
  P  P4  1  0.000000  0.000000  0.503674  1
  P  P5  1  0.500000  0.500000  0.503674  1
  Ir  Ir6  1  0.000000  0.500000  0.613849  1
  Ir  Ir7  1  0.500000  0.000000  0.399506  1
  Ir  Ir8  1  0.000000  0.000000  0.986325  1
  Ir  Ir9  1  0.500000  0.500000  0.986325  1
