# generated using pymatgen
data_Tb4Ni2B16IrPt
_symmetry_space_group_name_H-M   'P 1'
_cell_length_a   6.94031209
_cell_length_b   6.94031185
_cell_length_c   6.94031105
_cell_angle_alpha   113.29622273
_cell_angle_beta   111.35116281
_cell_angle_gamma   103.91202919
_symmetry_Int_Tables_number   1
_chemical_formula_structural   Tb4Ni2B16IrPt
_chemical_formula_sum   'Tb4 Ni2 B16 Ir1 Pt1'
_cell_volume   255.46949752
_cell_formula_units_Z   1
loop_
 _symmetry_equiv_pos_site_id
 _symmetry_equiv_pos_as_xyz
  1  'x, y, z'
loop_
 _atom_site_type_symbol
 _atom_site_label
 _atom_site_symmetry_multiplicity
 _atom_site_fract_x
 _atom_site_fract_y
 _atom_site_fract_z
 _atom_site_occupancy
  Tb  Tb0  1  0.206803  0.209652  0.002849  1
  Tb  Tb1  1  0.793197  0.796046  0.002849  1
  Tb  Tb2  1  0.749877  0.247755  0.497878  1
  Tb  Tb3  1  0.250123  0.748002  0.497878  1
  Ni  Ni4  1  0.744023  0.500141  0.244164  1
  Ni  Ni5  1  0.255977  0.500141  0.756118  1
  B  B6  1  0.108001  0.272718  0.380719  1
  B  B7  1  0.891432  0.727349  0.618781  1
  B  B8  1  0.891999  0.272718  0.164718  1
  B  B9  1  0.108568  0.727349  0.835917  1
  B  B10  1  0.730720  0.889299  0.620019  1
  B  B11  1  0.266474  0.110351  0.376825  1
  B  B12  1  0.733526  0.110351  0.843877  1
  B  B13  1  0.269280  0.889299  0.158579  1
  B  B14  1  0.411788  0.418751  0.525412  1
  B  B15  1  0.890745  0.885611  0.471503  1
  B  B16  1  0.588212  0.113623  0.006962  1
  B  B17  1  0.109255  0.580757  0.994866  1
  B  B18  1  0.585893  0.580757  0.471503  1
  B  B19  1  0.106661  0.113623  0.525412  1
  B  B20  1  0.893339  0.418751  0.006962  1
  B  B21  1  0.414107  0.885611  0.994866  1
  Ir  Ir22  1  0.500000  0.725528  0.225528  1
  Pt  Pt23  1  0.500000  0.275814  0.775814  1
