# generated using pymatgen
data_Dy12ZnCo4Bi
_symmetry_space_group_name_H-M   'P 1'
_cell_length_a   8.37360400
_cell_length_b   8.37360342
_cell_length_c   8.37360319
_cell_angle_alpha   111.57212185
_cell_angle_beta   109.62168751
_cell_angle_gamma   107.24868787
_symmetry_Int_Tables_number   1
_chemical_formula_structural   Dy12ZnCo4Bi
_chemical_formula_sum   'Dy12 Zn1 Co4 Bi1'
_cell_volume   451.33196780
_cell_formula_units_Z   1
loop_
 _symmetry_equiv_pos_site_id
 _symmetry_equiv_pos_as_xyz
  1  'x, y, z'
loop_
 _atom_site_type_symbol
 _atom_site_label
 _atom_site_symmetry_multiplicity
 _atom_site_fract_x
 _atom_site_fract_y
 _atom_site_fract_z
 _atom_site_occupancy
  Dy  Dy0  1  0.816973  0.713061  0.530034  1
  Dy  Dy1  1  0.183027  0.286939  0.469966  1
  Dy  Dy2  1  0.183027  0.713061  0.896088  1
  Dy  Dy3  1  0.816973  0.286939  0.103912  1
  Dy  Dy4  1  0.686247  0.377911  0.691664  1
  Dy  Dy5  1  0.313753  0.622089  0.308336  1
  Dy  Dy6  1  0.686247  0.994583  0.308336  1
  Dy  Dy7  1  0.313753  0.005417  0.691664  1
  Dy  Dy8  1  0.576515  0.782163  0.794352  1
  Dy  Dy9  1  0.423485  0.217837  0.205648  1
  Dy  Dy10  1  0.987812  0.782163  0.205648  1
  Dy  Dy11  1  0.012188  0.217837  0.794352  1
  Zn  Zn12  1  0.000000  0.000000  0.000000  1
  Co  Co13  1  0.624120  0.000000  0.624120  1
  Co  Co14  1  0.375880  0.000000  0.375880  1
  Co  Co15  1  0.111929  0.611929  0.500000  1
  Co  Co16  1  0.888071  0.388071  0.500000  1
  Bi  Bi17  1  0.500000  0.500000  0.000000  1
