# generated using pymatgen
data_Dy5MgVP12Ir17
_symmetry_space_group_name_H-M   'P 1'
_cell_length_a   12.61985120
_cell_length_b   12.80171253
_cell_length_c   3.97281500
_cell_angle_alpha   90.00000000
_cell_angle_beta   90.00000000
_cell_angle_gamma   119.71440674
_symmetry_Int_Tables_number   1
_chemical_formula_structural   Dy5MgVP12Ir17
_chemical_formula_sum   'Dy5 Mg1 V1 P12 Ir17'
_cell_volume   557.43460160
_cell_formula_units_Z   1
loop_
 _symmetry_equiv_pos_site_id
 _symmetry_equiv_pos_as_xyz
  1  'x, y, z'
loop_
 _atom_site_type_symbol
 _atom_site_label
 _atom_site_symmetry_multiplicity
 _atom_site_fract_x
 _atom_site_fract_y
 _atom_site_fract_z
 _atom_site_occupancy
  Dy  Dy0  1  0.329214  0.661415  0.500000  1
  Dy  Dy1  1  0.671030  0.338093  0.500000  1
  Dy  Dy2  1  0.002621  0.811649  0.000000  1
  Dy  Dy3  1  0.187085  0.187176  0.000000  1
  Dy  Dy4  1  0.814186  0.003683  0.000000  1
  Mg  Mg5  1  0.551832  0.555481  0.500000  1
  V  V6  1  0.999668  0.449999  0.500000  1
  P  P7  1  0.000953  0.631417  0.500000  1
  P  P8  1  0.356917  0.354818  0.500000  1
  P  P9  1  0.644475  0.002098  0.500000  1
  P  P10  1  0.513768  0.687691  0.000000  1
  P  P11  1  0.308157  0.822657  0.000000  1
  P  P12  1  0.161732  0.479276  0.000000  1
  P  P13  1  0.484564  0.177424  0.000000  1
  P  P14  1  0.686477  0.517747  0.000000  1
  P  P15  1  0.833685  0.318849  0.000000  1
  P  P16  1  0.999063  0.174537  0.500000  1
  P  P17  1  0.822791  0.822814  0.500000  1
  P  P18  1  0.179242  0.998298  0.500000  1
  Ir  Ir19  1  0.506383  0.868271  0.000000  1
  Ir  Ir20  1  0.126956  0.637929  0.000000  1
  Ir  Ir21  1  0.355171  0.495643  0.000000  1
  Ir  Ir22  1  0.485714  0.360591  0.000000  1
  Ir  Ir23  1  0.867521  0.508876  0.000000  1
  Ir  Ir24  1  0.641165  0.137609  0.000000  1
  Ir  Ir25  1  0.463349  0.001696  0.500000  1
  Ir  Ir26  1  0.996386  0.283548  0.000000  1
  Ir  Ir27  1  0.716864  0.719654  0.000000  1
  Ir  Ir28  1  0.289067  0.998091  0.000000  1
  Ir  Ir29  1  0.624219  0.808752  0.500000  1
  Ir  Ir30  1  0.199957  0.821227  0.500000  1
  Ir  Ir31  1  0.175284  0.366641  0.500000  1
  Ir  Ir32  1  0.377771  0.174402  0.500000  1
  Ir  Ir33  1  0.807891  0.629065  0.500000  1
  Ir  Ir34  1  0.818453  0.195421  0.500000  1
  Ir  Ir35  1  0.000390  0.997462  0.500000  1
