# generated using pymatgen
data_AsRh3S7
_symmetry_space_group_name_H-M   'P 1'
_cell_length_a   5.75843443
_cell_length_b   5.75843388
_cell_length_c   5.75843524
_cell_angle_alpha   90.73098222
_cell_angle_beta   90.73099116
_cell_angle_gamma   90.73096685
_symmetry_Int_Tables_number   1
_chemical_formula_structural   AsRh3S7
_chemical_formula_sum   'As1 Rh3 S7'
_cell_volume   190.90018193
_cell_formula_units_Z   1
loop_
 _symmetry_equiv_pos_site_id
 _symmetry_equiv_pos_as_xyz
  1  'x, y, z'
loop_
 _atom_site_type_symbol
 _atom_site_label
 _atom_site_symmetry_multiplicity
 _atom_site_fract_x
 _atom_site_fract_y
 _atom_site_fract_z
 _atom_site_occupancy
  As  As0  1  0.383809  0.383809  0.383809  1
  Rh  Rh1  1  0.500740  0.502031  0.997333  1
  Rh  Rh2  1  0.502031  0.997333  0.500740  1
  Rh  Rh3  1  0.997333  0.500740  0.502031  1
  S  S4  1  0.400058  0.889723  0.106160  1
  S  S5  1  0.893912  0.600634  0.110551  1
  S  S6  1  0.889724  0.106160  0.400058  1
  S  S7  1  0.110551  0.893912  0.600635  1
  S  S8  1  0.615052  0.615052  0.615052  1
  S  S9  1  0.106160  0.400058  0.889723  1
  S  S10  1  0.600635  0.110551  0.893911  1
