# generated using pymatgen
data_TbSmTm4(Co3P2)6
_symmetry_space_group_name_H-M   'P 1'
_cell_length_a   3.68517600
_cell_length_b   10.48592100
_cell_length_c   12.14160500
_cell_angle_alpha   90.00000000
_cell_angle_beta   90.00000000
_cell_angle_gamma   90.00000000
_symmetry_Int_Tables_number   1
_chemical_formula_structural   TbSmTm4(Co3P2)6
_chemical_formula_sum   'Tb1 Sm1 Tm4 Co18 P12'
_cell_volume   469.18153906
_cell_formula_units_Z   1
loop_
 _symmetry_equiv_pos_site_id
 _symmetry_equiv_pos_as_xyz
  1  'x, y, z'
loop_
 _atom_site_type_symbol
 _atom_site_label
 _atom_site_symmetry_multiplicity
 _atom_site_fract_x
 _atom_site_fract_y
 _atom_site_fract_z
 _atom_site_occupancy
  Tb  Tb0  1  0.500000  0.000000  0.477485  1
  Sm  Sm1  1  0.000000  0.500000  0.522851  1
  Tm  Tm2  1  0.500000  0.817839  0.205559  1
  Tm  Tm3  1  0.500000  0.182161  0.205559  1
  Tm  Tm4  1  0.000000  0.682454  0.794713  1
  Tm  Tm5  1  0.000000  0.317546  0.794713  1
  Co  Co6  1  0.500000  0.500000  0.157997  1
  Co  Co7  1  0.000000  0.000000  0.841496  1
  Co  Co8  1  0.500000  0.500000  0.706024  1
  Co  Co9  1  0.000000  0.000000  0.295226  1
  Co  Co10  1  0.000000  0.500000  0.986273  1
  Co  Co11  1  0.500000  0.000000  0.013817  1
  Co  Co12  1  0.500000  0.333111  0.994698  1
  Co  Co13  1  0.500000  0.666889  0.994698  1
  Co  Co14  1  0.000000  0.166835  0.005337  1
  Co  Co15  1  0.000000  0.833165  0.005337  1
  Co  Co16  1  0.500000  0.295880  0.429594  1
  Co  Co17  1  0.500000  0.704120  0.429594  1
  Co  Co18  1  0.000000  0.202066  0.570103  1
  Co  Co19  1  0.000000  0.797934  0.570103  1
  Co  Co20  1  0.500000  0.879018  0.710815  1
  Co  Co21  1  0.500000  0.120982  0.710815  1
  Co  Co22  1  0.000000  0.621549  0.288752  1
  Co  Co23  1  0.000000  0.378451  0.288752  1
  P  P24  1  0.500000  0.500000  0.883019  1
  P  P25  1  0.000000  0.000000  0.117489  1
  P  P26  1  0.500000  0.500000  0.341723  1
  P  P27  1  0.000000  0.000000  0.656505  1
  P  P28  1  0.500000  0.308790  0.617756  1
  P  P29  1  0.500000  0.691210  0.617756  1
  P  P30  1  0.000000  0.189465  0.382837  1
  P  P31  1  0.000000  0.810535  0.382837  1
  P  P32  1  0.500000  0.846677  0.892802  1
  P  P33  1  0.500000  0.153323  0.892802  1
  P  P34  1  0.000000  0.653494  0.107083  1
  P  P35  1  0.000000  0.346506  0.107083  1
