# generated using pymatgen
data_Na12V3RhS8(O4F)8
_symmetry_space_group_name_H-M   'P 1'
_cell_length_a   6.75612100
_cell_length_b   9.01049200
_cell_length_c   14.19045000
_cell_angle_alpha   90.00000000
_cell_angle_beta   90.00000000
_cell_angle_gamma   90.00000000
_symmetry_Int_Tables_number   1
_chemical_formula_structural   Na12V3RhS8(O4F)8
_chemical_formula_sum   'Na12 V3 Rh1 S8 O32 F8'
_cell_volume   863.85746839
_cell_formula_units_Z   1
loop_
 _symmetry_equiv_pos_site_id
 _symmetry_equiv_pos_as_xyz
  1  'x, y, z'
loop_
 _atom_site_type_symbol
 _atom_site_label
 _atom_site_symmetry_multiplicity
 _atom_site_fract_x
 _atom_site_fract_y
 _atom_site_fract_z
 _atom_site_occupancy
  Na  Na0  1  0.518708  0.670413  0.903876  1
  Na  Na1  1  0.017682  0.832887  0.596100  1
  Na  Na2  1  0.482318  0.167113  0.596100  1
  Na  Na3  1  0.981292  0.329587  0.903876  1
  Na  Na4  1  0.481011  0.332066  0.096553  1
  Na  Na5  1  0.980954  0.167199  0.403868  1
  Na  Na6  1  0.519046  0.832801  0.403868  1
  Na  Na7  1  0.018989  0.667934  0.096553  1
  Na  Na8  1  0.750000  0.000000  0.046926  1
  Na  Na9  1  0.250000  0.500000  0.450750  1
  Na  Na10  1  0.250000  0.000000  0.951308  1
  Na  Na11  1  0.750000  0.500000  0.548448  1
  V  V12  1  0.250000  0.500000  0.697126  1
  V  V13  1  0.250000  0.000000  0.197409  1
  V  V14  1  0.750000  0.500000  0.302474  1
  Rh  Rh15  1  0.750000  0.000000  0.801579  1
  S  S16  1  0.000279  0.695736  0.857411  1
  S  S17  1  0.502988  0.807001  0.642947  1
  S  S18  1  0.997012  0.192999  0.642947  1
  S  S19  1  0.499721  0.304264  0.857411  1
  S  S20  1  0.997670  0.306877  0.142558  1
  S  S21  1  0.497763  0.193191  0.357531  1
  S  S22  1  0.002237  0.806809  0.357531  1
  S  S23  1  0.502330  0.693123  0.142558  1
  O  O24  1  0.448032  0.442251  0.800486  1
  O  O25  1  0.951605  0.049696  0.696687  1
  O  O26  1  0.548395  0.950304  0.696687  1
  O  O27  1  0.051968  0.557749  0.800486  1
  O  O28  1  0.553087  0.554364  0.199404  1
  O  O29  1  0.053411  0.945425  0.300843  1
  O  O30  1  0.446589  0.054575  0.300843  1
  O  O31  1  0.946913  0.445636  0.199404  1
  O  O32  1  0.181228  0.769053  0.889542  1
  O  O33  1  0.685497  0.734746  0.611403  1
  O  O34  1  0.814503  0.265254  0.611403  1
  O  O35  1  0.318772  0.230947  0.889542  1
  O  O36  1  0.815551  0.234409  0.110499  1
  O  O37  1  0.315770  0.265777  0.389856  1
  O  O38  1  0.184230  0.734223  0.389856  1
  O  O39  1  0.684449  0.765591  0.110499  1
  O  O40  1  0.874489  0.646720  0.936339  1
  O  O41  1  0.376603  0.854479  0.563556  1
  O  O42  1  0.123397  0.145521  0.563556  1
  O  O43  1  0.625511  0.353280  0.936339  1
  O  O44  1  0.122337  0.357002  0.063198  1
  O  O45  1  0.622713  0.143324  0.436749  1
  O  O46  1  0.877287  0.856676  0.436749  1
  O  O47  1  0.377663  0.642998  0.063198  1
  O  O48  1  0.388225  0.707812  0.708442  1
  O  O49  1  0.882114  0.791222  0.789216  1
  O  O50  1  0.617886  0.208778  0.789216  1
  O  O51  1  0.111775  0.292188  0.708442  1
  O  O52  1  0.614197  0.291574  0.292603  1
  O  O53  1  0.114502  0.208686  0.207397  1
  O  O54  1  0.385498  0.791314  0.207397  1
  O  O55  1  0.885803  0.708426  0.292603  1
  F  F56  1  0.571241  0.928694  0.907135  1
  F  F57  1  0.076488  0.571067  0.597209  1
  F  F58  1  0.423512  0.428933  0.597209  1
  F  F59  1  0.928759  0.071306  0.907135  1
  F  F60  1  0.423641  0.071492  0.097738  1
  F  F61  1  0.923686  0.428947  0.402843  1
  F  F62  1  0.576314  0.571053  0.402843  1
  F  F63  1  0.076359  0.928508  0.097738  1
