# generated using pymatgen
data_Ho12SiTc2Ni2Pb
_symmetry_space_group_name_H-M   'P 1'
_cell_length_a   8.37432628
_cell_length_b   8.37432703
_cell_length_c   8.37432769
_cell_angle_alpha   113.22892268
_cell_angle_beta   111.30231885
_cell_angle_gamma   104.02264374
_symmetry_Int_Tables_number   1
_chemical_formula_structural   Ho12SiTc2Ni2Pb
_chemical_formula_sum   'Ho12 Si1 Tc2 Ni2 Pb1'
_cell_volume   448.92510624
_cell_formula_units_Z   1
loop_
 _symmetry_equiv_pos_site_id
 _symmetry_equiv_pos_as_xyz
  1  'x, y, z'
loop_
 _atom_site_type_symbol
 _atom_site_label
 _atom_site_symmetry_multiplicity
 _atom_site_fract_x
 _atom_site_fract_y
 _atom_site_fract_z
 _atom_site_occupancy
  Ho  Ho0  1  0.430392  0.236450  0.193940  1
  Ho  Ho1  1  0.569608  0.763550  0.806060  1
  Ho  Ho2  1  0.042509  0.236450  0.806060  1
  Ho  Ho3  1  0.957491  0.763550  0.193940  1
  Ho  Ho4  1  0.177373  0.278372  0.455745  1
  Ho  Ho5  1  0.822627  0.721628  0.544255  1
  Ho  Ho6  1  0.177373  0.721628  0.899002  1
  Ho  Ho7  1  0.822627  0.278372  0.100998  1
  Ho  Ho8  1  0.330768  0.648078  0.317310  1
  Ho  Ho9  1  0.669232  0.351922  0.682690  1
  Ho  Ho10  1  0.330768  0.013458  0.682690  1
  Ho  Ho11  1  0.669232  0.986542  0.317310  1
  Si  Si12  1  0.000000  0.000000  0.000000  1
  Tc  Tc13  1  0.321167  0.000000  0.321167  1
  Tc  Tc14  1  0.678833  0.000000  0.678833  1
  Ni  Ni15  1  0.117577  0.617577  0.500000  1
  Ni  Ni16  1  0.882423  0.382423  0.500000  1
  Pb  Pb17  1  0.500000  0.500000  0.000000  1
