# generated using pymatgen
data_Tb4Dy4Ti3Si16W9
_symmetry_space_group_name_H-M   'P 1'
_cell_length_a   6.90852561
_cell_length_b   6.90858591
_cell_length_c   12.83317309
_cell_angle_alpha   90.01244522
_cell_angle_beta   89.97847465
_cell_angle_gamma   89.86873126
_symmetry_Int_Tables_number   1
_chemical_formula_structural   Tb4Dy4Ti3Si16W9
_chemical_formula_sum   'Tb4 Dy4 Ti3 Si16 W9'
_cell_volume   612.50185145
_cell_formula_units_Z   1
loop_
 _symmetry_equiv_pos_site_id
 _symmetry_equiv_pos_as_xyz
  1  'x, y, z'
loop_
 _atom_site_type_symbol
 _atom_site_label
 _atom_site_symmetry_multiplicity
 _atom_site_fract_x
 _atom_site_fract_y
 _atom_site_fract_z
 _atom_site_occupancy
  Tb  Tb0  1  0.997874  0.661068  0.031499  1
  Tb  Tb1  1  0.001102  0.339425  0.531134  1
  Tb  Tb2  1  0.661027  0.997849  0.968645  1
  Tb  Tb3  1  0.162459  0.503247  0.780814  1
  Dy  Dy4  1  0.837724  0.500590  0.282459  1
  Dy  Dy5  1  0.502945  0.162194  0.219270  1
  Dy  Dy6  1  0.500526  0.837735  0.717487  1
  Dy  Dy7  1  0.339693  0.000767  0.468745  1
  Ti  Ti8  1  0.829554  0.168293  0.748497  1
  Ti  Ti9  1  0.168347  0.829635  0.251534  1
  Ti  Ti10  1  0.331159  0.331111  0.000092  1
  Si  Si11  1  0.036802  0.711789  0.437633  1
  Si  Si12  1  0.959435  0.289802  0.936160  1
  Si  Si13  1  0.711226  0.036516  0.562200  1
  Si  Si14  1  0.208801  0.460468  0.186286  1
  Si  Si15  1  0.789865  0.540918  0.685864  1
  Si  Si16  1  0.460554  0.208645  0.813743  1
  Si  Si17  1  0.540591  0.790469  0.314148  1
  Si  Si18  1  0.289972  0.959579  0.064065  1
  Si  Si19  1  0.799613  0.871530  0.183628  1
  Si  Si20  1  0.302114  0.626321  0.566232  1
  Si  Si21  1  0.700757  0.371788  0.066470  1
  Si  Si22  1  0.625788  0.301811  0.433549  1
  Si  Si23  1  0.372047  0.700994  0.933733  1
  Si  Si24  1  0.127687  0.202602  0.315768  1
  Si  Si25  1  0.203021  0.127033  0.684178  1
  Si  Si26  1  0.871347  0.799727  0.816391  1
  W  W27  1  0.334490  0.505980  0.375027  1
  W  W28  1  0.841010  0.997065  0.373493  1
  W  W29  1  0.006298  0.160758  0.125760  1
  W  W30  1  0.997001  0.841153  0.626282  1
  W  W31  1  0.505836  0.334228  0.624744  1
  W  W32  1  0.160854  0.006248  0.874376  1
  W  W33  1  0.668161  0.668331  0.499940  1
  W  W34  1  0.494129  0.660216  0.125046  1
  W  W35  1  0.660194  0.494117  0.875109  1
