# generated using pymatgen
data_Nd6CuSb8Pd5
_symmetry_space_group_name_H-M   'P 1'
_cell_length_a   8.60234516
_cell_length_b   8.60234557
_cell_length_c   8.60234528
_cell_angle_alpha   109.28770033
_cell_angle_beta   109.28770535
_cell_angle_gamma   109.83888537
_symmetry_Int_Tables_number   1
_chemical_formula_structural   Nd6CuSb8Pd5
_chemical_formula_sum   'Nd6 Cu1 Sb8 Pd5'
_cell_volume   490.02167819
_cell_formula_units_Z   1
loop_
 _symmetry_equiv_pos_site_id
 _symmetry_equiv_pos_as_xyz
  1  'x, y, z'
loop_
 _atom_site_type_symbol
 _atom_site_label
 _atom_site_symmetry_multiplicity
 _atom_site_fract_x
 _atom_site_fract_y
 _atom_site_fract_z
 _atom_site_occupancy
  Nd  Nd0  1  0.875000  0.125000  0.750000  1
  Nd  Nd1  1  0.128177  0.750063  0.876553  1
  Nd  Nd2  1  0.748376  0.871823  0.121886  1
  Nd  Nd3  1  0.249937  0.626490  0.378114  1
  Nd  Nd4  1  0.625000  0.375000  0.250000  1
  Nd  Nd5  1  0.373510  0.251624  0.623447  1
  Cu  Cu6  1  0.375000  0.625000  0.750000  1
  Sb  Sb7  1  0.498846  0.999280  0.337796  1
  Sb  Sb8  1  0.006521  0.342683  0.502424  1
  Sb  Sb9  1  0.340259  0.504097  0.997576  1
  Sb  Sb10  1  0.000720  0.838516  0.499565  1
  Sb  Sb11  1  0.657317  0.659741  0.663838  1
  Sb  Sb12  1  0.838950  0.501154  0.000435  1
  Sb  Sb13  1  0.161484  0.161050  0.162204  1
  Sb  Sb14  1  0.495903  0.993479  0.836162  1
  Pd  Pd15  1  0.125000  0.875000  0.250000  1
  Pd  Pd16  1  0.250578  0.126378  0.875158  1
  Pd  Pd17  1  0.751220  0.375420  0.624842  1
  Pd  Pd18  1  0.624580  0.749422  0.375800  1
  Pd  Pd19  1  0.873622  0.248780  0.124200  1
