# generated using pymatgen
data_Th2TcC2
_symmetry_space_group_name_H-M   'P 1'
_cell_length_a   5.34734700
_cell_length_b   6.69846000
_cell_length_c   10.13678400
_cell_angle_alpha   90.00000000
_cell_angle_beta   90.00000000
_cell_angle_gamma   90.00000000
_symmetry_Int_Tables_number   1
_chemical_formula_structural   Th2TcC2
_chemical_formula_sum   'Th8 Tc4 C8'
_cell_volume   363.08936458
_cell_formula_units_Z   4
loop_
 _symmetry_equiv_pos_site_id
 _symmetry_equiv_pos_as_xyz
  1  'x, y, z'
loop_
 _atom_site_type_symbol
 _atom_site_label
 _atom_site_symmetry_multiplicity
 _atom_site_fract_x
 _atom_site_fract_y
 _atom_site_fract_z
 _atom_site_occupancy
  Th  Th0  1  0.250000  0.688480  0.548297  1
  Th  Th1  1  0.750000  0.311520  0.451703  1
  Th  Th2  1  0.750000  0.811520  0.048297  1
  Th  Th3  1  0.250000  0.188480  0.951703  1
  Th  Th4  1  0.250000  0.526641  0.220665  1
  Th  Th5  1  0.750000  0.473359  0.779335  1
  Th  Th6  1  0.750000  0.973359  0.720665  1
  Th  Th7  1  0.250000  0.026641  0.279335  1
  Tc  Tc8  1  0.250000  0.725180  0.861996  1
  Tc  Tc9  1  0.750000  0.274820  0.138004  1
  Tc  Tc10  1  0.750000  0.774820  0.361996  1
  Tc  Tc11  1  0.250000  0.225180  0.638004  1
  C  C12  1  0.250000  0.466075  0.755818  1
  C  C13  1  0.750000  0.533925  0.244182  1
  C  C14  1  0.750000  0.033925  0.255818  1
  C  C15  1  0.250000  0.966075  0.744182  1
  C  C16  1  0.250000  0.835442  0.054354  1
  C  C17  1  0.750000  0.164558  0.945646  1
  C  C18  1  0.750000  0.664558  0.554354  1
  C  C19  1  0.250000  0.335442  0.445646  1
