# generated using pymatgen
data_Er2HgRhPb
_symmetry_space_group_name_H-M   'P 1'
_cell_length_a   8.27553600
_cell_length_b   8.07569000
_cell_length_c   3.57788000
_cell_angle_alpha   90.00000000
_cell_angle_beta   90.00000000
_cell_angle_gamma   90.00000000
_symmetry_Int_Tables_number   1
_chemical_formula_structural   Er2HgRhPb
_chemical_formula_sum   'Er4 Hg2 Rh2 Pb2'
_cell_volume   239.11209368
_cell_formula_units_Z   2
loop_
 _symmetry_equiv_pos_site_id
 _symmetry_equiv_pos_as_xyz
  1  'x, y, z'
loop_
 _atom_site_type_symbol
 _atom_site_label
 _atom_site_symmetry_multiplicity
 _atom_site_fract_x
 _atom_site_fract_y
 _atom_site_fract_z
 _atom_site_occupancy
  Er  Er0  1  0.693121  0.165760  0.500000  1
  Er  Er1  1  0.123787  0.322247  0.500000  1
  Er  Er2  1  0.806879  0.665760  0.500000  1
  Er  Er3  1  0.376213  0.822247  0.500000  1
  Hg  Hg4  1  0.375940  0.133067  0.000000  1
  Hg  Hg5  1  0.124060  0.633067  0.000000  1
  Rh  Rh6  1  0.628273  0.881686  0.000000  1
  Rh  Rh7  1  0.871727  0.381686  0.000000  1
  Pb  Pb8  1  0.987816  0.997239  0.000000  1
  Pb  Pb9  1  0.512184  0.497239  0.000000  1
