# generated using pymatgen
data_Lu4MnAl18Ni4Pd
_symmetry_space_group_name_H-M   'P 1'
_cell_length_a   7.40019754
_cell_length_b   7.40019767
_cell_length_c   9.24236112
_cell_angle_alpha   89.97273501
_cell_angle_beta   89.97273110
_cell_angle_gamma   118.79074614
_symmetry_Int_Tables_number   1
_chemical_formula_structural   Lu4MnAl18Ni4Pd
_chemical_formula_sum   'Lu4 Mn1 Al18 Ni4 Pd1'
_cell_volume   443.57192739
_cell_formula_units_Z   1
loop_
 _symmetry_equiv_pos_site_id
 _symmetry_equiv_pos_as_xyz
  1  'x, y, z'
loop_
 _atom_site_type_symbol
 _atom_site_label
 _atom_site_symmetry_multiplicity
 _atom_site_fract_x
 _atom_site_fract_y
 _atom_site_fract_z
 _atom_site_occupancy
  Lu  Lu0  1  0.994605  0.679338  0.247095  1
  Lu  Lu1  1  0.005395  0.320662  0.752905  1
  Lu  Lu2  1  0.679338  0.994605  0.247095  1
  Lu  Lu3  1  0.320662  0.005395  0.752905  1
  Mn  Mn4  1  0.000000  0.000000  0.000000  1
  Al  Al5  1  0.133332  0.133332  0.242310  1
  Al  Al6  1  0.866668  0.866668  0.757690  1
  Al  Al7  1  0.995568  0.333374  0.072504  1
  Al  Al8  1  0.004432  0.666626  0.927496  1
  Al  Al9  1  0.001460  0.656434  0.577770  1
  Al  Al10  1  0.343566  0.998540  0.422230  1
  Al  Al11  1  0.998540  0.343566  0.422230  1
  Al  Al12  1  0.656434  0.001460  0.577770  1
  Al  Al13  1  0.666626  0.004432  0.927496  1
  Al  Al14  1  0.333374  0.995568  0.072504  1
  Al  Al15  1  0.337765  0.337765  0.551633  1
  Al  Al16  1  0.662235  0.662236  0.448367  1
  Al  Al17  1  0.671294  0.671295  0.044459  1
  Al  Al18  1  0.328706  0.328706  0.955541  1
  Al  Al19  1  0.342295  0.559539  0.248052  1
  Al  Al20  1  0.657705  0.440461  0.751948  1
  Al  Al21  1  0.559539  0.342295  0.248052  1
  Al  Al22  1  0.440461  0.657705  0.751948  1
  Ni  Ni23  1  0.671006  0.328994  0.000000  1
  Ni  Ni24  1  0.328994  0.671006  0.000000  1
  Ni  Ni25  1  0.328879  0.671121  0.500000  1
  Ni  Ni26  1  0.671121  0.328879  0.500000  1
  Pd  Pd27  1  0.000000  0.000000  0.500000  1
