# generated using pymatgen
data_TbNd4HoNiBr10
_symmetry_space_group_name_H-M   'P 1'
_cell_length_a   7.47270390
_cell_length_b   9.49380170
_cell_length_c   9.48066082
_cell_angle_alpha   108.24122165
_cell_angle_beta   95.05197374
_cell_angle_gamma   105.15857940
_symmetry_Int_Tables_number   1
_chemical_formula_structural   TbNd4HoNiBr10
_chemical_formula_sum   'Tb1 Nd4 Ho1 Ni1 Br10'
_cell_volume   605.88922424
_cell_formula_units_Z   1
loop_
 _symmetry_equiv_pos_site_id
 _symmetry_equiv_pos_as_xyz
  1  'x, y, z'
loop_
 _atom_site_type_symbol
 _atom_site_label
 _atom_site_symmetry_multiplicity
 _atom_site_fract_x
 _atom_site_fract_y
 _atom_site_fract_z
 _atom_site_occupancy
  Tb  Tb0  1  0.652694  0.874973  0.830546  1
  Nd  Nd1  1  0.133237  0.049252  0.755278  1
  Nd  Nd2  1  0.868587  0.951650  0.245248  1
  Nd  Nd3  1  0.968149  0.295790  0.097110  1
  Nd  Nd4  1  0.033157  0.704580  0.903661  1
  Ho  Ho5  1  0.345071  0.123958  0.167990  1
  Ni  Ni6  1  0.999854  0.999988  0.999905  1
  Br  Br7  1  0.549698  0.174630  0.920566  1
  Br  Br8  1  0.449989  0.827397  0.082283  1
  Br  Br9  1  0.354933  0.436121  0.266072  1
  Br  Br10  1  0.646951  0.561250  0.734516  1
  Br  Br11  1  0.250412  0.080054  0.442628  1
  Br  Br12  1  0.752267  0.921668  0.556079  1
  Br  Br13  1  0.752950  0.244196  0.339315  1
  Br  Br14  1  0.241945  0.754180  0.658176  1
  Br  Br15  1  0.087464  0.367868  0.827947  1
  Br  Br16  1  0.912641  0.632444  0.172679  1
