# generated using pymatgen
data_Sc5P12Ru18Pt
_symmetry_space_group_name_H-M   'P 1'
_cell_length_a   12.43255500
_cell_length_b   12.43255571
_cell_length_c   3.93389400
_cell_angle_alpha   90.00000000
_cell_angle_beta   90.00000000
_cell_angle_gamma   120.00000076
_symmetry_Int_Tables_number   1
_chemical_formula_structural   Sc5P12Ru18Pt
_chemical_formula_sum   'Sc5 P12 Ru18 Pt1'
_cell_volume   526.59179168
_cell_formula_units_Z   1
loop_
 _symmetry_equiv_pos_site_id
 _symmetry_equiv_pos_as_xyz
  1  'x, y, z'
loop_
 _atom_site_type_symbol
 _atom_site_label
 _atom_site_symmetry_multiplicity
 _atom_site_fract_x
 _atom_site_fract_y
 _atom_site_fract_z
 _atom_site_occupancy
  Sc  Sc0  1  0.333333  0.666667  0.000000  1
  Sc  Sc1  1  0.666667  0.333333  0.000000  1
  Sc  Sc2  1  0.808867  0.000000  0.500000  1
  Sc  Sc3  1  0.000000  0.808867  0.500000  1
  Sc  Sc4  1  0.191133  0.191133  0.500000  1
  P  P5  1  0.184388  0.000000  0.000000  1
  P  P6  1  0.000000  0.184388  0.000000  1
  P  P7  1  0.815612  0.815612  0.000000  1
  P  P8  1  0.171601  0.478392  0.500000  1
  P  P9  1  0.521608  0.693209  0.500000  1
  P  P10  1  0.306791  0.828399  0.500000  1
  P  P11  1  0.693209  0.521608  0.500000  1
  P  P12  1  0.828399  0.306791  0.500000  1
  P  P13  1  0.478392  0.171601  0.500000  1
  P  P14  1  0.628040  0.000000  0.000000  1
  P  P15  1  0.000000  0.628040  0.000000  1
  P  P16  1  0.371960  0.371960  0.000000  1
  Ru  Ru17  1  0.444348  0.000000  0.000000  1
  Ru  Ru18  1  0.000000  0.444348  0.000000  1
  Ru  Ru19  1  0.555652  0.555652  0.000000  1
  Ru  Ru20  1  0.365482  0.493315  0.500000  1
  Ru  Ru21  1  0.506685  0.872168  0.500000  1
  Ru  Ru22  1  0.127832  0.634518  0.500000  1
  Ru  Ru23  1  0.872168  0.506685  0.500000  1
  Ru  Ru24  1  0.634518  0.127832  0.500000  1
  Ru  Ru25  1  0.493315  0.365482  0.500000  1
  Ru  Ru26  1  0.185626  0.375193  0.000000  1
  Ru  Ru27  1  0.624807  0.810434  0.000000  1
  Ru  Ru28  1  0.189566  0.814374  0.000000  1
  Ru  Ru29  1  0.810434  0.624807  0.000000  1
  Ru  Ru30  1  0.814374  0.189566  0.000000  1
  Ru  Ru31  1  0.375193  0.185626  0.000000  1
  Ru  Ru32  1  0.278883  0.000000  0.500000  1
  Ru  Ru33  1  0.000000  0.278883  0.500000  1
  Ru  Ru34  1  0.721117  0.721117  0.500000  1
  Pt  Pt35  1  0.000000  0.000000  0.000000  1
