# generated using pymatgen
data_Sm6Pa2TiPd24
_symmetry_space_group_name_H-M   'P 1'
_cell_length_a   8.44336238
_cell_length_b   8.44336238
_cell_length_c   8.44336238
_cell_angle_alpha   89.45029651
_cell_angle_beta   89.45029651
_cell_angle_gamma   89.45029651
_symmetry_Int_Tables_number   1
_chemical_formula_structural   Sm6Pa2TiPd24
_chemical_formula_sum   'Sm6 Pa2 Ti1 Pd24'
_cell_volume   601.84783196
_cell_formula_units_Z   1
loop_
 _symmetry_equiv_pos_site_id
 _symmetry_equiv_pos_as_xyz
  1  'x, y, z'
loop_
 _atom_site_type_symbol
 _atom_site_label
 _atom_site_symmetry_multiplicity
 _atom_site_fract_x
 _atom_site_fract_y
 _atom_site_fract_z
 _atom_site_occupancy
  Sm  Sm0  1  0.749530  0.749530  0.246544  1
  Sm  Sm1  1  0.749530  0.246544  0.749530  1
  Sm  Sm2  1  0.250470  0.250470  0.753456  1
  Sm  Sm3  1  0.250470  0.753456  0.250470  1
  Sm  Sm4  1  0.246544  0.749530  0.749530  1
  Sm  Sm5  1  0.753456  0.250470  0.250470  1
  Pa  Pa6  1  0.249061  0.249061  0.249061  1
  Pa  Pa7  1  0.750939  0.750939  0.750939  1
  Ti  Ti8  1  0.000000  0.000000  0.000000  1
  Pd  Pd9  1  0.262460  0.499357  0.007072  1
  Pd  Pd10  1  0.737540  0.500643  0.992928  1
  Pd  Pd11  1  0.007072  0.262460  0.499357  1
  Pd  Pd12  1  0.499357  0.262460  0.007072  1
  Pd  Pd13  1  0.992928  0.737540  0.500643  1
  Pd  Pd14  1  0.500643  0.737540  0.992928  1
  Pd  Pd15  1  0.499357  0.007072  0.262460  1
  Pd  Pd16  1  0.262460  0.007072  0.499357  1
  Pd  Pd17  1  0.500643  0.992928  0.737540  1
  Pd  Pd18  1  0.737540  0.992928  0.500643  1
  Pd  Pd19  1  0.007072  0.499357  0.262460  1
  Pd  Pd20  1  0.992928  0.500643  0.737540  1
  Pd  Pd21  1  0.253227  0.497243  0.497243  1
  Pd  Pd22  1  0.746773  0.502757  0.502757  1
  Pd  Pd23  1  0.497243  0.253227  0.497243  1
  Pd  Pd24  1  0.502757  0.746773  0.502757  1
  Pd  Pd25  1  0.497243  0.497243  0.253227  1
  Pd  Pd26  1  0.502757  0.502757  0.746773  1
  Pd  Pd27  1  0.299641  0.004162  0.004162  1
  Pd  Pd28  1  0.700359  0.995838  0.995838  1
  Pd  Pd29  1  0.004162  0.299641  0.004162  1
  Pd  Pd30  1  0.995838  0.700359  0.995838  1
  Pd  Pd31  1  0.004162  0.004162  0.299641  1
  Pd  Pd32  1  0.995838  0.995838  0.700359  1
