# generated using pymatgen
data_Ho3Co5Tc(NiP2)3
_symmetry_space_group_name_H-M   'P 1'
_cell_length_a   3.73886500
_cell_length_b   10.49966100
_cell_length_c   12.23753600
_cell_angle_alpha   90.00000000
_cell_angle_beta   90.00000000
_cell_angle_gamma   90.00000000
_symmetry_Int_Tables_number   1
_chemical_formula_structural   Ho3Co5Tc(NiP2)3
_chemical_formula_sum   'Ho6 Co10 Tc2 Ni6 P12'
_cell_volume   480.40668711
_cell_formula_units_Z   2
loop_
 _symmetry_equiv_pos_site_id
 _symmetry_equiv_pos_as_xyz
  1  'x, y, z'
loop_
 _atom_site_type_symbol
 _atom_site_label
 _atom_site_symmetry_multiplicity
 _atom_site_fract_x
 _atom_site_fract_y
 _atom_site_fract_z
 _atom_site_occupancy
  Ho  Ho0  1  0.000000  0.500000  0.522401  1
  Ho  Ho1  1  0.500000  0.000000  0.477599  1
  Ho  Ho2  1  0.500000  0.816691  0.205998  1
  Ho  Ho3  1  0.500000  0.183309  0.205998  1
  Ho  Ho4  1  0.000000  0.683309  0.794002  1
  Ho  Ho5  1  0.000000  0.316691  0.794002  1
  Co  Co6  1  0.000000  0.500000  0.986114  1
  Co  Co7  1  0.500000  0.000000  0.013886  1
  Co  Co8  1  0.500000  0.880160  0.711606  1
  Co  Co9  1  0.500000  0.119840  0.711606  1
  Co  Co10  1  0.000000  0.619840  0.288394  1
  Co  Co11  1  0.000000  0.380160  0.288394  1
  Co  Co12  1  0.500000  0.332040  0.989108  1
  Co  Co13  1  0.500000  0.667960  0.989108  1
  Co  Co14  1  0.000000  0.167960  0.010892  1
  Co  Co15  1  0.000000  0.832040  0.010892  1
  Tc  Tc16  1  0.500000  0.500000  0.153042  1
  Tc  Tc17  1  0.000000  0.000000  0.846958  1
  Ni  Ni18  1  0.500000  0.303504  0.428565  1
  Ni  Ni19  1  0.500000  0.696496  0.428565  1
  Ni  Ni20  1  0.000000  0.196496  0.571435  1
  Ni  Ni21  1  0.000000  0.803504  0.571435  1
  Ni  Ni22  1  0.500000  0.500000  0.702294  1
  Ni  Ni23  1  0.000000  0.000000  0.297706  1
  P  P24  1  0.500000  0.312112  0.617214  1
  P  P25  1  0.500000  0.687888  0.617214  1
  P  P26  1  0.000000  0.187888  0.382786  1
  P  P27  1  0.000000  0.812112  0.382786  1
  P  P28  1  0.500000  0.500000  0.880553  1
  P  P29  1  0.000000  0.000000  0.119447  1
  P  P30  1  0.500000  0.845980  0.893786  1
  P  P31  1  0.500000  0.154020  0.893786  1
  P  P32  1  0.000000  0.654020  0.106214  1
  P  P33  1  0.000000  0.345980  0.106214  1
  P  P34  1  0.500000  0.500000  0.344280  1
  P  P35  1  0.000000  0.000000  0.655720  1
