# generated using pymatgen
data_Dy5Zr3(ReB6)4
_symmetry_space_group_name_H-M   'P 1'
_cell_length_a   3.63216000
_cell_length_b   9.07996215
_cell_length_c   11.46829126
_cell_angle_alpha   89.97736880
_cell_angle_beta   90.00000000
_cell_angle_gamma   90.00000000
_symmetry_Int_Tables_number   1
_chemical_formula_structural   Dy5Zr3(ReB6)4
_chemical_formula_sum   'Dy5 Zr3 Re4 B24'
_cell_volume   378.22278646
_cell_formula_units_Z   1
loop_
 _symmetry_equiv_pos_site_id
 _symmetry_equiv_pos_as_xyz
  1  'x, y, z'
loop_
 _atom_site_type_symbol
 _atom_site_label
 _atom_site_symmetry_multiplicity
 _atom_site_fract_x
 _atom_site_fract_y
 _atom_site_fract_z
 _atom_site_occupancy
  Dy  Dy0  1  0.000000  0.321508  0.412927  1
  Dy  Dy1  1  0.000000  0.678172  0.586324  1
  Dy  Dy2  1  0.000000  0.821196  0.086376  1
  Dy  Dy3  1  0.000000  0.179040  0.914133  1
  Dy  Dy4  1  0.000000  0.943849  0.372355  1
  Zr  Zr5  1  0.000000  0.057053  0.629952  1
  Zr  Zr6  1  0.000000  0.443814  0.126982  1
  Zr  Zr7  1  0.000000  0.556321  0.872518  1
  Re  Re8  1  0.000000  0.635035  0.317925  1
  Re  Re9  1  0.000000  0.361103  0.682173  1
  Re  Re10  1  0.000000  0.142572  0.177902  1
  Re  Re11  1  0.000000  0.860407  0.819972  1
  B  B12  1  0.500000  0.551700  0.432833  1
  B  B13  1  0.500000  0.445829  0.567097  1
  B  B14  1  0.500000  0.054383  0.066334  1
  B  B15  1  0.500000  0.946500  0.933307  1
  B  B16  1  0.500000  0.747920  0.417496  1
  B  B17  1  0.500000  0.248422  0.582826  1
  B  B18  1  0.500000  0.252567  0.080999  1
  B  B19  1  0.500000  0.748271  0.918316  1
  B  B20  1  0.500000  0.791376  0.263960  1
  B  B21  1  0.500000  0.206446  0.736215  1
  B  B22  1  0.500000  0.294358  0.234089  1
  B  B23  1  0.500000  0.706237  0.764804  1
  B  B24  1  0.500000  0.629215  0.183267  1
  B  B25  1  0.500000  0.370319  0.816630  1
  B  B26  1  0.500000  0.132399  0.314521  1
  B  B27  1  0.500000  0.869819  0.684226  1
  B  B28  1  0.500000  0.983702  0.211855  1
  B  B29  1  0.500000  0.018040  0.787359  1
  B  B30  1  0.500000  0.480621  0.286032  1
  B  B31  1  0.500000  0.518529  0.713325  1
  B  B32  1  0.500000  0.600395  0.026763  1
  B  B33  1  0.500000  0.400369  0.972417  1
  B  B34  1  0.500000  0.102879  0.475387  1
  B  B35  1  0.500000  0.899630  0.530405  1
