# generated using pymatgen
data_LiPrNd2Ag3Sn4
_symmetry_space_group_name_H-M   'P 1'
_cell_length_a   8.92006767
_cell_length_b   8.91418038
_cell_length_c   8.91418003
_cell_angle_alpha   149.40746780
_cell_angle_beta   131.03876528
_cell_angle_gamma   58.83732291
_symmetry_Int_Tables_number   1
_chemical_formula_structural   LiPrNd2Ag3Sn4
_chemical_formula_sum   'Li1 Pr1 Nd2 Ag3 Sn4'
_cell_volume   269.98023039
_cell_formula_units_Z   1
loop_
 _symmetry_equiv_pos_site_id
 _symmetry_equiv_pos_as_xyz
  1  'x, y, z'
loop_
 _atom_site_type_symbol
 _atom_site_label
 _atom_site_symmetry_multiplicity
 _atom_site_fract_x
 _atom_site_fract_y
 _atom_site_fract_z
 _atom_site_occupancy
  Li  Li0  1  0.483377  0.670987  0.812391  1
  Pr  Pr1  1  0.498490  0.997854  0.500636  1
  Nd  Nd2  1  0.875620  0.871570  0.004049  1
  Nd  Nd3  1  0.129320  0.130219  0.999100  1
  Ag  Ag4  1  0.855129  0.670555  0.184574  1
  Ag  Ag5  1  0.134583  0.331478  0.803105  1
  Ag  Ag6  1  0.525028  0.327542  0.197485  1
  Sn  Sn7  1  0.282638  0.782882  0.499756  1
  Sn  Sn8  1  0.708075  0.212566  0.495509  1
  Sn  Sn9  1  0.807702  0.500334  0.307368  1
  Sn  Sn10  1  0.200039  0.504014  0.696026  1
