# generated using pymatgen
data_Os2Rh2Pb4O13
_symmetry_space_group_name_H-M   'P 1'
_cell_length_a   7.41199381
_cell_length_b   7.36464450
_cell_length_c   7.36464422
_cell_angle_alpha   59.86347128
_cell_angle_beta   59.78710654
_cell_angle_gamma   59.78709775
_symmetry_Int_Tables_number   1
_chemical_formula_structural   Os2Rh2Pb4O13
_chemical_formula_sum   'Os2 Rh2 Pb4 O13'
_cell_volume   283.05532845
_cell_formula_units_Z   1
loop_
 _symmetry_equiv_pos_site_id
 _symmetry_equiv_pos_as_xyz
  1  'x, y, z'
loop_
 _atom_site_type_symbol
 _atom_site_label
 _atom_site_symmetry_multiplicity
 _atom_site_fract_x
 _atom_site_fract_y
 _atom_site_fract_z
 _atom_site_occupancy
  Os  Os0  1  0.871053  0.876484  0.876484  1
  Os  Os1  1  0.375978  0.876484  0.876484  1
  Rh  Rh2  1  0.873839  0.377291  0.875030  1
  Rh  Rh3  1  0.873839  0.875030  0.377291  1
  Pb  Pb4  1  0.877912  0.372951  0.372951  1
  Pb  Pb5  1  0.376188  0.372951  0.372951  1
  Pb  Pb6  1  0.368108  0.380623  0.883162  1
  Pb  Pb7  1  0.368108  0.883162  0.380623  1
  O  O8  1  0.197356  0.802644  0.802644  1
  O  O9  1  0.204174  0.808263  0.191706  1
  O  O10  1  0.571582  0.928418  0.928418  1
  O  O11  1  0.545042  0.938750  0.559178  1
  O  O12  1  0.957031  0.938750  0.559178  1
  O  O13  1  0.795858  0.808263  0.191706  1
  O  O14  1  0.545042  0.559178  0.938750  1
  O  O15  1  0.795858  0.191706  0.808263  1
  O  O16  1  0.789121  0.210879  0.210879  1
  O  O17  1  0.957031  0.559178  0.938750  1
  O  O18  1  0.956143  0.543857  0.543857  1
  O  O19  1  0.204174  0.191706  0.808263  1
  O  O20  1  0.496565  0.503435  0.503435  1
