# generated using pymatgen
data_Pr8ZnInCo2
_symmetry_space_group_name_H-M   'P 1'
_cell_length_a   9.84225304
_cell_length_b   9.84381618
_cell_length_c   9.84225279
_cell_angle_alpha   59.99473785
_cell_angle_beta   60.12765089
_cell_angle_gamma   59.99474629
_symmetry_Int_Tables_number   1
_chemical_formula_structural   Pr8ZnInCo2
_chemical_formula_sum   'Pr16 Zn2 In2 Co4'
_cell_volume   674.87008096
_cell_formula_units_Z   2
loop_
 _symmetry_equiv_pos_site_id
 _symmetry_equiv_pos_as_xyz
  1  'x, y, z'
loop_
 _atom_site_type_symbol
 _atom_site_label
 _atom_site_symmetry_multiplicity
 _atom_site_fract_x
 _atom_site_fract_y
 _atom_site_fract_z
 _atom_site_occupancy
  Pr  Pr0  1  0.294411  0.902484  0.900621  1
  Pr  Pr1  1  0.690087  0.688485  0.314196  1
  Pr  Pr2  1  0.900621  0.902484  0.294411  1
  Pr  Pr3  1  0.309726  0.690274  0.309726  1
  Pr  Pr4  1  0.690087  0.307233  0.314196  1
  Pr  Pr5  1  0.059467  0.440749  0.441309  1
  Pr  Pr6  1  0.441309  0.058475  0.059467  1
  Pr  Pr7  1  0.059467  0.058475  0.441309  1
  Pr  Pr8  1  0.314196  0.307233  0.690087  1
  Pr  Pr9  1  0.441260  0.058740  0.441260  1
  Pr  Pr10  1  0.902474  0.903485  0.902474  1
  Pr  Pr11  1  0.441309  0.440749  0.059467  1
  Pr  Pr12  1  0.314196  0.688485  0.690087  1
  Pr  Pr13  1  0.689414  0.310586  0.689414  1
  Pr  Pr14  1  0.058899  0.441101  0.058899  1
  Pr  Pr15  1  0.902474  0.291566  0.902474  1
  Zn  Zn16  1  0.670048  0.986685  0.670048  1
  Zn  Zn17  1  0.670048  0.673220  0.670048  1
  In  In18  1  0.669037  0.673746  0.983473  1
  In  In19  1  0.983473  0.673746  0.669037  1
  Co  Co20  1  0.108808  0.108640  0.108808  1
  Co  Co21  1  0.109419  0.109807  0.670967  1
  Co  Co22  1  0.670967  0.109807  0.109419  1
  Co  Co23  1  0.108808  0.673744  0.108808  1
