# generated using pymatgen
data_Tm2Co12Si6Ge
_symmetry_space_group_name_H-M   'P 1'
_cell_length_a   9.19395200
_cell_length_b   9.19395114
_cell_length_c   3.61789600
_cell_angle_alpha   90.00000000
_cell_angle_beta   90.00000000
_cell_angle_gamma   119.99999686
_symmetry_Int_Tables_number   1
_chemical_formula_structural   Tm2Co12Si6Ge
_chemical_formula_sum   'Tm2 Co12 Si6 Ge1'
_cell_volume   264.84461523
_cell_formula_units_Z   1
loop_
 _symmetry_equiv_pos_site_id
 _symmetry_equiv_pos_as_xyz
  1  'x, y, z'
loop_
 _atom_site_type_symbol
 _atom_site_label
 _atom_site_symmetry_multiplicity
 _atom_site_fract_x
 _atom_site_fract_y
 _atom_site_fract_z
 _atom_site_occupancy
  Tm  Tm0  1  0.666667  0.333333  0.000000  1
  Tm  Tm1  1  0.000000  0.000000  0.500000  1
  Co  Co2  1  0.770607  0.723855  0.000000  1
  Co  Co3  1  0.276145  0.046751  0.000000  1
  Co  Co4  1  0.953249  0.229393  0.000000  1
  Co  Co5  1  0.715334  0.100972  0.500000  1
  Co  Co6  1  0.899028  0.614361  0.500000  1
  Co  Co7  1  0.385639  0.284666  0.500000  1
  Co  Co8  1  0.487654  0.949152  0.000000  1
  Co  Co9  1  0.050848  0.538502  0.000000  1
  Co  Co10  1  0.461498  0.512346  0.000000  1
  Co  Co11  1  0.572532  0.775992  0.500000  1
  Co  Co12  1  0.224008  0.796540  0.500000  1
  Co  Co13  1  0.203460  0.427468  0.500000  1
  Si  Si14  1  0.443187  0.069633  0.500000  1
  Si  Si15  1  0.930367  0.373554  0.500000  1
  Si  Si16  1  0.626446  0.556813  0.500000  1
  Si  Si17  1  0.734086  0.954071  0.000000  1
  Si  Si18  1  0.045929  0.780014  0.000000  1
  Si  Si19  1  0.219986  0.265914  0.000000  1
  Ge  Ge20  1  0.333333  0.666667  0.000000  1
