# generated using pymatgen
data_Tb9Nd8Ho3Pb16
_symmetry_space_group_name_H-M   'P 1'
_cell_length_a   8.30140020
_cell_length_b   15.89531236
_cell_length_c   8.39634203
_cell_angle_alpha   90.00244242
_cell_angle_beta   90.00728347
_cell_angle_gamma   90.02440220
_symmetry_Int_Tables_number   1
_chemical_formula_structural   Tb9Nd8Ho3Pb16
_chemical_formula_sum   'Tb9 Nd8 Ho3 Pb16'
_cell_volume   1107.92534131
_cell_formula_units_Z   1
loop_
 _symmetry_equiv_pos_site_id
 _symmetry_equiv_pos_as_xyz
  1  'x, y, z'
loop_
 _atom_site_type_symbol
 _atom_site_label
 _atom_site_symmetry_multiplicity
 _atom_site_fract_x
 _atom_site_fract_y
 _atom_site_fract_z
 _atom_site_occupancy
  Tb  Tb0  1  0.631471  0.621826  0.158609  1
  Tb  Tb1  1  0.131886  0.877811  0.341503  1
  Tb  Tb2  1  0.367994  0.121738  0.841353  1
  Tb  Tb3  1  0.868320  0.377937  0.658574  1
  Tb  Tb4  1  0.367986  0.378127  0.841455  1
  Tb  Tb5  1  0.868621  0.122323  0.658311  1
  Tb  Tb6  1  0.631820  0.878360  0.158260  1
  Tb  Tb7  1  0.132123  0.622098  0.341538  1
  Tb  Tb8  1  0.797986  0.749963  0.496674  1
  Nd  Nd9  1  0.473055  0.598031  0.677582  1
  Nd  Nd10  1  0.973458  0.901593  0.822952  1
  Nd  Nd11  1  0.527275  0.098175  0.322589  1
  Nd  Nd12  1  0.026566  0.401651  0.177286  1
  Nd  Nd13  1  0.526717  0.401591  0.322208  1
  Nd  Nd14  1  0.026486  0.098397  0.177381  1
  Nd  Nd15  1  0.473062  0.901965  0.677788  1
  Nd  Nd16  1  0.973381  0.598516  0.822769  1
  Ho  Ho17  1  0.297782  0.749920  0.003864  1
  Ho  Ho18  1  0.202332  0.249989  0.503924  1
  Ho  Ho19  1  0.701921  0.250069  0.996162  1
  Pb  Pb20  1  0.708551  0.456996  0.961950  1
  Pb  Pb21  1  0.208374  0.043597  0.536692  1
  Pb  Pb22  1  0.290762  0.956664  0.038426  1
  Pb  Pb23  1  0.791994  0.543162  0.462558  1
  Pb  Pb24  1  0.290755  0.543072  0.038150  1
  Pb  Pb25  1  0.792045  0.956654  0.462854  1
  Pb  Pb26  1  0.709038  0.043308  0.961524  1
  Pb  Pb27  1  0.208234  0.456327  0.536799  1
  Pb  Pb28  1  0.436087  0.750149  0.371443  1
  Pb  Pb29  1  0.936497  0.749876  0.127087  1
  Pb  Pb30  1  0.563780  0.250120  0.628207  1
  Pb  Pb31  1  0.063534  0.250273  0.872790  1
  Pb  Pb32  1  0.659574  0.749949  0.850007  1
  Pb  Pb33  1  0.161745  0.750098  0.651027  1
  Pb  Pb34  1  0.339623  0.249570  0.150946  1
  Pb  Pb35  1  0.839163  0.250104  0.348757  1
