# generated using pymatgen
data_Tb2Gd3ErTa2O14
_symmetry_space_group_name_H-M   'P 1'
_cell_length_a   6.51190974
_cell_length_b   6.54114461
_cell_length_c   7.52716615
_cell_angle_alpha   89.99283522
_cell_angle_beta   89.97812504
_cell_angle_gamma   108.65230658
_symmetry_Int_Tables_number   1
_chemical_formula_structural   Tb2Gd3ErTa2O14
_chemical_formula_sum   'Tb2 Gd3 Er1 Ta2 O14'
_cell_volume   303.78209846
_cell_formula_units_Z   1
loop_
 _symmetry_equiv_pos_site_id
 _symmetry_equiv_pos_as_xyz
  1  'x, y, z'
loop_
 _atom_site_type_symbol
 _atom_site_label
 _atom_site_symmetry_multiplicity
 _atom_site_fract_x
 _atom_site_fract_y
 _atom_site_fract_z
 _atom_site_occupancy
  Tb  Tb0  1  0.534837  0.999546  0.757065  1
  Tb  Tb1  1  0.000019  0.464673  0.742554  1
  Gd  Gd2  1  0.999389  0.533821  0.242994  1
  Gd  Gd3  1  0.468145  0.464865  0.999392  1
  Gd  Gd4  1  0.529113  0.531278  0.499503  1
  Er  Er5  1  0.465233  0.999220  0.257193  1
  Ta  Ta6  1  0.002211  0.001974  0.499432  1
  Ta  Ta7  1  0.997356  0.997511  0.999841  1
  O  O8  1  0.931331  0.064052  0.749782  1
  O  O9  1  0.638464  0.358778  0.749639  1
  O  O10  1  0.308296  0.046733  0.540350  1
  O  O11  1  0.944759  0.692213  0.956697  1
  O  O12  1  0.624681  0.363293  0.251908  1
  O  O13  1  0.918011  0.675098  0.527109  1
  O  O14  1  0.326658  0.077113  0.976512  1
  O  O15  1  0.082831  0.326859  0.022033  1
  O  O16  1  0.675143  0.924264  0.470331  1
  O  O17  1  0.370703  0.631139  0.750267  1
  O  O18  1  0.694335  0.955767  0.046725  1
  O  O19  1  0.058643  0.310956  0.462276  1
  O  O20  1  0.362108  0.644135  0.248466  1
  O  O21  1  0.067733  0.936713  0.249930  1
