# generated using pymatgen
data_CeEr6Tm(Si3Rh)4
_symmetry_space_group_name_H-M   'P 1'
_cell_length_a   8.14750701
_cell_length_b   8.14750773
_cell_length_c   7.84653100
_cell_angle_alpha   90.00000000
_cell_angle_beta   90.00000000
_cell_angle_gamma   119.99413729
_symmetry_Int_Tables_number   1
_chemical_formula_structural   CeEr6Tm(Si3Rh)4
_chemical_formula_sum   'Ce1 Er6 Tm1 Si12 Rh4'
_cell_volume   451.11109016
_cell_formula_units_Z   1
loop_
 _symmetry_equiv_pos_site_id
 _symmetry_equiv_pos_as_xyz
  1  'x, y, z'
loop_
 _atom_site_type_symbol
 _atom_site_label
 _atom_site_symmetry_multiplicity
 _atom_site_fract_x
 _atom_site_fract_y
 _atom_site_fract_z
 _atom_site_occupancy
  Ce  Ce0  1  0.999986  0.000014  0.250000  1
  Er  Er1  1  0.000009  0.999991  0.750000  1
  Er  Er2  1  0.491986  0.983907  0.250000  1
  Er  Er3  1  0.016093  0.508014  0.250000  1
  Er  Er4  1  0.508931  0.491069  0.750000  1
  Er  Er5  1  0.982145  0.491080  0.750000  1
  Er  Er6  1  0.508920  0.017855  0.750000  1
  Tm  Tm7  1  0.492044  0.507956  0.250000  1
  Si  Si8  1  0.833133  0.166867  0.502167  1
  Si  Si9  1  0.833065  0.666243  0.502107  1
  Si  Si10  1  0.333757  0.166935  0.502107  1
  Si  Si11  1  0.833133  0.166867  0.997833  1
  Si  Si12  1  0.833065  0.666243  0.997893  1
  Si  Si13  1  0.333757  0.166935  0.997893  1
  Si  Si14  1  0.167566  0.832434  0.000140  1
  Si  Si15  1  0.664819  0.832323  0.000267  1
  Si  Si16  1  0.167677  0.335181  0.000267  1
  Si  Si17  1  0.167566  0.832434  0.499860  1
  Si  Si18  1  0.664819  0.832323  0.499733  1
  Si  Si19  1  0.167677  0.335181  0.499733  1
  Rh  Rh20  1  0.666515  0.333485  0.468814  1
  Rh  Rh21  1  0.666515  0.333485  0.031186  1
  Rh  Rh22  1  0.333412  0.666588  0.962800  1
  Rh  Rh23  1  0.333412  0.666588  0.537200  1
