# generated using pymatgen
data_Tb2Be(Co2B)3
_symmetry_space_group_name_H-M   'P 1'
_cell_length_a   5.05264516
_cell_length_b   5.05685045
_cell_length_c   12.37265100
_cell_angle_alpha   90.00005558
_cell_angle_beta   89.99994402
_cell_angle_gamma   120.02391656
_symmetry_Int_Tables_number   1
_chemical_formula_structural   Tb2Be(Co2B)3
_chemical_formula_sum   'Tb4 Be2 Co12 B6'
_cell_volume   273.70806161
_cell_formula_units_Z   2
loop_
 _symmetry_equiv_pos_site_id
 _symmetry_equiv_pos_as_xyz
  1  'x, y, z'
loop_
 _atom_site_type_symbol
 _atom_site_label
 _atom_site_symmetry_multiplicity
 _atom_site_fract_x
 _atom_site_fract_y
 _atom_site_fract_z
 _atom_site_occupancy
  Tb  Tb0  1  0.999994  0.999999  0.999976  1
  Tb  Tb1  1  0.999997  0.999997  0.255004  1
  Tb  Tb2  1  0.999995  0.000002  0.745047  1
  Tb  Tb3  1  0.999994  0.000001  0.499996  1
  Be  Be4  1  0.333377  0.666778  0.999981  1
  Be  Be5  1  0.666612  0.333220  0.999980  1
  Co  Co6  1  0.499996  0.999998  0.380190  1
  Co  Co7  1  0.999997  0.499999  0.380196  1
  Co  Co8  1  0.499996  0.499998  0.380166  1
  Co  Co9  1  0.499995  0.000000  0.619811  1
  Co  Co10  1  0.499996  0.500001  0.619804  1
  Co  Co11  1  0.999996  0.500001  0.619773  1
  Co  Co12  1  0.499998  0.999999  0.144233  1
  Co  Co13  1  0.999996  0.499996  0.144245  1
  Co  Co14  1  0.499995  0.499997  0.144235  1
  Co  Co15  1  0.499995  0.000003  0.855758  1
  Co  Co16  1  0.499994  0.500002  0.855780  1
  Co  Co17  1  0.999994  0.500002  0.855775  1
  B  B18  1  0.333327  0.666662  0.499984  1
  B  B19  1  0.666665  0.333338  0.499984  1
  B  B20  1  0.333259  0.666648  0.258762  1
  B  B21  1  0.666736  0.333347  0.258763  1
  B  B22  1  0.666807  0.333424  0.741278  1
  B  B23  1  0.333183  0.666578  0.741278  1
