# generated using pymatgen
data_Li4Ac3PrSi8
_symmetry_space_group_name_H-M   'P 1'
_cell_length_a   3.97479800
_cell_length_b   7.93899161
_cell_length_c   10.98522029
_cell_angle_alpha   90.08374764
_cell_angle_beta   90.00000000
_cell_angle_gamma   90.00000000
_symmetry_Int_Tables_number   1
_chemical_formula_structural   Li4Ac3PrSi8
_chemical_formula_sum   'Li4 Ac3 Pr1 Si8'
_cell_volume   346.64801054
_cell_formula_units_Z   1
loop_
 _symmetry_equiv_pos_site_id
 _symmetry_equiv_pos_as_xyz
  1  'x, y, z'
loop_
 _atom_site_type_symbol
 _atom_site_label
 _atom_site_symmetry_multiplicity
 _atom_site_fract_x
 _atom_site_fract_y
 _atom_site_fract_z
 _atom_site_occupancy
  Li  Li0  1  0.250000  0.993675  0.389254  1
  Li  Li1  1  0.250000  0.501174  0.113044  1
  Li  Li2  1  0.750000  0.000565  0.606904  1
  Li  Li3  1  0.750000  0.503519  0.888513  1
  Ac  Ac4  1  0.250000  0.142504  0.868216  1
  Ac  Ac5  1  0.250000  0.637112  0.632203  1
  Ac  Ac6  1  0.750000  0.863545  0.134394  1
  Pr  Pr7  1  0.750000  0.364100  0.367443  1
  Si  Si8  1  0.250000  0.219403  0.568497  1
  Si  Si9  1  0.250000  0.719007  0.924034  1
  Si  Si10  1  0.750000  0.770026  0.423855  1
  Si  Si11  1  0.750000  0.287703  0.082565  1
  Si  Si12  1  0.250000  0.661782  0.322627  1
  Si  Si13  1  0.250000  0.176771  0.183878  1
  Si  Si14  1  0.750000  0.327246  0.670377  1
  Si  Si15  1  0.750000  0.831868  0.824197  1
