# generated using pymatgen
data_Nd5Tm13(ThSn8)2
_symmetry_space_group_name_H-M   'P 1'
_cell_length_a   8.06445613
_cell_length_b   8.20393099
_cell_length_c   15.44538131
_cell_angle_alpha   90.13000115
_cell_angle_beta   90.33081020
_cell_angle_gamma   89.80900727
_symmetry_Int_Tables_number   1
_chemical_formula_structural   Nd5Tm13(ThSn8)2
_chemical_formula_sum   'Nd5 Tm13 Th2 Sn16'
_cell_volume   1021.84486281
_cell_formula_units_Z   1
loop_
 _symmetry_equiv_pos_site_id
 _symmetry_equiv_pos_as_xyz
  1  'x, y, z'
loop_
 _atom_site_type_symbol
 _atom_site_label
 _atom_site_symmetry_multiplicity
 _atom_site_fract_x
 _atom_site_fract_y
 _atom_site_fract_z
 _atom_site_occupancy
  Nd  Nd0  1  0.019485  0.178925  0.597939  1
  Nd  Nd1  1  0.482993  0.678000  0.403493  1
  Nd  Nd2  1  0.980383  0.821827  0.096261  1
  Nd  Nd3  1  0.481399  0.677080  0.096544  1
  Nd  Nd4  1  0.983319  0.822096  0.403839  1
  Tm  Tm5  1  0.360625  0.836107  0.876136  1
  Tm  Tm6  1  0.859176  0.662887  0.624533  1
  Tm  Tm7  1  0.638856  0.163519  0.376126  1
  Tm  Tm8  1  0.135530  0.336649  0.122913  1
  Tm  Tm9  1  0.637097  0.162998  0.122749  1
  Tm  Tm10  1  0.140282  0.337450  0.376330  1
  Tm  Tm11  1  0.360660  0.838973  0.625448  1
  Tm  Tm12  1  0.863295  0.662218  0.876360  1
  Tm  Tm13  1  0.526754  0.324104  0.900871  1
  Tm  Tm14  1  0.193358  0.501654  0.751007  1
  Tm  Tm15  1  0.692422  0.998160  0.750573  1
  Tm  Tm16  1  0.805750  0.497720  0.249907  1
  Tm  Tm17  1  0.306370  0.002411  0.249635  1
  Th  Th18  1  0.515386  0.321534  0.595425  1
  Th  Th19  1  0.017725  0.177981  0.903912  1
  Sn  Sn20  1  0.299656  0.040081  0.041838  1
  Sn  Sn21  1  0.802058  0.457992  0.458615  1
  Sn  Sn22  1  0.697446  0.960928  0.543324  1
  Sn  Sn23  1  0.206600  0.532572  0.955565  1
  Sn  Sn24  1  0.696649  0.962290  0.956325  1
  Sn  Sn25  1  0.197226  0.543044  0.542566  1
  Sn  Sn26  1  0.303732  0.042239  0.459051  1
  Sn  Sn27  1  0.796894  0.456255  0.039387  1
  Sn  Sn28  1  0.557620  0.623166  0.749635  1
  Sn  Sn29  1  0.057230  0.875640  0.750887  1
  Sn  Sn30  1  0.440477  0.375178  0.249236  1
  Sn  Sn31  1  0.940908  0.125047  0.249862  1
  Sn  Sn32  1  0.330755  0.147932  0.753327  1
  Sn  Sn33  1  0.824670  0.355282  0.750255  1
  Sn  Sn34  1  0.674307  0.856202  0.250120  1
  Sn  Sn35  1  0.172905  0.643856  0.250006  1
