# generated using pymatgen
data_Zr4ScNb5Si8
_symmetry_space_group_name_H-M   'P 1'
_cell_length_a   6.92448600
_cell_length_b   6.93285571
_cell_length_c   12.81421764
_cell_angle_alpha   89.64774313
_cell_angle_beta   90.00000000
_cell_angle_gamma   90.00000000
_symmetry_Int_Tables_number   1
_chemical_formula_structural   Zr4ScNb5Si8
_chemical_formula_sum   'Zr8 Sc2 Nb10 Si16'
_cell_volume   615.15362952
_cell_formula_units_Z   2
loop_
 _symmetry_equiv_pos_site_id
 _symmetry_equiv_pos_as_xyz
  1  'x, y, z'
loop_
 _atom_site_type_symbol
 _atom_site_label
 _atom_site_symmetry_multiplicity
 _atom_site_fract_x
 _atom_site_fract_y
 _atom_site_fract_z
 _atom_site_occupancy
  Zr  Zr0  1  0.999991  0.655871  0.030940  1
  Zr  Zr1  1  0.996690  0.346310  0.536180  1
  Zr  Zr2  1  0.658499  0.001135  0.967563  1
  Zr  Zr3  1  0.158499  0.498865  0.782437  1
  Zr  Zr4  1  0.844833  0.504583  0.281935  1
  Zr  Zr5  1  0.496690  0.153690  0.213820  1
  Zr  Zr6  1  0.499991  0.844129  0.719060  1
  Zr  Zr7  1  0.344833  0.995417  0.468065  1
  Sc  Sc8  1  0.348780  0.500419  0.377671  1
  Sc  Sc9  1  0.848780  0.999581  0.372329  1
  Nb  Nb10  1  0.004031  0.149806  0.124858  1
  Nb  Nb11  1  0.993477  0.849141  0.627160  1
  Nb  Nb12  1  0.651367  0.495173  0.876105  1
  Nb  Nb13  1  0.504031  0.350194  0.625142  1
  Nb  Nb14  1  0.493477  0.650859  0.122840  1
  Nb  Nb15  1  0.151367  0.004827  0.873895  1
  Nb  Nb16  1  0.669444  0.670949  0.502162  1
  Nb  Nb17  1  0.829364  0.170170  0.750134  1
  Nb  Nb18  1  0.169444  0.829051  0.247838  1
  Nb  Nb19  1  0.329364  0.329830  0.999866  1
  Si  Si20  1  0.043950  0.700849  0.437699  1
  Si  Si21  1  0.953949  0.298103  0.936623  1
  Si  Si22  1  0.700804  0.045851  0.563821  1
  Si  Si23  1  0.200804  0.454149  0.186179  1
  Si  Si24  1  0.797244  0.545846  0.688048  1
  Si  Si25  1  0.453949  0.201897  0.813377  1
  Si  Si26  1  0.543950  0.799151  0.312301  1
  Si  Si27  1  0.297244  0.954154  0.061952  1
  Si  Si28  1  0.864061  0.792363  0.822544  1
  Si  Si29  1  0.143213  0.203392  0.318709  1
  Si  Si30  1  0.791492  0.861934  0.175299  1
  Si  Si31  1  0.291492  0.638066  0.574701  1
  Si  Si32  1  0.708811  0.365332  0.072920  1
  Si  Si33  1  0.643213  0.296608  0.431291  1
  Si  Si34  1  0.364061  0.707637  0.927456  1
  Si  Si35  1  0.208811  0.134668  0.677080  1
