# generated using pymatgen
data_LiHoNi4
_symmetry_space_group_name_H-M   'P 1'
_cell_length_a   4.87991357
_cell_length_b   4.87991287
_cell_length_c   4.87991300
_cell_angle_alpha   59.99999231
_cell_angle_beta   59.99999711
_cell_angle_gamma   60.00000110
_symmetry_Int_Tables_number   1
_chemical_formula_structural   LiHoNi4
_chemical_formula_sum   'Li1 Ho1 Ni4'
_cell_volume   82.17150631
_cell_formula_units_Z   1
loop_
 _symmetry_equiv_pos_site_id
 _symmetry_equiv_pos_as_xyz
  1  'x, y, z'
loop_
 _atom_site_type_symbol
 _atom_site_label
 _atom_site_symmetry_multiplicity
 _atom_site_fract_x
 _atom_site_fract_y
 _atom_site_fract_z
 _atom_site_occupancy
  Li  Li0  1  0.750000  0.750000  0.750000  1
  Ho  Ho1  1  0.500000  0.500000  0.500000  1
  Ni  Ni2  1  0.124362  0.124362  0.626914  1
  Ni  Ni3  1  0.124362  0.626914  0.124362  1
  Ni  Ni4  1  0.124362  0.124362  0.124362  1
  Ni  Ni5  1  0.626914  0.124362  0.124362  1
