# generated using pymatgen
data_EuP12Os3Pt
_symmetry_space_group_name_H-M   'P 1'
_cell_length_a   7.05445605
_cell_length_b   7.05445451
_cell_length_c   7.05445614
_cell_angle_alpha   109.42142447
_cell_angle_beta   109.42142805
_cell_angle_gamma   109.42141933
_symmetry_Int_Tables_number   1
_chemical_formula_structural   EuP12Os3Pt
_chemical_formula_sum   'Eu1 P12 Os3 Pt1'
_cell_volume   270.74892354
_cell_formula_units_Z   1
loop_
 _symmetry_equiv_pos_site_id
 _symmetry_equiv_pos_as_xyz
  1  'x, y, z'
loop_
 _atom_site_type_symbol
 _atom_site_label
 _atom_site_symmetry_multiplicity
 _atom_site_fract_x
 _atom_site_fract_y
 _atom_site_fract_z
 _atom_site_occupancy
  Eu  Eu0  1  0.000000  0.000000  0.000000  1
  P  P1  1  0.354166  0.211448  0.856331  1
  P  P2  1  0.645834  0.788552  0.143669  1
  P  P3  1  0.647696  0.502178  0.865312  1
  P  P4  1  0.352304  0.497822  0.134688  1
  P  P5  1  0.211448  0.856331  0.354166  1
  P  P6  1  0.788552  0.143669  0.645834  1
  P  P7  1  0.502178  0.865312  0.647696  1
  P  P8  1  0.497822  0.134688  0.352304  1
  P  P9  1  0.856331  0.354166  0.211448  1
  P  P10  1  0.143669  0.645834  0.788552  1
  P  P11  1  0.865312  0.647696  0.502178  1
  P  P12  1  0.134688  0.352304  0.497822  1
  Os  Os13  1  0.000000  0.000000  0.500000  1
  Os  Os14  1  0.500000  0.000000  0.000000  1
  Os  Os15  1  0.000000  0.500000  0.000000  1
  Pt  Pt16  1  0.500000  0.500000  0.500000  1
