# generated using pymatgen
data_Er5ZrFeTe2
_symmetry_space_group_name_H-M   'P 1'
_cell_length_a   8.15236676
_cell_length_b   8.28567876
_cell_length_c   3.89319900
_cell_angle_alpha   90.00000000
_cell_angle_beta   90.00000000
_cell_angle_gamma   120.54305571
_symmetry_Int_Tables_number   1
_chemical_formula_structural   Er5ZrFeTe2
_chemical_formula_sum   'Er5 Zr1 Fe1 Te2'
_cell_volume   226.48862182
_cell_formula_units_Z   1
loop_
 _symmetry_equiv_pos_site_id
 _symmetry_equiv_pos_as_xyz
  1  'x, y, z'
loop_
 _atom_site_type_symbol
 _atom_site_label
 _atom_site_symmetry_multiplicity
 _atom_site_fract_x
 _atom_site_fract_y
 _atom_site_fract_z
 _atom_site_occupancy
  Er  Er0  1  0.770921  0.764772  0.500000  1
  Er  Er1  1  0.999989  0.587737  0.000000  1
  Er  Er2  1  0.229089  0.993861  0.500000  1
  Er  Er3  1  0.618636  0.003340  0.000000  1
  Er  Er4  1  0.381376  0.384704  0.000000  1
  Zr  Zr5  1  0.000006  0.234111  0.500000  1
  Fe  Fe6  1  0.000001  0.038078  0.000000  1
  Te  Te7  1  0.666681  0.330037  0.500000  1
  Te  Te8  1  0.333301  0.663361  0.500000  1
