# generated using pymatgen
data_Cs8HoNp3I20
_symmetry_space_group_name_H-M   'P 1'
_cell_length_a   9.56886507
_cell_length_b   10.11468400
_cell_length_c   15.47410000
_cell_angle_alpha   90.00000000
_cell_angle_beta   90.00689786
_cell_angle_gamma   90.00000000
_symmetry_Int_Tables_number   1
_chemical_formula_structural   Cs8HoNp3I20
_chemical_formula_sum   'Cs8 Ho1 Np3 I20'
_cell_volume   1497.67694998
_cell_formula_units_Z   1
loop_
 _symmetry_equiv_pos_site_id
 _symmetry_equiv_pos_as_xyz
  1  'x, y, z'
loop_
 _atom_site_type_symbol
 _atom_site_label
 _atom_site_symmetry_multiplicity
 _atom_site_fract_x
 _atom_site_fract_y
 _atom_site_fract_z
 _atom_site_occupancy
  Cs  Cs0  1  0.942241  0.002959  0.827899  1
  Cs  Cs1  1  0.057706  0.995863  0.171924  1
  Cs  Cs2  1  0.441775  0.996560  0.670934  1
  Cs  Cs3  1  0.057706  0.504137  0.171924  1
  Cs  Cs4  1  0.558176  0.002988  0.329061  1
  Cs  Cs5  1  0.942241  0.497041  0.827899  1
  Cs  Cs6  1  0.558176  0.497012  0.329061  1
  Cs  Cs7  1  0.441775  0.503440  0.670934  1
  Ho  Ho8  1  0.930455  0.750000  0.502500  1
  Np  Np9  1  0.067103  0.250000  0.495774  1
  Np  Np10  1  0.431844  0.250000  0.998266  1
  Np  Np11  1  0.567687  0.750000  0.002613  1
  I  I12  1  0.109941  0.750000  0.666375  1
  I  I13  1  0.883612  0.250000  0.326484  1
  I  I14  1  0.615764  0.250000  0.827828  1
  I  I15  1  0.382687  0.750000  0.172800  1
  I  I16  1  0.839931  0.039925  0.569675  1
  I  I17  1  0.159635  0.951642  0.431687  1
  I  I18  1  0.340755  0.957007  0.928337  1
  I  I19  1  0.159635  0.548358  0.431687  1
  I  I20  1  0.661513  0.042859  0.071323  1
  I  I21  1  0.839931  0.460075  0.569675  1
  I  I22  1  0.661513  0.457141  0.071323  1
  I  I23  1  0.340755  0.542993  0.928337  1
  I  I24  1  0.604377  0.750000  0.513883  1
  I  I25  1  0.401957  0.250000  0.486679  1
  I  I26  1  0.096935  0.250000  0.987704  1
  I  I27  1  0.903791  0.750000  0.013324  1
  I  I28  1  0.649607  0.750000  0.804986  1
  I  I29  1  0.348087  0.250000  0.195013  1
  I  I30  1  0.150492  0.250000  0.693784  1
  I  I31  1  0.852198  0.750000  0.310306  1
