# generated using pymatgen
data_Er11(In3Sn2)2
_symmetry_space_group_name_H-M   'P 1'
_cell_length_a   11.74216060
_cell_length_b   11.74215989
_cell_length_c   11.74216000
_cell_angle_alpha   120.04041247
_cell_angle_beta   120.04041047
_cell_angle_gamma   89.93002059
_symmetry_Int_Tables_number   1
_chemical_formula_structural   Er11(In3Sn2)2
_chemical_formula_sum   'Er22 In12 Sn8'
_cell_volume   1144.09816889
_cell_formula_units_Z   2
loop_
 _symmetry_equiv_pos_site_id
 _symmetry_equiv_pos_as_xyz
  1  'x, y, z'
loop_
 _atom_site_type_symbol
 _atom_site_label
 _atom_site_symmetry_multiplicity
 _atom_site_fract_x
 _atom_site_fract_y
 _atom_site_fract_z
 _atom_site_occupancy
  Er  Er0  1  0.687561  0.937103  0.249543  1
  Er  Er1  1  0.687561  0.438017  0.750457  1
  Er  Er2  1  0.937103  0.687561  0.249543  1
  Er  Er3  1  0.438017  0.687561  0.750457  1
  Er  Er4  1  0.312439  0.062897  0.750457  1
  Er  Er5  1  0.312439  0.561983  0.249543  1
  Er  Er6  1  0.062897  0.312439  0.750457  1
  Er  Er7  1  0.561983  0.312439  0.249543  1
  Er  Er8  1  0.896650  0.229129  0.332479  1
  Er  Er9  1  0.896650  0.564170  0.667521  1
  Er  Er10  1  0.229129  0.896650  0.332479  1
  Er  Er11  1  0.564170  0.896650  0.667521  1
  Er  Er12  1  0.103350  0.770871  0.667521  1
  Er  Er13  1  0.103350  0.435830  0.332479  1
  Er  Er14  1  0.770871  0.103350  0.667521  1
  Er  Er15  1  0.435830  0.103350  0.332479  1
  Er  Er16  1  0.327454  0.327454  0.654906  1
  Er  Er17  1  0.672546  0.672546  0.345094  1
  Er  Er18  1  0.327454  0.672546  0.000000  1
  Er  Er19  1  0.672546  0.327454  0.000000  1
  Er  Er20  1  0.833243  0.833243  0.000000  1
  Er  Er21  1  0.166757  0.166757  0.000000  1
  In  In22  1  0.034191  0.034191  0.412386  1
  In  In23  1  0.621805  0.621805  0.587614  1
  In  In24  1  0.034191  0.621805  0.000000  1
  In  In25  1  0.621805  0.034191  0.000000  1
  In  In26  1  0.965809  0.965809  0.587614  1
  In  In27  1  0.378195  0.378195  0.412386  1
  In  In28  1  0.965809  0.378195  0.000000  1
  In  In29  1  0.378195  0.965809  0.000000  1
  In  In30  1  0.127943  0.127943  0.255885  1
  In  In31  1  0.872057  0.872057  0.744115  1
  In  In32  1  0.127943  0.872057  0.000000  1
  In  In33  1  0.872057  0.127943  0.000000  1
  Sn  Sn34  1  0.146349  0.500000  0.646349  1
  Sn  Sn35  1  0.853651  0.500000  0.353651  1
  Sn  Sn36  1  0.500000  0.853651  0.353651  1
  Sn  Sn37  1  0.500000  0.146349  0.646349  1
  Sn  Sn38  1  0.614629  0.614629  0.000000  1
  Sn  Sn39  1  0.385371  0.385371  0.000000  1
  Sn  Sn40  1  0.750000  0.250000  0.500000  1
  Sn  Sn41  1  0.250000  0.750000  0.500000  1
