# generated using pymatgen
data_Tm4LuCo2
_symmetry_space_group_name_H-M   'P 1'
_cell_length_a   6.22180392
_cell_length_b   6.87941027
_cell_length_c   8.37909794
_cell_angle_alpha   96.49482768
_cell_angle_beta   111.79391063
_cell_angle_gamma   90.00000119
_symmetry_Int_Tables_number   1
_chemical_formula_structural   Tm4LuCo2
_chemical_formula_sum   'Tm8 Lu2 Co4'
_cell_volume   330.53074421
_cell_formula_units_Z   2
loop_
 _symmetry_equiv_pos_site_id
 _symmetry_equiv_pos_as_xyz
  1  'x, y, z'
loop_
 _atom_site_type_symbol
 _atom_site_label
 _atom_site_symmetry_multiplicity
 _atom_site_fract_x
 _atom_site_fract_y
 _atom_site_fract_z
 _atom_site_occupancy
  Tm  Tm0  1  0.517916  0.086613  0.812574  1
  Tm  Tm1  1  0.482084  0.913387  0.187426  1
  Tm  Tm2  1  0.705342  0.413387  0.187426  1
  Tm  Tm3  1  0.294658  0.586613  0.812574  1
  Tm  Tm4  1  0.287892  0.314275  0.433080  1
  Tm  Tm5  1  0.712108  0.685725  0.566920  1
  Tm  Tm6  1  0.854812  0.185725  0.566920  1
  Tm  Tm7  1  0.145188  0.814275  0.433080  1
  Lu  Lu8  1  0.072603  0.250000  0.000000  1
  Lu  Lu9  1  0.927397  0.750000  0.000000  1
  Co  Co10  1  0.321430  0.572303  0.219623  1
  Co  Co11  1  0.678570  0.427697  0.780377  1
  Co  Co12  1  0.101808  0.927697  0.780377  1
  Co  Co13  1  0.898192  0.072303  0.219623  1
