# generated using pymatgen
data_Tb4Ho3Lu(CdPt)2
_symmetry_space_group_name_H-M   'P 1'
_cell_length_a   9.66346887
_cell_length_b   9.65147564
_cell_length_c   9.67589540
_cell_angle_alpha   59.99835242
_cell_angle_beta   59.87543321
_cell_angle_gamma   60.12619822
_symmetry_Int_Tables_number   1
_chemical_formula_structural   Tb4Ho3Lu(CdPt)2
_chemical_formula_sum   'Tb8 Ho6 Lu2 Cd4 Pt4'
_cell_volume   638.11466413
_cell_formula_units_Z   2
loop_
 _symmetry_equiv_pos_site_id
 _symmetry_equiv_pos_as_xyz
  1  'x, y, z'
loop_
 _atom_site_type_symbol
 _atom_site_label
 _atom_site_symmetry_multiplicity
 _atom_site_fract_x
 _atom_site_fract_y
 _atom_site_fract_z
 _atom_site_occupancy
  Tb  Tb0  1  0.188292  0.188292  0.811708  1
  Tb  Tb1  1  0.811708  0.811708  0.188292  1
  Tb  Tb2  1  0.936141  0.563859  0.563859  1
  Tb  Tb3  1  0.563859  0.936141  0.936141  1
  Tb  Tb4  1  0.563948  0.936052  0.563948  1
  Tb  Tb5  1  0.936052  0.563948  0.936052  1
  Tb  Tb6  1  0.563658  0.563658  0.936342  1
  Tb  Tb7  1  0.936342  0.936342  0.563658  1
  Ho  Ho8  1  0.351505  0.352366  0.351278  1
  Ho  Ho9  1  0.352366  0.351505  0.944852  1
  Ho  Ho10  1  0.351278  0.944852  0.351505  1
  Ho  Ho11  1  0.944852  0.351278  0.352366  1
  Ho  Ho12  1  0.810525  0.189475  0.189475  1
  Ho  Ho13  1  0.189475  0.810525  0.810525  1
  Lu  Lu14  1  0.189875  0.810125  0.189875  1
  Lu  Lu15  1  0.810125  0.189875  0.810125  1
  Cd  Cd16  1  0.580805  0.580703  0.582237  1
  Cd  Cd17  1  0.580703  0.580805  0.256254  1
  Cd  Cd18  1  0.582237  0.256254  0.580805  1
  Cd  Cd19  1  0.256254  0.582237  0.580703  1
  Pt  Pt20  1  0.142606  0.140972  0.145656  1
  Pt  Pt21  1  0.140972  0.142606  0.570767  1
  Pt  Pt22  1  0.145656  0.570767  0.142606  1
  Pt  Pt23  1  0.570767  0.145656  0.140972  1
