# generated using pymatgen
data_Ho18Er2Ir11Os
_symmetry_space_group_name_H-M   'P 1'
_cell_length_a   10.82264700
_cell_length_b   10.82245400
_cell_length_c   6.37400900
_cell_angle_alpha   90.00000000
_cell_angle_beta   90.00000000
_cell_angle_gamma   90.00027529
_symmetry_Int_Tables_number   1
_chemical_formula_structural   Ho18Er2Ir11Os
_chemical_formula_sum   'Ho18 Er2 Ir11 Os1'
_cell_volume   746.57237218
_cell_formula_units_Z   1
loop_
 _symmetry_equiv_pos_site_id
 _symmetry_equiv_pos_as_xyz
  1  'x, y, z'
loop_
 _atom_site_type_symbol
 _atom_site_label
 _atom_site_symmetry_multiplicity
 _atom_site_fract_x
 _atom_site_fract_y
 _atom_site_fract_z
 _atom_site_occupancy
  Ho  Ho0  1  0.292353  0.087051  0.375972  1
  Ho  Ho1  1  0.292723  0.912994  0.879272  1
  Ho  Ho2  1  0.707277  0.087006  0.879272  1
  Ho  Ho3  1  0.707647  0.912949  0.375972  1
  Ho  Ho4  1  0.587048  0.792863  0.879280  1
  Ho  Ho5  1  0.587098  0.207506  0.375966  1
  Ho  Ho6  1  0.412902  0.792494  0.375966  1
  Ho  Ho7  1  0.412952  0.207137  0.879280  1
  Ho  Ho8  1  0.208994  0.412017  0.622094  1
  Ho  Ho9  1  0.208942  0.587837  0.121879  1
  Ho  Ho10  1  0.791058  0.412163  0.121879  1
  Ho  Ho11  1  0.791006  0.587983  0.622094  1
  Ho  Ho12  1  0.912208  0.709077  0.121877  1
  Ho  Ho13  1  0.912063  0.290873  0.622093  1
  Ho  Ho14  1  0.087937  0.709127  0.622093  1
  Ho  Ho15  1  0.087792  0.290923  0.121877  1
  Ho  Ho16  1  0.500000  0.500000  0.999592  1
  Ho  Ho17  1  0.500000  0.500000  0.499620  1
  Er  Er18  1  0.000000  0.000000  0.499628  1
  Er  Er19  1  0.000000  0.000000  0.999569  1
  Ir  Ir20  1  0.847636  0.153580  0.250343  1
  Ir  Ir21  1  0.847692  0.846658  0.749955  1
  Ir  Ir22  1  0.152308  0.153342  0.749955  1
  Ir  Ir23  1  0.152364  0.846420  0.250343  1
  Ir  Ir24  1  0.653610  0.347421  0.749960  1
  Ir  Ir25  1  0.653846  0.652644  0.250361  1
  Ir  Ir26  1  0.346154  0.347356  0.250361  1
  Ir  Ir27  1  0.346390  0.652579  0.749960  1
  Ir  Ir28  1  0.500000  0.000000  0.622000  1
  Ir  Ir29  1  0.000000  0.500000  0.878963  1
  Ir  Ir30  1  0.000000  0.500000  0.379169  1
  Os  Os31  1  0.500000  0.000000  0.123352  1
