# generated using pymatgen
data_La2CeLu(Ga3Rh)6
_symmetry_space_group_name_H-M   'P 1'
_cell_length_a   7.65294643
_cell_length_b   7.64903066
_cell_length_c   9.59654800
_cell_angle_alpha   90.00000000
_cell_angle_beta   90.00000000
_cell_angle_gamma   119.54397005
_symmetry_Int_Tables_number   1
_chemical_formula_structural   La2CeLu(Ga3Rh)6
_chemical_formula_sum   'La2 Ce1 Lu1 Ga18 Rh6'
_cell_volume   488.71780054
_cell_formula_units_Z   1
loop_
 _symmetry_equiv_pos_site_id
 _symmetry_equiv_pos_as_xyz
  1  'x, y, z'
loop_
 _atom_site_type_symbol
 _atom_site_label
 _atom_site_symmetry_multiplicity
 _atom_site_fract_x
 _atom_site_fract_y
 _atom_site_fract_z
 _atom_site_occupancy
  La  La0  1  0.003201  0.331308  0.750000  1
  La  La1  1  0.329193  0.001948  0.750000  1
  Ce  Ce2  1  0.000215  0.670210  0.250000  1
  Lu  Lu3  1  0.673336  0.999514  0.250000  1
  Ga  Ga4  1  0.340745  0.549167  0.250000  1
  Ga  Ga5  1  0.659397  0.455678  0.750000  1
  Ga  Ga6  1  0.548580  0.339963  0.250000  1
  Ga  Ga7  1  0.456867  0.661181  0.750000  1
  Ga  Ga8  1  0.998369  0.331412  0.084105  1
  Ga  Ga9  1  0.993355  0.664596  0.925701  1
  Ga  Ga10  1  0.993355  0.664596  0.574299  1
  Ga  Ga11  1  0.340136  0.002372  0.415733  1
  Ga  Ga12  1  0.998369  0.331412  0.415895  1
  Ga  Ga13  1  0.664956  0.995588  0.571158  1
  Ga  Ga14  1  0.664956  0.995588  0.928842  1
  Ga  Ga15  1  0.340136  0.002372  0.084267  1
  Ga  Ga16  1  0.335846  0.335917  0.552279  1
  Ga  Ga17  1  0.666196  0.669550  0.432254  1
  Ga  Ga18  1  0.666196  0.669550  0.067746  1
  Ga  Ga19  1  0.335846  0.335917  0.947721  1
  Ga  Ga20  1  0.127930  0.126676  0.250000  1
  Ga  Ga21  1  0.867595  0.869675  0.750000  1
  Rh  Rh22  1  0.671366  0.329138  0.003299  1
  Rh  Rh23  1  0.327713  0.670613  0.003488  1
  Rh  Rh24  1  0.327713  0.670613  0.496512  1
  Rh  Rh25  1  0.671366  0.329138  0.496701  1
  Rh  Rh26  1  0.998533  0.998152  0.003933  1
  Rh  Rh27  1  0.998533  0.998152  0.496067  1
