# generated using pymatgen
data_Tb5GaCo5
_symmetry_space_group_name_H-M   'P 1'
_cell_length_a   5.49796672
_cell_length_b   5.49796715
_cell_length_c   20.57372600
_cell_angle_alpha   90.00000000
_cell_angle_beta   90.00000000
_cell_angle_gamma   137.09402406
_symmetry_Int_Tables_number   1
_chemical_formula_structural   Tb5GaCo5
_chemical_formula_sum   'Tb10 Ga2 Co10'
_cell_volume   423.38454798
_cell_formula_units_Z   2
loop_
 _symmetry_equiv_pos_site_id
 _symmetry_equiv_pos_as_xyz
  1  'x, y, z'
loop_
 _atom_site_type_symbol
 _atom_site_label
 _atom_site_symmetry_multiplicity
 _atom_site_fract_x
 _atom_site_fract_y
 _atom_site_fract_z
 _atom_site_occupancy
  Tb  Tb0  1  0.287915  0.712085  0.250000  1
  Tb  Tb1  1  0.290952  0.709048  0.065731  1
  Tb  Tb2  1  0.998148  0.001852  0.843242  1
  Tb  Tb3  1  0.712085  0.287915  0.750000  1
  Tb  Tb4  1  0.709048  0.290952  0.565731  1
  Tb  Tb5  1  0.001852  0.998148  0.343242  1
  Tb  Tb6  1  0.998148  0.001852  0.656758  1
  Tb  Tb7  1  0.709048  0.290952  0.934269  1
  Tb  Tb8  1  0.001852  0.998148  0.156758  1
  Tb  Tb9  1  0.290952  0.709048  0.434269  1
  Ga  Ga10  1  0.000000  0.000000  0.500000  1
  Ga  Ga11  1  0.000000  0.000000  0.000000  1
  Co  Co12  1  0.295310  0.704690  0.654003  1
  Co  Co13  1  0.581032  0.418968  0.441603  1
  Co  Co14  1  0.413647  0.586353  0.750000  1
  Co  Co15  1  0.418968  0.581032  0.941603  1
  Co  Co16  1  0.586353  0.413647  0.250000  1
  Co  Co17  1  0.418968  0.581032  0.558397  1
  Co  Co18  1  0.704690  0.295310  0.345997  1
  Co  Co19  1  0.704690  0.295310  0.154003  1
  Co  Co20  1  0.581032  0.418968  0.058397  1
  Co  Co21  1  0.295310  0.704690  0.845997  1
