# generated using pymatgen
data_Lu12Mn2Tl3
_symmetry_space_group_name_H-M   'P 1'
_cell_length_a   8.30633627
_cell_length_b   8.30633631
_cell_length_c   8.30633616
_cell_angle_alpha   109.93819017
_cell_angle_beta   109.93818436
_cell_angle_gamma   108.54126994
_symmetry_Int_Tables_number   1
_chemical_formula_structural   Lu12Mn2Tl3
_chemical_formula_sum   'Lu12 Mn2 Tl3'
_cell_volume   441.08368006
_cell_formula_units_Z   1
loop_
 _symmetry_equiv_pos_site_id
 _symmetry_equiv_pos_as_xyz
  1  'x, y, z'
loop_
 _atom_site_type_symbol
 _atom_site_label
 _atom_site_symmetry_multiplicity
 _atom_site_fract_x
 _atom_site_fract_y
 _atom_site_fract_z
 _atom_site_occupancy
  Lu  Lu0  1  0.305989  0.305989  0.611978  1
  Lu  Lu1  1  0.694011  0.694011  0.388022  1
  Lu  Lu2  1  0.305989  0.694011  0.000000  1
  Lu  Lu3  1  0.694011  0.305989  0.000000  1
  Lu  Lu4  1  0.457074  0.210694  0.246380  1
  Lu  Lu5  1  0.542926  0.789306  0.753620  1
  Lu  Lu6  1  0.964314  0.210694  0.753620  1
  Lu  Lu7  1  0.210694  0.964314  0.753620  1
  Lu  Lu8  1  0.035686  0.789306  0.246380  1
  Lu  Lu9  1  0.789306  0.035686  0.246380  1
  Lu  Lu10  1  0.210694  0.457074  0.246380  1
  Lu  Lu11  1  0.789306  0.542926  0.753620  1
  Mn  Mn12  1  0.390831  0.390831  0.000000  1
  Mn  Mn13  1  0.609169  0.609169  0.000000  1
  Tl  Tl14  1  0.000000  0.000000  0.000000  1
  Tl  Tl15  1  0.500000  0.000000  0.500000  1
  Tl  Tl16  1  0.000000  0.500000  0.500000  1
