# generated using pymatgen
data_Ca2VH9
_symmetry_space_group_name_H-M   'P 1'
_cell_length_a   8.44804400
_cell_length_b   8.44804425
_cell_length_c   4.88681200
_cell_angle_alpha   90.00000000
_cell_angle_beta   90.00000000
_cell_angle_gamma   119.99999904
_symmetry_Int_Tables_number   1
_chemical_formula_structural   Ca2VH9
_chemical_formula_sum   'Ca6 V3 H27'
_cell_volume   302.04288822
_cell_formula_units_Z   3
loop_
 _symmetry_equiv_pos_site_id
 _symmetry_equiv_pos_as_xyz
  1  'x, y, z'
loop_
 _atom_site_type_symbol
 _atom_site_label
 _atom_site_symmetry_multiplicity
 _atom_site_fract_x
 _atom_site_fract_y
 _atom_site_fract_z
 _atom_site_occupancy
  Ca  Ca0  1  0.267501  0.000000  0.500000  1
  Ca  Ca1  1  0.000000  0.267501  0.500000  1
  Ca  Ca2  1  0.732499  0.732499  0.500000  1
  Ca  Ca3  1  0.602776  0.000000  0.000000  1
  Ca  Ca4  1  0.000000  0.602776  0.000000  1
  Ca  Ca5  1  0.397224  0.397224  0.000000  1
  V  V6  1  0.000000  0.000000  0.000000  1
  V  V7  1  0.333333  0.666667  0.500000  1
  V  V8  1  0.666667  0.333333  0.500000  1
  H  H9  1  0.854440  0.000000  0.244237  1
  H  H10  1  0.000000  0.854440  0.244237  1
  H  H11  1  0.854440  0.000000  0.755763  1
  H  H12  1  0.000000  0.854440  0.755763  1
  H  H13  1  0.145560  0.145560  0.244237  1
  H  H14  1  0.145560  0.145560  0.755763  1
  H  H15  1  0.201211  0.000000  0.000000  1
  H  H16  1  0.000000  0.201211  0.000000  1
  H  H17  1  0.798789  0.798789  0.000000  1
  H  H18  1  0.192236  0.523564  0.243791  1
  H  H19  1  0.476436  0.668671  0.243791  1
  H  H20  1  0.192236  0.523564  0.756209  1
  H  H21  1  0.523564  0.192236  0.756209  1
  H  H22  1  0.331329  0.807764  0.243791  1
  H  H23  1  0.476436  0.668671  0.756209  1
  H  H24  1  0.668671  0.476436  0.756209  1
  H  H25  1  0.523564  0.192236  0.243791  1
  H  H26  1  0.331329  0.807764  0.756209  1
  H  H27  1  0.668671  0.476436  0.243791  1
  H  H28  1  0.807764  0.331329  0.756209  1
  H  H29  1  0.807764  0.331329  0.243791  1
  H  H30  1  0.327344  0.464457  0.500000  1
  H  H31  1  0.535543  0.862888  0.500000  1
  H  H32  1  0.464457  0.327344  0.500000  1
  H  H33  1  0.137112  0.672656  0.500000  1
  H  H34  1  0.862888  0.535543  0.500000  1
  H  H35  1  0.672656  0.137112  0.500000  1
