# generated using pymatgen
data_TaBe8GaRu2
_symmetry_space_group_name_H-M   'P 1'
_cell_length_a   4.38499200
_cell_length_b   4.38499210
_cell_length_c   7.18503500
_cell_angle_alpha   90.00000000
_cell_angle_beta   90.00000000
_cell_angle_gamma   120.00001437
_symmetry_Int_Tables_number   1
_chemical_formula_structural   TaBe8GaRu2
_chemical_formula_sum   'Ta1 Be8 Ga1 Ru2'
_cell_volume   119.64569507
_cell_formula_units_Z   1
loop_
 _symmetry_equiv_pos_site_id
 _symmetry_equiv_pos_as_xyz
  1  'x, y, z'
loop_
 _atom_site_type_symbol
 _atom_site_label
 _atom_site_symmetry_multiplicity
 _atom_site_fract_x
 _atom_site_fract_y
 _atom_site_fract_z
 _atom_site_occupancy
  Ta  Ta0  1  0.666667  0.333333  0.937351  1
  Be  Be1  1  0.000000  0.000000  0.007684  1
  Be  Be2  1  0.000000  0.000000  0.499006  1
  Be  Be3  1  0.831161  0.662321  0.255957  1
  Be  Be4  1  0.165805  0.834195  0.743157  1
  Be  Be5  1  0.668390  0.834195  0.743157  1
  Be  Be6  1  0.337679  0.168839  0.255957  1
  Be  Be7  1  0.831161  0.168839  0.255957  1
  Be  Be8  1  0.165805  0.331610  0.743157  1
  Ga  Ga9  1  0.333333  0.666667  0.436065  1
  Ru  Ru10  1  0.333333  0.666667  0.057698  1
  Ru  Ru11  1  0.666667  0.333333  0.564852  1
