# generated using pymatgen
data_Li12Dy9Y3(WO6)8
_symmetry_space_group_name_H-M   'P 1'
_cell_length_a   10.69062808
_cell_length_b   10.69176585
_cell_length_c   10.69169801
_cell_angle_alpha   109.47352850
_cell_angle_beta   109.46921880
_cell_angle_gamma   109.46901096
_symmetry_Int_Tables_number   1
_chemical_formula_structural   Li12Dy9Y3(WO6)8
_chemical_formula_sum   'Li12 Dy9 Y3 W8 O48'
_cell_volume   940.77908688
_cell_formula_units_Z   1
loop_
 _symmetry_equiv_pos_site_id
 _symmetry_equiv_pos_as_xyz
  1  'x, y, z'
loop_
 _atom_site_type_symbol
 _atom_site_label
 _atom_site_symmetry_multiplicity
 _atom_site_fract_x
 _atom_site_fract_y
 _atom_site_fract_z
 _atom_site_occupancy
  Li  Li0  1  0.750009  0.375058  0.125050  1
  Li  Li1  1  0.875041  0.749991  0.125050  1
  Li  Li2  1  0.125053  0.375062  0.250059  1
  Li  Li3  1  0.625006  0.874997  0.250059  1
  Li  Li4  1  0.250008  0.125009  0.375016  1
  Li  Li5  1  0.625008  0.250007  0.375016  1
  Li  Li6  1  0.374952  0.749943  0.624891  1
  Li  Li7  1  0.749939  0.874948  0.624891  1
  Li  Li8  1  0.374996  0.125055  0.749994  1
  Li  Li9  1  0.874998  0.624939  0.749994  1
  Li  Li10  1  0.249939  0.624933  0.874991  1
  Li  Li11  1  0.125052  0.250058  0.874991  1
  Dy  Dy12  1  0.375054  0.250079  0.125070  1
  Dy  Dy13  1  0.250016  0.874992  0.125070  1
  Dy  Dy14  1  0.875053  0.125053  0.250105  1
  Dy  Dy15  1  0.375010  0.625010  0.250021  1
  Dy  Dy16  1  0.749974  0.624982  0.374944  1
  Dy  Dy17  1  0.124970  0.749962  0.374944  1
  Dy  Dy18  1  0.875007  0.250039  0.624982  1
  Dy  Dy19  1  0.249975  0.374944  0.624982  1
  Dy  Dy20  1  0.624973  0.374973  0.749945  1
  Y  Y21  1  0.124971  0.874971  0.749942  1
  Y  Y22  1  0.624974  0.749918  0.874991  1
  Y  Y23  1  0.750017  0.125074  0.874991  1
  W  W24  1  0.000232  0.000134  0.000268  1
  W  W25  1  0.500037  0.000135  0.000268  1
  W  W26  1  0.000103  0.500172  0.000029  1
  W  W27  1  0.499925  0.499857  0.000029  1
  W  W28  1  0.999924  0.000038  0.499864  1
  W  W29  1  0.499894  0.999962  0.499832  1
  W  W30  1  0.999940  0.499826  0.499864  1
  W  W31  1  0.499938  0.499870  0.499832  1
  O  O32  1  0.201463  0.618896  0.027901  1
  O  O33  1  0.326439  0.409006  0.027901  1
  O  O34  1  0.701453  0.173728  0.083055  1
  O  O35  1  0.881601  0.909327  0.083055  1
  O  O36  1  0.618899  0.917753  0.091415  1
  O  O37  1  0.972516  0.173662  0.091415  1
  O  O38  1  0.027912  0.701477  0.118871  1
  O  O39  1  0.590959  0.417395  0.118871  1
  O  O40  1  0.201575  0.082629  0.173644  1
  O  O41  1  0.472069  0.091015  0.173644  1
  O  O42  1  0.118836  0.527858  0.201404  1
  O  O43  1  0.582568  0.673546  0.201404  1
  O  O44  1  0.326425  0.417383  0.298517  1
  O  O45  1  0.472091  0.881134  0.298517  1
  O  O46  1  0.917411  0.798563  0.326428  1
  O  O47  1  0.909016  0.527865  0.326428  1
  O  O48  1  0.582545  0.408968  0.381078  1
  O  O49  1  0.298534  0.972110  0.381078  1
  O  O50  1  0.826437  0.027890  0.408989  1
  O  O51  1  0.082552  0.381099  0.408989  1
  O  O52  1  0.090974  0.118871  0.417399  1
  O  O53  1  0.826425  0.298528  0.417399  1
  O  O54  1  0.590942  0.673522  0.472127  1
  O  O55  1  0.381186  0.798606  0.472127  1
  O  O56  1  0.618848  0.201432  0.527850  1
  O  O57  1  0.409002  0.326418  0.527850  1
  O  O58  1  0.173584  0.701061  0.582241  1
  O  O59  1  0.908657  0.881179  0.582241  1
  O  O60  1  0.917014  0.618371  0.590674  1
  O  O61  1  0.173660  0.972302  0.590674  1
  O  O62  1  0.701345  0.027699  0.618351  1
  O  O63  1  0.417006  0.590652  0.618351  1
  O  O64  1  0.082575  0.201389  0.673531  1
  O  O65  1  0.090958  0.472143  0.673532  1
  O  O66  1  0.527466  0.118826  0.701052  1
  O  O67  1  0.673585  0.582226  0.701052  1
  O  O68  1  0.881172  0.472134  0.798578  1
  O  O69  1  0.417405  0.326442  0.798578  1
  O  O70  1  0.527288  0.908950  0.826292  1
  O  O71  1  0.799004  0.917341  0.826292  1
  O  O72  1  0.972537  0.298943  0.881180  1
  O  O73  1  0.408642  0.582236  0.881180  1
  O  O74  1  0.381614  0.083040  0.909349  1
  O  O75  1  0.027735  0.826309  0.909349  1
  O  O76  1  0.298883  0.826376  0.917769  1
  O  O77  1  0.118886  0.091393  0.917769  1
  O  O78  1  0.798651  0.381623  0.972313  1
  O  O79  1  0.673663  0.590692  0.972314  1
