# generated using pymatgen
data_Li4Nd2YErSi8
_symmetry_space_group_name_H-M   'P 1'
_cell_length_a   3.83593000
_cell_length_b   7.66086095
_cell_length_c   10.30893413
_cell_angle_alpha   90.38425662
_cell_angle_beta   90.00000000
_cell_angle_gamma   90.00000000
_symmetry_Int_Tables_number   1
_chemical_formula_structural   Li4Nd2YErSi8
_chemical_formula_sum   'Li4 Nd2 Y1 Er1 Si8'
_cell_volume   302.93695155
_cell_formula_units_Z   1
loop_
 _symmetry_equiv_pos_site_id
 _symmetry_equiv_pos_as_xyz
  1  'x, y, z'
loop_
 _atom_site_type_symbol
 _atom_site_label
 _atom_site_symmetry_multiplicity
 _atom_site_fract_x
 _atom_site_fract_y
 _atom_site_fract_z
 _atom_site_occupancy
  Li  Li0  1  0.250000  0.989746  0.392861  1
  Li  Li1  1  0.750000  0.010341  0.606773  1
  Li  Li2  1  0.250000  0.491170  0.109606  1
  Li  Li3  1  0.750000  0.508186  0.890788  1
  Nd  Nd4  1  0.250000  0.142448  0.863271  1
  Nd  Nd5  1  0.750000  0.857579  0.136764  1
  Y  Y6  1  0.250000  0.637128  0.635212  1
  Er  Er7  1  0.750000  0.364210  0.364788  1
  Si  Si8  1  0.750000  0.274330  0.075406  1
  Si  Si9  1  0.250000  0.725838  0.925946  1
  Si  Si10  1  0.750000  0.764098  0.434175  1
  Si  Si11  1  0.250000  0.236285  0.563714  1
  Si  Si12  1  0.750000  0.836622  0.817478  1
  Si  Si13  1  0.250000  0.163893  0.183990  1
  Si  Si14  1  0.750000  0.346070  0.673826  1
  Si  Si15  1  0.250000  0.652054  0.325401  1
