# generated using pymatgen
data_CeNd3(ZnRh)4
_symmetry_space_group_name_H-M   'P 1'
_cell_length_a   4.02249600
_cell_length_b   7.28462900
_cell_length_c   16.50993800
_cell_angle_alpha   90.00000000
_cell_angle_beta   90.00000000
_cell_angle_gamma   90.00000000
_symmetry_Int_Tables_number   1
_chemical_formula_structural   CeNd3(ZnRh)4
_chemical_formula_sum   'Ce2 Nd6 Zn8 Rh8'
_cell_volume   483.78065889
_cell_formula_units_Z   2
loop_
 _symmetry_equiv_pos_site_id
 _symmetry_equiv_pos_as_xyz
  1  'x, y, z'
loop_
 _atom_site_type_symbol
 _atom_site_label
 _atom_site_symmetry_multiplicity
 _atom_site_fract_x
 _atom_site_fract_y
 _atom_site_fract_z
 _atom_site_occupancy
  Ce  Ce0  1  0.750000  0.446707  0.216309  1
  Ce  Ce1  1  0.750000  0.946707  0.283691  1
  Nd  Nd2  1  0.750000  0.829373  0.060844  1
  Nd  Nd3  1  0.250000  0.046912  0.715607  1
  Nd  Nd4  1  0.250000  0.170596  0.941130  1
  Nd  Nd5  1  0.250000  0.546912  0.784393  1
  Nd  Nd6  1  0.750000  0.329373  0.439156  1
  Nd  Nd7  1  0.250000  0.670596  0.558870  1
  Zn  Zn8  1  0.250000  0.003534  0.439198  1
  Zn  Zn9  1  0.750000  0.502664  0.939873  1
  Zn  Zn10  1  0.750000  0.002664  0.560127  1
  Zn  Zn11  1  0.250000  0.616870  0.349472  1
  Zn  Zn12  1  0.750000  0.378886  0.650709  1
  Zn  Zn13  1  0.750000  0.878886  0.849291  1
  Zn  Zn14  1  0.250000  0.503534  0.060802  1
  Zn  Zn15  1  0.250000  0.116870  0.150528  1
  Rh  Rh16  1  0.250000  0.248878  0.564586  1
  Rh  Rh17  1  0.750000  0.268236  0.072536  1
  Rh  Rh18  1  0.250000  0.234943  0.305924  1
  Rh  Rh19  1  0.750000  0.252401  0.815688  1
  Rh  Rh20  1  0.250000  0.748878  0.935414  1
  Rh  Rh21  1  0.750000  0.752401  0.684312  1
  Rh  Rh22  1  0.750000  0.768236  0.427464  1
  Rh  Rh23  1  0.250000  0.734943  0.194076  1
