# generated using pymatgen
data_Ho8Ti8Si16Tc3Mo
_symmetry_space_group_name_H-M   'P 1'
_cell_length_a   6.94251063
_cell_length_b   6.94251078
_cell_length_c   12.77224126
_cell_angle_alpha   90.05713214
_cell_angle_beta   89.94286578
_cell_angle_gamma   90.08489702
_symmetry_Int_Tables_number   1
_chemical_formula_structural   Ho8Ti8Si16Tc3Mo
_chemical_formula_sum   'Ho8 Ti8 Si16 Tc3 Mo1'
_cell_volume   615.60100696
_cell_formula_units_Z   1
loop_
 _symmetry_equiv_pos_site_id
 _symmetry_equiv_pos_as_xyz
  1  'x, y, z'
loop_
 _atom_site_type_symbol
 _atom_site_label
 _atom_site_symmetry_multiplicity
 _atom_site_fract_x
 _atom_site_fract_y
 _atom_site_fract_z
 _atom_site_occupancy
  Ho  Ho0  1  0.340782  0.000941  0.468136  1
  Ho  Ho1  1  0.498782  0.841166  0.719323  1
  Ho  Ho2  1  0.500315  0.158770  0.218411  1
  Ho  Ho3  1  0.841166  0.498782  0.280677  1
  Ho  Ho4  1  0.158770  0.500315  0.781589  1
  Ho  Ho5  1  0.659234  0.999450  0.968831  1
  Ho  Ho6  1  0.000941  0.340782  0.531864  1
  Ho  Ho7  1  0.999450  0.659234  0.031169  1
  Ti  Ti8  1  0.151972  0.005485  0.876824  1
  Ti  Ti9  1  0.494363  0.652852  0.124987  1
  Ti  Ti10  1  0.505087  0.349232  0.626655  1
  Ti  Ti11  1  0.652852  0.494363  0.875013  1
  Ti  Ti12  1  0.349232  0.505087  0.373345  1
  Ti  Ti13  1  0.847092  0.992445  0.376417  1
  Ti  Ti14  1  0.005485  0.151972  0.123176  1
  Ti  Ti15  1  0.992445  0.847092  0.623583  1
  Si  Si16  1  0.200250  0.129358  0.683994  1
  Si  Si17  1  0.370017  0.700930  0.933003  1
  Si  Si18  1  0.631263  0.297870  0.433987  1
  Si  Si19  1  0.700930  0.370017  0.066997  1
  Si  Si20  1  0.297870  0.631263  0.566013  1
  Si  Si21  1  0.799203  0.870269  0.183253  1
  Si  Si22  1  0.129358  0.200250  0.316006  1
  Si  Si23  1  0.870269  0.799203  0.816747  1
  Si  Si24  1  0.291072  0.951927  0.066519  1
  Si  Si25  1  0.547270  0.790946  0.315350  1
  Si  Si26  1  0.451931  0.209758  0.816788  1
  Si  Si27  1  0.790946  0.547270  0.684650  1
  Si  Si28  1  0.209758  0.451931  0.183212  1
  Si  Si29  1  0.707740  0.049097  0.567249  1
  Si  Si30  1  0.951927  0.291072  0.933481  1
  Si  Si31  1  0.049097  0.707740  0.432751  1
  Tc  Tc32  1  0.327875  0.327875  0.000000  1
  Tc  Tc33  1  0.173396  0.828375  0.248973  1
  Tc  Tc34  1  0.828375  0.173396  0.751027  1
  Mo  Mo35  1  0.673486  0.673486  0.500000  1
