# generated using pymatgen
data_La3Ho2(InSb)2
_symmetry_space_group_name_H-M   'P 1'
_cell_length_a   9.34823779
_cell_length_b   8.73341638
_cell_length_c   8.42077122
_cell_angle_alpha   90.32756457
_cell_angle_beta   90.50293010
_cell_angle_gamma   124.84095279
_symmetry_Int_Tables_number   1
_chemical_formula_structural   La3Ho2(InSb)2
_chemical_formula_sum   'La6 Ho4 In4 Sb4'
_cell_volume   564.18052521
_cell_formula_units_Z   2
loop_
 _symmetry_equiv_pos_site_id
 _symmetry_equiv_pos_as_xyz
  1  'x, y, z'
loop_
 _atom_site_type_symbol
 _atom_site_label
 _atom_site_symmetry_multiplicity
 _atom_site_fract_x
 _atom_site_fract_y
 _atom_site_fract_z
 _atom_site_occupancy
  La  La0  1  0.049694  0.342553  0.324343  1
  La  La1  1  0.950306  0.657447  0.675657  1
  La  La2  1  0.448997  0.150826  0.815871  1
  La  La3  1  0.789249  0.514279  0.162263  1
  La  La4  1  0.551003  0.849174  0.184129  1
  La  La5  1  0.210751  0.485721  0.837737  1
  Ho  Ho6  1  0.720398  0.978436  0.658068  1
  Ho  Ho7  1  0.279602  0.021564  0.341932  1
  Ho  Ho8  1  0.000000  0.000000  0.000000  1
  Ho  Ho9  1  0.500000  0.500000  0.500000  1
  In  In10  1  0.371474  0.374402  0.130737  1
  In  In11  1  0.628526  0.625598  0.869263  1
  In  In12  1  0.126823  0.124924  0.626603  1
  In  In13  1  0.873177  0.875076  0.373397  1
  Sb  Sb14  1  0.813495  0.210423  0.968401  1
  Sb  Sb15  1  0.186505  0.789577  0.031599  1
  Sb  Sb16  1  0.674794  0.264510  0.475900  1
  Sb  Sb17  1  0.325206  0.735490  0.524100  1
