# generated using pymatgen
data_Cs6DySe4Br
_symmetry_space_group_name_H-M   'P 1'
_cell_length_a   11.75238400
_cell_length_b   11.75238491
_cell_length_c   8.76253000
_cell_angle_alpha   90.00000000
_cell_angle_beta   90.00000000
_cell_angle_gamma   120.00000869
_symmetry_Int_Tables_number   1
_chemical_formula_structural   Cs6DySe4Br
_chemical_formula_sum   'Cs12 Dy2 Se8 Br2'
_cell_volume   1048.12261526
_cell_formula_units_Z   2
loop_
 _symmetry_equiv_pos_site_id
 _symmetry_equiv_pos_as_xyz
  1  'x, y, z'
loop_
 _atom_site_type_symbol
 _atom_site_label
 _atom_site_symmetry_multiplicity
 _atom_site_fract_x
 _atom_site_fract_y
 _atom_site_fract_z
 _atom_site_occupancy
  Cs  Cs0  1  0.135090  0.864910  0.511884  1
  Cs  Cs1  1  0.729820  0.864910  0.511884  1
  Cs  Cs2  1  0.938817  0.469408  0.318618  1
  Cs  Cs3  1  0.530592  0.469408  0.318618  1
  Cs  Cs4  1  0.864910  0.729820  0.011884  1
  Cs  Cs5  1  0.270180  0.135090  0.011884  1
  Cs  Cs6  1  0.530592  0.061183  0.318618  1
  Cs  Cs7  1  0.135090  0.270180  0.511884  1
  Cs  Cs8  1  0.864910  0.135090  0.011884  1
  Cs  Cs9  1  0.061183  0.530592  0.818618  1
  Cs  Cs10  1  0.469408  0.938817  0.818618  1
  Cs  Cs11  1  0.469408  0.530592  0.818618  1
  Dy  Dy12  1  0.666667  0.333333  0.716896  1
  Dy  Dy13  1  0.333333  0.666667  0.216896  1
  Se  Se14  1  0.414198  0.207100  0.609890  1
  Se  Se15  1  0.585802  0.792900  0.109890  1
  Se  Se16  1  0.666667  0.333333  0.031602  1
  Se  Se17  1  0.792900  0.585802  0.609890  1
  Se  Se18  1  0.207100  0.414198  0.109890  1
  Se  Se19  1  0.333333  0.666667  0.531602  1
  Se  Se20  1  0.207100  0.792900  0.109890  1
  Se  Se21  1  0.792900  0.207100  0.609890  1
  Br  Br22  1  0.000000  0.000000  0.270926  1
  Br  Br23  1  0.000000  0.000000  0.770926  1
