# generated using pymatgen
data_Tb4LuIrPt2
_symmetry_space_group_name_H-M   'P 1'
_cell_length_a   11.05560400
_cell_length_b   11.05560400
_cell_length_c   6.35144500
_cell_angle_alpha   90.00000000
_cell_angle_beta   90.00000000
_cell_angle_gamma   90.00000000
_symmetry_Int_Tables_number   1
_chemical_formula_structural   Tb4LuIrPt2
_chemical_formula_sum   'Tb16 Lu4 Ir4 Pt8'
_cell_volume   776.31412888
_cell_formula_units_Z   4
loop_
 _symmetry_equiv_pos_site_id
 _symmetry_equiv_pos_as_xyz
  1  'x, y, z'
loop_
 _atom_site_type_symbol
 _atom_site_label
 _atom_site_symmetry_multiplicity
 _atom_site_fract_x
 _atom_site_fract_y
 _atom_site_fract_z
 _atom_site_occupancy
  Tb  Tb0  1  0.292798  0.086324  0.376668  1
  Tb  Tb1  1  0.292798  0.913676  0.876668  1
  Tb  Tb2  1  0.707202  0.086324  0.876668  1
  Tb  Tb3  1  0.707202  0.913676  0.376668  1
  Tb  Tb4  1  0.586324  0.792798  0.876668  1
  Tb  Tb5  1  0.586324  0.207202  0.376668  1
  Tb  Tb6  1  0.413676  0.792798  0.376668  1
  Tb  Tb7  1  0.413676  0.207202  0.876668  1
  Tb  Tb8  1  0.207202  0.413676  0.623332  1
  Tb  Tb9  1  0.207202  0.586324  0.123332  1
  Tb  Tb10  1  0.792798  0.413676  0.123332  1
  Tb  Tb11  1  0.792798  0.586324  0.623332  1
  Tb  Tb12  1  0.913676  0.707202  0.123332  1
  Tb  Tb13  1  0.913676  0.292798  0.623332  1
  Tb  Tb14  1  0.086324  0.707202  0.623332  1
  Tb  Tb15  1  0.086324  0.292798  0.123332  1
  Lu  Lu16  1  0.000000  0.000000  0.500000  1
  Lu  Lu17  1  0.000000  0.000000  0.000000  1
  Lu  Lu18  1  0.500000  0.500000  0.000000  1
  Lu  Lu19  1  0.500000  0.500000  0.500000  1
  Ir  Ir20  1  0.500000  0.000000  0.121200  1
  Ir  Ir21  1  0.500000  0.000000  0.621200  1
  Ir  Ir22  1  0.000000  0.500000  0.878800  1
  Ir  Ir23  1  0.000000  0.500000  0.378800  1
  Pt  Pt24  1  0.850115  0.149885  0.250000  1
  Pt  Pt25  1  0.850115  0.850115  0.750000  1
  Pt  Pt26  1  0.149885  0.149885  0.750000  1
  Pt  Pt27  1  0.149885  0.850115  0.250000  1
  Pt  Pt28  1  0.649885  0.350115  0.750000  1
  Pt  Pt29  1  0.649885  0.649885  0.250000  1
  Pt  Pt30  1  0.350115  0.350115  0.250000  1
  Pt  Pt31  1  0.350115  0.649885  0.750000  1
