# generated using pymatgen
data_VCu3TeS3
_symmetry_space_group_name_H-M   'P 1'
_cell_length_a   5.53021614
_cell_length_b   5.53021614
_cell_length_c   5.53021614
_cell_angle_alpha   87.80959268
_cell_angle_beta   87.80959268
_cell_angle_gamma   92.19040732
_symmetry_Int_Tables_number   1
_chemical_formula_structural   VCu3TeS3
_chemical_formula_sum   'V1 Cu3 Te1 S3'
_cell_volume   168.75173149
_cell_formula_units_Z   1
loop_
 _symmetry_equiv_pos_site_id
 _symmetry_equiv_pos_as_xyz
  1  'x, y, z'
loop_
 _atom_site_type_symbol
 _atom_site_label
 _atom_site_symmetry_multiplicity
 _atom_site_fract_x
 _atom_site_fract_y
 _atom_site_fract_z
 _atom_site_occupancy
  V  V0  1  0.002923  0.002923  0.997077  1
  Cu  Cu1  1  0.010601  0.010601  0.504051  1
  Cu  Cu2  1  0.010601  0.495949  0.989399  1
  Cu  Cu3  1  0.495949  0.010601  0.989399  1
  Te  Te4  1  0.724402  0.724402  0.275598  1
  S  S5  1  0.782619  0.236453  0.763547  1
  S  S6  1  0.236453  0.782619  0.763547  1
  S  S7  1  0.236453  0.236453  0.217381  1
