# generated using pymatgen
data_Ho16Tl3InPd3Rh
_symmetry_space_group_name_H-M   'P 1'
_cell_length_a   9.70779634
_cell_length_b   9.69527012
_cell_length_c   9.68967263
_cell_angle_alpha   59.89491451
_cell_angle_beta   59.93811312
_cell_angle_gamma   59.95725475
_symmetry_Int_Tables_number   1
_chemical_formula_structural   Ho16Tl3InPd3Rh
_chemical_formula_sum   'Ho16 Tl3 In1 Pd3 Rh1'
_cell_volume   643.85078082
_cell_formula_units_Z   1
loop_
 _symmetry_equiv_pos_site_id
 _symmetry_equiv_pos_as_xyz
  1  'x, y, z'
loop_
 _atom_site_type_symbol
 _atom_site_label
 _atom_site_symmetry_multiplicity
 _atom_site_fract_x
 _atom_site_fract_y
 _atom_site_fract_z
 _atom_site_occupancy
  Ho  Ho0  1  0.186712  0.187306  0.814727  1
  Ho  Ho1  1  0.603840  0.602928  0.189392  1
  Ho  Ho2  1  0.438946  0.061033  0.439173  1
  Ho  Ho3  1  0.439342  0.438062  0.057578  1
  Ho  Ho4  1  0.811256  0.187306  0.814727  1
  Ho  Ho5  1  0.187783  0.812248  0.187780  1
  Ho  Ho6  1  0.438591  0.065395  0.057422  1
  Ho  Ho7  1  0.186779  0.811515  0.814928  1
  Ho  Ho8  1  0.065017  0.438062  0.057578  1
  Ho  Ho9  1  0.812189  0.812248  0.187780  1
  Ho  Ho10  1  0.196653  0.598743  0.605329  1
  Ho  Ho11  1  0.060936  0.438407  0.439722  1
  Ho  Ho12  1  0.060850  0.061033  0.439173  1
  Ho  Ho13  1  0.812019  0.188333  0.187630  1
  Ho  Ho14  1  0.599722  0.194805  0.605752  1
  Ho  Ho15  1  0.599275  0.598743  0.605329  1
  Tl  Tl16  1  0.836950  0.835313  0.836111  1
  Tl  Tl17  1  0.836043  0.834376  0.493539  1
  Tl  Tl18  1  0.491626  0.835313  0.836111  1
  In  In19  1  0.834002  0.498760  0.833237  1
  Pd  Pd20  1  0.394743  0.818358  0.392157  1
  Pd  Pd21  1  0.394966  0.394376  0.392690  1
  Pd  Pd22  1  0.817968  0.394376  0.392690  1
  Rh  Rh23  1  0.393796  0.392965  0.819444  1
