# generated using pymatgen
data_NdErMn2F14
_symmetry_space_group_name_H-M   'P 1'
_cell_length_a   5.47972200
_cell_length_b   8.81388995
_cell_length_c   11.83245284
_cell_angle_alpha   62.39015603
_cell_angle_beta   90.00000000
_cell_angle_gamma   90.00000000
_symmetry_Int_Tables_number   1
_chemical_formula_structural   NdErMn2F14
_chemical_formula_sum   'Nd2 Er2 Mn4 F28'
_cell_volume   506.40200356
_cell_formula_units_Z   2
loop_
 _symmetry_equiv_pos_site_id
 _symmetry_equiv_pos_as_xyz
  1  'x, y, z'
loop_
 _atom_site_type_symbol
 _atom_site_label
 _atom_site_symmetry_multiplicity
 _atom_site_fract_x
 _atom_site_fract_y
 _atom_site_fract_z
 _atom_site_occupancy
  Nd  Nd0  1  0.760153  0.806110  0.765559  1
  Nd  Nd1  1  0.260153  0.193890  0.734441  1
  Er  Er2  1  0.238026  0.187617  0.236155  1
  Er  Er3  1  0.738026  0.812383  0.263845  1
  Mn  Mn4  1  0.756850  0.268707  0.963892  1
  Mn  Mn5  1  0.256850  0.731293  0.536108  1
  Mn  Mn6  1  0.239837  0.722127  0.050351  1
  Mn  Mn7  1  0.739837  0.277873  0.449649  1
  F  F8  1  0.424706  0.703361  0.927874  1
  F  F9  1  0.924706  0.296639  0.572126  1
  F  F10  1  0.569554  0.290936  0.083567  1
  F  F11  1  0.069554  0.709064  0.416433  1
  F  F12  1  0.456407  0.282411  0.532196  1
  F  F13  1  0.956407  0.717589  0.967804  1
  F  F14  1  0.544787  0.726879  0.454218  1
  F  F15  1  0.044787  0.273121  0.045782  1
  F  F16  1  0.777487  0.503579  0.869937  1
  F  F17  1  0.277487  0.496421  0.630063  1
  F  F18  1  0.227125  0.485243  0.141584  1
  F  F19  1  0.727125  0.514757  0.358416  1
  F  F20  1  0.753856  0.034275  0.051473  1
  F  F21  1  0.253856  0.965725  0.448527  1
  F  F22  1  0.243745  0.955938  0.958908  1
  F  F23  1  0.743745  0.044062  0.541092  1
  F  F24  1  0.977772  0.726615  0.624086  1
  F  F25  1  0.477772  0.273385  0.875914  1
  F  F26  1  0.017264  0.273439  0.361959  1
  F  F27  1  0.517264  0.726561  0.138041  1
  F  F28  1  0.052229  0.742251  0.173890  1
  F  F29  1  0.552229  0.257749  0.326110  1
  F  F30  1  0.935957  0.254678  0.836217  1
  F  F31  1  0.435957  0.745322  0.663783  1
  F  F32  1  0.417215  0.973955  0.230745  1
  F  F33  1  0.917215  0.026045  0.269255  1
  F  F34  1  0.607030  0.037421  0.773971  1
  F  F35  1  0.107030  0.962579  0.726029  1
