# generated using pymatgen
data_K4In3SnI16
_symmetry_space_group_name_H-M   'P 1'
_cell_length_a   8.41206843
_cell_length_b   8.64547098
_cell_length_c   17.10188519
_cell_angle_alpha   84.56526972
_cell_angle_beta   90.23258725
_cell_angle_gamma   89.96282481
_symmetry_Int_Tables_number   1
_chemical_formula_structural   K4In3SnI16
_chemical_formula_sum   'K4 In3 Sn1 I16'
_cell_volume   1238.15484021
_cell_formula_units_Z   1
loop_
 _symmetry_equiv_pos_site_id
 _symmetry_equiv_pos_as_xyz
  1  'x, y, z'
loop_
 _atom_site_type_symbol
 _atom_site_label
 _atom_site_symmetry_multiplicity
 _atom_site_fract_x
 _atom_site_fract_y
 _atom_site_fract_z
 _atom_site_occupancy
  K  K0  1  0.500070  0.256425  0.637778  1
  K  K1  1  0.999815  0.744321  0.862245  1
  K  K2  1  0.499778  0.743497  0.361853  1
  K  K3  1  0.000231  0.256719  0.138619  1
  In  In4  1  0.357165  0.242783  0.362038  1
  In  In5  1  0.858269  0.757679  0.137470  1
  In  In6  1  0.642236  0.757190  0.638292  1
  Sn  Sn7  1  0.142697  0.241919  0.862379  1
  I  I8  1  0.837089  0.120995  0.912865  1
  I  I9  1  0.349537  0.874220  0.589144  1
  I  I10  1  0.150775  0.874896  0.089076  1
  I  I11  1  0.650524  0.125943  0.410627  1
  I  I12  1  0.385398  0.425730  0.220818  1
  I  I13  1  0.886057  0.574593  0.278631  1
  I  I14  1  0.614358  0.573423  0.779325  1
  I  I15  1  0.113648  0.432574  0.715447  1
  I  I16  1  0.651710  0.996454  0.161964  1
  I  I17  1  0.151321  0.003689  0.337956  1
  I  I18  1  0.356994  0.991711  0.835816  1
  I  I19  1  0.849189  0.996387  0.662286  1
  I  I20  1  0.248480  0.431248  0.472420  1
  I  I21  1  0.749121  0.567883  0.027580  1
  I  I22  1  0.750948  0.568959  0.528132  1
  I  I23  1  0.254593  0.440762  0.977241  1
