# generated using pymatgen
data_Ca3U(Si5Pt3)2
_symmetry_space_group_name_H-M   'P 1'
_cell_length_a   8.23182159
_cell_length_b   8.23303410
_cell_length_c   8.23303330
_cell_angle_alpha   137.24831886
_cell_angle_beta   104.20486531
_cell_angle_gamma   91.16586532
_symmetry_Int_Tables_number   1
_chemical_formula_structural   Ca3U(Si5Pt3)2
_chemical_formula_sum   'Ca3 U1 Si10 Pt6'
_cell_volume   349.72118250
_cell_formula_units_Z   1
loop_
 _symmetry_equiv_pos_site_id
 _symmetry_equiv_pos_as_xyz
  1  'x, y, z'
loop_
 _atom_site_type_symbol
 _atom_site_label
 _atom_site_symmetry_multiplicity
 _atom_site_fract_x
 _atom_site_fract_y
 _atom_site_fract_z
 _atom_site_occupancy
  Ca  Ca0  1  0.360498  0.626755  0.733743  1
  Ca  Ca1  1  0.106023  0.871780  0.234243  1
  Ca  Ca2  1  0.896035  0.129880  0.766155  1
  U  U3  1  0.640283  0.369822  0.270461  1
  Si  Si4  1  0.464381  0.114085  0.350297  1
  Si  Si5  1  0.538950  0.888875  0.650073  1
  Si  Si6  1  0.761720  0.610127  0.151592  1
  Si  Si7  1  0.235712  0.387018  0.848694  1
  Si  Si8  1  0.271014  0.518756  0.247208  1
  Si  Si9  1  0.730416  0.478858  0.747698  1
  Si  Si10  1  0.730416  0.982717  0.251557  1
  Si  Si11  1  0.271014  0.023806  0.752258  1
  Si  Si12  1  0.996913  0.248649  0.248269  1
  Si  Si13  1  0.996913  0.748643  0.748264  1
  Pt  Pt14  1  0.501229  0.252176  0.752424  1
  Pt  Pt15  1  0.501229  0.748804  0.249053  1
  Pt  Pt16  1  0.249687  0.135112  0.114575  1
  Pt  Pt17  1  0.744693  0.861624  0.883070  1
  Pt  Pt18  1  0.023751  0.637544  0.386205  1
  Pt  Pt19  1  0.979125  0.364966  0.614159  1
