# generated using pymatgen
data_Th7Zr(AlRu)8
_symmetry_space_group_name_H-M   'P 1'
_cell_length_a   4.13538900
_cell_length_b   7.23017305
_cell_length_c   16.07572997
_cell_angle_alpha   89.51537942
_cell_angle_beta   90.00000000
_cell_angle_gamma   90.00000000
_symmetry_Int_Tables_number   1
_chemical_formula_structural   Th7Zr(AlRu)8
_chemical_formula_sum   'Th7 Zr1 Al8 Ru8'
_cell_volume   480.64035061
_cell_formula_units_Z   1
loop_
 _symmetry_equiv_pos_site_id
 _symmetry_equiv_pos_as_xyz
  1  'x, y, z'
loop_
 _atom_site_type_symbol
 _atom_site_label
 _atom_site_symmetry_multiplicity
 _atom_site_fract_x
 _atom_site_fract_y
 _atom_site_fract_z
 _atom_site_occupancy
  Th  Th0  1  0.750000  0.960784  0.218137  1
  Th  Th1  1  0.250000  0.167704  0.564562  1
  Th  Th2  1  0.750000  0.830988  0.441733  1
  Th  Th3  1  0.750000  0.460371  0.283063  1
  Th  Th4  1  0.750000  0.335645  0.059530  1
  Th  Th5  1  0.250000  0.664856  0.933483  1
  Th  Th6  1  0.250000  0.040448  0.779381  1
  Zr  Zr7  1  0.250000  0.544839  0.714464  1
  Al  Al8  1  0.750000  0.502412  0.570693  1
  Al  Al9  1  0.750000  0.375829  0.839016  1
  Al  Al10  1  0.750000  0.006786  0.935526  1
  Al  Al11  1  0.750000  0.851201  0.652856  1
  Al  Al12  1  0.250000  0.496777  0.440711  1
  Al  Al13  1  0.250000  0.996459  0.059436  1
  Al  Al14  1  0.250000  0.635742  0.148808  1
  Al  Al15  1  0.250000  0.136639  0.353846  1
  Ru  Ru16  1  0.750000  0.748876  0.814889  1
  Ru  Ru17  1  0.250000  0.243062  0.931324  1
  Ru  Ru18  1  0.750000  0.262446  0.439270  1
  Ru  Ru19  1  0.250000  0.758655  0.317332  1
  Ru  Ru20  1  0.750000  0.760651  0.063489  1
  Ru  Ru21  1  0.750000  0.238159  0.684746  1
  Ru  Ru22  1  0.250000  0.250940  0.183651  1
  Ru  Ru23  1  0.250000  0.729729  0.570054  1
