# generated using pymatgen
data_Dy5Mo3P12(IrRh7)2
_symmetry_space_group_name_H-M   'P 1'
_cell_length_a   12.70011500
_cell_length_b   12.70978546
_cell_length_c   3.93167200
_cell_angle_alpha   90.00000000
_cell_angle_beta   90.00000000
_cell_angle_gamma   119.97483651
_symmetry_Int_Tables_number   1
_chemical_formula_structural   Dy5Mo3P12(IrRh7)2
_chemical_formula_sum   'Dy5 Mo3 P12 Ir2 Rh14'
_cell_volume   549.74824317
_cell_formula_units_Z   1
loop_
 _symmetry_equiv_pos_site_id
 _symmetry_equiv_pos_as_xyz
  1  'x, y, z'
loop_
 _atom_site_type_symbol
 _atom_site_label
 _atom_site_symmetry_multiplicity
 _atom_site_fract_x
 _atom_site_fract_y
 _atom_site_fract_z
 _atom_site_occupancy
  Dy  Dy0  1  0.333229  0.666294  0.500000  1
  Dy  Dy1  1  0.666937  0.333706  0.500000  1
  Dy  Dy2  1  0.000087  0.811923  0.000000  1
  Dy  Dy3  1  0.188163  0.188077  0.000000  1
  Dy  Dy4  1  0.811625  0.000000  0.000000  1
  Mo  Mo5  1  0.999859  0.451120  0.500000  1
  Mo  Mo6  1  0.548739  0.548880  0.500000  1
  Mo  Mo7  1  0.451303  0.000000  0.500000  1
  P  P8  1  0.999800  0.636805  0.500000  1
  P  P9  1  0.362996  0.363195  0.500000  1
  P  P10  1  0.637051  0.000000  0.500000  1
  P  P11  1  0.517058  0.682021  0.000000  1
  P  P12  1  0.317800  0.834300  0.000000  1
  P  P13  1  0.164826  0.482622  0.000000  1
  P  P14  1  0.483500  0.165700  0.000000  1
  P  P15  1  0.682204  0.517378  0.000000  1
  P  P16  1  0.835038  0.317979  0.000000  1
  P  P17  1  0.999958  0.177008  0.500000  1
  P  P18  1  0.822950  0.822992  0.500000  1
  P  P19  1  0.176925  0.000000  0.500000  1
  Ir  Ir20  1  0.283181  0.000000  0.000000  1
  Ir  Ir21  1  0.999945  0.000000  0.500000  1
  Rh  Rh22  1  0.512626  0.868595  0.000000  1
  Rh  Rh23  1  0.131199  0.643818  0.000000  1
  Rh  Rh24  1  0.355866  0.487201  0.000000  1
  Rh  Rh25  1  0.487382  0.356182  0.000000  1
  Rh  Rh26  1  0.868667  0.512799  0.000000  1
  Rh  Rh27  1  0.644031  0.131405  0.000000  1
  Rh  Rh28  1  0.999916  0.282759  0.000000  1
  Rh  Rh29  1  0.717156  0.717241  0.000000  1
  Rh  Rh30  1  0.624197  0.802484  0.500000  1
  Rh  Rh31  1  0.197200  0.821023  0.500000  1
  Rh  Rh32  1  0.178203  0.375715  0.500000  1
  Rh  Rh33  1  0.376179  0.178977  0.500000  1
  Rh  Rh34  1  0.802488  0.624285  0.500000  1
  Rh  Rh35  1  0.821714  0.197516  0.500000  1
