# generated using pymatgen
data_Sc2Co12Si(AsP)3
_symmetry_space_group_name_H-M   'P 1'
_cell_length_a   9.11021400
_cell_length_b   9.11021334
_cell_length_c   3.57630200
_cell_angle_alpha   90.00000000
_cell_angle_beta   90.00000000
_cell_angle_gamma   120.00000238
_symmetry_Int_Tables_number   1
_chemical_formula_structural   Sc2Co12Si(AsP)3
_chemical_formula_sum   'Sc2 Co12 Si1 As3 P3'
_cell_volume   257.05255976
_cell_formula_units_Z   1
loop_
 _symmetry_equiv_pos_site_id
 _symmetry_equiv_pos_as_xyz
  1  'x, y, z'
loop_
 _atom_site_type_symbol
 _atom_site_label
 _atom_site_symmetry_multiplicity
 _atom_site_fract_x
 _atom_site_fract_y
 _atom_site_fract_z
 _atom_site_occupancy
  Sc  Sc0  1  0.666667  0.333333  0.000000  1
  Sc  Sc1  1  0.000000  0.000000  0.500000  1
  Co  Co2  1  0.762076  0.045401  0.000000  1
  Co  Co3  1  0.954599  0.716675  0.000000  1
  Co  Co4  1  0.283325  0.237924  0.000000  1
  Co  Co5  1  0.490700  0.541230  0.000000  1
  Co  Co6  1  0.458770  0.949470  0.000000  1
  Co  Co7  1  0.050530  0.509300  0.000000  1
  Co  Co8  1  0.715599  0.603451  0.500000  1
  Co  Co9  1  0.396549  0.112148  0.500000  1
  Co  Co10  1  0.887852  0.284401  0.500000  1
  Co  Co11  1  0.548563  0.794743  0.500000  1
  Co  Co12  1  0.205257  0.753822  0.500000  1
  Co  Co13  1  0.246178  0.451437  0.500000  1
  Si  Si14  1  0.333333  0.666667  0.000000  1
  As  As15  1  0.743876  0.786688  0.000000  1
  As  As16  1  0.213312  0.957188  0.000000  1
  As  As17  1  0.042812  0.256124  0.000000  1
  P  P18  1  0.452818  0.377643  0.500000  1
  P  P19  1  0.622357  0.075175  0.500000  1
  P  P20  1  0.924825  0.547182  0.500000  1
