# generated using pymatgen
data_Ba6Ta2FeO12
_symmetry_space_group_name_H-M   'P 1'
_cell_length_a   9.33922042
_cell_length_b   9.33922141
_cell_length_c   7.34432698
_cell_angle_alpha   67.63091021
_cell_angle_beta   67.63090745
_cell_angle_gamma   36.87558779
_symmetry_Int_Tables_number   1
_chemical_formula_structural   Ba6Ta2FeO12
_chemical_formula_sum   'Ba6 Ta2 Fe1 O12'
_cell_volume   352.11167692
_cell_formula_units_Z   1
loop_
 _symmetry_equiv_pos_site_id
 _symmetry_equiv_pos_as_xyz
  1  'x, y, z'
loop_
 _atom_site_type_symbol
 _atom_site_label
 _atom_site_symmetry_multiplicity
 _atom_site_fract_x
 _atom_site_fract_y
 _atom_site_fract_z
 _atom_site_occupancy
  Ba  Ba0  1  0.887732  0.887732  0.706808  1
  Ba  Ba1  1  0.208189  0.208189  0.709344  1
  Ba  Ba2  1  0.548186  0.548186  0.714306  1
  Ba  Ba3  1  0.451814  0.451814  0.285694  1
  Ba  Ba4  1  0.791811  0.791811  0.290656  1
  Ba  Ba5  1  0.112268  0.112268  0.293192  1
  Ta  Ta6  1  0.666261  0.666261  0.000981  1
  Ta  Ta7  1  0.333739  0.333739  0.999019  1
  Fe  Fe8  1  0.000000  0.000000  0.000000  1
  O  O9  1  0.946769  0.946769  0.316901  1
  O  O10  1  0.279887  0.279887  0.300959  1
  O  O11  1  0.619853  0.619853  0.301860  1
  O  O12  1  0.380147  0.380147  0.698140  1
  O  O13  1  0.720113  0.720113  0.699041  1
  O  O14  1  0.053231  0.053231  0.683099  1
  O  O15  1  0.500000  0.000000  0.000000  1
  O  O16  1  0.825024  0.354073  0.999361  1
  O  O17  1  0.174976  0.645927  0.000639  1
  O  O18  1  0.000000  0.500000  0.000000  1
  O  O19  1  0.354073  0.825024  0.999361  1
  O  O20  1  0.645927  0.174976  0.000639  1
