# generated using pymatgen
data_Tl(FeI3)2
_symmetry_space_group_name_H-M   'P 1'
_cell_length_a   7.78828516
_cell_length_b   7.59989720
_cell_length_c   8.86035600
_cell_angle_alpha   77.83170505
_cell_angle_beta   79.82166463
_cell_angle_gamma   56.64553734
_symmetry_Int_Tables_number   1
_chemical_formula_structural   Tl(FeI3)2
_chemical_formula_sum   'Tl1 Fe2 I6'
_cell_volume   427.03021461
_cell_formula_units_Z   1
loop_
 _symmetry_equiv_pos_site_id
 _symmetry_equiv_pos_as_xyz
  1  'x, y, z'
loop_
 _atom_site_type_symbol
 _atom_site_label
 _atom_site_symmetry_multiplicity
 _atom_site_fract_x
 _atom_site_fract_y
 _atom_site_fract_z
 _atom_site_occupancy
  Tl  Tl0  1  0.145882  0.968526  0.531272  1
  Fe  Fe1  1  0.895539  0.617909  0.260491  1
  Fe  Fe2  1  0.978521  0.808591  0.971302  1
  I  I3  1  0.575933  0.597192  0.332194  1
  I  I4  1  0.071022  0.414502  0.019049  1
  I  I5  1  0.132371  0.441007  0.484237  1
  I  I6  1  0.722055  0.027399  0.763277  1
  I  I7  1  0.323035  0.779802  0.883739  1
  I  I8  1  0.799642  0.013436  0.212762  1
