# generated using pymatgen
data_Ta16BeAlFeCoTe16
_symmetry_space_group_name_H-M   'P 1'
_cell_length_a   4.82768400
_cell_length_b   10.97083778
_cell_length_c   19.29540600
_cell_angle_alpha   89.96737993
_cell_angle_beta   90.00000000
_cell_angle_gamma   90.00000000
_symmetry_Int_Tables_number   1
_chemical_formula_structural   Ta16BeAlFeCoTe16
_chemical_formula_sum   'Ta16 Be1 Al1 Fe1 Co1 Te16'
_cell_volume   1021.95666251
_cell_formula_units_Z   1
loop_
 _symmetry_equiv_pos_site_id
 _symmetry_equiv_pos_as_xyz
  1  'x, y, z'
loop_
 _atom_site_type_symbol
 _atom_site_label
 _atom_site_symmetry_multiplicity
 _atom_site_fract_x
 _atom_site_fract_y
 _atom_site_fract_z
 _atom_site_occupancy
  Ta  Ta0  1  0.500970  0.597581  0.608029  1
  Ta  Ta1  1  0.500970  0.402419  0.391971  1
  Ta  Ta2  1  0.505421  0.094247  0.895776  1
  Ta  Ta3  1  0.505421  0.905753  0.104224  1
  Ta  Ta4  1  0.998002  0.296234  0.462874  1
  Ta  Ta5  1  0.998002  0.703766  0.537126  1
  Ta  Ta6  1  0.993293  0.803014  0.035953  1
  Ta  Ta7  1  0.993293  0.196986  0.964047  1
  Ta  Ta8  1  0.501562  0.309630  0.555707  1
  Ta  Ta9  1  0.501562  0.690370  0.444293  1
  Ta  Ta10  1  0.506708  0.815964  0.946253  1
  Ta  Ta11  1  0.506708  0.184036  0.053747  1
  Ta  Ta12  1  0.999130  0.434586  0.615602  1
  Ta  Ta13  1  0.999130  0.565414  0.384398  1
  Ta  Ta14  1  0.994526  0.936736  0.888529  1
  Ta  Ta15  1  0.994526  0.063264  0.111471  1
  Be  Be16  1  0.749864  0.000000  0.000000  1
  Al  Al17  1  0.749762  0.500000  0.500000  1
  Fe  Fe18  1  0.249914  0.000000  0.000000  1
  Co  Co19  1  0.249618  0.500000  0.500000  1
  Te  Te20  1  0.007826  0.665842  0.683662  1
  Te  Te21  1  0.007826  0.334158  0.316338  1
  Te  Te22  1  0.005495  0.164740  0.817383  1
  Te  Te23  1  0.005495  0.835260  0.182617  1
  Te  Te24  1  0.492487  0.388765  0.696763  1
  Te  Te25  1  0.492487  0.611235  0.303237  1
  Te  Te26  1  0.494719  0.889562  0.804476  1
  Te  Te27  1  0.494719  0.110438  0.195524  1
  Te  Te28  1  0.492270  0.153862  0.436793  1
  Te  Te29  1  0.492270  0.846138  0.563207  1
  Te  Te30  1  0.494321  0.655766  0.062996  1
  Te  Te31  1  0.494321  0.344234  0.937004  1
  Te  Te32  1  0.005791  0.321868  0.093867  1
  Te  Te33  1  0.005791  0.678132  0.906133  1
  Te  Te34  1  0.007901  0.823651  0.405430  1
  Te  Te35  1  0.007901  0.176349  0.594570  1
