# generated using pymatgen
data_LaCe3Cd3SnRu4
_symmetry_space_group_name_H-M   'P 1'
_cell_length_a   6.37577106
_cell_length_b   6.37577069
_cell_length_c   9.94472711
_cell_angle_alpha   76.27240499
_cell_angle_beta   76.27240429
_cell_angle_gamma   45.01111391
_symmetry_Int_Tables_number   1
_chemical_formula_structural   LaCe3Cd3SnRu4
_chemical_formula_sum   'La1 Ce3 Cd3 Sn1 Ru4'
_cell_volume   276.31550390
_cell_formula_units_Z   1
loop_
 _symmetry_equiv_pos_site_id
 _symmetry_equiv_pos_as_xyz
  1  'x, y, z'
loop_
 _atom_site_type_symbol
 _atom_site_label
 _atom_site_symmetry_multiplicity
 _atom_site_fract_x
 _atom_site_fract_y
 _atom_site_fract_z
 _atom_site_occupancy
  La  La0  1  0.129175  0.129175  0.589488  1
  Ce  Ce1  1  0.866712  0.866712  0.416684  1
  Ce  Ce2  1  0.860658  0.860658  0.921821  1
  Ce  Ce3  1  0.136792  0.136792  0.086154  1
  Cd  Cd4  1  0.426083  0.426083  0.151205  1
  Cd  Cd5  1  0.422632  0.422632  0.652464  1
  Cd  Cd6  1  0.577856  0.577856  0.856065  1
  Sn  Sn7  1  0.579193  0.579193  0.353040  1
  Ru  Ru8  1  0.804874  0.804874  0.161391  1
  Ru  Ru9  1  0.190258  0.190258  0.308528  1
  Ru  Ru10  1  0.203495  0.203495  0.847630  1
  Ru  Ru11  1  0.802272  0.802272  0.655532  1
