# generated using pymatgen
data_Sm2Y4Ta2Fe(Co5P4)3
_symmetry_space_group_name_H-M   'P 1'
_cell_length_a   3.72542500
_cell_length_b   10.65186100
_cell_length_c   12.36134600
_cell_angle_alpha   90.00000000
_cell_angle_beta   90.00000000
_cell_angle_gamma   90.00000000
_symmetry_Int_Tables_number   1
_chemical_formula_structural   Sm2Y4Ta2Fe(Co5P4)3
_chemical_formula_sum   'Sm2 Y4 Ta2 Fe1 Co15 P12'
_cell_volume   490.53169945
_cell_formula_units_Z   1
loop_
 _symmetry_equiv_pos_site_id
 _symmetry_equiv_pos_as_xyz
  1  'x, y, z'
loop_
 _atom_site_type_symbol
 _atom_site_label
 _atom_site_symmetry_multiplicity
 _atom_site_fract_x
 _atom_site_fract_y
 _atom_site_fract_z
 _atom_site_occupancy
  Sm  Sm0  1  0.000000  0.500000  0.526977  1
  Sm  Sm1  1  0.500000  0.000000  0.473124  1
  Y  Y2  1  0.500000  0.819715  0.204170  1
  Y  Y3  1  0.500000  0.180285  0.204170  1
  Y  Y4  1  0.000000  0.679141  0.796117  1
  Y  Y5  1  0.000000  0.320859  0.796117  1
  Ta  Ta6  1  0.500000  0.500000  0.154323  1
  Ta  Ta7  1  0.000000  0.000000  0.844887  1
  Fe  Fe8  1  0.000000  0.500000  0.987822  1
  Co  Co9  1  0.500000  0.500000  0.702881  1
  Co  Co10  1  0.000000  0.000000  0.296493  1
  Co  Co11  1  0.500000  0.000000  0.013076  1
  Co  Co12  1  0.500000  0.330509  0.993386  1
  Co  Co13  1  0.500000  0.669491  0.993386  1
  Co  Co14  1  0.000000  0.166400  0.007366  1
  Co  Co15  1  0.000000  0.833600  0.007366  1
  Co  Co16  1  0.500000  0.295293  0.431744  1
  Co  Co17  1  0.500000  0.704707  0.431744  1
  Co  Co18  1  0.000000  0.204877  0.568462  1
  Co  Co19  1  0.000000  0.795123  0.568462  1
  Co  Co20  1  0.500000  0.878531  0.706740  1
  Co  Co21  1  0.500000  0.121469  0.706740  1
  Co  Co22  1  0.000000  0.621861  0.293083  1
  Co  Co23  1  0.000000  0.378139  0.293083  1
  P  P24  1  0.500000  0.500000  0.884290  1
  P  P25  1  0.000000  0.000000  0.117675  1
  P  P26  1  0.500000  0.500000  0.354168  1
  P  P27  1  0.000000  0.000000  0.645755  1
  P  P28  1  0.500000  0.308927  0.616460  1
  P  P29  1  0.500000  0.691073  0.616460  1
  P  P30  1  0.000000  0.190913  0.383528  1
  P  P31  1  0.000000  0.809087  0.383528  1
  P  P32  1  0.500000  0.841168  0.893405  1
  P  P33  1  0.500000  0.158832  0.893405  1
  P  P34  1  0.000000  0.658286  0.104802  1
  P  P35  1  0.000000  0.341714  0.104802  1
