# generated using pymatgen
data_Ba9SrSi5Bi
_symmetry_space_group_name_H-M   'P 1'
_cell_length_a   10.32287875
_cell_length_b   10.32269553
_cell_length_c   10.32442060
_cell_angle_alpha   130.61344995
_cell_angle_beta   130.61529589
_cell_angle_gamma   72.41654114
_symmetry_Int_Tables_number   1
_chemical_formula_structural   Ba9SrSi5Bi
_chemical_formula_sum   'Ba9 Sr1 Si5 Bi1'
_cell_volume   619.67688067
_cell_formula_units_Z   1
loop_
 _symmetry_equiv_pos_site_id
 _symmetry_equiv_pos_as_xyz
  1  'x, y, z'
loop_
 _atom_site_type_symbol
 _atom_site_label
 _atom_site_symmetry_multiplicity
 _atom_site_fract_x
 _atom_site_fract_y
 _atom_site_fract_z
 _atom_site_occupancy
  Ba  Ba0  1  0.550031  0.030192  0.859664  1
  Ba  Ba1  1  0.170519  0.690368  0.140329  1
  Ba  Ba2  1  0.030329  0.170412  0.480150  1
  Ba  Ba3  1  0.690263  0.550186  0.519856  1
  Ba  Ba4  1  0.472798  0.946478  0.140214  1
  Ba  Ba5  1  0.806262  0.332569  0.859780  1
  Ba  Ba6  1  0.946672  0.806264  0.473719  1
  Ba  Ba7  1  0.332549  0.472949  0.526279  1
  Ba  Ba8  1  0.016313  0.016309  0.000007  1
  Sr  Sr9  1  0.485439  0.485447  0.000011  1
  Si  Si10  1  0.750663  0.750664  0.000010  1
  Si  Si11  1  0.893770  0.398977  0.293906  1
  Si  Si12  1  0.105055  0.599850  0.706080  1
  Si  Si13  1  0.399058  0.104942  0.505216  1
  Si  Si14  1  0.599734  0.893844  0.494781  1
  Bi  Bi15  1  0.250544  0.250548  0.999999  1
