# generated using pymatgen
data_YbFeCo(Sb6Ru)2
_symmetry_space_group_name_H-M   'P 1'
_cell_length_a   8.07618357
_cell_length_b   8.04901316
_cell_length_c   8.01126300
_cell_angle_alpha   109.49128992
_cell_angle_beta   109.49429920
_cell_angle_gamma   109.66632969
_symmetry_Int_Tables_number   1
_chemical_formula_structural   YbFeCo(Sb6Ru)2
_chemical_formula_sum   'Yb1 Fe1 Co1 Sb12 Ru2'
_cell_volume   399.70843745
_cell_formula_units_Z   1
loop_
 _symmetry_equiv_pos_site_id
 _symmetry_equiv_pos_as_xyz
  1  'x, y, z'
loop_
 _atom_site_type_symbol
 _atom_site_label
 _atom_site_symmetry_multiplicity
 _atom_site_fract_x
 _atom_site_fract_y
 _atom_site_fract_z
 _atom_site_occupancy
  Yb  Yb0  1  0.000000  0.000000  0.000000  1
  Fe  Fe1  1  0.000000  0.500000  0.000000  1
  Co  Co2  1  0.500000  0.000000  0.000000  1
  Sb  Sb3  1  0.842583  0.659830  0.502710  1
  Sb  Sb4  1  0.157417  0.340170  0.497290  1
  Sb  Sb5  1  0.160534  0.665845  0.826468  1
  Sb  Sb6  1  0.839466  0.334155  0.173532  1
  Sb  Sb7  1  0.668014  0.503128  0.845365  1
  Sb  Sb8  1  0.331986  0.496872  0.154635  1
  Sb  Sb9  1  0.657993  0.822191  0.153984  1
  Sb  Sb10  1  0.342007  0.177809  0.846016  1
  Sb  Sb11  1  0.504740  0.845982  0.668131  1
  Sb  Sb12  1  0.495260  0.154018  0.331869  1
  Sb  Sb13  1  0.177559  0.836285  0.332682  1
  Sb  Sb14  1  0.822441  0.163715  0.667318  1
  Ru  Ru15  1  0.500000  0.500000  0.500000  1
  Ru  Ru16  1  0.000000  0.000000  0.500000  1
