# generated using pymatgen
data_Er2AsS
_symmetry_space_group_name_H-M   'P 1'
_cell_length_a   6.88493260
_cell_length_b   6.88493279
_cell_length_c   6.88493301
_cell_angle_alpha   131.75562256
_cell_angle_beta   131.75562242
_cell_angle_gamma   70.61526733
_symmetry_Int_Tables_number   1
_chemical_formula_structural   Er2AsS
_chemical_formula_sum   'Er4 As2 S2'
_cell_volume   177.93306451
_cell_formula_units_Z   2
loop_
 _symmetry_equiv_pos_site_id
 _symmetry_equiv_pos_as_xyz
  1  'x, y, z'
loop_
 _atom_site_type_symbol
 _atom_site_label
 _atom_site_symmetry_multiplicity
 _atom_site_fract_x
 _atom_site_fract_y
 _atom_site_fract_z
 _atom_site_occupancy
  Er  Er0  1  0.749903  0.749903  0.000000  1
  Er  Er1  1  0.250097  0.250097  0.000000  1
  Er  Er2  1  0.000097  0.500097  0.500000  1
  Er  Er3  1  0.499903  0.999903  0.500000  1
  As  As4  1  0.500000  0.500000  0.000000  1
  As  As5  1  0.250000  0.750000  0.500000  1
  S  S6  1  0.000000  0.000000  0.000000  1
  S  S7  1  0.750000  0.250000  0.500000  1
