# generated using pymatgen
data_Cs5RbTi2(VBr9)2
_symmetry_space_group_name_H-M   'P 1'
_cell_length_a   7.82217900
_cell_length_b   7.82217985
_cell_length_c   19.42457600
_cell_angle_alpha   90.00000000
_cell_angle_beta   90.00000000
_cell_angle_gamma   119.99999217
_symmetry_Int_Tables_number   1
_chemical_formula_structural   Cs5RbTi2(VBr9)2
_chemical_formula_sum   'Cs5 Rb1 Ti2 V2 Br18'
_cell_volume   1029.29001803
_cell_formula_units_Z   1
loop_
 _symmetry_equiv_pos_site_id
 _symmetry_equiv_pos_as_xyz
  1  'x, y, z'
loop_
 _atom_site_type_symbol
 _atom_site_label
 _atom_site_symmetry_multiplicity
 _atom_site_fract_x
 _atom_site_fract_y
 _atom_site_fract_z
 _atom_site_occupancy
  Cs  Cs0  1  0.666667  0.333333  0.571797  1
  Cs  Cs1  1  0.333333  0.666667  0.062786  1
  Cs  Cs2  1  0.333333  0.666667  0.428459  1
  Cs  Cs3  1  0.666667  0.333333  0.936740  1
  Cs  Cs4  1  0.000000  0.000000  0.239829  1
  Rb  Rb5  1  0.000000  0.000000  0.763803  1
  Ti  Ti6  1  0.333333  0.666667  0.663933  1
  Ti  Ti7  1  0.666667  0.333333  0.336043  1
  V  V8  1  0.333333  0.666667  0.832208  1
  V  V9  1  0.666667  0.333333  0.167388  1
  Br  Br10  1  0.822667  0.645334  0.407387  1
  Br  Br11  1  0.177061  0.822939  0.592956  1
  Br  Br12  1  0.645878  0.822939  0.592956  1
  Br  Br13  1  0.822667  0.177333  0.407387  1
  Br  Br14  1  0.354666  0.177333  0.407387  1
  Br  Br15  1  0.176947  0.353895  0.902524  1
  Br  Br16  1  0.027894  0.513947  0.746882  1
  Br  Br17  1  0.646105  0.823053  0.902524  1
  Br  Br18  1  0.821955  0.643910  0.096232  1
  Br  Br19  1  0.177061  0.354122  0.592956  1
  Br  Br20  1  0.486053  0.972106  0.746882  1
  Br  Br21  1  0.514112  0.485888  0.253024  1
  Br  Br22  1  0.486053  0.513947  0.746882  1
  Br  Br23  1  0.176947  0.823053  0.902524  1
  Br  Br24  1  0.356090  0.178045  0.096232  1
  Br  Br25  1  0.971777  0.485888  0.253024  1
  Br  Br26  1  0.514112  0.028223  0.253024  1
  Br  Br27  1  0.821955  0.178045  0.096232  1
