# generated using pymatgen
data_DyTm2Pa(ZnRh)4
_symmetry_space_group_name_H-M   'P 1'
_cell_length_a   3.85128900
_cell_length_b   7.07745845
_cell_length_c   8.30603744
_cell_angle_alpha   90.90794939
_cell_angle_beta   90.00000000
_cell_angle_gamma   90.00000000
_symmetry_Int_Tables_number   1
_chemical_formula_structural   DyTm2Pa(ZnRh)4
_chemical_formula_sum   'Dy1 Tm2 Pa1 Zn4 Rh4'
_cell_volume   226.37204293
_cell_formula_units_Z   1
loop_
 _symmetry_equiv_pos_site_id
 _symmetry_equiv_pos_as_xyz
  1  'x, y, z'
loop_
 _atom_site_type_symbol
 _atom_site_label
 _atom_site_symmetry_multiplicity
 _atom_site_fract_x
 _atom_site_fract_y
 _atom_site_fract_z
 _atom_site_occupancy
  Dy  Dy0  1  0.250000  0.053023  0.322602  1
  Tm  Tm1  1  0.750000  0.442044  0.808696  1
  Tm  Tm2  1  0.750000  0.940204  0.686968  1
  Pa  Pa3  1  0.250000  0.553722  0.177520  1
  Zn  Zn4  1  0.250000  0.620618  0.564697  1
  Zn  Zn5  1  0.750000  0.370698  0.443720  1
  Zn  Zn6  1  0.750000  0.894620  0.061933  1
  Zn  Zn7  1  0.250000  0.126713  0.933605  1
  Rh  Rh8  1  0.250000  0.738456  0.887720  1
  Rh  Rh9  1  0.750000  0.283684  0.127360  1
  Rh  Rh10  1  0.750000  0.740577  0.356829  1
  Rh  Rh11  1  0.250000  0.235643  0.628349  1
