# generated using pymatgen
data_Sc3Cd3PtAu
_symmetry_space_group_name_H-M   'P 1'
_cell_length_a   7.65034300
_cell_length_b   7.65034328
_cell_length_c   3.30720500
_cell_angle_alpha   90.00000000
_cell_angle_beta   90.00000000
_cell_angle_gamma   119.99999446
_symmetry_Int_Tables_number   1
_chemical_formula_structural   Sc3Cd3PtAu
_chemical_formula_sum   'Sc3 Cd3 Pt1 Au1'
_cell_volume   167.63071671
_cell_formula_units_Z   1
loop_
 _symmetry_equiv_pos_site_id
 _symmetry_equiv_pos_as_xyz
  1  'x, y, z'
loop_
 _atom_site_type_symbol
 _atom_site_label
 _atom_site_symmetry_multiplicity
 _atom_site_fract_x
 _atom_site_fract_y
 _atom_site_fract_z
 _atom_site_occupancy
  Sc  Sc0  1  0.583084  0.013465  0.500001  1
  Sc  Sc1  1  0.430381  0.416916  0.500001  1
  Sc  Sc2  1  0.986535  0.569620  0.500001  1
  Cd  Cd3  1  0.226097  0.997708  0.000000  1
  Cd  Cd4  1  0.002292  0.228389  0.000000  1
  Cd  Cd5  1  0.771611  0.773903  0.000000  1
  Pt  Pt6  1  0.666666  0.333333  0.000000  1
  Au  Au7  1  0.333333  0.666666  0.000000  1
