# generated using pymatgen
data_Eu4Mg4AgIrRh2
_symmetry_space_group_name_H-M   'P 1'
_cell_length_a   4.31837900
_cell_length_b   7.38287997
_cell_length_c   8.61117482
_cell_angle_alpha   89.59138716
_cell_angle_beta   90.00000000
_cell_angle_gamma   90.00000000
_symmetry_Int_Tables_number   1
_chemical_formula_structural   Eu4Mg4AgIrRh2
_chemical_formula_sum   'Eu4 Mg4 Ag1 Ir1 Rh2'
_cell_volume   274.53512956
_cell_formula_units_Z   1
loop_
 _symmetry_equiv_pos_site_id
 _symmetry_equiv_pos_as_xyz
  1  'x, y, z'
loop_
 _atom_site_type_symbol
 _atom_site_label
 _atom_site_symmetry_multiplicity
 _atom_site_fract_x
 _atom_site_fract_y
 _atom_site_fract_z
 _atom_site_occupancy
  Eu  Eu0  1  0.250000  0.533371  0.173611  1
  Eu  Eu1  1  0.750000  0.480539  0.836724  1
  Eu  Eu2  1  0.750000  0.949213  0.682187  1
  Eu  Eu3  1  0.250000  0.022912  0.315970  1
  Mg  Mg4  1  0.250000  0.647797  0.557617  1
  Mg  Mg5  1  0.750000  0.369956  0.427567  1
  Mg  Mg6  1  0.750000  0.862885  0.059088  1
  Mg  Mg7  1  0.250000  0.132604  0.948132  1
  Ag  Ag8  1  0.250000  0.268825  0.625964  1
  Ir  Ir9  1  0.250000  0.766523  0.871955  1
  Rh  Rh10  1  0.750000  0.232239  0.127881  1
  Rh  Rh11  1  0.750000  0.733135  0.373306  1
