# generated using pymatgen
data_Ba4Pr8ScMn7O28
_symmetry_space_group_name_H-M   'P 1'
_cell_length_a   5.66173516
_cell_length_b   5.66173516
_cell_length_c   20.84238078
_cell_angle_alpha   90.02444263
_cell_angle_beta   89.97555737
_cell_angle_gamma   89.99591470
_symmetry_Int_Tables_number   1
_chemical_formula_structural   Ba4Pr8ScMn7O28
_chemical_formula_sum   'Ba4 Pr8 Sc1 Mn7 O28'
_cell_volume   668.10749885
_cell_formula_units_Z   1
loop_
 _symmetry_equiv_pos_site_id
 _symmetry_equiv_pos_as_xyz
  1  'x, y, z'
loop_
 _atom_site_type_symbol
 _atom_site_label
 _atom_site_symmetry_multiplicity
 _atom_site_fract_x
 _atom_site_fract_y
 _atom_site_fract_z
 _atom_site_occupancy
  Ba  Ba0  1  0.257052  0.255568  0.003740  1
  Ba  Ba1  1  0.744432  0.742948  0.003740  1
  Ba  Ba2  1  0.754997  0.245004  0.499083  1
  Ba  Ba3  1  0.245117  0.754884  0.499519  1
  Pr  Pr4  1  0.264237  0.268396  0.183935  1
  Pr  Pr5  1  0.731603  0.735762  0.183935  1
  Pr  Pr6  1  0.768035  0.231965  0.317721  1
  Pr  Pr7  1  0.234603  0.765397  0.318453  1
  Pr  Pr8  1  0.765567  0.234433  0.679952  1
  Pr  Pr9  1  0.232588  0.767412  0.681090  1
  Pr  Pr10  1  0.269997  0.268372  0.814606  1
  Pr  Pr11  1  0.731627  0.730002  0.814606  1
  Sc  Sc12  1  0.246074  0.753926  0.902621  1
  Mn  Mn13  1  0.751720  0.248280  0.103494  1
  Mn  Mn14  1  0.245530  0.754470  0.102217  1
  Mn  Mn15  1  0.253485  0.252388  0.399800  1
  Mn  Mn16  1  0.747612  0.746515  0.399800  1
  Mn  Mn17  1  0.252358  0.253036  0.598576  1
  Mn  Mn18  1  0.746964  0.747642  0.598576  1
  Mn  Mn19  1  0.753467  0.246533  0.897639  1
  O  O20  1  0.770713  0.229285  0.009684  1
  O  O21  1  0.229976  0.770022  0.998580  1
  O  O22  1  0.504189  0.495809  0.099841  1
  O  O23  1  0.501931  0.004443  0.110696  1
  O  O24  1  0.995557  0.498067  0.110696  1
  O  O25  1  0.994862  0.005138  0.121267  1
  O  O26  1  0.711151  0.288850  0.205381  1
  O  O27  1  0.299756  0.700245  0.209512  1
  O  O28  1  0.206030  0.204780  0.293227  1
  O  O29  1  0.795220  0.793970  0.293227  1
  O  O30  1  0.501465  0.498533  0.380988  1
  O  O31  1  0.500888  0.999842  0.390784  1
  O  O32  1  0.000158  0.499110  0.390784  1
  O  O33  1  0.999066  0.000934  0.401290  1
  O  O34  1  0.267599  0.267453  0.498739  1
  O  O35  1  0.732547  0.732401  0.498739  1
  O  O36  1  0.000856  0.999144  0.596730  1
  O  O37  1  0.499112  0.999835  0.607669  1
  O  O38  1  0.000165  0.500886  0.607669  1
  O  O39  1  0.498683  0.501315  0.617181  1
  O  O40  1  0.203076  0.203986  0.706124  1
  O  O41  1  0.796014  0.796924  0.706124  1
  O  O42  1  0.694103  0.305898  0.787538  1
  O  O43  1  0.295496  0.704505  0.792694  1
  O  O44  1  0.992123  0.007877  0.879236  1
  O  O45  1  0.509564  0.007213  0.889882  1
  O  O46  1  0.992787  0.490434  0.889882  1
  O  O47  1  0.509840  0.490158  0.902732  1
