# generated using pymatgen
data_Tb2Dy4Al24Os7Au
_symmetry_space_group_name_H-M   'P 1'
_cell_length_a   8.87412488
_cell_length_b   8.86804224
_cell_length_c   9.56256490
_cell_angle_alpha   89.80341858
_cell_angle_beta   90.18323440
_cell_angle_gamma   119.97403865
_symmetry_Int_Tables_number   1
_chemical_formula_structural   Tb2Dy4Al24Os7Au
_chemical_formula_sum   'Tb2 Dy4 Al24 Os7 Au1'
_cell_volume   651.88153072
_cell_formula_units_Z   1
loop_
 _symmetry_equiv_pos_site_id
 _symmetry_equiv_pos_as_xyz
  1  'x, y, z'
loop_
 _atom_site_type_symbol
 _atom_site_label
 _atom_site_symmetry_multiplicity
 _atom_site_fract_x
 _atom_site_fract_y
 _atom_site_fract_z
 _atom_site_occupancy
  Tb  Tb0  1  0.190267  0.385862  0.251091  1
  Tb  Tb1  1  0.809733  0.614138  0.748909  1
  Dy  Dy2  1  0.613848  0.809767  0.251237  1
  Dy  Dy3  1  0.386152  0.190233  0.748763  1
  Dy  Dy4  1  0.194282  0.805738  0.253738  1
  Dy  Dy5  1  0.805718  0.194262  0.746262  1
  Al  Al6  1  0.328645  0.671478  0.020928  1
  Al  Al7  1  0.671355  0.328522  0.979072  1
  Al  Al8  1  0.666301  0.333625  0.517309  1
  Al  Al9  1  0.333699  0.666375  0.482691  1
  Al  Al10  1  0.162652  0.325744  0.575468  1
  Al  Al11  1  0.837348  0.674256  0.424532  1
  Al  Al12  1  0.674294  0.837487  0.575349  1
  Al  Al13  1  0.848463  0.677675  0.079310  1
  Al  Al14  1  0.325706  0.162513  0.424651  1
  Al  Al15  1  0.151537  0.322325  0.920690  1
  Al  Al16  1  0.163236  0.836977  0.575136  1
  Al  Al17  1  0.322300  0.151455  0.079214  1
  Al  Al18  1  0.836764  0.163023  0.424864  1
  Al  Al19  1  0.677700  0.848545  0.920786  1
  Al  Al20  1  0.836729  0.163072  0.075441  1
  Al  Al21  1  0.163271  0.836928  0.924559  1
  Al  Al22  1  0.560790  0.121217  0.249171  1
  Al  Al23  1  0.439210  0.878783  0.750829  1
  Al  Al24  1  0.878585  0.439245  0.249185  1
  Al  Al25  1  0.121415  0.560755  0.750815  1
  Al  Al26  1  0.563798  0.436410  0.255739  1
  Al  Al27  1  0.436202  0.563590  0.744261  1
  Al  Al28  1  0.999300  0.000402  0.250359  1
  Al  Al29  1  0.000700  0.999598  0.749641  1
  Os  Os30  1  0.500000  0.000000  0.000000  1
  Os  Os31  1  0.000000  0.500000  0.000000  1
  Os  Os32  1  0.500000  0.000000  0.500000  1
  Os  Os33  1  0.000000  0.500000  0.500000  1
  Os  Os34  1  0.500000  0.500000  0.500000  1
  Os  Os35  1  0.000000  0.000000  0.000000  1
  Os  Os36  1  0.000000  0.000000  0.500000  1
  Au  Au37  1  0.500000  0.500000  0.000000  1
