# generated using pymatgen
data_Mg2Zn(MoO4)3
_symmetry_space_group_name_H-M   'P 1'
_cell_length_a   7.06598139
_cell_length_b   8.49411459
_cell_length_c   9.86542288
_cell_angle_alpha   96.41126177
_cell_angle_beta   106.87766539
_cell_angle_gamma   101.85308084
_symmetry_Int_Tables_number   1
_chemical_formula_structural   Mg2Zn(MoO4)3
_chemical_formula_sum   'Mg4 Zn2 Mo6 O24'
_cell_volume   545.17447349
_cell_formula_units_Z   2
loop_
 _symmetry_equiv_pos_site_id
 _symmetry_equiv_pos_as_xyz
  1  'x, y, z'
loop_
 _atom_site_type_symbol
 _atom_site_label
 _atom_site_symmetry_multiplicity
 _atom_site_fract_x
 _atom_site_fract_y
 _atom_site_fract_z
 _atom_site_occupancy
  Mg  Mg0  1  0.252313  0.695642  0.909701  1
  Mg  Mg1  1  0.747687  0.304358  0.090299  1
  Mg  Mg2  1  0.535768  0.695981  0.489135  1
  Mg  Mg3  1  0.464232  0.304019  0.510865  1
  Zn  Zn4  1  0.967681  0.884355  0.711709  1
  Zn  Zn5  1  0.032319  0.115645  0.288291  1
  Mo  Mo6  1  0.505058  0.988550  0.756663  1
  Mo  Mo7  1  0.494942  0.011450  0.243337  1
  Mo  Mo8  1  0.698505  0.602788  0.838150  1
  Mo  Mo9  1  0.301495  0.397212  0.161850  1
  Mo  Mo10  1  0.978942  0.706900  0.374545  1
  Mo  Mo11  1  0.021058  0.293100  0.625455  1
  O  O12  1  0.264605  0.866112  0.765973  1
  O  O13  1  0.735395  0.133888  0.234027  1
  O  O14  1  0.554500  0.708469  0.919188  1
  O  O15  1  0.445500  0.291531  0.080812  1
  O  O16  1  0.556529  0.522355  0.648301  1
  O  O17  1  0.443471  0.477645  0.351699  1
  O  O18  1  0.551692  0.867943  0.355349  1
  O  O19  1  0.448308  0.132057  0.644651  1
  O  O20  1  0.660111  0.098640  0.927805  1
  O  O21  1  0.339889  0.901360  0.072195  1
  O  O22  1  0.648302  0.862777  0.681818  1
  O  O23  1  0.351698  0.137223  0.318182  1
  O  O24  1  0.022808  0.121397  0.716506  1
  O  O25  1  0.977192  0.878603  0.283494  1
  O  O26  1  0.048207  0.269132  0.143295  1
  O  O27  1  0.951793  0.730868  0.856705  1
  O  O28  1  0.146913  0.477405  0.752459  1
  O  O29  1  0.853087  0.522595  0.247541  1
  O  O30  1  0.145192  0.269329  0.485941  1
  O  O31  1  0.854808  0.730671  0.514059  1
  O  O32  1  0.256909  0.559853  0.071235  1
  O  O33  1  0.743091  0.440147  0.928765  1
  O  O34  1  0.237003  0.706412  0.460760  1
  O  O35  1  0.762997  0.293588  0.539240  1
