# generated using pymatgen
data_Tm6Mn15Co2P12W
_symmetry_space_group_name_H-M   'P 1'
_cell_length_a   3.62210200
_cell_length_b   10.82514800
_cell_length_c   12.60564100
_cell_angle_alpha   90.00000000
_cell_angle_beta   90.00000000
_cell_angle_gamma   90.00000000
_symmetry_Int_Tables_number   1
_chemical_formula_structural   Tm6Mn15Co2P12W
_chemical_formula_sum   'Tm6 Mn15 Co2 P12 W1'
_cell_volume   494.26453921
_cell_formula_units_Z   1
loop_
 _symmetry_equiv_pos_site_id
 _symmetry_equiv_pos_as_xyz
  1  'x, y, z'
loop_
 _atom_site_type_symbol
 _atom_site_label
 _atom_site_symmetry_multiplicity
 _atom_site_fract_x
 _atom_site_fract_y
 _atom_site_fract_z
 _atom_site_occupancy
  Tm  Tm0  1  0.000000  0.500000  0.532995  1
  Tm  Tm1  1  0.500000  0.000000  0.468281  1
  Tm  Tm2  1  0.500000  0.822950  0.206982  1
  Tm  Tm3  1  0.500000  0.177050  0.206982  1
  Tm  Tm4  1  0.000000  0.677257  0.793655  1
  Tm  Tm5  1  0.000000  0.322743  0.793655  1
  Mn  Mn6  1  0.000000  0.000000  0.834619  1
  Mn  Mn7  1  0.000000  0.500000  0.990507  1
  Mn  Mn8  1  0.500000  0.000000  0.007639  1
  Mn  Mn9  1  0.500000  0.331927  0.995009  1
  Mn  Mn10  1  0.500000  0.668073  0.995009  1
  Mn  Mn11  1  0.000000  0.166338  0.002313  1
  Mn  Mn12  1  0.000000  0.833662  0.002313  1
  Mn  Mn13  1  0.500000  0.296481  0.434370  1
  Mn  Mn14  1  0.500000  0.703519  0.434370  1
  Mn  Mn15  1  0.000000  0.201417  0.568073  1
  Mn  Mn16  1  0.000000  0.798583  0.568073  1
  Mn  Mn17  1  0.500000  0.880780  0.702034  1
  Mn  Mn18  1  0.500000  0.119220  0.702034  1
  Mn  Mn19  1  0.000000  0.621957  0.299892  1
  Mn  Mn20  1  0.000000  0.378043  0.299892  1
  Co  Co21  1  0.500000  0.500000  0.704337  1
  Co  Co22  1  0.000000  0.000000  0.294800  1
  P  P23  1  0.500000  0.500000  0.877424  1
  P  P24  1  0.000000  0.000000  0.120402  1
  P  P25  1  0.500000  0.500000  0.363109  1
  P  P26  1  0.000000  0.000000  0.640201  1
  P  P27  1  0.500000  0.319023  0.619612  1
  P  P28  1  0.500000  0.680977  0.619612  1
  P  P29  1  0.000000  0.179739  0.381859  1
  P  P30  1  0.000000  0.820261  0.381859  1
  P  P31  1  0.500000  0.844993  0.883214  1
  P  P32  1  0.500000  0.155007  0.883214  1
  P  P33  1  0.000000  0.659404  0.113962  1
  P  P34  1  0.000000  0.340596  0.113962  1
  W  W35  1  0.500000  0.500000  0.163737  1
