# generated using pymatgen
data_Be8Pd4Rh3Au
_symmetry_space_group_name_H-M   'P 1'
_cell_length_a   5.66129200
_cell_length_b   3.99469800
_cell_length_c   7.98097300
_cell_angle_alpha   90.00000000
_cell_angle_beta   89.99780564
_cell_angle_gamma   90.00000000
_symmetry_Int_Tables_number   1
_chemical_formula_structural   Be8Pd4Rh3Au
_chemical_formula_sum   'Be8 Pd4 Rh3 Au1'
_cell_volume   180.49091608
_cell_formula_units_Z   1
loop_
 _symmetry_equiv_pos_site_id
 _symmetry_equiv_pos_as_xyz
  1  'x, y, z'
loop_
 _atom_site_type_symbol
 _atom_site_label
 _atom_site_symmetry_multiplicity
 _atom_site_fract_x
 _atom_site_fract_y
 _atom_site_fract_z
 _atom_site_occupancy
  Be  Be0  1  0.522422  0.749999  0.124987  1
  Be  Be1  1  0.977539  0.749999  0.124994  1
  Be  Be2  1  0.510417  0.250000  0.384450  1
  Be  Be3  1  0.989550  0.250000  0.384460  1
  Be  Be4  1  0.000822  0.749999  0.624991  1
  Be  Be5  1  0.499131  0.749999  0.624992  1
  Be  Be6  1  0.989562  0.250000  0.865556  1
  Be  Be7  1  0.510404  0.250000  0.865560  1
  Pd  Pd8  1  0.749988  0.250000  0.125007  1
  Pd  Pd9  1  0.250010  0.749999  0.372610  1
  Pd  Pd10  1  0.749977  0.250000  0.624998  1
  Pd  Pd11  1  0.250014  0.749999  0.877388  1
  Rh  Rh12  1  0.750061  0.749999  0.375283  1
  Rh  Rh13  1  0.250010  0.250000  0.625000  1
  Rh  Rh14  1  0.750068  0.749999  0.874718  1
  Au  Au15  1  0.250025  0.250000  0.125005  1
