# generated using pymatgen
data_LuZr2TiPt12
_symmetry_space_group_name_H-M   'P 1'
_cell_length_a   5.72094200
_cell_length_b   5.72094191
_cell_length_c   9.31118500
_cell_angle_alpha   90.00000000
_cell_angle_beta   90.00000000
_cell_angle_gamma   120.00000053
_symmetry_Int_Tables_number   1
_chemical_formula_structural   LuZr2TiPt12
_chemical_formula_sum   'Lu1 Zr2 Ti1 Pt12'
_cell_volume   263.91900648
_cell_formula_units_Z   1
loop_
 _symmetry_equiv_pos_site_id
 _symmetry_equiv_pos_as_xyz
  1  'x, y, z'
loop_
 _atom_site_type_symbol
 _atom_site_label
 _atom_site_symmetry_multiplicity
 _atom_site_fract_x
 _atom_site_fract_y
 _atom_site_fract_z
 _atom_site_occupancy
  Lu  Lu0  1  0.333333  0.666667  0.250000  1
  Zr  Zr1  1  0.000000  0.000000  0.498180  1
  Zr  Zr2  1  0.000000  0.000000  0.001820  1
  Ti  Ti3  1  0.666667  0.333333  0.750000  1
  Pt  Pt4  1  0.502926  0.497074  0.506844  1
  Pt  Pt5  1  0.502926  0.005850  0.506844  1
  Pt  Pt6  1  0.994150  0.497074  0.506844  1
  Pt  Pt7  1  0.502926  0.497074  0.993156  1
  Pt  Pt8  1  0.502926  0.005850  0.993156  1
  Pt  Pt9  1  0.994150  0.497074  0.993156  1
  Pt  Pt10  1  0.829436  0.658872  0.250000  1
  Pt  Pt11  1  0.341128  0.170564  0.250000  1
  Pt  Pt12  1  0.829436  0.170564  0.250000  1
  Pt  Pt13  1  0.168803  0.337605  0.750000  1
  Pt  Pt14  1  0.662395  0.831197  0.750000  1
  Pt  Pt15  1  0.168803  0.831197  0.750000  1
