# generated using pymatgen
data_Ho6Er10In4Ir3Pd
_symmetry_space_group_name_H-M   'P 1'
_cell_length_a   9.62415508
_cell_length_b   9.63547854
_cell_length_c   9.63173900
_cell_angle_alpha   60.01283403
_cell_angle_beta   59.97392601
_cell_angle_gamma   59.98908209
_symmetry_Int_Tables_number   1
_chemical_formula_structural   Ho6Er10In4Ir3Pd
_chemical_formula_sum   'Ho6 Er10 In4 Ir3 Pd1'
_cell_volume   631.46052337
_cell_formula_units_Z   1
loop_
 _symmetry_equiv_pos_site_id
 _symmetry_equiv_pos_as_xyz
  1  'x, y, z'
loop_
 _atom_site_type_symbol
 _atom_site_label
 _atom_site_symmetry_multiplicity
 _atom_site_fract_x
 _atom_site_fract_y
 _atom_site_fract_z
 _atom_site_occupancy
  Ho  Ho0  1  0.047042  0.650377  0.651291  1
  Ho  Ho1  1  0.440796  0.061701  0.061322  1
  Ho  Ho2  1  0.060867  0.060024  0.439555  1
  Ho  Ho3  1  0.653621  0.050779  0.647801  1
  Ho  Ho4  1  0.810519  0.809598  0.189942  1
  Ho  Ho5  1  0.440796  0.061701  0.436181  1
  Er  Er6  1  0.440948  0.435952  0.061551  1
  Er  Er7  1  0.654392  0.647471  0.049643  1
  Er  Er8  1  0.186023  0.809611  0.194736  1
  Er  Er9  1  0.060961  0.439467  0.059831  1
  Er  Er10  1  0.186023  0.809611  0.809629  1
  Er  Er11  1  0.060961  0.439467  0.439742  1
  Er  Er12  1  0.810414  0.190461  0.189479  1
  Er  Er13  1  0.654392  0.647471  0.648496  1
  Er  Er14  1  0.810414  0.190461  0.809647  1
  Er  Er15  1  0.185420  0.195135  0.809722  1
  In  In16  1  0.416554  0.416905  0.416622  1
  In  In17  1  0.416554  0.416905  0.749921  1
  In  In18  1  0.416693  0.749219  0.417045  1
  In  In19  1  0.749632  0.416840  0.416765  1
  Ir  Ir20  1  0.857220  0.858661  0.858801  1
  Ir  Ir21  1  0.856832  0.425627  0.858769  1
  Ir  Ir22  1  0.857220  0.858661  0.425317  1
  Pd  Pd23  1  0.425711  0.857897  0.858195  1
