# generated using pymatgen
data_KMg(AgTe2)4
_symmetry_space_group_name_H-M   'P 1'
_cell_length_a   12.15276698
_cell_length_b   12.15276680
_cell_length_c   10.79257194
_cell_angle_alpha   90.43658124
_cell_angle_beta   90.43658173
_cell_angle_gamma   14.63823228
_symmetry_Int_Tables_number   1
_chemical_formula_structural   KMg(AgTe2)4
_chemical_formula_sum   'K1 Mg1 Ag4 Te8'
_cell_volume   402.80379232
_cell_formula_units_Z   1
loop_
 _symmetry_equiv_pos_site_id
 _symmetry_equiv_pos_as_xyz
  1  'x, y, z'
loop_
 _atom_site_type_symbol
 _atom_site_label
 _atom_site_symmetry_multiplicity
 _atom_site_fract_x
 _atom_site_fract_y
 _atom_site_fract_z
 _atom_site_occupancy
  K  K0  1  0.000000  0.000000  0.000000  1
  Mg  Mg1  1  0.500000  0.500000  0.500000  1
  Ag  Ag2  1  0.240062  0.240062  0.115341  1
  Ag  Ag3  1  0.840332  0.840332  0.466528  1
  Ag  Ag4  1  0.159668  0.159668  0.533472  1
  Ag  Ag5  1  0.759938  0.759938  0.884659  1
  Te  Te6  1  0.925430  0.925430  0.651246  1
  Te  Te7  1  0.074570  0.074570  0.348754  1
  Te  Te8  1  0.584114  0.584114  0.722067  1
  Te  Te9  1  0.415886  0.415886  0.277933  1
  Te  Te10  1  0.645913  0.645913  0.982031  1
  Te  Te11  1  0.354087  0.354087  0.017969  1
  Te  Te12  1  0.737568  0.737568  0.340178  1
  Te  Te13  1  0.262432  0.262432  0.659822  1
