# generated using pymatgen
data_RhAuSe4
_symmetry_space_group_name_H-M   'P 1'
_cell_length_a   3.77456900
_cell_length_b   4.92583531
_cell_length_c   7.25956678
_cell_angle_alpha   88.25940503
_cell_angle_beta   90.00000000
_cell_angle_gamma   90.00000000
_symmetry_Int_Tables_number   1
_chemical_formula_structural   RhAuSe4
_chemical_formula_sum   'Rh1 Au1 Se4'
_cell_volume   134.91415793
_cell_formula_units_Z   1
loop_
 _symmetry_equiv_pos_site_id
 _symmetry_equiv_pos_as_xyz
  1  'x, y, z'
loop_
 _atom_site_type_symbol
 _atom_site_label
 _atom_site_symmetry_multiplicity
 _atom_site_fract_x
 _atom_site_fract_y
 _atom_site_fract_z
 _atom_site_occupancy
  Rh  Rh0  1  0.500000  0.000000  0.500000  1
  Au  Au1  1  0.000000  0.000000  0.000000  1
  Se  Se2  1  0.500000  0.211422  0.181802  1
  Se  Se3  1  0.000000  0.298476  0.603995  1
  Se  Se4  1  0.500000  0.788578  0.818198  1
  Se  Se5  1  0.000000  0.701524  0.396005  1
