# generated using pymatgen
data_Er4Lu3Co4Tc2Sn23
_symmetry_space_group_name_H-M   'P 1'
_cell_length_a   9.70975402
_cell_length_b   9.71198675
_cell_length_c   9.97051413
_cell_angle_alpha   89.79153488
_cell_angle_beta   90.20559786
_cell_angle_gamma   119.45335034
_symmetry_Int_Tables_number   1
_chemical_formula_structural   Er4Lu3Co4Tc2Sn23
_chemical_formula_sum   'Er4 Lu3 Co4 Tc2 Sn23'
_cell_volume   818.70360546
_cell_formula_units_Z   1
loop_
 _symmetry_equiv_pos_site_id
 _symmetry_equiv_pos_as_xyz
  1  'x, y, z'
loop_
 _atom_site_type_symbol
 _atom_site_label
 _atom_site_symmetry_multiplicity
 _atom_site_fract_x
 _atom_site_fract_y
 _atom_site_fract_z
 _atom_site_occupancy
  Er  Er0  1  0.515932  0.037680  0.694463  1
  Er  Er1  1  0.037597  0.515759  0.305459  1
  Er  Er2  1  0.962345  0.484025  0.694560  1
  Er  Er3  1  0.000001  0.999969  0.000004  1
  Lu  Lu4  1  0.481953  0.517873  0.307348  1
  Lu  Lu5  1  0.517883  0.481970  0.692677  1
  Lu  Lu6  1  0.484563  0.962950  0.305376  1
  Co  Co7  1  0.829406  0.658105  0.198649  1
  Co  Co8  1  0.170585  0.341955  0.801378  1
  Co  Co9  1  0.342067  0.170387  0.198706  1
  Co  Co10  1  0.658074  0.829403  0.801343  1
  Tc  Tc11  1  0.835338  0.163897  0.203498  1
  Tc  Tc12  1  0.164170  0.835822  0.796614  1
  Sn  Sn13  1  0.118305  0.881903  0.272131  1
  Sn  Sn14  1  0.881847  0.118144  0.727909  1
  Sn  Sn15  1  0.130779  0.240579  0.270307  1
  Sn  Sn16  1  0.869268  0.759487  0.729635  1
  Sn  Sn17  1  0.759277  0.869269  0.270382  1
  Sn  Sn18  1  0.240599  0.130780  0.729713  1
  Sn  Sn19  1  0.779450  0.220052  0.461178  1
  Sn  Sn20  1  0.220448  0.779844  0.538589  1
  Sn  Sn21  1  0.781444  0.563147  0.453985  1
  Sn  Sn22  1  0.218524  0.436834  0.546004  1
  Sn  Sn23  1  0.436865  0.218293  0.453863  1
  Sn  Sn24  1  0.563185  0.781611  0.545842  1
  Sn  Sn25  1  0.347629  0.001303  0.003931  1
  Sn  Sn26  1  0.652365  0.998687  0.996124  1
  Sn  Sn27  1  0.001287  0.347595  0.996110  1
  Sn  Sn28  1  0.998688  0.652387  0.003898  1
  Sn  Sn29  1  0.651384  0.651393  0.000019  1
  Sn  Sn30  1  0.348608  0.348600  0.000013  1
  Sn  Sn31  1  0.333828  0.666779  0.123659  1
  Sn  Sn32  1  0.666404  0.333644  0.876581  1
  Sn  Sn33  1  0.333087  0.666903  0.817932  1
  Sn  Sn34  1  0.666837  0.333000  0.182118  1
  Sn  Sn35  1  0.999977  0.999971  0.500000  1
