# generated using pymatgen
data_In3Bi3(SbO7)2
_symmetry_space_group_name_H-M   'P 1'
_cell_length_a   6.46866481
_cell_length_b   6.53485196
_cell_length_c   7.58402453
_cell_angle_alpha   107.12922575
_cell_angle_beta   89.68578696
_cell_angle_gamma   99.01387820
_symmetry_Int_Tables_number   1
_chemical_formula_structural   In3Bi3(SbO7)2
_chemical_formula_sum   'In3 Bi3 Sb2 O14'
_cell_volume   302.30522009
_cell_formula_units_Z   1
loop_
 _symmetry_equiv_pos_site_id
 _symmetry_equiv_pos_as_xyz
  1  'x, y, z'
loop_
 _atom_site_type_symbol
 _atom_site_label
 _atom_site_symmetry_multiplicity
 _atom_site_fract_x
 _atom_site_fract_y
 _atom_site_fract_z
 _atom_site_occupancy
  In  In0  1  0.532168  0.992278  0.750578  1
  In  In1  1  0.465773  0.000767  0.248906  1
  In  In2  1  0.259121  0.530324  0.884504  1
  Bi  Bi3  1  0.742255  0.467587  0.110824  1
  Bi  Bi4  1  0.731486  0.465095  0.615762  1
  Bi  Bi5  1  0.251280  0.525162  0.384505  1
  Sb  Sb6  1  0.003839  0.006420  0.503116  1
  Sb  Sb7  1  0.006958  0.000766  0.999137  1
  O  O8  1  0.435710  0.657771  0.156678  1
  O  O9  1  0.540363  0.333443  0.821990  1
  O  O10  1  0.300370  0.945765  0.957569  1
  O  O11  1  0.711646  0.049821  0.048313  1
  O  O12  1  0.293078  0.928078  0.512037  1
  O  O13  1  0.711065  0.073619  0.487424  1
  O  O14  1  0.527124  0.344645  0.343907  1
  O  O15  1  0.454380  0.649097  0.672470  1
  O  O16  1  0.945555  0.674326  0.948767  1
  O  O17  1  0.082524  0.325059  0.043396  1
  O  O18  1  0.095409  0.327162  0.623717  1
  O  O19  1  0.907561  0.689234  0.382024  1
  O  O20  1  0.900705  0.944684  0.736279  1
  O  O21  1  0.101629  0.068899  0.268098  1
