# generated using pymatgen
data_Dy6Ho7Tm3Cd3AgPt4
_symmetry_space_group_name_H-M   'P 1'
_cell_length_a   9.64776753
_cell_length_b   9.64623727
_cell_length_c   9.63869100
_cell_angle_alpha   60.03636873
_cell_angle_beta   59.99338756
_cell_angle_gamma   59.94301165
_symmetry_Int_Tables_number   1
_chemical_formula_structural   Dy6Ho7Tm3Cd3AgPt4
_chemical_formula_sum   'Dy6 Ho7 Tm3 Cd3 Ag1 Pt4'
_cell_volume   634.15855827
_cell_formula_units_Z   1
loop_
 _symmetry_equiv_pos_site_id
 _symmetry_equiv_pos_as_xyz
  1  'x, y, z'
loop_
 _atom_site_type_symbol
 _atom_site_label
 _atom_site_symmetry_multiplicity
 _atom_site_fract_x
 _atom_site_fract_y
 _atom_site_fract_z
 _atom_site_occupancy
  Dy  Dy0  1  0.933934  0.563660  0.563782  1
  Dy  Dy1  1  0.564020  0.935740  0.935929  1
  Dy  Dy2  1  0.564604  0.933341  0.564706  1
  Dy  Dy3  1  0.936711  0.562950  0.936745  1
  Dy  Dy4  1  0.563847  0.563724  0.934101  1
  Dy  Dy5  1  0.936047  0.935541  0.564050  1
  Ho  Ho6  1  0.352171  0.349862  0.352633  1
  Ho  Ho7  1  0.355025  0.352759  0.939246  1
  Ho  Ho8  1  0.352758  0.944476  0.352211  1
  Ho  Ho9  1  0.939192  0.353064  0.355140  1
  Ho  Ho10  1  0.811530  0.189612  0.188412  1
  Ho  Ho11  1  0.188653  0.810441  0.811456  1
  Ho  Ho12  1  0.189705  0.810549  0.189758  1
  Tm  Tm13  1  0.811420  0.188638  0.811374  1
  Tm  Tm14  1  0.188987  0.190174  0.810838  1
  Tm  Tm15  1  0.810776  0.809907  0.189221  1
  Cd  Cd16  1  0.581271  0.582638  0.255352  1
  Cd  Cd17  1  0.581344  0.256089  0.581569  1
  Cd  Cd18  1  0.255387  0.582357  0.581228  1
  Ag  Ag19  1  0.583208  0.583573  0.582819  1
  Pt  Pt20  1  0.143943  0.144842  0.142089  1
  Pt  Pt21  1  0.141431  0.144247  0.572048  1
  Pt  Pt22  1  0.141998  0.569263  0.143875  1
  Pt  Pt23  1  0.572043  0.142551  0.141420  1
