# generated using pymatgen
data_Sc2Nb4ReSi6Tc5
_symmetry_space_group_name_H-M   'P 1'
_cell_length_a   7.65033007
_cell_length_b   7.65117251
_cell_length_c   7.65438444
_cell_angle_alpha   126.18141371
_cell_angle_beta   128.11579600
_cell_angle_gamma   78.04769555
_symmetry_Int_Tables_number   1
_chemical_formula_structural   Sc2Nb4ReSi6Tc5
_chemical_formula_sum   'Sc2 Nb4 Re1 Si6 Tc5'
_cell_volume   275.65773563
_cell_formula_units_Z   1
loop_
 _symmetry_equiv_pos_site_id
 _symmetry_equiv_pos_as_xyz
  1  'x, y, z'
loop_
 _atom_site_type_symbol
 _atom_site_label
 _atom_site_symmetry_multiplicity
 _atom_site_fract_x
 _atom_site_fract_y
 _atom_site_fract_z
 _atom_site_occupancy
  Sc  Sc0  1  0.549421  0.092381  0.043929  1
  Sc  Sc1  1  0.451924  0.493774  0.543472  1
  Nb  Nb2  1  0.951766  0.494628  0.045107  1
  Nb  Nb3  1  0.050654  0.095875  0.546464  1
  Nb  Nb4  1  0.749201  0.899598  0.650505  1
  Nb  Nb5  1  0.250952  0.900437  0.151677  1
  Re  Re6  1  0.363378  0.499121  0.116611  1
  Si  Si7  1  0.747718  0.495581  0.247405  1
  Si  Si8  1  0.251566  0.501648  0.745803  1
  Si  Si9  1  0.332163  0.829794  0.494893  1
  Si  Si10  1  0.669077  0.161601  0.498840  1
  Si  Si11  1  0.836878  0.829730  0.999322  1
  Si  Si12  1  0.164623  0.161191  0.994121  1
  Tc  Tc13  1  0.499010  0.240927  0.740613  1
  Tc  Tc14  1  0.999107  0.241201  0.240430  1
  Tc  Tc15  1  0.118096  0.753115  0.616685  1
  Tc  Tc16  1  0.879776  0.498668  0.632534  1
  Tc  Tc17  1  0.634690  0.752929  0.133790  1
