# generated using pymatgen
data_PrCd3P7N12
_symmetry_space_group_name_H-M   'P 1'
_cell_length_a   7.48491427
_cell_length_b   7.49758975
_cell_length_c   7.49759034
_cell_angle_alpha   109.50543820
_cell_angle_beta   109.43697387
_cell_angle_gamma   109.43698112
_symmetry_Int_Tables_number   1
_chemical_formula_structural   PrCd3P7N12
_chemical_formula_sum   'Pr1 Cd3 P7 N12'
_cell_volume   324.03483549
_cell_formula_units_Z   1
loop_
 _symmetry_equiv_pos_site_id
 _symmetry_equiv_pos_as_xyz
  1  'x, y, z'
loop_
 _atom_site_type_symbol
 _atom_site_label
 _atom_site_symmetry_multiplicity
 _atom_site_fract_x
 _atom_site_fract_y
 _atom_site_fract_z
 _atom_site_occupancy
  Pr  Pr0  1  0.655222  0.000000  0.000000  1
  Cd  Cd1  1  0.998590  0.000000  0.664881  1
  Cd  Cd2  1  0.998590  0.664881  0.000000  1
  Cd  Cd3  1  0.333709  0.335119  0.335119  1
  P  P4  1  0.245719  0.749089  0.495419  1
  P  P5  1  0.750301  0.253671  0.504581  1
  P  P6  1  0.750301  0.504581  0.253671  1
  P  P7  1  0.245719  0.495419  0.749089  1
  P  P8  1  0.496630  0.746329  0.250911  1
  P  P9  1  0.496630  0.250911  0.746329  1
  P  P10  1  0.026078  0.000000  0.000000  1
  N  N11  1  0.716858  0.301907  0.301907  1
  N  N12  1  0.285982  0.703428  0.287158  1
  N  N13  1  0.304727  0.596577  0.596577  1
  N  N14  1  0.582554  0.583729  0.296572  1
  N  N15  1  0.414951  0.698093  0.000000  1
  N  N16  1  0.998825  0.712842  0.416271  1
  N  N17  1  0.582554  0.296572  0.583729  1
  N  N18  1  0.708150  0.000000  0.403423  1
  N  N19  1  0.414951  0.000000  0.698093  1
  N  N20  1  0.708150  0.403423  0.000000  1
  N  N21  1  0.285982  0.287158  0.703428  1
  N  N22  1  0.998825  0.416271  0.712842  1
