# generated using pymatgen
data_Ba14HgBi11
_symmetry_space_group_name_H-M   'P 1'
_cell_length_a   18.29122655
_cell_length_b   18.29122711
_cell_length_c   18.29122700
_cell_angle_alpha   117.53088405
_cell_angle_beta   117.53088497
_cell_angle_gamma   94.33263014
_symmetry_Int_Tables_number   1
_chemical_formula_structural   Ba14HgBi11
_chemical_formula_sum   'Ba56 Hg4 Bi44'
_cell_volume   4474.91995289
_cell_formula_units_Z   4
loop_
 _symmetry_equiv_pos_site_id
 _symmetry_equiv_pos_as_xyz
  1  'x, y, z'
loop_
 _atom_site_type_symbol
 _atom_site_label
 _atom_site_symmetry_multiplicity
 _atom_site_fract_x
 _atom_site_fract_y
 _atom_site_fract_z
 _atom_site_occupancy
  Ba  Ba0  1  0.499433  0.602176  0.852592  1
  Ba  Ba1  1  0.624999  0.228335  0.103335  1
  Ba  Ba2  1  0.160098  0.027079  0.780388  1
  Ba  Ba3  1  0.897886  0.376432  0.837451  1
  Ba  Ba4  1  0.125001  0.021665  0.396665  1
  Ba  Ba5  1  0.771664  0.875000  0.396664  1
  Ba  Ba6  1  0.129709  0.410097  0.633019  1
  Ba  Ba7  1  0.749585  0.646841  0.147409  1
  Ba  Ba8  1  0.711019  0.373568  0.021454  1
  Ba  Ba9  1  0.439563  0.961018  0.837449  1
  Ba  Ba10  1  0.310437  0.288982  0.662551  1
  Ba  Ba11  1  0.038981  0.876432  0.478546  1
  Ba  Ba12  1  0.500416  0.147824  0.397257  1
  Ba  Ba13  1  0.352175  0.999584  0.602744  1
  Ba  Ba14  1  0.124999  0.521665  0.896664  1
  Ba  Ba15  1  0.000415  0.603159  0.352591  1
  Ba  Ba16  1  0.939563  0.102115  0.478545  1
  Ba  Ba17  1  0.626431  0.647885  0.337449  1
  Ba  Ba18  1  0.897825  0.000569  0.147410  1
  Ba  Ba19  1  0.352114  0.689563  0.978545  1
  Ba  Ba20  1  0.123569  0.602115  0.162551  1
  Ba  Ba21  1  0.999432  0.146841  0.897256  1
  Ba  Ba22  1  0.660098  0.879710  0.133019  1
  Ba  Ba23  1  0.503309  0.870290  0.280388  1
  Ba  Ba24  1  0.852114  0.873568  0.662549  1
  Ba  Ba25  1  0.211018  0.189563  0.337449  1
  Ba  Ba26  1  0.003310  0.722921  0.633020  1
  Ba  Ba27  1  0.746690  0.527079  0.866980  1
  Ba  Ba28  1  0.249584  0.102176  0.102743  1
  Ba  Ba29  1  0.246691  0.379710  0.219612  1
  Ba  Ba30  1  0.353159  0.500569  0.102743  1
  Ba  Ba31  1  0.250567  0.647824  0.647408  1
  Ba  Ba32  1  0.750568  0.103159  0.602744  1
  Ba  Ba33  1  0.625001  0.728335  0.603336  1
  Ba  Ba34  1  0.896840  0.499584  0.647409  1
  Ba  Ba35  1  0.853160  0.750416  0.852591  1
  Ba  Ba36  1  0.620291  0.839903  0.866981  1
  Ba  Ba37  1  0.277079  0.910097  0.280388  1
  Ba  Ba38  1  0.852175  0.249431  0.352590  1
  Ba  Ba39  1  0.126431  0.788982  0.978545  1
  Ba  Ba40  1  0.777079  0.496691  0.366981  1
  Ba  Ba41  1  0.972921  0.753309  0.133019  1
  Ba  Ba42  1  0.120290  0.253309  0.780387  1
  Ba  Ba43  1  0.589902  0.222921  0.719612  1
  Ba  Ba44  1  0.623569  0.461018  0.521455  1
  Ba  Ba45  1  0.978336  0.375000  0.103336  1
  Ba  Ba46  1  0.538982  0.060437  0.162551  1
  Ba  Ba47  1  0.397825  0.250416  0.897256  1
  Ba  Ba48  1  0.396841  0.749431  0.397257  1
  Ba  Ba49  1  0.478335  0.375000  0.603335  1
  Ba  Ba50  1  0.089902  0.370290  0.366981  1
  Ba  Ba51  1  0.810437  0.147885  0.021455  1
  Ba  Ba52  1  0.271665  0.875000  0.896665  1
  Ba  Ba53  1  0.472921  0.339903  0.219612  1
  Ba  Ba54  1  0.397886  0.560437  0.521455  1
  Ba  Ba55  1  0.629710  0.996691  0.719613  1
  Hg  Hg56  1  0.250000  0.750000  0.500000  1
  Hg  Hg57  1  0.750000  0.250000  0.500000  1
  Hg  Hg58  1  0.000000  0.000000  0.000000  1
  Hg  Hg59  1  0.500000  0.500000  0.000000  1
  Bi  Bi60  1  0.868432  0.368432  0.236864  1
  Bi  Bi61  1  0.289854  0.698035  0.144470  1
  Bi  Bi62  1  0.881568  0.881568  0.263136  1
  Bi  Bi63  1  0.553566  0.145383  0.855530  1
  Bi  Bi64  1  0.948036  0.039853  0.644470  1
  Bi  Bi65  1  0.368432  0.131567  0.500000  1
  Bi  Bi66  1  0.460146  0.551965  0.355530  1
  Bi  Bi67  1  0.354617  0.946435  0.144470  1
  Bi  Bi68  1  0.057892  0.202252  0.135941  1
  Bi  Bi69  1  0.053565  0.198035  0.408181  1
  Bi  Bi70  1  0.500000  0.000000  0.500000  1
  Bi  Bi71  1  0.196434  0.104617  0.644470  1
  Bi  Bi72  1  0.797745  0.933687  0.855639  1
  Bi  Bi73  1  0.683687  0.328048  0.635942  1
  Bi  Bi74  1  0.452254  0.807893  0.635942  1
  Bi  Bi75  1  0.171951  0.816313  0.364057  1
  Bi  Bi76  1  0.566312  0.702252  0.144360  1
  Bi  Bi77  1  0.671951  0.307893  0.355639  1
  Bi  Bi78  1  0.078049  0.942107  0.144361  1
  Bi  Bi79  1  0.750000  0.750000  0.000000  1
  Bi  Bi80  1  0.557895  0.421952  0.855640  1
  Bi  Bi81  1  0.381568  0.118433  0.000000  1
  Bi  Bi82  1  0.066313  0.921952  0.864058  1
  Bi  Bi83  1  0.000000  0.500000  0.500000  1
  Bi  Bi84  1  0.297746  0.442107  0.864058  1
  Bi  Bi85  1  0.801964  0.210147  0.855530  1
  Bi  Bi86  1  0.250000  0.250000  0.000000  1
  Bi  Bi87  1  0.395383  0.303565  0.355530  1
  Bi  Bi88  1  0.301964  0.446435  0.591818  1
  Bi  Bi89  1  0.696435  0.051965  0.091819  1
  Bi  Bi90  1  0.789853  0.645383  0.591817  1
  Bi  Bi91  1  0.192105  0.828048  0.644360  1
  Bi  Bi92  1  0.960147  0.604617  0.908183  1
  Bi  Bi93  1  0.118432  0.381568  0.000000  1
  Bi  Bi94  1  0.952255  0.316313  0.644361  1
  Bi  Bi95  1  0.631568  0.868432  0.500000  1
  Bi  Bi96  1  0.692108  0.047748  0.364059  1
  Bi  Bi97  1  0.578049  0.433687  0.135943  1
  Bi  Bi98  1  0.854616  0.710147  0.408183  1
  Bi  Bi99  1  0.895384  0.539853  0.091817  1
  Bi  Bi100  1  0.448036  0.803565  0.908182  1
  Bi  Bi101  1  0.131568  0.631567  0.763136  1
  Bi  Bi102  1  0.618432  0.618433  0.736864  1
  Bi  Bi103  1  0.183688  0.547748  0.355640  1
