# generated using pymatgen
data_LiY3Al2Si2Pd
_symmetry_space_group_name_H-M   'P 1'
_cell_length_a   6.99446100
_cell_length_b   6.88862915
_cell_length_c   4.29492100
_cell_angle_alpha   90.00000000
_cell_angle_beta   90.00000000
_cell_angle_gamma   120.50953234
_symmetry_Int_Tables_number   1
_chemical_formula_structural   LiY3Al2Si2Pd
_chemical_formula_sum   'Li1 Y3 Al2 Si2 Pd1'
_cell_volume   178.28715625
_cell_formula_units_Z   1
loop_
 _symmetry_equiv_pos_site_id
 _symmetry_equiv_pos_as_xyz
  1  'x, y, z'
loop_
 _atom_site_type_symbol
 _atom_site_label
 _atom_site_symmetry_multiplicity
 _atom_site_fract_x
 _atom_site_fract_y
 _atom_site_fract_z
 _atom_site_occupancy
  Li  Li0  1  0.759804  0.000000  0.500000  1
  Y  Y1  1  0.423893  0.000000  0.000000  1
  Y  Y2  1  0.995314  0.415422  0.000000  1
  Y  Y3  1  0.579891  0.584577  0.000000  1
  Al  Al4  1  0.233708  0.235433  0.500000  1
  Al  Al5  1  0.998277  0.764569  0.500000  1
  Si  Si6  1  0.664161  0.339498  0.500000  1
  Si  Si7  1  0.324665  0.660503  0.500000  1
  Pd  Pd8  1  0.020288  0.000000  0.000000  1
