# generated using pymatgen
data_Ba14NdBi11
_symmetry_space_group_name_H-M   'P 1'
_cell_length_a   18.69209710
_cell_length_b   18.69209659
_cell_length_c   18.69209700
_cell_angle_alpha   117.45216392
_cell_angle_beta   117.45216311
_cell_angle_gamma   94.47270914
_symmetry_Int_Tables_number   1
_chemical_formula_structural   Ba14NdBi11
_chemical_formula_sum   'Ba56 Nd4 Bi44'
_cell_volume   4780.14041685
_cell_formula_units_Z   4
loop_
 _symmetry_equiv_pos_site_id
 _symmetry_equiv_pos_as_xyz
  1  'x, y, z'
loop_
 _atom_site_type_symbol
 _atom_site_label
 _atom_site_symmetry_multiplicity
 _atom_site_fract_x
 _atom_site_fract_y
 _atom_site_fract_z
 _atom_site_occupancy
  Ba  Ba0  1  0.591565  0.871532  0.368112  1
  Ba  Ba1  1  0.123227  0.962316  0.520474  1
  Ba  Ba2  1  0.770319  0.375000  0.895319  1
  Ba  Ba3  1  0.125000  0.729681  0.104681  1
  Ba  Ba4  1  0.852754  0.191842  0.979526  1
  Ba  Ba5  1  0.126773  0.147246  0.339089  1
  Ba  Ba6  1  0.354592  0.750107  0.343275  1
  Ba  Ba7  1  0.897246  0.058158  0.520474  1
  Ba  Ba8  1  0.941842  0.462316  0.839089  1
  Ba  Ba9  1  0.037684  0.558158  0.160911  1
  Ba  Ba10  1  0.158435  0.378468  0.131888  1
  Ba  Ba11  1  0.003421  0.371532  0.279966  1
  Ba  Ba12  1  0.441842  0.602754  0.479526  1
  Ba  Ba13  1  0.308158  0.647246  0.020474  1
  Ba  Ba14  1  0.621532  0.753421  0.779966  1
  Ba  Ba15  1  0.246579  0.026546  0.868112  1
  Ba  Ba16  1  0.125000  0.229681  0.604681  1
  Ba  Ba17  1  0.488683  0.093169  0.343275  1
  Ba  Ba18  1  0.406831  0.011317  0.656725  1
  Ba  Ba19  1  0.343169  0.238683  0.843275  1
  Ba  Ba20  1  0.623227  0.102754  0.160911  1
  Ba  Ba21  1  0.479681  0.875000  0.104681  1
  Ba  Ba22  1  0.276546  0.996579  0.368112  1
  Ba  Ba23  1  0.761317  0.604592  0.104486  1
  Ba  Ba24  1  0.625000  0.020319  0.895319  1
  Ba  Ba25  1  0.500107  0.656831  0.895514  1
  Ba  Ba26  1  0.973454  0.841565  0.220034  1
  Ba  Ba27  1  0.988683  0.645408  0.395514  1
  Ba  Ba28  1  0.261317  0.156831  0.156725  1
  Ba  Ba29  1  0.397246  0.876773  0.839089  1
  Ba  Ba30  1  0.625000  0.520319  0.395319  1
  Ba  Ba31  1  0.000107  0.104592  0.843275  1
  Ba  Ba32  1  0.658435  0.526546  0.779966  1
  Ba  Ba33  1  0.628468  0.908435  0.631888  1
  Ba  Ba34  1  0.776546  0.408435  0.279966  1
  Ba  Ba35  1  0.212316  0.873227  0.020474  1
  Ba  Ba36  1  0.906831  0.250107  0.395514  1
  Ba  Ba37  1  0.808158  0.787684  0.660911  1
  Ba  Ba38  1  0.854592  0.511317  0.604486  1
  Ba  Ba39  1  0.746579  0.878468  0.220034  1
  Ba  Ba40  1  0.626773  0.287684  0.979526  1
  Ba  Ba41  1  0.749893  0.145408  0.656725  1
  Ba  Ba42  1  0.128468  0.496579  0.720034  1
  Ba  Ba43  1  0.979681  0.875000  0.604681  1
  Ba  Ba44  1  0.091565  0.723454  0.720034  1
  Ba  Ba45  1  0.121532  0.341565  0.868112  1
  Ba  Ba46  1  0.249893  0.593169  0.604486  1
  Ba  Ba47  1  0.395408  0.499893  0.156725  1
  Ba  Ba48  1  0.352754  0.373227  0.660911  1
  Ba  Ba49  1  0.843169  0.999893  0.104486  1
  Ba  Ba50  1  0.473454  0.253421  0.131888  1
  Ba  Ba51  1  0.270319  0.375000  0.395319  1
  Ba  Ba52  1  0.503421  0.223454  0.631888  1
  Ba  Ba53  1  0.537684  0.376773  0.479526  1
  Ba  Ba54  1  0.895408  0.738683  0.895514  1
  Ba  Ba55  1  0.712316  0.691842  0.339089  1
  Nd  Nd56  1  0.000000  0.000000  0.000000  1
  Nd  Nd57  1  0.250000  0.750000  0.500000  1
  Nd  Nd58  1  0.750000  0.250000  0.500000  1
  Nd  Nd59  1  0.500000  0.500000  0.000000  1
  Bi  Bi60  1  0.553765  0.697563  0.408361  1
  Bi  Bi61  1  0.131213  0.368787  0.500000  1
  Bi  Bi62  1  0.453451  0.818848  0.643722  1
  Bi  Bi63  1  0.059729  0.925127  0.856278  1
  Bi  Bi64  1  0.296549  0.431152  0.856278  1
  Bi  Bi65  1  0.854596  0.446235  0.143798  1
  Bi  Bi66  1  0.368787  0.868787  0.237575  1
  Bi  Bi67  1  0.250000  0.250000  0.000000  1
  Bi  Bi68  1  0.074873  0.931152  0.134604  1
  Bi  Bi69  1  0.960798  0.052437  0.356202  1
  Bi  Bi70  1  0.302437  0.710798  0.856202  1
  Bi  Bi71  1  0.631213  0.131213  0.762425  1
  Bi  Bi72  1  0.789202  0.197563  0.143798  1
  Bi  Bi73  1  0.881213  0.618787  0.000000  1
  Bi  Bi74  1  0.447563  0.539202  0.643798  1
  Bi  Bi75  1  0.395404  0.039202  0.091639  1
  Bi  Bi76  1  0.289202  0.145404  0.591639  1
  Bi  Bi77  1  0.559729  0.703451  0.134604  1
  Bi  Bi78  1  0.953451  0.309729  0.634604  1
  Bi  Bi79  1  0.690271  0.324873  0.643722  1
  Bi  Bi80  1  0.500000  0.000000  0.500000  1
  Bi  Bi81  1  0.618787  0.881213  0.000000  1
  Bi  Bi82  1  0.460798  0.104596  0.908361  1
  Bi  Bi83  1  0.947563  0.303765  0.908361  1
  Bi  Bi84  1  0.381213  0.381213  0.262425  1
  Bi  Bi85  1  0.181152  0.824873  0.634604  1
  Bi  Bi86  1  0.196235  0.552437  0.091639  1
  Bi  Bi87  1  0.802437  0.946235  0.591639  1
  Bi  Bi88  1  0.681152  0.046549  0.356278  1
  Bi  Bi89  1  0.696235  0.604596  0.643798  1
  Bi  Bi90  1  0.574873  0.440271  0.143722  1
  Bi  Bi91  1  0.895404  0.803765  0.356202  1
  Bi  Bi92  1  0.053765  0.645404  0.856202  1
  Bi  Bi93  1  0.675127  0.318848  0.365396  1
  Bi  Bi94  1  0.796549  0.940271  0.865396  1
  Bi  Bi95  1  0.068848  0.203451  0.143722  1
  Bi  Bi96  1  0.568848  0.425127  0.865396  1
  Bi  Bi97  1  0.175127  0.809729  0.356278  1
  Bi  Bi98  1  0.868787  0.631213  0.500000  1
  Bi  Bi99  1  0.750000  0.750000  0.000000  1
  Bi  Bi100  1  0.118787  0.118787  0.737575  1
  Bi  Bi101  1  0.190271  0.546549  0.365396  1
  Bi  Bi102  1  0.000000  0.500000  0.500000  1
  Bi  Bi103  1  0.354596  0.210798  0.408361  1
