# generated using pymatgen
data_Ta2Co19(NiB3)2
_symmetry_space_group_name_H-M   'P 1'
_cell_length_a   7.41207330
_cell_length_b   7.41093285
_cell_length_c   7.41093300
_cell_angle_alpha   60.00000379
_cell_angle_beta   60.00509345
_cell_angle_gamma   60.00509071
_symmetry_Int_Tables_number   1
_chemical_formula_structural   Ta2Co19(NiB3)2
_chemical_formula_sum   'Ta2 Co19 Ni2 B6'
_cell_volume   287.87497105
_cell_formula_units_Z   1
loop_
 _symmetry_equiv_pos_site_id
 _symmetry_equiv_pos_as_xyz
  1  'x, y, z'
loop_
 _atom_site_type_symbol
 _atom_site_label
 _atom_site_symmetry_multiplicity
 _atom_site_fract_x
 _atom_site_fract_y
 _atom_site_fract_z
 _atom_site_occupancy
  Ta  Ta0  1  0.256305  0.247899  0.247899  1
  Ta  Ta1  1  0.749888  0.750037  0.750037  1
  Co  Co2  1  0.383854  0.848695  0.383725  1
  Co  Co3  1  0.383854  0.383725  0.848695  1
  Co  Co4  1  0.383854  0.383725  0.383725  1
  Co  Co5  1  0.151280  0.616240  0.616240  1
  Co  Co6  1  0.615931  0.151219  0.616425  1
  Co  Co7  1  0.615931  0.616425  0.151219  1
  Co  Co8  1  0.615931  0.616425  0.616425  1
  Co  Co9  1  0.660280  0.999996  0.999996  1
  Co  Co10  1  0.660280  0.999996  0.339730  1
  Co  Co11  1  0.660280  0.339730  0.999996  1
  Co  Co12  1  0.000059  0.660921  0.339388  1
  Co  Co13  1  0.000059  0.660921  0.999633  1
  Co  Co14  1  0.338361  0.661170  0.000235  1
  Co  Co15  1  0.000059  0.339388  0.660921  1
  Co  Co16  1  0.338361  0.000235  0.661170  1
  Co  Co17  1  0.000059  0.999633  0.660921  1
  Co  Co18  1  0.338361  0.000235  0.000235  1
  Co  Co19  1  0.000059  0.339388  0.999633  1
  Co  Co20  1  0.000059  0.999633  0.339388  1
  Ni  Ni21  1  0.999224  0.000258  0.000258  1
  Ni  Ni22  1  0.847530  0.384157  0.384157  1
  B  B23  1  0.725907  0.272725  0.272725  1
  B  B24  1  0.725907  0.272725  0.728643  1
  B  B25  1  0.725907  0.728643  0.272725  1
  B  B26  1  0.274143  0.725818  0.725818  1
  B  B27  1  0.274143  0.725818  0.274222  1
  B  B28  1  0.274143  0.274222  0.725818  1
