# generated using pymatgen
data_Dy5Y11CdNi4Ag3
_symmetry_space_group_name_H-M   'P 1'
_cell_length_a   9.48395138
_cell_length_b   9.49635660
_cell_length_c   9.49635678
_cell_angle_alpha   60.01656665
_cell_angle_beta   60.04325553
_cell_angle_gamma   60.04325731
_symmetry_Int_Tables_number   1
_chemical_formula_structural   Dy5Y11CdNi4Ag3
_chemical_formula_sum   'Dy5 Y11 Cd1 Ni4 Ag3'
_cell_volume   605.23831860
_cell_formula_units_Z   1
loop_
 _symmetry_equiv_pos_site_id
 _symmetry_equiv_pos_as_xyz
  1  'x, y, z'
loop_
 _atom_site_type_symbol
 _atom_site_label
 _atom_site_symmetry_multiplicity
 _atom_site_fract_x
 _atom_site_fract_y
 _atom_site_fract_z
 _atom_site_occupancy
  Dy  Dy0  1  0.599916  0.598811  0.598811  1
  Dy  Dy1  1  0.599965  0.598668  0.202597  1
  Dy  Dy2  1  0.599965  0.202597  0.598668  1
  Dy  Dy3  1  0.197233  0.600890  0.600890  1
  Dy  Dy4  1  0.060889  0.439176  0.439176  1
  Y  Y5  1  0.439073  0.060618  0.060618  1
  Y  Y6  1  0.438828  0.060684  0.439695  1
  Y  Y7  1  0.060811  0.439385  0.060584  1
  Y  Y8  1  0.438828  0.439695  0.060684  1
  Y  Y9  1  0.060811  0.060584  0.439385  1
  Y  Y10  1  0.183881  0.814229  0.814229  1
  Y  Y11  1  0.813941  0.185750  0.185750  1
  Y  Y12  1  0.813889  0.186136  0.814063  1
  Y  Y13  1  0.183876  0.813900  0.187783  1
  Y  Y14  1  0.813889  0.814063  0.186136  1
  Y  Y15  1  0.183876  0.187783  0.813900  1
  Cd  Cd16  1  0.513766  0.828753  0.828753  1
  Ni  Ni17  1  0.391821  0.394642  0.394642  1
  Ni  Ni18  1  0.392998  0.393933  0.818733  1
  Ni  Ni19  1  0.392998  0.818733  0.393933  1
  Ni  Ni20  1  0.820519  0.393701  0.393701  1
  Ag  Ag21  1  0.832725  0.832082  0.832082  1
  Ag  Ag22  1  0.832752  0.832173  0.503015  1
  Ag  Ag23  1  0.832752  0.503015  0.832173  1
