# generated using pymatgen
data_U2ReTcC3
_symmetry_space_group_name_H-M   'P 1'
_cell_length_a   6.15959509
_cell_length_b   6.15959544
_cell_length_c   5.58071202
_cell_angle_alpha   67.96518675
_cell_angle_beta   67.96518323
_cell_angle_gamma   29.20241262
_symmetry_Int_Tables_number   1
_chemical_formula_structural   U2ReTcC3
_chemical_formula_sum   'U2 Re1 Tc1 C3'
_cell_volume   95.22551580
_cell_formula_units_Z   1
loop_
 _symmetry_equiv_pos_site_id
 _symmetry_equiv_pos_as_xyz
  1  'x, y, z'
loop_
 _atom_site_type_symbol
 _atom_site_label
 _atom_site_symmetry_multiplicity
 _atom_site_fract_x
 _atom_site_fract_y
 _atom_site_fract_z
 _atom_site_occupancy
  U  U0  1  0.601355  0.601355  0.194371  1
  U  U1  1  0.398001  0.398001  0.809516  1
  Re  Re2  1  0.155626  0.155626  0.662833  1
  Tc  Tc3  1  0.844639  0.844639  0.333753  1
  C  C4  1  0.751204  0.751204  0.753774  1
  C  C5  1  0.247668  0.247668  0.247528  1
  C  C6  1  0.001506  0.001506  0.998226  1
