# generated using pymatgen
data_DyLu15In6CoPt
_symmetry_space_group_name_H-M   'P 1'
_cell_length_a   10.23239300
_cell_length_b   10.23239474
_cell_length_c   6.87499100
_cell_angle_alpha   90.00000000
_cell_angle_beta   90.00000000
_cell_angle_gamma   119.99999761
_symmetry_Int_Tables_number   1
_chemical_formula_structural   DyLu15In6CoPt
_chemical_formula_sum   'Dy1 Lu15 In6 Co1 Pt1'
_cell_volume   623.38632896
_cell_formula_units_Z   1
loop_
 _symmetry_equiv_pos_site_id
 _symmetry_equiv_pos_as_xyz
  1  'x, y, z'
loop_
 _atom_site_type_symbol
 _atom_site_label
 _atom_site_symmetry_multiplicity
 _atom_site_fract_x
 _atom_site_fract_y
 _atom_site_fract_z
 _atom_site_occupancy
  Dy  Dy0  1  0.000000  0.000000  0.989949  1
  Lu  Lu1  1  0.530174  0.060349  0.508669  1
  Lu  Lu2  1  0.939651  0.469826  0.508669  1
  Lu  Lu3  1  0.530174  0.469826  0.508669  1
  Lu  Lu4  1  0.463762  0.927526  0.006966  1
  Lu  Lu5  1  0.072474  0.536238  0.006966  1
  Lu  Lu6  1  0.463762  0.536238  0.006966  1
  Lu  Lu7  1  0.179195  0.358390  0.713476  1
  Lu  Lu8  1  0.641610  0.820805  0.713476  1
  Lu  Lu9  1  0.179195  0.820805  0.713476  1
  Lu  Lu10  1  0.823796  0.647590  0.212441  1
  Lu  Lu11  1  0.352410  0.176204  0.212441  1
  Lu  Lu12  1  0.823796  0.176204  0.212441  1
  Lu  Lu13  1  0.666667  0.333333  0.883117  1
  Lu  Lu14  1  0.333333  0.666667  0.397733  1
  Lu  Lu15  1  0.000000  0.000000  0.491265  1
  In  In16  1  0.838018  0.676037  0.748593  1
  In  In17  1  0.323963  0.161982  0.748593  1
  In  In18  1  0.838018  0.161982  0.748593  1
  In  In19  1  0.163697  0.327393  0.254452  1
  In  In20  1  0.672607  0.836303  0.254452  1
  In  In21  1  0.163697  0.836303  0.254452  1
  Co  Co22  1  0.333333  0.666667  0.781512  1
  Pt  Pt23  1  0.666667  0.333333  0.280662  1
