# generated using pymatgen
data_Hf18CuRe8Os
_symmetry_space_group_name_H-M   'P 1'
_cell_length_a   8.61208000
_cell_length_b   8.61207908
_cell_length_c   8.54219100
_cell_angle_alpha   90.00000000
_cell_angle_beta   90.00000000
_cell_angle_gamma   120.00000352
_symmetry_Int_Tables_number   1
_chemical_formula_structural   Hf18CuRe8Os
_chemical_formula_sum   'Hf18 Cu1 Re8 Os1'
_cell_volume   548.67599357
_cell_formula_units_Z   1
loop_
 _symmetry_equiv_pos_site_id
 _symmetry_equiv_pos_as_xyz
  1  'x, y, z'
loop_
 _atom_site_type_symbol
 _atom_site_label
 _atom_site_symmetry_multiplicity
 _atom_site_fract_x
 _atom_site_fract_y
 _atom_site_fract_z
 _atom_site_occupancy
  Hf  Hf0  1  0.195233  0.804767  0.445790  1
  Hf  Hf1  1  0.195233  0.390467  0.445790  1
  Hf  Hf2  1  0.609533  0.804767  0.445790  1
  Hf  Hf3  1  0.803216  0.196784  0.553289  1
  Hf  Hf4  1  0.803216  0.606434  0.553289  1
  Hf  Hf5  1  0.393566  0.196784  0.553289  1
  Hf  Hf6  1  0.803216  0.196784  0.946711  1
  Hf  Hf7  1  0.803216  0.606434  0.946711  1
  Hf  Hf8  1  0.393566  0.196784  0.946711  1
  Hf  Hf9  1  0.195233  0.804767  0.054210  1
  Hf  Hf10  1  0.195233  0.390467  0.054210  1
  Hf  Hf11  1  0.609533  0.804767  0.054210  1
  Hf  Hf12  1  0.540807  0.459193  0.250000  1
  Hf  Hf13  1  0.540807  0.081613  0.250000  1
  Hf  Hf14  1  0.918387  0.459193  0.250000  1
  Hf  Hf15  1  0.458959  0.541041  0.750000  1
  Hf  Hf16  1  0.458959  0.917917  0.750000  1
  Hf  Hf17  1  0.082083  0.541041  0.750000  1
  Cu  Cu18  1  0.333333  0.666667  0.250000  1
  Re  Re19  1  0.889846  0.110154  0.250000  1
  Re  Re20  1  0.889846  0.779690  0.250000  1
  Re  Re21  1  0.220310  0.110154  0.250000  1
  Re  Re22  1  0.110370  0.889630  0.750000  1
  Re  Re23  1  0.110370  0.220741  0.750000  1
  Re  Re24  1  0.779259  0.889630  0.750000  1
  Re  Re25  1  0.000000  0.000000  0.500655  1
  Re  Re26  1  0.000000  0.000000  0.999345  1
  Os  Os27  1  0.666667  0.333333  0.750000  1
