# generated using pymatgen
data_Tb6YHo13Pt16
_symmetry_space_group_name_H-M   'P 1'
_cell_length_a   7.47656806
_cell_length_b   7.55438805
_cell_length_c   14.73471601
_cell_angle_alpha   90.00525026
_cell_angle_beta   90.00613384
_cell_angle_gamma   89.99966176
_symmetry_Int_Tables_number   1
_chemical_formula_structural   Tb6YHo13Pt16
_chemical_formula_sum   'Tb6 Y1 Ho13 Pt16'
_cell_volume   832.22996076
_cell_formula_units_Z   1
loop_
 _symmetry_equiv_pos_site_id
 _symmetry_equiv_pos_as_xyz
  1  'x, y, z'
loop_
 _atom_site_type_symbol
 _atom_site_label
 _atom_site_symmetry_multiplicity
 _atom_site_fract_x
 _atom_site_fract_y
 _atom_site_fract_z
 _atom_site_occupancy
  Tb  Tb0  1  0.497999  0.679981  0.093085  1
  Tb  Tb1  1  0.502069  0.320073  0.593091  1
  Tb  Tb2  1  0.002012  0.179861  0.906990  1
  Tb  Tb3  1  0.001906  0.179604  0.592957  1
  Tb  Tb4  1  0.502010  0.320090  0.906912  1
  Tb  Tb5  1  0.497979  0.680050  0.406914  1
  Y  Y6  1  0.998127  0.820106  0.093023  1
  Ho  Ho7  1  0.681312  0.988449  0.250077  1
  Ho  Ho8  1  0.180821  0.511592  0.250088  1
  Ho  Ho9  1  0.818924  0.488547  0.749994  1
  Ho  Ho10  1  0.319010  0.011409  0.750055  1
  Ho  Ho11  1  0.656402  0.832446  0.622346  1
  Ho  Ho12  1  0.156249  0.667672  0.877685  1
  Ho  Ho13  1  0.843825  0.332316  0.377658  1
  Ho  Ho14  1  0.343479  0.167453  0.122352  1
  Ho  Ho15  1  0.343355  0.167321  0.377674  1
  Ho  Ho16  1  0.843811  0.332301  0.122355  1
  Ho  Ho17  1  0.156098  0.667836  0.622245  1
  Ho  Ho18  1  0.656435  0.832396  0.877694  1
  Ho  Ho19  1  0.997576  0.819763  0.406727  1
  Pt  Pt20  1  0.816641  0.642532  0.250631  1
  Pt  Pt21  1  0.316006  0.857847  0.250212  1
  Pt  Pt22  1  0.683690  0.142171  0.749933  1
  Pt  Pt23  1  0.183662  0.357839  0.749943  1
  Pt  Pt24  1  0.546793  0.386297  0.250044  1
  Pt  Pt25  1  0.046550  0.113658  0.250302  1
  Pt  Pt26  1  0.953373  0.886041  0.749969  1
  Pt  Pt27  1  0.453374  0.613878  0.749950  1
  Pt  Pt28  1  0.817209  0.533332  0.541849  1
  Pt  Pt29  1  0.317226  0.967054  0.957987  1
  Pt  Pt30  1  0.684020  0.032187  0.457791  1
  Pt  Pt31  1  0.182934  0.467111  0.042029  1
  Pt  Pt32  1  0.182554  0.467995  0.457746  1
  Pt  Pt33  1  0.682713  0.033094  0.041975  1
  Pt  Pt34  1  0.316898  0.966894  0.541824  1
  Pt  Pt35  1  0.816958  0.532808  0.957888  1
