# generated using pymatgen
data_Cs4CdO3
_symmetry_space_group_name_H-M   'P 1'
_cell_length_a   7.66964143
_cell_length_b   12.69828048
_cell_length_c   10.65774088
_cell_angle_alpha   109.07570340
_cell_angle_beta   100.84466416
_cell_angle_gamma   89.49283277
_symmetry_Int_Tables_number   1
_chemical_formula_structural   Cs4CdO3
_chemical_formula_sum   'Cs16 Cd4 O12'
_cell_volume   961.90354012
_cell_formula_units_Z   4
loop_
 _symmetry_equiv_pos_site_id
 _symmetry_equiv_pos_as_xyz
  1  'x, y, z'
loop_
 _atom_site_type_symbol
 _atom_site_label
 _atom_site_symmetry_multiplicity
 _atom_site_fract_x
 _atom_site_fract_y
 _atom_site_fract_z
 _atom_site_occupancy
  Cs  Cs0  1  0.408293  0.166180  0.594916  1
  Cs  Cs1  1  0.908353  0.666194  0.594926  1
  Cs  Cs2  1  0.091714  0.333832  0.405078  1
  Cs  Cs3  1  0.591641  0.833807  0.405091  1
  Cs  Cs4  1  0.494170  0.281500  0.985886  1
  Cs  Cs5  1  0.994190  0.781464  0.985875  1
  Cs  Cs6  1  0.005810  0.218521  0.014117  1
  Cs  Cs7  1  0.505856  0.718537  0.014127  1
  Cs  Cs8  1  0.608835  0.966567  0.846192  1
  Cs  Cs9  1  0.108940  0.466539  0.846188  1
  Cs  Cs10  1  0.891236  0.533466  0.153833  1
  Cs  Cs11  1  0.391005  0.033457  0.153778  1
  Cs  Cs12  1  0.072414  0.869837  0.368974  1
  Cs  Cs13  1  0.572507  0.369807  0.369015  1
  Cs  Cs14  1  0.427569  0.630167  0.631017  1
  Cs  Cs15  1  0.927505  0.130179  0.630988  1
  Cd  Cd16  1  0.639455  0.435089  0.763207  1
  Cd  Cd17  1  0.860473  0.064915  0.236806  1
  Cd  Cd18  1  0.139379  0.935094  0.763198  1
  Cd  Cd19  1  0.360657  0.564896  0.236796  1
  O  O20  1  0.134667  0.091944  0.344471  1
  O  O21  1  0.634837  0.591893  0.344469  1
  O  O22  1  0.365289  0.408073  0.655534  1
  O  O23  1  0.865209  0.908083  0.655523  1
  O  O24  1  0.270684  0.095076  0.792119  1
  O  O25  1  0.770736  0.595055  0.792111  1
  O  O26  1  0.229369  0.404920  0.207878  1
  O  O27  1  0.729232  0.904951  0.207940  1
  O  O28  1  0.290667  0.815763  0.832946  1
  O  O29  1  0.790765  0.315758  0.832951  1
  O  O30  1  0.209383  0.684225  0.167050  1
  O  O31  1  0.709163  0.184213  0.167001  1
