# generated using pymatgen
data_Pr4Cu20HgAu3
_symmetry_space_group_name_H-M   'P 1'
_cell_length_a   5.16088200
_cell_length_b   8.28059581
_cell_length_c   10.39205702
_cell_angle_alpha   90.12341109
_cell_angle_beta   90.00000000
_cell_angle_gamma   90.00000000
_symmetry_Int_Tables_number   1
_chemical_formula_structural   Pr4Cu20HgAu3
_chemical_formula_sum   'Pr4 Cu20 Hg1 Au3'
_cell_volume   444.10537480
_cell_formula_units_Z   1
loop_
 _symmetry_equiv_pos_site_id
 _symmetry_equiv_pos_as_xyz
  1  'x, y, z'
loop_
 _atom_site_type_symbol
 _atom_site_label
 _atom_site_symmetry_multiplicity
 _atom_site_fract_x
 _atom_site_fract_y
 _atom_site_fract_z
 _atom_site_occupancy
  Pr  Pr0  1  0.250000  0.260948  0.559097  1
  Pr  Pr1  1  0.750000  0.740509  0.436551  1
  Pr  Pr2  1  0.250000  0.756829  0.937136  1
  Pr  Pr3  1  0.750000  0.240936  0.067718  1
  Cu  Cu4  1  0.501299  0.565940  0.187200  1
  Cu  Cu5  1  0.999833  0.436594  0.812851  1
  Cu  Cu6  1  0.998742  0.065809  0.313799  1
  Cu  Cu7  1  0.500682  0.932383  0.684785  1
  Cu  Cu8  1  0.500167  0.436594  0.812851  1
  Cu  Cu9  1  0.998701  0.565940  0.187200  1
  Cu  Cu10  1  0.999318  0.932383  0.684785  1
  Cu  Cu11  1  0.501258  0.065809  0.313799  1
  Cu  Cu12  1  0.750000  0.940566  0.891698  1
  Cu  Cu13  1  0.250000  0.055334  0.110528  1
  Cu  Cu14  1  0.750000  0.443385  0.607958  1
  Cu  Cu15  1  0.250000  0.557933  0.391716  1
  Cu  Cu16  1  0.750000  0.685337  0.752212  1
  Cu  Cu17  1  0.250000  0.315239  0.247579  1
  Cu  Cu18  1  0.750000  0.184812  0.745933  1
  Cu  Cu19  1  0.250000  0.814525  0.252354  1
  Cu  Cu20  1  0.750000  0.589224  0.983632  1
  Cu  Cu21  1  0.250000  0.413965  0.017577  1
  Cu  Cu22  1  0.750000  0.089385  0.516525  1
  Cu  Cu23  1  0.250000  0.910492  0.482757  1
  Hg  Hg24  1  0.250000  0.140542  0.863254  1
  Au  Au25  1  0.750000  0.858538  0.138664  1
  Au  Au26  1  0.250000  0.641362  0.637561  1
  Au  Au27  1  0.750000  0.358684  0.362281  1
