# generated using pymatgen
data_Zr9TaRe3Ir
_symmetry_space_group_name_H-M   'P 1'
_cell_length_a   8.87256500
_cell_length_b   8.87256466
_cell_length_c   8.52339500
_cell_angle_alpha   90.00000000
_cell_angle_beta   90.00000000
_cell_angle_gamma   120.00000501
_symmetry_Int_Tables_number   1
_chemical_formula_structural   Zr9TaRe3Ir
_chemical_formula_sum   'Zr18 Ta2 Re6 Ir2'
_cell_volume   581.08757273
_cell_formula_units_Z   2
loop_
 _symmetry_equiv_pos_site_id
 _symmetry_equiv_pos_as_xyz
  1  'x, y, z'
loop_
 _atom_site_type_symbol
 _atom_site_label
 _atom_site_symmetry_multiplicity
 _atom_site_fract_x
 _atom_site_fract_y
 _atom_site_fract_z
 _atom_site_occupancy
  Zr  Zr0  1  0.196485  0.803515  0.445335  1
  Zr  Zr1  1  0.196485  0.392970  0.445335  1
  Zr  Zr2  1  0.607030  0.803515  0.445335  1
  Zr  Zr3  1  0.803515  0.196485  0.554665  1
  Zr  Zr4  1  0.803515  0.607030  0.554665  1
  Zr  Zr5  1  0.392970  0.196485  0.554665  1
  Zr  Zr6  1  0.803515  0.196485  0.945335  1
  Zr  Zr7  1  0.803515  0.607030  0.945335  1
  Zr  Zr8  1  0.392970  0.196485  0.945335  1
  Zr  Zr9  1  0.196485  0.803515  0.054665  1
  Zr  Zr10  1  0.196485  0.392970  0.054665  1
  Zr  Zr11  1  0.607030  0.803515  0.054665  1
  Zr  Zr12  1  0.542111  0.457889  0.250000  1
  Zr  Zr13  1  0.542111  0.084222  0.250000  1
  Zr  Zr14  1  0.915778  0.457889  0.250000  1
  Zr  Zr15  1  0.457889  0.542111  0.750000  1
  Zr  Zr16  1  0.457889  0.915778  0.750000  1
  Zr  Zr17  1  0.084222  0.542111  0.750000  1
  Ta  Ta18  1  0.000000  0.000000  0.500000  1
  Ta  Ta19  1  0.000000  0.000000  0.000000  1
  Re  Re20  1  0.890038  0.109962  0.250000  1
  Re  Re21  1  0.890038  0.780077  0.250000  1
  Re  Re22  1  0.219923  0.109962  0.250000  1
  Re  Re23  1  0.109962  0.890038  0.750000  1
  Re  Re24  1  0.109962  0.219923  0.750000  1
  Re  Re25  1  0.780077  0.890038  0.750000  1
  Ir  Ir26  1  0.333333  0.666667  0.250000  1
  Ir  Ir27  1  0.666667  0.333333  0.750000  1
