# generated using pymatgen
data_Dy4Co16SiP11Ru4
_symmetry_space_group_name_H-M   'P 1'
_cell_length_a   3.70342900
_cell_length_b   10.42320375
_cell_length_c   11.79860327
_cell_angle_alpha   90.09734774
_cell_angle_beta   90.00000000
_cell_angle_gamma   90.00000000
_symmetry_Int_Tables_number   1
_chemical_formula_structural   Dy4Co16SiP11Ru4
_chemical_formula_sum   'Dy4 Co16 Si1 P11 Ru4'
_cell_volume   455.44424810
_cell_formula_units_Z   1
loop_
 _symmetry_equiv_pos_site_id
 _symmetry_equiv_pos_as_xyz
  1  'x, y, z'
loop_
 _atom_site_type_symbol
 _atom_site_label
 _atom_site_symmetry_multiplicity
 _atom_site_fract_x
 _atom_site_fract_y
 _atom_site_fract_z
 _atom_site_occupancy
  Dy  Dy0  1  0.250000  0.586745  0.702482  1
  Dy  Dy1  1  0.250000  0.913340  0.204144  1
  Dy  Dy2  1  0.750000  0.413901  0.297932  1
  Dy  Dy3  1  0.750000  0.086782  0.796317  1
  Co  Co4  1  0.250000  0.408884  0.490218  1
  Co  Co5  1  0.250000  0.091265  0.989711  1
  Co  Co6  1  0.750000  0.591598  0.510537  1
  Co  Co7  1  0.750000  0.909051  0.010257  1
  Co  Co8  1  0.250000  0.213468  0.178380  1
  Co  Co9  1  0.250000  0.279096  0.676435  1
  Co  Co10  1  0.750000  0.779525  0.823353  1
  Co  Co11  1  0.750000  0.721038  0.324209  1
  Co  Co12  1  0.250000  0.887925  0.702780  1
  Co  Co13  1  0.250000  0.614199  0.202705  1
  Co  Co14  1  0.750000  0.110730  0.298603  1
  Co  Co15  1  0.750000  0.386587  0.797201  1
  Co  Co16  1  0.250000  0.468038  0.925792  1
  Co  Co17  1  0.250000  0.034441  0.431175  1
  Co  Co18  1  0.750000  0.537620  0.065875  1
  Co  Co19  1  0.750000  0.965497  0.569750  1
  Si  Si20  1  0.250000  0.415936  0.109756  1
  P  P21  1  0.250000  0.080457  0.612006  1
  P  P22  1  0.750000  0.580796  0.886151  1
  P  P23  1  0.750000  0.919326  0.388750  1
  P  P24  1  0.250000  0.272972  0.867130  1
  P  P25  1  0.250000  0.227484  0.367257  1
  P  P26  1  0.750000  0.727424  0.133958  1
  P  P27  1  0.750000  0.772473  0.632995  1
  P  P28  1  0.250000  0.595926  0.390046  1
  P  P29  1  0.250000  0.904683  0.890287  1
  P  P30  1  0.750000  0.404258  0.609546  1
  P  P31  1  0.750000  0.095740  0.110428  1
  Ru  Ru32  1  0.250000  0.718848  0.993449  1
  Ru  Ru33  1  0.250000  0.782875  0.492637  1
  Ru  Ru34  1  0.750000  0.283884  0.009832  1
  Ru  Ru35  1  0.750000  0.217190  0.507919  1
