# generated using pymatgen
data_YPa(MnAl5)4
_symmetry_space_group_name_H-M   'P 1'
_cell_length_a   6.78084917
_cell_length_b   6.77998664
_cell_length_c   9.00197900
_cell_angle_alpha   90.00000000
_cell_angle_beta   90.00000000
_cell_angle_gamma   97.60506362
_symmetry_Int_Tables_number   1
_chemical_formula_structural   YPa(MnAl5)4
_chemical_formula_sum   'Y1 Pa1 Mn4 Al20'
_cell_volume   410.21722943
_cell_formula_units_Z   1
loop_
 _symmetry_equiv_pos_site_id
 _symmetry_equiv_pos_as_xyz
  1  'x, y, z'
loop_
 _atom_site_type_symbol
 _atom_site_label
 _atom_site_symmetry_multiplicity
 _atom_site_fract_x
 _atom_site_fract_y
 _atom_site_fract_z
 _atom_site_occupancy
  Y  Y0  1  0.126438  0.873517  0.250000  1
  Pa  Pa1  1  0.871703  0.128295  0.750000  1
  Mn  Mn2  1  0.998663  0.494652  0.502590  1
  Mn  Mn3  1  0.998663  0.494652  0.997410  1
  Mn  Mn4  1  0.505367  0.001343  0.997405  1
  Mn  Mn5  1  0.505367  0.001343  0.502595  1
  Al  Al6  1  0.624175  0.375938  0.548082  1
  Al  Al7  1  0.374558  0.625330  0.455811  1
  Al  Al8  1  0.374558  0.625330  0.044189  1
  Al  Al9  1  0.624175  0.375938  0.951918  1
  Al  Al10  1  0.228349  0.226969  0.499415  1
  Al  Al11  1  0.773162  0.771519  0.499425  1
  Al  Al12  1  0.773162  0.771519  0.000575  1
  Al  Al13  1  0.228349  0.226969  0.000585  1
  Al  Al14  1  0.842171  0.157970  0.097146  1
  Al  Al15  1  0.156317  0.843552  0.902975  1
  Al  Al16  1  0.156317  0.843552  0.597025  1
  Al  Al17  1  0.842171  0.157970  0.402854  1
  Al  Al18  1  0.867094  0.591434  0.750000  1
  Al  Al19  1  0.132471  0.410973  0.250000  1
  Al  Al20  1  0.408518  0.132984  0.750000  1
  Al  Al21  1  0.589064  0.867451  0.250000  1
  Al  Al22  1  0.218055  0.476051  0.750000  1
  Al  Al23  1  0.782158  0.524967  0.250000  1
  Al  Al24  1  0.523959  0.781859  0.750000  1
  Al  Al25  1  0.475020  0.217921  0.250000  1
