# generated using pymatgen
data_Te2RhSe
_symmetry_space_group_name_H-M   'P 1'
_cell_length_a   23.96945073
_cell_length_b   23.96945114
_cell_length_c   7.38171102
_cell_angle_alpha   83.00075078
_cell_angle_beta   83.00074777
_cell_angle_gamma   13.44663928
_symmetry_Int_Tables_number   1
_chemical_formula_structural   Te2RhSe
_chemical_formula_sum   'Te16 Rh8 Se8'
_cell_volume   978.75994771
_cell_formula_units_Z   8
loop_
 _symmetry_equiv_pos_site_id
 _symmetry_equiv_pos_as_xyz
  1  'x, y, z'
loop_
 _atom_site_type_symbol
 _atom_site_label
 _atom_site_symmetry_multiplicity
 _atom_site_fract_x
 _atom_site_fract_y
 _atom_site_fract_z
 _atom_site_occupancy
  Te  Te0  1  0.001334  0.001334  0.787271  1
  Te  Te1  1  0.998666  0.998666  0.212729  1
  Te  Te2  1  0.501333  0.501333  0.787272  1
  Te  Te3  1  0.498667  0.498667  0.212728  1
  Te  Te4  1  0.910671  0.910671  0.946070  1
  Te  Te5  1  0.089329  0.089329  0.053930  1
  Te  Te6  1  0.410405  0.910446  0.946377  1
  Te  Te7  1  0.089554  0.589595  0.053623  1
  Te  Te8  1  0.589595  0.089554  0.053623  1
  Te  Te9  1  0.910446  0.410405  0.946377  1
  Te  Te10  1  0.410688  0.410688  0.946074  1
  Te  Te11  1  0.589312  0.589312  0.053926  1
  Te  Te12  1  0.501467  0.001467  0.787202  1
  Te  Te13  1  0.998533  0.498533  0.212798  1
  Te  Te14  1  0.498533  0.998533  0.212798  1
  Te  Te15  1  0.001467  0.501467  0.787202  1
  Rh  Rh16  1  0.875548  0.875548  0.257510  1
  Rh  Rh17  1  0.124452  0.124452  0.742490  1
  Rh  Rh18  1  0.375311  0.875330  0.257857  1
  Rh  Rh19  1  0.124670  0.624689  0.742143  1
  Rh  Rh20  1  0.624689  0.124670  0.742143  1
  Rh  Rh21  1  0.875330  0.375311  0.257857  1
  Rh  Rh22  1  0.375615  0.375615  0.257702  1
  Rh  Rh23  1  0.624385  0.624385  0.742298  1
  Se  Se24  1  0.342282  0.342282  0.551810  1
  Se  Se25  1  0.657718  0.657718  0.448190  1
  Se  Se26  1  0.341834  0.842198  0.552044  1
  Se  Se27  1  0.157802  0.658166  0.447956  1
  Se  Se28  1  0.658166  0.157802  0.447956  1
  Se  Se29  1  0.842198  0.341834  0.552044  1
  Se  Se30  1  0.842270  0.842270  0.551770  1
  Se  Se31  1  0.157730  0.157730  0.448230  1
