# generated using pymatgen
data_Ho4Bi3Sb2AsRh7
_symmetry_space_group_name_H-M   'P 1'
_cell_length_a   7.71788014
_cell_length_b   7.64598983
_cell_length_c   7.64598883
_cell_angle_alpha   107.59160059
_cell_angle_beta   110.61970781
_cell_angle_gamma   110.61972254
_symmetry_Int_Tables_number   1
_chemical_formula_structural   Ho4Bi3Sb2AsRh7
_chemical_formula_sum   'Ho4 Bi3 Sb2 As1 Rh7'
_cell_volume   345.29144897
_cell_formula_units_Z   1
loop_
 _symmetry_equiv_pos_site_id
 _symmetry_equiv_pos_as_xyz
  1  'x, y, z'
loop_
 _atom_site_type_symbol
 _atom_site_label
 _atom_site_symmetry_multiplicity
 _atom_site_fract_x
 _atom_site_fract_y
 _atom_site_fract_z
 _atom_site_occupancy
  Ho  Ho0  1  0.449625  0.990531  0.990531  1
  Ho  Ho1  1  0.003962  0.529597  0.990389  1
  Ho  Ho2  1  0.003962  0.990389  0.529597  1
  Ho  Ho3  1  0.519590  0.507528  0.507528  1
  Bi  Bi4  1  0.992369  0.295161  0.295161  1
  Bi  Bi5  1  0.693024  0.010080  0.711085  1
  Bi  Bi6  1  0.693024  0.711085  0.010080  1
  Sb  Sb7  1  0.320463  0.008248  0.335534  1
  Sb  Sb8  1  0.320463  0.335534  0.008248  1
  As  As9  1  0.992021  0.646868  0.646868  1
  Rh  Rh10  1  0.046723  0.951925  0.951925  1
  Rh  Rh11  1  0.495008  0.756127  0.259120  1
  Rh  Rh12  1  0.747493  0.502416  0.254072  1
  Rh  Rh13  1  0.239885  0.748896  0.502423  1
  Rh  Rh14  1  0.239885  0.502423  0.748896  1
  Rh  Rh15  1  0.495008  0.259120  0.756127  1
  Rh  Rh16  1  0.747493  0.254072  0.502416  1
