# generated using pymatgen
data_Cs2SbAs3S8
_symmetry_space_group_name_H-M   'P 1'
_cell_length_a   6.43824966
_cell_length_b   7.16177534
_cell_length_c   9.74427546
_cell_angle_alpha   93.75211313
_cell_angle_beta   98.07545711
_cell_angle_gamma   103.83336152
_symmetry_Int_Tables_number   1
_chemical_formula_structural   Cs2SbAs3S8
_chemical_formula_sum   'Cs2 Sb1 As3 S8'
_cell_volume   429.64603328
_cell_formula_units_Z   1
loop_
 _symmetry_equiv_pos_site_id
 _symmetry_equiv_pos_as_xyz
  1  'x, y, z'
loop_
 _atom_site_type_symbol
 _atom_site_label
 _atom_site_symmetry_multiplicity
 _atom_site_fract_x
 _atom_site_fract_y
 _atom_site_fract_z
 _atom_site_occupancy
  Cs  Cs0  1  0.851881  0.702695  0.087570  1
  Cs  Cs1  1  0.152604  0.294301  0.913035  1
  Sb  Sb2  1  0.812100  0.647437  0.549133  1
  As  As3  1  0.590774  0.142327  0.302799  1
  As  As4  1  0.410794  0.858813  0.703664  1
  As  As5  1  0.153990  0.364562  0.439970  1
  S  S6  1  0.480595  0.412736  0.273323  1
  S  S7  1  0.523678  0.586554  0.733357  1
  S  S8  1  0.927197  0.209494  0.233660  1
  S  S9  1  0.079597  0.788520  0.773300  1
  S  S10  1  0.435732  0.940858  0.084456  1
  S  S11  1  0.574508  0.059664  0.917760  1
  S  S12  1  0.840989  0.315615  0.572296  1
  S  S13  1  0.165563  0.676422  0.415678  1
