# generated using pymatgen
data_CaPr2Dy3S8
_symmetry_space_group_name_H-M   'P 1'
_cell_length_a   3.87222100
_cell_length_b   12.99712700
_cell_length_c   13.14540400
_cell_angle_alpha   90.00000000
_cell_angle_beta   90.00000000
_cell_angle_gamma   90.00000000
_symmetry_Int_Tables_number   1
_chemical_formula_structural   CaPr2Dy3S8
_chemical_formula_sum   'Ca2 Pr4 Dy6 S16'
_cell_volume   661.57858130
_cell_formula_units_Z   2
loop_
 _symmetry_equiv_pos_site_id
 _symmetry_equiv_pos_as_xyz
  1  'x, y, z'
loop_
 _atom_site_type_symbol
 _atom_site_label
 _atom_site_symmetry_multiplicity
 _atom_site_fract_x
 _atom_site_fract_y
 _atom_site_fract_z
 _atom_site_occupancy
  Ca  Ca0  1  0.250000  0.106522  0.422373  1
  Ca  Ca1  1  0.250000  0.606522  0.077627  1
  Pr  Pr2  1  0.250000  0.369230  0.589093  1
  Pr  Pr3  1  0.250000  0.869230  0.910907  1
  Pr  Pr4  1  0.750000  0.632916  0.409222  1
  Pr  Pr5  1  0.750000  0.132916  0.090778  1
  Dy  Dy6  1  0.750000  0.893868  0.572182  1
  Dy  Dy7  1  0.750000  0.393868  0.927818  1
  Dy  Dy8  1  0.250000  0.146253  0.796445  1
  Dy  Dy9  1  0.250000  0.646253  0.703555  1
  Dy  Dy10  1  0.750000  0.853229  0.204458  1
  Dy  Dy11  1  0.750000  0.353229  0.295542  1
  S  S12  1  0.250000  0.217277  0.234901  1
  S  S13  1  0.250000  0.717277  0.265099  1
  S  S14  1  0.750000  0.785821  0.760336  1
  S  S15  1  0.750000  0.285821  0.739664  1
  S  S16  1  0.250000  0.252562  0.975247  1
  S  S17  1  0.250000  0.752562  0.524753  1
  S  S18  1  0.750000  0.751594  0.022989  1
  S  S19  1  0.750000  0.251594  0.477011  1
  S  S20  1  0.250000  0.469966  0.385439  1
  S  S21  1  0.250000  0.969966  0.114561  1
  S  S22  1  0.750000  0.532690  0.612176  1
  S  S23  1  0.750000  0.032690  0.887824  1
  S  S24  1  0.250000  0.026599  0.628220  1
  S  S25  1  0.250000  0.526599  0.871780  1
  S  S26  1  0.750000  0.961477  0.379398  1
  S  S27  1  0.750000  0.461477  0.120602  1
