# generated using pymatgen
data_TbTaCrB6
_symmetry_space_group_name_H-M   'P 1'
_cell_length_a   3.41660700
_cell_length_b   8.91748700
_cell_length_c   11.29420300
_cell_angle_alpha   90.00000000
_cell_angle_beta   90.00000000
_cell_angle_gamma   90.00000000
_symmetry_Int_Tables_number   1
_chemical_formula_structural   TbTaCrB6
_chemical_formula_sum   'Tb4 Ta4 Cr4 B24'
_cell_volume   344.10667775
_cell_formula_units_Z   4
loop_
 _symmetry_equiv_pos_site_id
 _symmetry_equiv_pos_as_xyz
  1  'x, y, z'
loop_
 _atom_site_type_symbol
 _atom_site_label
 _atom_site_symmetry_multiplicity
 _atom_site_fract_x
 _atom_site_fract_y
 _atom_site_fract_z
 _atom_site_occupancy
  Tb  Tb0  1  0.000000  0.822614  0.085824  1
  Tb  Tb1  1  0.000000  0.177386  0.914176  1
  Tb  Tb2  1  0.000000  0.322614  0.414176  1
  Tb  Tb3  1  0.000000  0.677386  0.585824  1
  Ta  Ta4  1  0.000000  0.445222  0.127755  1
  Ta  Ta5  1  0.000000  0.554778  0.872245  1
  Ta  Ta6  1  0.000000  0.945222  0.372245  1
  Ta  Ta7  1  0.000000  0.054778  0.627755  1
  Cr  Cr8  1  0.000000  0.143941  0.183832  1
  Cr  Cr9  1  0.000000  0.856059  0.816168  1
  Cr  Cr10  1  0.000000  0.643941  0.316168  1
  Cr  Cr11  1  0.000000  0.356059  0.683832  1
  B  B12  1  0.500000  0.054926  0.068083  1
  B  B13  1  0.500000  0.945074  0.931917  1
  B  B14  1  0.500000  0.554926  0.431917  1
  B  B15  1  0.500000  0.445074  0.568083  1
  B  B16  1  0.500000  0.254032  0.083091  1
  B  B17  1  0.500000  0.745968  0.916909  1
  B  B18  1  0.500000  0.754032  0.416909  1
  B  B19  1  0.500000  0.245968  0.583091  1
  B  B20  1  0.500000  0.296939  0.235898  1
  B  B21  1  0.500000  0.703061  0.764102  1
  B  B22  1  0.500000  0.796939  0.264102  1
  B  B23  1  0.500000  0.203061  0.735898  1
  B  B24  1  0.500000  0.129877  0.317544  1
  B  B25  1  0.500000  0.870123  0.682456  1
  B  B26  1  0.500000  0.629877  0.182456  1
  B  B27  1  0.500000  0.370123  0.817544  1
  B  B28  1  0.500000  0.482572  0.286033  1
  B  B29  1  0.500000  0.517428  0.713967  1
  B  B30  1  0.500000  0.982572  0.213967  1
  B  B31  1  0.500000  0.017428  0.786033  1
  B  B32  1  0.500000  0.098771  0.473999  1
  B  B33  1  0.500000  0.901229  0.526001  1
  B  B34  1  0.500000  0.598771  0.026001  1
  B  B35  1  0.500000  0.401229  0.973999  1
