# generated using pymatgen
data_Ho2Er6GaPd24
_symmetry_space_group_name_H-M   'P 1'
_cell_length_a   8.33425900
_cell_length_b   8.33371132
_cell_length_c   8.33371100
_cell_angle_alpha   89.98417333
_cell_angle_beta   90.00000000
_cell_angle_gamma   90.00000000
_symmetry_Int_Tables_number   1
_chemical_formula_structural   Ho2Er6GaPd24
_chemical_formula_sum   'Ho2 Er6 Ga1 Pd24'
_cell_volume   578.82044683
_cell_formula_units_Z   1
loop_
 _symmetry_equiv_pos_site_id
 _symmetry_equiv_pos_as_xyz
  1  'x, y, z'
loop_
 _atom_site_type_symbol
 _atom_site_label
 _atom_site_symmetry_multiplicity
 _atom_site_fract_x
 _atom_site_fract_y
 _atom_site_fract_z
 _atom_site_occupancy
  Ho  Ho0  1  0.251409  0.251435  0.748565  1
  Ho  Ho1  1  0.251409  0.748565  0.251435  1
  Er  Er2  1  0.748507  0.251476  0.251476  1
  Er  Er3  1  0.748507  0.748524  0.748524  1
  Er  Er4  1  0.748381  0.748439  0.251561  1
  Er  Er5  1  0.748381  0.251561  0.748439  1
  Er  Er6  1  0.251596  0.748452  0.748452  1
  Er  Er7  1  0.251596  0.251548  0.251548  1
  Ga  Ga8  1  0.999906  0.000000  0.000000  1
  Pd  Pd9  1  0.500594  0.500572  0.747104  1
  Pd  Pd10  1  0.500594  0.252896  0.499428  1
  Pd  Pd11  1  0.252819  0.500000  0.500000  1
  Pd  Pd12  1  0.500594  0.499428  0.252896  1
  Pd  Pd13  1  0.500594  0.747104  0.500572  1
  Pd  Pd14  1  0.747181  0.500000  0.500000  1
  Pd  Pd15  1  0.999499  0.999466  0.708355  1
  Pd  Pd16  1  0.999499  0.291645  0.000534  1
  Pd  Pd17  1  0.291593  0.000000  0.000000  1
  Pd  Pd18  1  0.999499  0.000534  0.291645  1
  Pd  Pd19  1  0.999499  0.708355  0.999466  1
  Pd  Pd20  1  0.708531  0.000000  0.000000  1
  Pd  Pd21  1  0.999424  0.500543  0.739751  1
  Pd  Pd22  1  0.500580  0.260258  0.000586  1
  Pd  Pd23  1  0.260111  0.000000  0.500000  1
  Pd  Pd24  1  0.999424  0.260249  0.499457  1
  Pd  Pd25  1  0.500580  0.999414  0.739742  1
  Pd  Pd26  1  0.260111  0.500000  0.000000  1
  Pd  Pd27  1  0.999424  0.499457  0.260249  1
  Pd  Pd28  1  0.500580  0.739742  0.999414  1
  Pd  Pd29  1  0.999424  0.739751  0.500543  1
  Pd  Pd30  1  0.500580  0.000586  0.260258  1
  Pd  Pd31  1  0.739788  0.000000  0.500000  1
  Pd  Pd32  1  0.739788  0.500000  0.000000  1
