# generated using pymatgen
data_Ca3SmFe2(RuO6)2
_symmetry_space_group_name_H-M   'P 1'
_cell_length_a   5.43165863
_cell_length_b   5.60402873
_cell_length_c   7.75510418
_cell_angle_alpha   90.04979944
_cell_angle_beta   89.94876522
_cell_angle_gamma   89.98426395
_symmetry_Int_Tables_number   1
_chemical_formula_structural   Ca3SmFe2(RuO6)2
_chemical_formula_sum   'Ca3 Sm1 Fe2 Ru2 O12'
_cell_volume   236.05874997
_cell_formula_units_Z   1
loop_
 _symmetry_equiv_pos_site_id
 _symmetry_equiv_pos_as_xyz
  1  'x, y, z'
loop_
 _atom_site_type_symbol
 _atom_site_label
 _atom_site_symmetry_multiplicity
 _atom_site_fract_x
 _atom_site_fract_y
 _atom_site_fract_z
 _atom_site_occupancy
  Ca  Ca0  1  0.487974  0.445973  0.250326  1
  Ca  Ca1  1  0.986846  0.054763  0.750992  1
  Ca  Ca2  1  0.013150  0.946323  0.249066  1
  Sm  Sm3  1  0.514249  0.560230  0.749265  1
  Fe  Fe4  1  0.001262  0.499056  0.003309  1
  Fe  Fe5  1  0.499233  0.003111  0.496852  1
  Ru  Ru6  1  0.001499  0.499166  0.498584  1
  Ru  Ru7  1  0.498769  0.001653  0.001392  1
  O  O8  1  0.408687  0.974766  0.750749  1
  O  O9  1  0.910986  0.529549  0.252642  1
  O  O10  1  0.093837  0.472612  0.749264  1
  O  O11  1  0.591734  0.026589  0.247660  1
  O  O12  1  0.202707  0.201148  0.047026  1
  O  O13  1  0.197702  0.206218  0.451431  1
  O  O14  1  0.696843  0.296506  0.950939  1
  O  O15  1  0.795964  0.788670  0.553191  1
  O  O16  1  0.301063  0.698193  0.458889  1
  O  O17  1  0.791149  0.792725  0.947515  1
  O  O18  1  0.701440  0.299793  0.548019  1
  O  O19  1  0.304904  0.702949  0.042884  1
