# generated using pymatgen
data_TbHo4Os2C7
_symmetry_space_group_name_H-M   'P 1'
_cell_length_a   8.13695900
_cell_length_b   8.13696052
_cell_length_c   3.49424800
_cell_angle_alpha   90.00000000
_cell_angle_beta   90.00000000
_cell_angle_gamma   121.78496793
_symmetry_Int_Tables_number   1
_chemical_formula_structural   TbHo4Os2C7
_chemical_formula_sum   'Tb1 Ho4 Os2 C7'
_cell_volume   196.65852750
_cell_formula_units_Z   1
loop_
 _symmetry_equiv_pos_site_id
 _symmetry_equiv_pos_as_xyz
  1  'x, y, z'
loop_
 _atom_site_type_symbol
 _atom_site_label
 _atom_site_symmetry_multiplicity
 _atom_site_fract_x
 _atom_site_fract_y
 _atom_site_fract_z
 _atom_site_occupancy
  Tb  Tb0  1  0.500000  0.500000  0.000000  1
  Ho  Ho1  1  0.076832  0.337837  0.500000  1
  Ho  Ho2  1  0.923168  0.662163  0.500000  1
  Ho  Ho3  1  0.662163  0.923168  0.500000  1
  Ho  Ho4  1  0.337837  0.076832  0.500000  1
  Os  Os5  1  0.715026  0.284974  0.000000  1
  Os  Os6  1  0.284974  0.715026  0.000000  1
  C  C7  1  0.633127  0.366873  0.500000  1
  C  C8  1  0.366873  0.633127  0.500000  1
  C  C9  1  0.000000  0.000000  0.000000  1
  C  C10  1  0.171350  0.171350  0.000000  1
  C  C11  1  0.828650  0.828650  0.000000  1
  C  C12  1  0.000000  0.500000  0.000000  1
  C  C13  1  0.500000  0.000000  0.000000  1
