# generated using pymatgen
data_Be7Co5(Mo6C)2
_symmetry_space_group_name_H-M   'P 1'
_cell_length_a   7.56089736
_cell_length_b   7.55234235
_cell_length_c   7.56089700
_cell_angle_alpha   59.96251865
_cell_angle_beta   59.99999718
_cell_angle_gamma   59.96251959
_symmetry_Int_Tables_number   1
_chemical_formula_structural   Be7Co5(Mo6C)2
_chemical_formula_sum   'Be7 Co5 Mo12 C2'
_cell_volume   305.11745644
_cell_formula_units_Z   1
loop_
 _symmetry_equiv_pos_site_id
 _symmetry_equiv_pos_as_xyz
  1  'x, y, z'
loop_
 _atom_site_type_symbol
 _atom_site_label
 _atom_site_symmetry_multiplicity
 _atom_site_fract_x
 _atom_site_fract_y
 _atom_site_fract_z
 _atom_site_occupancy
  Be  Be0  1  0.327935  0.327221  0.016909  1
  Be  Be1  1  0.327935  0.327221  0.327935  1
  Be  Be2  1  0.230425  0.924243  0.922667  1
  Be  Be3  1  0.922667  0.924243  0.922667  1
  Be  Be4  1  0.016909  0.327221  0.327935  1
  Be  Be5  1  0.330060  0.009819  0.330060  1
  Be  Be6  1  0.922667  0.924243  0.230425  1
  Co  Co7  1  0.125482  0.623555  0.125482  1
  Co  Co8  1  0.130463  0.118316  0.620758  1
  Co  Co9  1  0.620758  0.118316  0.130463  1
  Co  Co10  1  0.130463  0.118316  0.130463  1
  Co  Co11  1  0.916677  0.249971  0.916677  1
  Mo  Mo12  1  0.299941  0.698753  0.701364  1
  Mo  Mo13  1  0.701364  0.698753  0.299941  1
  Mo  Mo14  1  0.700131  0.298208  0.700131  1
  Mo  Mo15  1  0.299941  0.698753  0.299941  1
  Mo  Mo16  1  0.548804  0.952864  0.548804  1
  Mo  Mo17  1  0.548804  0.952864  0.949528  1
  Mo  Mo18  1  0.949970  0.552749  0.547312  1
  Mo  Mo19  1  0.949970  0.552749  0.949970  1
  Mo  Mo20  1  0.301529  0.298208  0.700131  1
  Mo  Mo21  1  0.547312  0.552749  0.949970  1
  Mo  Mo22  1  0.949528  0.952864  0.548804  1
  Mo  Mo23  1  0.700131  0.298208  0.301529  1
  C  C24  1  0.500578  0.498267  0.500578  1
  C  C25  1  0.749558  0.751327  0.749558  1
