# generated using pymatgen
data_YErRe7Si4Mo
_symmetry_space_group_name_H-M   'P 1'
_cell_length_a   7.13946631
_cell_length_b   7.67778421
_cell_length_c   4.17423800
_cell_angle_alpha   90.00000000
_cell_angle_beta   90.00000000
_cell_angle_gamma   90.19295462
_symmetry_Int_Tables_number   1
_chemical_formula_structural   YErRe7Si4Mo
_chemical_formula_sum   'Y1 Er1 Re7 Si4 Mo1'
_cell_volume   228.81073445
_cell_formula_units_Z   1
loop_
 _symmetry_equiv_pos_site_id
 _symmetry_equiv_pos_as_xyz
  1  'x, y, z'
loop_
 _atom_site_type_symbol
 _atom_site_label
 _atom_site_symmetry_multiplicity
 _atom_site_fract_x
 _atom_site_fract_y
 _atom_site_fract_z
 _atom_site_occupancy
  Y  Y0  1  0.999062  0.999973  0.500000  1
  Er  Er1  1  0.500795  0.498776  0.000000  1
  Re  Re2  1  0.156341  0.604637  0.500000  1
  Re  Re3  1  0.083851  0.340904  0.000000  1
  Re  Re4  1  0.918144  0.657154  0.000000  1
  Re  Re5  1  0.416986  0.840072  0.500000  1
  Re  Re6  1  0.581755  0.164074  0.500000  1
  Re  Re7  1  0.344088  0.107359  0.000000  1
  Re  Re8  1  0.845519  0.394062  0.500000  1
  Si  Si9  1  0.223777  0.805915  0.000000  1
  Si  Si10  1  0.777821  0.195798  0.000000  1
  Si  Si11  1  0.723396  0.692754  0.500000  1
  Si  Si12  1  0.277226  0.305773  0.500000  1
  Mo  Mo13  1  0.651238  0.892749  0.000000  1
