# generated using pymatgen
data_La2PrTl2Cd3Ir
_symmetry_space_group_name_H-M   'P 1'
_cell_length_a   8.29064065
_cell_length_b   8.30555046
_cell_length_c   4.08539800
_cell_angle_alpha   90.00000000
_cell_angle_beta   90.00000000
_cell_angle_gamma   120.01757702
_symmetry_Int_Tables_number   1
_chemical_formula_structural   La2PrTl2Cd3Ir
_chemical_formula_sum   'La2 Pr1 Tl2 Cd3 Ir1'
_cell_volume   243.58164983
_cell_formula_units_Z   1
loop_
 _symmetry_equiv_pos_site_id
 _symmetry_equiv_pos_as_xyz
  1  'x, y, z'
loop_
 _atom_site_type_symbol
 _atom_site_label
 _atom_site_symmetry_multiplicity
 _atom_site_fract_x
 _atom_site_fract_y
 _atom_site_fract_z
 _atom_site_occupancy
  La  La0  1  0.431693  0.393560  0.500000  1
  La  La1  1  0.961458  0.567415  0.500000  1
  Pr  Pr2  1  0.607196  0.036230  0.500000  1
  Tl  Tl3  1  0.000677  0.999806  0.500000  1
  Tl  Tl4  1  0.333384  0.667628  0.000000  1
  Cd  Cd5  1  0.733602  0.727453  0.000000  1
  Cd  Cd6  1  0.276350  0.007547  0.000000  1
  Cd  Cd7  1  0.988863  0.263534  0.000000  1
  Ir  Ir8  1  0.666776  0.336826  0.000000  1
