# generated using pymatgen
data_NdTm5Fe2(Co4P3)4
_symmetry_space_group_name_H-M   'P 1'
_cell_length_a   3.68166100
_cell_length_b   10.50808500
_cell_length_c   12.15347600
_cell_angle_alpha   90.00000000
_cell_angle_beta   90.00000000
_cell_angle_gamma   90.00000000
_symmetry_Int_Tables_number   1
_chemical_formula_structural   NdTm5Fe2(Co4P3)4
_chemical_formula_sum   'Nd1 Tm5 Fe2 Co16 P12'
_cell_volume   470.18403849
_cell_formula_units_Z   1
loop_
 _symmetry_equiv_pos_site_id
 _symmetry_equiv_pos_as_xyz
  1  'x, y, z'
loop_
 _atom_site_type_symbol
 _atom_site_label
 _atom_site_symmetry_multiplicity
 _atom_site_fract_x
 _atom_site_fract_y
 _atom_site_fract_z
 _atom_site_occupancy
  Nd  Nd0  1  0.000000  0.500000  0.522952  1
  Tm  Tm1  1  0.500000  0.000000  0.477568  1
  Tm  Tm2  1  0.500000  0.818584  0.204969  1
  Tm  Tm3  1  0.500000  0.181416  0.204969  1
  Tm  Tm4  1  0.000000  0.682436  0.795896  1
  Tm  Tm5  1  0.000000  0.317564  0.795896  1
  Fe  Fe6  1  0.500000  0.500000  0.155647  1
  Fe  Fe7  1  0.000000  0.000000  0.842334  1
  Co  Co8  1  0.500000  0.500000  0.705328  1
  Co  Co9  1  0.000000  0.000000  0.297638  1
  Co  Co10  1  0.000000  0.500000  0.986685  1
  Co  Co11  1  0.500000  0.000000  0.013987  1
  Co  Co12  1  0.500000  0.332511  0.993984  1
  Co  Co13  1  0.500000  0.667489  0.993984  1
  Co  Co14  1  0.000000  0.166825  0.005974  1
  Co  Co15  1  0.000000  0.833175  0.005974  1
  Co  Co16  1  0.500000  0.293196  0.429827  1
  Co  Co17  1  0.500000  0.706804  0.429827  1
  Co  Co18  1  0.000000  0.200372  0.569779  1
  Co  Co19  1  0.000000  0.799628  0.569779  1
  Co  Co20  1  0.500000  0.879354  0.709922  1
  Co  Co21  1  0.500000  0.120646  0.709922  1
  Co  Co22  1  0.000000  0.622399  0.289181  1
  Co  Co23  1  0.000000  0.377601  0.289181  1
  P  P24  1  0.500000  0.500000  0.882915  1
  P  P25  1  0.000000  0.000000  0.118454  1
  P  P26  1  0.500000  0.500000  0.339256  1
  P  P27  1  0.000000  0.000000  0.655946  1
  P  P28  1  0.500000  0.307312  0.618290  1
  P  P29  1  0.500000  0.692688  0.618290  1
  P  P30  1  0.000000  0.187885  0.383184  1
  P  P31  1  0.000000  0.812115  0.383184  1
  P  P32  1  0.500000  0.847342  0.892319  1
  P  P33  1  0.500000  0.152658  0.892319  1
  P  P34  1  0.000000  0.653850  0.107320  1
  P  P35  1  0.000000  0.346150  0.107320  1
