# generated using pymatgen
data_RbTe3O6F
_symmetry_space_group_name_H-M   'P 1'
_cell_length_a   7.48812981
_cell_length_b   7.48812970
_cell_length_c   7.48813046
_cell_angle_alpha   80.27517811
_cell_angle_beta   80.27518387
_cell_angle_gamma   80.27518867
_symmetry_Int_Tables_number   1
_chemical_formula_structural   RbTe3O6F
_chemical_formula_sum   'Rb2 Te6 O12 F2'
_cell_volume   403.61358632
_cell_formula_units_Z   2
loop_
 _symmetry_equiv_pos_site_id
 _symmetry_equiv_pos_as_xyz
  1  'x, y, z'
loop_
 _atom_site_type_symbol
 _atom_site_label
 _atom_site_symmetry_multiplicity
 _atom_site_fract_x
 _atom_site_fract_y
 _atom_site_fract_z
 _atom_site_occupancy
  Rb  Rb0  1  0.152837  0.152837  0.152837  1
  Rb  Rb1  1  0.847163  0.847163  0.847163  1
  Te  Te2  1  0.647935  0.880819  0.367414  1
  Te  Te3  1  0.119181  0.632586  0.352065  1
  Te  Te4  1  0.632586  0.352065  0.119181  1
  Te  Te5  1  0.880819  0.367414  0.647935  1
  Te  Te6  1  0.367414  0.647935  0.880819  1
  Te  Te7  1  0.352065  0.119181  0.632586  1
  O  O8  1  0.958305  0.457748  0.353743  1
  O  O9  1  0.353743  0.958305  0.457748  1
  O  O10  1  0.542252  0.646257  0.041695  1
  O  O11  1  0.457748  0.353743  0.958305  1
  O  O12  1  0.655466  0.065317  0.150520  1
  O  O13  1  0.150520  0.655466  0.065317  1
  O  O14  1  0.065317  0.150520  0.655466  1
  O  O15  1  0.041695  0.542252  0.646257  1
  O  O16  1  0.344534  0.934683  0.849480  1
  O  O17  1  0.934683  0.849480  0.344534  1
  O  O18  1  0.849480  0.344534  0.934683  1
  O  O19  1  0.646257  0.041695  0.542252  1
  F  F20  1  0.648630  0.648630  0.648630  1
  F  F21  1  0.351370  0.351370  0.351370  1
