# generated using pymatgen
data_Tb4MoOs5Ru2
_symmetry_space_group_name_H-M   'P 1'
_cell_length_a   5.22541868
_cell_length_b   5.22541851
_cell_length_c   9.14042700
_cell_angle_alpha   90.00000000
_cell_angle_beta   90.00000000
_cell_angle_gamma   117.62817255
_symmetry_Int_Tables_number   1
_chemical_formula_structural   Tb4MoOs5Ru2
_chemical_formula_sum   'Tb4 Mo1 Os5 Ru2'
_cell_volume   221.12123558
_cell_formula_units_Z   1
loop_
 _symmetry_equiv_pos_site_id
 _symmetry_equiv_pos_as_xyz
  1  'x, y, z'
loop_
 _atom_site_type_symbol
 _atom_site_label
 _atom_site_symmetry_multiplicity
 _atom_site_fract_x
 _atom_site_fract_y
 _atom_site_fract_z
 _atom_site_occupancy
  Tb  Tb0  1  0.328950  0.671050  0.436528  1
  Tb  Tb1  1  0.664829  0.335171  0.566982  1
  Tb  Tb2  1  0.664829  0.335171  0.933018  1
  Tb  Tb3  1  0.328950  0.671050  0.063472  1
  Mo  Mo4  1  0.840378  0.159622  0.250000  1
  Os  Os5  1  0.828010  0.652186  0.250000  1
  Os  Os6  1  0.347814  0.171990  0.250000  1
  Os  Os7  1  0.176615  0.823385  0.750000  1
  Os  Os8  1  0.167688  0.332673  0.750000  1
  Os  Os9  1  0.667327  0.832312  0.750000  1
  Ru  Ru10  1  0.992306  0.007694  0.502527  1
  Ru  Ru11  1  0.992306  0.007694  0.997473  1
