# generated using pymatgen
data_Er3GaSiRh2
_symmetry_space_group_name_H-M   'P 1'
_cell_length_a   5.48302800
_cell_length_b   7.92199800
_cell_length_c   13.13077800
_cell_angle_alpha   90.00000000
_cell_angle_beta   90.00000000
_cell_angle_gamma   90.00000000
_symmetry_Int_Tables_number   1
_chemical_formula_structural   Er3GaSiRh2
_chemical_formula_sum   'Er12 Ga4 Si4 Rh8'
_cell_volume   570.35552247
_cell_formula_units_Z   4
loop_
 _symmetry_equiv_pos_site_id
 _symmetry_equiv_pos_as_xyz
  1  'x, y, z'
loop_
 _atom_site_type_symbol
 _atom_site_label
 _atom_site_symmetry_multiplicity
 _atom_site_fract_x
 _atom_site_fract_y
 _atom_site_fract_z
 _atom_site_occupancy
  Er  Er0  1  0.634284  0.260505  0.250000  1
  Er  Er1  1  0.365716  0.739495  0.750000  1
  Er  Er2  1  0.365716  0.760505  0.250000  1
  Er  Er3  1  0.634284  0.239495  0.750000  1
  Er  Er4  1  0.150508  0.400132  0.101825  1
  Er  Er5  1  0.849492  0.599868  0.898175  1
  Er  Er6  1  0.849492  0.599868  0.601825  1
  Er  Er7  1  0.849492  0.900132  0.398175  1
  Er  Er8  1  0.150508  0.400132  0.398175  1
  Er  Er9  1  0.150508  0.099868  0.601825  1
  Er  Er10  1  0.150508  0.099868  0.898175  1
  Er  Er11  1  0.849492  0.900132  0.101825  1
  Ga  Ga12  1  0.642507  0.250000  0.000000  1
  Ga  Ga13  1  0.357493  0.750000  0.000000  1
  Ga  Ga14  1  0.357493  0.750000  0.500000  1
  Ga  Ga15  1  0.642507  0.250000  0.500000  1
  Si  Si16  1  0.133095  0.115039  0.250000  1
  Si  Si17  1  0.866905  0.884961  0.750000  1
  Si  Si18  1  0.866905  0.615039  0.250000  1
  Si  Si19  1  0.133095  0.384961  0.750000  1
  Rh  Rh20  1  0.357219  0.032338  0.095951  1
  Rh  Rh21  1  0.642781  0.967662  0.904049  1
  Rh  Rh22  1  0.642781  0.967662  0.595951  1
  Rh  Rh23  1  0.642781  0.532338  0.404049  1
  Rh  Rh24  1  0.357219  0.032338  0.404049  1
  Rh  Rh25  1  0.357219  0.467662  0.595951  1
  Rh  Rh26  1  0.357219  0.467662  0.904049  1
  Rh  Rh27  1  0.642781  0.532338  0.095951  1
