# generated using pymatgen
data_K(Cd3Au2)2
_symmetry_space_group_name_H-M   'P 1'
_cell_length_a   8.00959500
_cell_length_b   8.00959411
_cell_length_c   4.67816100
_cell_angle_alpha   90.00000000
_cell_angle_beta   90.00000000
_cell_angle_gamma   119.99999956
_symmetry_Int_Tables_number   1
_chemical_formula_structural   K(Cd3Au2)2
_chemical_formula_sum   'K1 Cd6 Au4'
_cell_volume   259.91231822
_cell_formula_units_Z   1
loop_
 _symmetry_equiv_pos_site_id
 _symmetry_equiv_pos_as_xyz
  1  'x, y, z'
loop_
 _atom_site_type_symbol
 _atom_site_label
 _atom_site_symmetry_multiplicity
 _atom_site_fract_x
 _atom_site_fract_y
 _atom_site_fract_z
 _atom_site_occupancy
  K  K0  1  0.000000  0.000000  0.000000  1
  Cd  Cd1  1  0.927509  0.463755  0.000000  1
  Cd  Cd2  1  0.200887  0.799113  0.500000  1
  Cd  Cd3  1  0.536245  0.072491  0.000000  1
  Cd  Cd4  1  0.536245  0.463755  0.000000  1
  Cd  Cd5  1  0.200887  0.401773  0.500000  1
  Cd  Cd6  1  0.598227  0.799113  0.500000  1
  Au  Au7  1  0.414080  0.207040  0.500000  1
  Au  Au8  1  0.792960  0.207040  0.500000  1
  Au  Au9  1  0.792960  0.585920  0.500000  1
  Au  Au10  1  0.333333  0.666667  0.000000  1
