# generated using pymatgen
data_SmTh2In3Pt2Rh
_symmetry_space_group_name_H-M   'P 1'
_cell_length_a   7.74560400
_cell_length_b   7.70598494
_cell_length_c   4.04204400
_cell_angle_alpha   90.00000000
_cell_angle_beta   90.00000000
_cell_angle_gamma   120.17021165
_symmetry_Int_Tables_number   1
_chemical_formula_structural   SmTh2In3Pt2Rh
_chemical_formula_sum   'Sm1 Th2 In3 Pt2 Rh1'
_cell_volume   208.57760156
_cell_formula_units_Z   1
loop_
 _symmetry_equiv_pos_site_id
 _symmetry_equiv_pos_as_xyz
  1  'x, y, z'
loop_
 _atom_site_type_symbol
 _atom_site_label
 _atom_site_symmetry_multiplicity
 _atom_site_fract_x
 _atom_site_fract_y
 _atom_site_fract_z
 _atom_site_occupancy
  Sm  Sm0  1  0.409398  0.000000  0.500000  1
  Th  Th1  1  0.004412  0.410503  0.500000  1
  Th  Th2  1  0.593910  0.589497  0.500000  1
  In  In3  1  0.249614  0.237760  0.000000  1
  In  In4  1  0.011854  0.762240  0.000000  1
  In  In5  1  0.739432  0.000000  0.000000  1
  Pt  Pt6  1  0.330948  0.652948  0.000000  1
  Pt  Pt7  1  0.678002  0.347052  0.000000  1
  Rh  Rh8  1  0.982430  0.000000  0.500000  1
