# generated using pymatgen
data_TaNb11Al5Cu3N4
_symmetry_space_group_name_H-M   'P 1'
_cell_length_a   7.02476860
_cell_length_b   7.02537848
_cell_length_c   7.02228762
_cell_angle_alpha   90.14607388
_cell_angle_beta   90.16049256
_cell_angle_gamma   90.13851654
_symmetry_Int_Tables_number   1
_chemical_formula_structural   TaNb11Al5Cu3N4
_chemical_formula_sum   'Ta1 Nb11 Al5 Cu3 N4'
_cell_volume   346.55803318
_cell_formula_units_Z   1
loop_
 _symmetry_equiv_pos_site_id
 _symmetry_equiv_pos_as_xyz
  1  'x, y, z'
loop_
 _atom_site_type_symbol
 _atom_site_label
 _atom_site_symmetry_multiplicity
 _atom_site_fract_x
 _atom_site_fract_y
 _atom_site_fract_z
 _atom_site_occupancy
  Ta  Ta0  1  0.791895  0.957444  0.376661  1
  Nb  Nb1  1  0.707751  0.042022  0.872345  1
  Nb  Nb2  1  0.207306  0.456389  0.126600  1
  Nb  Nb3  1  0.292751  0.543475  0.625785  1
  Nb  Nb4  1  0.956483  0.376386  0.791188  1
  Nb  Nb5  1  0.042332  0.872086  0.707866  1
  Nb  Nb6  1  0.455950  0.127012  0.207552  1
  Nb  Nb7  1  0.543591  0.625707  0.293156  1
  Nb  Nb8  1  0.378035  0.791887  0.957287  1
  Nb  Nb9  1  0.872378  0.707324  0.042034  1
  Nb  Nb10  1  0.126895  0.207442  0.455983  1
  Nb  Nb11  1  0.625443  0.293082  0.543542  1
  Al  Al12  1  0.677444  0.677816  0.677281  1
  Al  Al13  1  0.570974  0.417748  0.934176  1
  Al  Al14  1  0.417957  0.934050  0.570923  1
  Al  Al15  1  0.933998  0.571158  0.417605  1
  Al  Al16  1  0.073460  0.073650  0.073610  1
  Cu  Cu17  1  0.177677  0.822068  0.319428  1
  Cu  Cu18  1  0.319212  0.178620  0.821779  1
  Cu  Cu19  1  0.821899  0.318546  0.178912  1
  N  N20  1  0.878514  0.124415  0.621906  1
  N  N21  1  0.625500  0.880852  0.127940  1
  N  N22  1  0.125818  0.624084  0.879758  1
  N  N23  1  0.376736  0.376737  0.376681  1
