# generated using pymatgen
data_Sc4PBr6
_symmetry_space_group_name_H-M   'P 1'
_cell_length_a   3.80852500
_cell_length_b   12.64875800
_cell_length_c   13.17510200
_cell_angle_alpha   90.00000000
_cell_angle_beta   90.00000000
_cell_angle_gamma   90.00000000
_symmetry_Int_Tables_number   1
_chemical_formula_structural   Sc4PBr6
_chemical_formula_sum   'Sc8 P2 Br12'
_cell_volume   634.68565190
_cell_formula_units_Z   2
loop_
 _symmetry_equiv_pos_site_id
 _symmetry_equiv_pos_as_xyz
  1  'x, y, z'
loop_
 _atom_site_type_symbol
 _atom_site_label
 _atom_site_symmetry_multiplicity
 _atom_site_fract_x
 _atom_site_fract_y
 _atom_site_fract_z
 _atom_site_occupancy
  Sc  Sc0  1  0.000000  0.106175  0.081734  1
  Sc  Sc1  1  0.000000  0.893825  0.918266  1
  Sc  Sc2  1  0.000000  0.606175  0.418266  1
  Sc  Sc3  1  0.000000  0.393825  0.581734  1
  Sc  Sc4  1  0.500000  0.124300  0.851596  1
  Sc  Sc5  1  0.500000  0.875700  0.148404  1
  Sc  Sc6  1  0.500000  0.624300  0.648404  1
  Sc  Sc7  1  0.500000  0.375700  0.351596  1
  P  P8  1  0.500000  0.000000  0.000000  1
  P  P9  1  0.500000  0.500000  0.500000  1
  Br  Br10  1  0.500000  0.264269  0.676998  1
  Br  Br11  1  0.500000  0.735731  0.323002  1
  Br  Br12  1  0.500000  0.764269  0.823002  1
  Br  Br13  1  0.500000  0.235731  0.176998  1
  Br  Br14  1  0.000000  0.256794  0.928160  1
  Br  Br15  1  0.000000  0.743206  0.071840  1
  Br  Br16  1  0.000000  0.483283  0.244080  1
  Br  Br17  1  0.000000  0.516717  0.755920  1
  Br  Br18  1  0.000000  0.983283  0.255920  1
  Br  Br19  1  0.000000  0.016717  0.744080  1
  Br  Br20  1  0.000000  0.243206  0.428160  1
  Br  Br21  1  0.000000  0.756794  0.571840  1
