# generated using pymatgen
data_Nd3NpN4
_symmetry_space_group_name_H-M   'P 1'
_cell_length_a   6.19105134
_cell_length_b   7.19228025
_cell_length_c   7.19214015
_cell_angle_alpha   59.72983354
_cell_angle_beta   72.85324365
_cell_angle_gamma   72.85398397
_symmetry_Int_Tables_number   1
_chemical_formula_structural   Nd3NpN4
_chemical_formula_sum   'Nd6 Np2 N8'
_cell_volume   260.11299165
_cell_formula_units_Z   2
loop_
 _symmetry_equiv_pos_site_id
 _symmetry_equiv_pos_as_xyz
  1  'x, y, z'
loop_
 _atom_site_type_symbol
 _atom_site_label
 _atom_site_symmetry_multiplicity
 _atom_site_fract_x
 _atom_site_fract_y
 _atom_site_fract_z
 _atom_site_occupancy
  Nd  Nd0  1  0.247281  0.377001  0.623801  1
  Nd  Nd1  1  0.752719  0.622999  0.376199  1
  Nd  Nd2  1  0.749998  0.625236  0.874765  1
  Nd  Nd3  1  0.250002  0.374764  0.125235  1
  Nd  Nd4  1  0.252757  0.876166  0.123043  1
  Nd  Nd5  1  0.747243  0.123834  0.876957  1
  Np  Np6  1  0.749984  0.124063  0.375933  1
  Np  Np7  1  0.250016  0.875937  0.624067  1
  N  N8  1  0.002767  0.781545  0.494659  1
  N  N9  1  0.997233  0.218455  0.505341  1
  N  N10  1  0.525548  0.466313  0.265132  1
  N  N11  1  0.474452  0.533687  0.734868  1
  N  N12  1  0.497364  0.005376  0.718366  1
  N  N13  1  0.502636  0.994624  0.281634  1
  N  N14  1  0.025666  0.765176  0.966154  1
  N  N15  1  0.974334  0.234824  0.033846  1
