# generated using pymatgen
data_PrDy7Sc12Si15Sn
_symmetry_space_group_name_H-M   'P 1'
_cell_length_a   7.14769272
_cell_length_b   7.42696329
_cell_length_c   14.09387306
_cell_angle_alpha   90.13961278
_cell_angle_beta   89.68794032
_cell_angle_gamma   90.09803475
_symmetry_Int_Tables_number   1
_chemical_formula_structural   PrDy7Sc12Si15Sn
_chemical_formula_sum   'Pr1 Dy7 Sc12 Si15 Sn1'
_cell_volume   748.16803617
_cell_formula_units_Z   1
loop_
 _symmetry_equiv_pos_site_id
 _symmetry_equiv_pos_as_xyz
  1  'x, y, z'
loop_
 _atom_site_type_symbol
 _atom_site_label
 _atom_site_symmetry_multiplicity
 _atom_site_fract_x
 _atom_site_fract_y
 _atom_site_fract_z
 _atom_site_occupancy
  Pr  Pr0  1  0.012134  0.172971  0.095148  1
  Dy  Dy1  1  0.007216  0.169542  0.398408  1
  Dy  Dy2  1  0.513459  0.321653  0.400385  1
  Dy  Dy3  1  0.489443  0.675671  0.902458  1
  Dy  Dy4  1  0.499874  0.683369  0.600594  1
  Dy  Dy5  1  0.987421  0.830635  0.599179  1
  Dy  Dy6  1  0.986903  0.824875  0.902192  1
  Dy  Dy7  1  0.511890  0.325423  0.097206  1
  Sc  Sc8  1  0.341758  0.162718  0.631000  1
  Sc  Sc9  1  0.664462  0.824634  0.373789  1
  Sc  Sc10  1  0.662720  0.997767  0.751862  1
  Sc  Sc11  1  0.165600  0.682958  0.370914  1
  Sc  Sc12  1  0.829327  0.324991  0.875519  1
  Sc  Sc13  1  0.821607  0.323199  0.626364  1
  Sc  Sc14  1  0.837907  0.498215  0.249951  1
  Sc  Sc15  1  0.338420  0.001405  0.249708  1
  Sc  Sc16  1  0.330673  0.176179  0.874882  1
  Sc  Sc17  1  0.170262  0.675702  0.124555  1
  Sc  Sc18  1  0.668316  0.821994  0.124546  1
  Sc  Sc19  1  0.161790  0.502240  0.754944  1
  Si  Si20  1  0.285956  0.871252  0.751948  1
  Si  Si21  1  0.465675  0.617371  0.249137  1
  Si  Si22  1  0.033609  0.120582  0.750932  1
  Si  Si23  1  0.532664  0.383712  0.751636  1
  Si  Si24  1  0.962868  0.879086  0.248758  1
  Si  Si25  1  0.709608  0.123932  0.249987  1
  Si  Si26  1  0.841342  0.539125  0.038030  1
  Si  Si27  1  0.348652  0.962597  0.038456  1
  Si  Si28  1  0.157817  0.469175  0.959390  1
  Si  Si29  1  0.659708  0.036727  0.538285  1
  Si  Si30  1  0.339727  0.964652  0.460704  1
  Si  Si31  1  0.831818  0.538708  0.458614  1
  Si  Si32  1  0.789227  0.627120  0.751074  1
  Si  Si33  1  0.214918  0.376668  0.250903  1
  Si  Si34  1  0.654577  0.034585  0.959734  1
  Sn  Sn35  1  0.170647  0.458567  0.538805  1
