# generated using pymatgen
data_Pu4Zn3GaIr4
_symmetry_space_group_name_H-M   'P 1'
_cell_length_a   4.15229800
_cell_length_b   7.03137366
_cell_length_c   8.20003200
_cell_angle_alpha   89.72385952
_cell_angle_beta   90.00000000
_cell_angle_gamma   90.00000000
_symmetry_Int_Tables_number   1
_chemical_formula_structural   Pu4Zn3GaIr4
_chemical_formula_sum   'Pu4 Zn3 Ga1 Ir4'
_cell_volume   239.40829589
_cell_formula_units_Z   1
loop_
 _symmetry_equiv_pos_site_id
 _symmetry_equiv_pos_as_xyz
  1  'x, y, z'
loop_
 _atom_site_type_symbol
 _atom_site_label
 _atom_site_symmetry_multiplicity
 _atom_site_fract_x
 _atom_site_fract_y
 _atom_site_fract_z
 _atom_site_occupancy
  Pu  Pu0  1  0.250000  0.969097  0.318123  1
  Pu  Pu1  1  0.250000  0.471844  0.183349  1
  Pu  Pu2  1  0.750000  0.029525  0.681803  1
  Pu  Pu3  1  0.750000  0.530964  0.817576  1
  Zn  Zn4  1  0.250000  0.359886  0.564620  1
  Zn  Zn5  1  0.250000  0.857585  0.934108  1
  Zn  Zn6  1  0.750000  0.637795  0.435854  1
  Ga  Ga7  1  0.750000  0.139977  0.063030  1
  Ir  Ir8  1  0.250000  0.244358  0.882687  1
  Ir  Ir9  1  0.250000  0.744892  0.623383  1
  Ir  Ir10  1  0.750000  0.759606  0.122725  1
  Ir  Ir11  1  0.750000  0.254471  0.372742  1
