# generated using pymatgen
data_Tb4YbLu2CoI12
_symmetry_space_group_name_H-M   'P 1'
_cell_length_a   9.66146943
_cell_length_b   9.74231373
_cell_length_c   9.75446333
_cell_angle_alpha   106.82481811
_cell_angle_beta   107.08869022
_cell_angle_gamma   106.70772564
_symmetry_Int_Tables_number   1
_chemical_formula_structural   Tb4YbLu2CoI12
_chemical_formula_sum   'Tb4 Yb1 Lu2 Co1 I12'
_cell_volume   767.24671751
_cell_formula_units_Z   1
loop_
 _symmetry_equiv_pos_site_id
 _symmetry_equiv_pos_as_xyz
  1  'x, y, z'
loop_
 _atom_site_type_symbol
 _atom_site_label
 _atom_site_symmetry_multiplicity
 _atom_site_fract_x
 _atom_site_fract_y
 _atom_site_fract_z
 _atom_site_occupancy
  Tb  Tb0  1  0.285111  0.024670  0.093915  1
  Tb  Tb1  1  0.976371  0.905281  0.703690  1
  Tb  Tb2  1  0.903981  0.703723  0.976343  1
  Tb  Tb3  1  0.716133  0.977949  0.909079  1
  Yb  Yb4  1  0.499847  0.500135  0.500075  1
  Lu  Lu5  1  0.024343  0.095076  0.288776  1
  Lu  Lu6  1  0.093691  0.288925  0.025217  1
  Co  Co7  1  0.000485  0.000378  0.000528  1
  I  I8  1  0.148050  0.454585  0.376681  1
  I  I9  1  0.454941  0.379853  0.149830  1
  I  I10  1  0.376991  0.150899  0.457930  1
  I  I11  1  0.849910  0.541354  0.620239  1
  I  I12  1  0.540514  0.620801  0.848461  1
  I  I13  1  0.619098  0.849232  0.542396  1
  I  I14  1  0.682221  0.072757  0.225553  1
  I  I15  1  0.072767  0.226182  0.680264  1
  I  I16  1  0.225644  0.677788  0.072699  1
  I  I17  1  0.321966  0.928453  0.777473  1
  I  I18  1  0.929107  0.780786  0.322276  1
  I  I19  1  0.778828  0.321173  0.928574  1
