# generated using pymatgen
data_HfTa5(MnB7)2
_symmetry_space_group_name_H-M   'P 1'
_cell_length_a   3.20037300
_cell_length_b   7.33057266
_cell_length_c   8.78975000
_cell_angle_alpha   90.00000000
_cell_angle_beta   90.00000000
_cell_angle_gamma   77.39141338
_symmetry_Int_Tables_number   1
_chemical_formula_structural   HfTa5(MnB7)2
_chemical_formula_sum   'Hf1 Ta5 Mn2 B14'
_cell_volume   201.23950821
_cell_formula_units_Z   1
loop_
 _symmetry_equiv_pos_site_id
 _symmetry_equiv_pos_as_xyz
  1  'x, y, z'
loop_
 _atom_site_type_symbol
 _atom_site_label
 _atom_site_symmetry_multiplicity
 _atom_site_fract_x
 _atom_site_fract_y
 _atom_site_fract_z
 _atom_site_occupancy
  Hf  Hf0  1  0.249181  0.501637  0.750000  1
  Ta  Ta1  1  0.106439  0.787124  0.054364  1
  Ta  Ta2  1  0.750851  0.498302  0.250000  1
  Ta  Ta3  1  0.106439  0.787124  0.445635  1
  Ta  Ta4  1  0.894429  0.211146  0.552879  1
  Ta  Ta5  1  0.894429  0.211146  0.947122  1
  Mn  Mn6  1  0.951552  0.096897  0.250000  1
  Mn  Mn7  1  0.048399  0.903204  0.750000  1
  B  B8  1  0.272737  0.454527  0.034644  1
  B  B9  1  0.485039  0.029925  0.094353  1
  B  B10  1  0.368072  0.263859  0.152096  1
  B  B11  1  0.566662  0.866681  0.250000  1
  B  B12  1  0.368072  0.263859  0.347905  1
  B  B13  1  0.485039  0.029925  0.405647  1
  B  B14  1  0.272737  0.454527  0.465356  1
  B  B15  1  0.726831  0.546342  0.531272  1
  B  B16  1  0.514797  0.970409  0.594711  1
  B  B17  1  0.631494  0.737014  0.651184  1
  B  B18  1  0.433709  0.132583  0.750000  1
  B  B19  1  0.631494  0.737014  0.848815  1
  B  B20  1  0.514797  0.970409  0.905289  1
  B  B21  1  0.726831  0.546342  0.968728  1
