# generated using pymatgen
data_CaSmB4Rh5
_symmetry_space_group_name_H-M   'P 1'
_cell_length_a   7.50861984
_cell_length_b   6.31253233
_cell_length_c   5.62993900
_cell_angle_alpha   77.68096983
_cell_angle_beta   55.21989256
_cell_angle_gamma   47.09913668
_symmetry_Int_Tables_number   1
_chemical_formula_structural   CaSmB4Rh5
_chemical_formula_sum   'Ca1 Sm1 B4 Rh5'
_cell_volume   153.61631483
_cell_formula_units_Z   1
loop_
 _symmetry_equiv_pos_site_id
 _symmetry_equiv_pos_as_xyz
  1  'x, y, z'
loop_
 _atom_site_type_symbol
 _atom_site_label
 _atom_site_symmetry_multiplicity
 _atom_site_fract_x
 _atom_site_fract_y
 _atom_site_fract_z
 _atom_site_occupancy
  Ca  Ca0  1  0.145214  0.145214  0.854786  1
  Sm  Sm1  1  0.859432  0.859432  0.140568  1
  B  B2  1  0.789297  0.471588  0.528412  1
  B  B3  1  0.208833  0.528547  0.471453  1
  B  B4  1  0.528547  0.208833  0.791167  1
  B  B5  1  0.471588  0.789297  0.210703  1
  Rh  Rh6  1  0.499376  0.499376  0.500624  1
  Rh  Rh7  1  0.499806  0.499806  0.000194  1
  Rh  Rh8  1  0.999806  0.999806  0.500194  1
  Rh  Rh9  1  0.749050  0.749050  0.750950  1
  Rh  Rh10  1  0.249050  0.249050  0.250950  1
