# generated using pymatgen
data_Dy2Er2Ga3SiRu4
_symmetry_space_group_name_H-M   'P 1'
_cell_length_a   4.45003300
_cell_length_b   7.10940564
_cell_length_c   7.14399103
_cell_angle_alpha   90.21321803
_cell_angle_beta   90.00000000
_cell_angle_gamma   90.00000000
_symmetry_Int_Tables_number   1
_chemical_formula_structural   Dy2Er2Ga3SiRu4
_chemical_formula_sum   'Dy2 Er2 Ga3 Si1 Ru4'
_cell_volume   226.01352039
_cell_formula_units_Z   1
loop_
 _symmetry_equiv_pos_site_id
 _symmetry_equiv_pos_as_xyz
  1  'x, y, z'
loop_
 _atom_site_type_symbol
 _atom_site_label
 _atom_site_symmetry_multiplicity
 _atom_site_fract_x
 _atom_site_fract_y
 _atom_site_fract_z
 _atom_site_occupancy
  Dy  Dy0  1  0.750000  0.015432  0.195845  1
  Dy  Dy1  1  0.750000  0.514363  0.306252  1
  Er  Er2  1  0.250000  0.985523  0.806220  1
  Er  Er3  1  0.250000  0.477634  0.695355  1
  Ga  Ga4  1  0.250000  0.301695  0.106478  1
  Ga  Ga5  1  0.750000  0.695447  0.891714  1
  Ga  Ga6  1  0.250000  0.800352  0.397320  1
  Si  Si7  1  0.750000  0.196641  0.602616  1
  Ru  Ru8  1  0.750000  0.857358  0.565896  1
  Ru  Ru9  1  0.250000  0.163236  0.448003  1
  Ru  Ru10  1  0.750000  0.331752  0.920673  1
  Ru  Ru11  1  0.250000  0.660567  0.063628  1
