# generated using pymatgen
data_Tb2PrY2(FeB3)2
_symmetry_space_group_name_H-M   'P 1'
_cell_length_a   5.44200245
_cell_length_b   5.44200186
_cell_length_c   8.30672116
_cell_angle_alpha   70.87887628
_cell_angle_beta   70.87887792
_cell_angle_gamma   59.99999416
_symmetry_Int_Tables_number   1
_chemical_formula_structural   Tb2PrY2(FeB3)2
_chemical_formula_sum   'Tb2 Pr1 Y2 Fe2 B6'
_cell_volume   197.22015586
_cell_formula_units_Z   1
loop_
 _symmetry_equiv_pos_site_id
 _symmetry_equiv_pos_as_xyz
  1  'x, y, z'
loop_
 _atom_site_type_symbol
 _atom_site_label
 _atom_site_symmetry_multiplicity
 _atom_site_fract_x
 _atom_site_fract_y
 _atom_site_fract_z
 _atom_site_occupancy
  Tb  Tb0  1  0.749116  0.749116  0.752653  1
  Tb  Tb1  1  0.250884  0.250884  0.247347  1
  Pr  Pr2  1  0.000000  0.000000  0.000000  1
  Y  Y3  1  0.582872  0.582872  0.251385  1
  Y  Y4  1  0.417128  0.417128  0.748615  1
  Fe  Fe5  1  0.882862  0.882862  0.351414  1
  Fe  Fe6  1  0.117138  0.117138  0.648586  1
  B  B7  1  0.500000  0.167438  0.500000  1
  B  B8  1  0.832562  0.500000  0.500000  1
  B  B9  1  0.167438  0.832562  0.500000  1
  B  B10  1  0.167438  0.500000  0.500000  1
  B  B11  1  0.832562  0.167438  0.500000  1
  B  B12  1  0.500000  0.832562  0.500000  1
