# generated using pymatgen
data_Dy2Zr2CuNi5P6
_symmetry_space_group_name_H-M   'P 1'
_cell_length_a   3.74313400
_cell_length_b   10.23972315
_cell_length_c   12.36329704
_cell_angle_alpha   89.72071964
_cell_angle_beta   90.00000000
_cell_angle_gamma   90.00000000
_symmetry_Int_Tables_number   1
_chemical_formula_structural   Dy2Zr2CuNi5P6
_chemical_formula_sum   'Dy4 Zr4 Cu2 Ni10 P12'
_cell_volume   473.86292810
_cell_formula_units_Z   2
loop_
 _symmetry_equiv_pos_site_id
 _symmetry_equiv_pos_as_xyz
  1  'x, y, z'
loop_
 _atom_site_type_symbol
 _atom_site_label
 _atom_site_symmetry_multiplicity
 _atom_site_fract_x
 _atom_site_fract_y
 _atom_site_fract_z
 _atom_site_occupancy
  Dy  Dy0  1  0.250000  0.069324  0.205215  1
  Dy  Dy1  1  0.750000  0.930676  0.794785  1
  Dy  Dy2  1  0.750000  0.572656  0.292779  1
  Dy  Dy3  1  0.250000  0.427344  0.707221  1
  Zr  Zr4  1  0.250000  0.161183  0.497245  1
  Zr  Zr5  1  0.750000  0.838817  0.502755  1
  Zr  Zr6  1  0.750000  0.659229  0.002696  1
  Zr  Zr7  1  0.250000  0.340771  0.997304  1
  Cu  Cu8  1  0.250000  0.728680  0.665398  1
  Cu  Cu9  1  0.750000  0.271320  0.334602  1
  Ni  Ni10  1  0.750000  0.228794  0.835723  1
  Ni  Ni11  1  0.250000  0.771206  0.164277  1
  Ni  Ni12  1  0.250000  0.365930  0.220587  1
  Ni  Ni13  1  0.750000  0.634070  0.779413  1
  Ni  Ni14  1  0.750000  0.865281  0.281040  1
  Ni  Ni15  1  0.250000  0.134719  0.718960  1
  Ni  Ni16  1  0.250000  0.602993  0.483723  1
  Ni  Ni17  1  0.750000  0.397007  0.516277  1
  Ni  Ni18  1  0.750000  0.097512  0.015349  1
  Ni  Ni19  1  0.250000  0.902488  0.984651  1
  P  P20  1  0.250000  0.948364  0.623707  1
  P  P21  1  0.750000  0.051636  0.376293  1
  P  P22  1  0.750000  0.445641  0.875687  1
  P  P23  1  0.250000  0.554359  0.124313  1
  P  P24  1  0.250000  0.399808  0.405398  1
  P  P25  1  0.750000  0.600192  0.594602  1
  P  P26  1  0.750000  0.892996  0.097884  1
  P  P27  1  0.250000  0.107004  0.902116  1
  P  P28  1  0.250000  0.771041  0.353880  1
  P  P29  1  0.750000  0.228959  0.646120  1
  P  P30  1  0.750000  0.268996  0.142591  1
  P  P31  1  0.250000  0.731004  0.857409  1
