# generated using pymatgen
data_CeSc7BePd24
_symmetry_space_group_name_H-M   'P 1'
_cell_length_a   8.11738096
_cell_length_b   8.11738191
_cell_length_c   8.11738200
_cell_angle_alpha   89.95107818
_cell_angle_beta   90.04892183
_cell_angle_gamma   90.04892122
_symmetry_Int_Tables_number   1
_chemical_formula_structural   CeSc7BePd24
_chemical_formula_sum   'Ce1 Sc7 Be1 Pd24'
_cell_volume   534.86898725
_cell_formula_units_Z   1
loop_
 _symmetry_equiv_pos_site_id
 _symmetry_equiv_pos_as_xyz
  1  'x, y, z'
loop_
 _atom_site_type_symbol
 _atom_site_label
 _atom_site_symmetry_multiplicity
 _atom_site_fract_x
 _atom_site_fract_y
 _atom_site_fract_z
 _atom_site_occupancy
  Ce  Ce0  1  0.747079  0.252921  0.252921  1
  Sc  Sc1  1  0.250753  0.251280  0.251280  1
  Sc  Sc2  1  0.748721  0.749017  0.749017  1
  Sc  Sc3  1  0.748720  0.749247  0.251280  1
  Sc  Sc4  1  0.748720  0.251280  0.749247  1
  Sc  Sc5  1  0.250983  0.251279  0.749017  1
  Sc  Sc6  1  0.250983  0.749017  0.251279  1
  Sc  Sc7  1  0.251731  0.748269  0.748269  1
  Be  Be8  1  0.001805  0.998195  0.998195  1
  Pd  Pd9  1  0.253808  0.500474  0.999285  1
  Pd  Pd10  1  0.746261  0.502358  0.997481  1
  Pd  Pd11  1  0.002519  0.253739  0.502358  1
  Pd  Pd12  1  0.497642  0.253739  0.997481  1
  Pd  Pd13  1  0.000715  0.746192  0.500474  1
  Pd  Pd14  1  0.499526  0.746192  0.999285  1
  Pd  Pd15  1  0.497642  0.997481  0.253739  1
  Pd  Pd16  1  0.253808  0.999285  0.500474  1
  Pd  Pd17  1  0.499526  0.999285  0.746192  1
  Pd  Pd18  1  0.746261  0.997481  0.502358  1
  Pd  Pd19  1  0.002519  0.502358  0.253739  1
  Pd  Pd20  1  0.000715  0.500474  0.746192  1
  Pd  Pd21  1  0.251009  0.500612  0.500612  1
  Pd  Pd22  1  0.748621  0.503407  0.503407  1
  Pd  Pd23  1  0.496593  0.251379  0.503407  1
  Pd  Pd24  1  0.499388  0.748991  0.500612  1
  Pd  Pd25  1  0.496593  0.503407  0.251379  1
  Pd  Pd26  1  0.499388  0.500612  0.748991  1
  Pd  Pd27  1  0.268131  0.999227  0.999227  1
  Pd  Pd28  1  0.732640  0.997172  0.997172  1
  Pd  Pd29  1  0.002828  0.267360  0.997172  1
  Pd  Pd30  1  0.000773  0.731869  0.999227  1
  Pd  Pd31  1  0.002828  0.997172  0.267360  1
  Pd  Pd32  1  0.000773  0.999227  0.731869  1
