# generated using pymatgen
data_CaErZn14Cu3
_symmetry_space_group_name_H-M   'P 1'
_cell_length_a   8.93356500
_cell_length_b   8.93356505
_cell_length_c   8.70832100
_cell_angle_alpha   90.00000000
_cell_angle_beta   90.00000000
_cell_angle_gamma   120.00000354
_symmetry_Int_Tables_number   1
_chemical_formula_structural   CaErZn14Cu3
_chemical_formula_sum   'Ca2 Er2 Zn28 Cu6'
_cell_volume   601.88656738
_cell_formula_units_Z   2
loop_
 _symmetry_equiv_pos_site_id
 _symmetry_equiv_pos_as_xyz
  1  'x, y, z'
loop_
 _atom_site_type_symbol
 _atom_site_label
 _atom_site_symmetry_multiplicity
 _atom_site_fract_x
 _atom_site_fract_y
 _atom_site_fract_z
 _atom_site_occupancy
  Ca  Ca0  1  0.000000  0.000000  0.250000  1
  Ca  Ca1  1  0.000000  0.000000  0.750000  1
  Er  Er2  1  0.333333  0.666667  0.750000  1
  Er  Er3  1  0.666667  0.333333  0.250000  1
  Zn  Zn4  1  0.333333  0.666667  0.404253  1
  Zn  Zn5  1  0.666667  0.333333  0.595747  1
  Zn  Zn6  1  0.666667  0.333333  0.904253  1
  Zn  Zn7  1  0.333333  0.666667  0.095747  1
  Zn  Zn8  1  0.333726  0.370238  0.250000  1
  Zn  Zn9  1  0.629762  0.963489  0.250000  1
  Zn  Zn10  1  0.036511  0.666274  0.250000  1
  Zn  Zn11  1  0.629762  0.666274  0.250000  1
  Zn  Zn12  1  0.036511  0.370238  0.250000  1
  Zn  Zn13  1  0.333726  0.963489  0.250000  1
  Zn  Zn14  1  0.666274  0.629762  0.750000  1
  Zn  Zn15  1  0.370238  0.036511  0.750000  1
  Zn  Zn16  1  0.963489  0.333726  0.750000  1
  Zn  Zn17  1  0.370238  0.333726  0.750000  1
  Zn  Zn18  1  0.963489  0.629762  0.750000  1
  Zn  Zn19  1  0.666274  0.036511  0.750000  1
  Zn  Zn20  1  0.169629  0.830371  0.521284  1
  Zn  Zn21  1  0.169629  0.339258  0.521284  1
  Zn  Zn22  1  0.660742  0.830371  0.521284  1
  Zn  Zn23  1  0.830371  0.169629  0.478716  1
  Zn  Zn24  1  0.830371  0.660742  0.478716  1
  Zn  Zn25  1  0.339258  0.169629  0.478716  1
  Zn  Zn26  1  0.830371  0.169629  0.021284  1
  Zn  Zn27  1  0.830371  0.660742  0.021284  1
  Zn  Zn28  1  0.339258  0.169629  0.021284  1
  Zn  Zn29  1  0.169629  0.830371  0.978716  1
  Zn  Zn30  1  0.169629  0.339258  0.978716  1
  Zn  Zn31  1  0.660742  0.830371  0.978716  1
  Cu  Cu32  1  0.500000  0.500000  0.500000  1
  Cu  Cu33  1  0.500000  0.000000  0.500000  1
  Cu  Cu34  1  0.000000  0.500000  0.500000  1
  Cu  Cu35  1  0.500000  0.500000  0.000000  1
  Cu  Cu36  1  0.500000  0.000000  0.000000  1
  Cu  Cu37  1  0.000000  0.500000  0.000000  1
