# generated using pymatgen
data_Dy8Tm2GaSi3Sb4
_symmetry_space_group_name_H-M   'P 1'
_cell_length_a   8.52740079
_cell_length_b   8.52740141
_cell_length_c   7.86354935
_cell_angle_alpha   89.82781409
_cell_angle_beta   89.82781171
_cell_angle_gamma   125.17523790
_symmetry_Int_Tables_number   1
_chemical_formula_structural   Dy8Tm2GaSi3Sb4
_chemical_formula_sum   'Dy8 Tm2 Ga1 Si3 Sb4'
_cell_volume   467.38434603
_cell_formula_units_Z   1
loop_
 _symmetry_equiv_pos_site_id
 _symmetry_equiv_pos_as_xyz
  1  'x, y, z'
loop_
 _atom_site_type_symbol
 _atom_site_label
 _atom_site_symmetry_multiplicity
 _atom_site_fract_x
 _atom_site_fract_y
 _atom_site_fract_z
 _atom_site_occupancy
  Dy  Dy0  1  0.540413  0.793788  0.167411  1
  Dy  Dy1  1  0.291529  0.040822  0.334166  1
  Dy  Dy2  1  0.205802  0.458494  0.834034  1
  Dy  Dy3  1  0.961389  0.708346  0.664920  1
  Dy  Dy4  1  0.708346  0.961389  0.664920  1
  Dy  Dy5  1  0.458494  0.205802  0.834034  1
  Dy  Dy6  1  0.793788  0.540413  0.167411  1
  Dy  Dy7  1  0.040822  0.291529  0.334166  1
  Tm  Tm8  1  0.498853  0.498853  0.498309  1
  Tm  Tm9  1  0.001248  0.001248  0.001121  1
  Ga  Ga10  1  0.631890  0.631890  0.868468  1
  Si  Si11  1  0.132744  0.132744  0.633613  1
  Si  Si12  1  0.865952  0.865952  0.367548  1
  Si  Si13  1  0.368893  0.368893  0.130705  1
  Sb  Sb14  1  0.294116  0.704359  0.499519  1
  Sb  Sb15  1  0.205911  0.795452  0.000069  1
  Sb  Sb16  1  0.704359  0.294116  0.499519  1
  Sb  Sb17  1  0.795452  0.205911  0.000069  1
