# generated using pymatgen
data_AcTb(Si7Ir3)2
_symmetry_space_group_name_H-M   'P 1'
_cell_length_a   8.13841959
_cell_length_b   8.13842023
_cell_length_c   8.13842021
_cell_angle_alpha   56.46500654
_cell_angle_beta   56.46500445
_cell_angle_gamma   56.46500836
_symmetry_Int_Tables_number   1
_chemical_formula_structural   AcTb(Si7Ir3)2
_chemical_formula_sum   'Ac1 Tb1 Si14 Ir6'
_cell_volume   350.01004785
_cell_formula_units_Z   1
loop_
 _symmetry_equiv_pos_site_id
 _symmetry_equiv_pos_as_xyz
  1  'x, y, z'
loop_
 _atom_site_type_symbol
 _atom_site_label
 _atom_site_symmetry_multiplicity
 _atom_site_fract_x
 _atom_site_fract_y
 _atom_site_fract_z
 _atom_site_occupancy
  Ac  Ac0  1  0.000000  0.000000  0.000000  1
  Tb  Tb1  1  0.500000  0.500000  0.500000  1
  Si  Si2  1  0.065047  0.848398  0.670969  1
  Si  Si3  1  0.670969  0.065047  0.848398  1
  Si  Si4  1  0.848398  0.670969  0.065047  1
  Si  Si5  1  0.174820  0.353318  0.560132  1
  Si  Si6  1  0.560132  0.174820  0.353318  1
  Si  Si7  1  0.353318  0.560132  0.174820  1
  Si  Si8  1  0.934953  0.151602  0.329031  1
  Si  Si9  1  0.329031  0.934953  0.151602  1
  Si  Si10  1  0.151602  0.329031  0.934953  1
  Si  Si11  1  0.825180  0.646682  0.439868  1
  Si  Si12  1  0.439868  0.825180  0.646682  1
  Si  Si13  1  0.646682  0.439868  0.825180  1
  Si  Si14  1  0.750254  0.750254  0.750254  1
  Si  Si15  1  0.249746  0.249746  0.249746  1
  Ir  Ir16  1  0.070520  0.746224  0.435237  1
  Ir  Ir17  1  0.435237  0.070520  0.746224  1
  Ir  Ir18  1  0.746224  0.435237  0.070520  1
  Ir  Ir19  1  0.929480  0.253776  0.564763  1
  Ir  Ir20  1  0.564763  0.929480  0.253776  1
  Ir  Ir21  1  0.253776  0.564763  0.929480  1
