# generated using pymatgen
data_Ca5La15Si15Ge
_symmetry_space_group_name_H-M   'P 1'
_cell_length_a   7.92269009
_cell_length_b   7.93191873
_cell_length_c   15.17703600
_cell_angle_alpha   89.88615843
_cell_angle_beta   89.91811363
_cell_angle_gamma   90.00773974
_symmetry_Int_Tables_number   1
_chemical_formula_structural   Ca5La15Si15Ge
_chemical_formula_sum   'Ca5 La15 Si15 Ge1'
_cell_volume   953.75446345
_cell_formula_units_Z   1
loop_
 _symmetry_equiv_pos_site_id
 _symmetry_equiv_pos_as_xyz
  1  'x, y, z'
loop_
 _atom_site_type_symbol
 _atom_site_label
 _atom_site_symmetry_multiplicity
 _atom_site_fract_x
 _atom_site_fract_y
 _atom_site_fract_z
 _atom_site_occupancy
  Ca  Ca0  1  0.309506  0.307928  0.000106  1
  Ca  Ca1  1  0.192943  0.809707  0.251919  1
  Ca  Ca2  1  0.807198  0.191521  0.750488  1
  Ca  Ca3  1  0.687681  0.694088  0.499194  1
  Ca  Ca4  1  0.379130  0.011248  0.448918  1
  La  La5  1  0.490480  0.876650  0.698460  1
  La  La6  1  0.510860  0.122534  0.200165  1
  La  La7  1  0.876824  0.489002  0.300373  1
  La  La8  1  0.124217  0.514193  0.800621  1
  La  La9  1  0.624535  0.988121  0.950222  1
  La  La10  1  0.007880  0.377931  0.549063  1
  La  La11  1  0.989197  0.623612  0.050988  1
  La  La12  1  0.125781  0.981653  0.877007  1
  La  La13  1  0.516928  0.623648  0.126385  1
  La  La14  1  0.483336  0.375349  0.626696  1
  La  La15  1  0.625217  0.518591  0.873497  1
  La  La16  1  0.374016  0.480829  0.373635  1
  La  La17  1  0.874400  0.017665  0.376566  1
  La  La18  1  0.983998  0.125010  0.123631  1
  La  La19  1  0.017923  0.874248  0.622750  1
  Si  Si20  1  0.332369  0.699749  0.952976  1
  Si  Si21  1  0.667312  0.301461  0.451984  1
  Si  Si22  1  0.700026  0.330770  0.047989  1
  Si  Si23  1  0.297789  0.665061  0.548002  1
  Si  Si24  1  0.800143  0.832732  0.201407  1
  Si  Si25  1  0.165972  0.200515  0.298605  1
  Si  Si26  1  0.831638  0.801803  0.796913  1
  Si  Si27  1  0.289464  0.919071  0.061336  1
  Si  Si28  1  0.582826  0.783955  0.308968  1
  Si  Si29  1  0.423849  0.210305  0.812148  1
  Si  Si30  1  0.788909  0.581389  0.688791  1
  Si  Si31  1  0.210798  0.420031  0.189636  1
  Si  Si32  1  0.714881  0.082209  0.560829  1
  Si  Si33  1  0.920866  0.289969  0.939474  1
  Si  Si34  1  0.076033  0.706999  0.439229  1
  Ge  Ge35  1  0.195076  0.170447  0.701032  1
