# generated using pymatgen
data_Tb13Nd3Cd4Os3Pt
_symmetry_space_group_name_H-M   'P 1'
_cell_length_a   9.73870408
_cell_length_b   9.82074105
_cell_length_c   9.80721710
_cell_angle_alpha   59.65202954
_cell_angle_beta   59.25179839
_cell_angle_gamma   59.29511189
_symmetry_Int_Tables_number   1
_chemical_formula_structural   Tb13Nd3Cd4Os3Pt
_chemical_formula_sum   'Tb13 Nd3 Cd4 Os3 Pt1'
_cell_volume   654.16753093
_cell_formula_units_Z   1
loop_
 _symmetry_equiv_pos_site_id
 _symmetry_equiv_pos_as_xyz
  1  'x, y, z'
loop_
 _atom_site_type_symbol
 _atom_site_label
 _atom_site_symmetry_multiplicity
 _atom_site_fract_x
 _atom_site_fract_y
 _atom_site_fract_z
 _atom_site_occupancy
  Tb  Tb0  1  0.348395  0.350186  0.348180  1
  Tb  Tb1  1  0.347261  0.351305  0.956776  1
  Tb  Tb2  1  0.345961  0.955113  0.352484  1
  Tb  Tb3  1  0.968404  0.342345  0.345240  1
  Tb  Tb4  1  0.815808  0.187429  0.188862  1
  Tb  Tb5  1  0.184320  0.812140  0.811831  1
  Tb  Tb6  1  0.187106  0.811429  0.189398  1
  Tb  Tb7  1  0.815204  0.188641  0.805608  1
  Tb  Tb8  1  0.188793  0.189233  0.810538  1
  Tb  Tb9  1  0.813319  0.804690  0.190773  1
  Tb  Tb10  1  0.940458  0.557320  0.555657  1
  Tb  Tb11  1  0.547485  0.945874  0.942983  1
  Tb  Tb12  1  0.551751  0.941019  0.565919  1
  Nd  Nd13  1  0.938975  0.559156  0.941302  1
  Nd  Nd14  1  0.556067  0.570761  0.934801  1
  Nd  Nd15  1  0.935590  0.939775  0.560626  1
  Cd  Cd16  1  0.581450  0.579938  0.577790  1
  Cd  Cd17  1  0.578600  0.579961  0.260826  1
  Cd  Cd18  1  0.578032  0.259155  0.580513  1
  Cd  Cd19  1  0.257844  0.578785  0.579093  1
  Os  Os20  1  0.150379  0.136034  0.136115  1
  Os  Os21  1  0.147693  0.141159  0.578970  1
  Os  Os22  1  0.142602  0.579448  0.142929  1
  Pt  Pt23  1  0.578506  0.139105  0.142786  1
