# generated using pymatgen
data_La4Y7Er5(CdNi)4
_symmetry_space_group_name_H-M   'P 1'
_cell_length_a   9.66888085
_cell_length_b   9.66888090
_cell_length_c   9.68045700
_cell_angle_alpha   59.96039068
_cell_angle_beta   59.96039051
_cell_angle_gamma   60.00516639
_symmetry_Int_Tables_number   1
_chemical_formula_structural   La4Y7Er5(CdNi)4
_chemical_formula_sum   'La4 Y7 Er5 Cd4 Ni4'
_cell_volume   639.57274028
_cell_formula_units_Z   1
loop_
 _symmetry_equiv_pos_site_id
 _symmetry_equiv_pos_as_xyz
  1  'x, y, z'
loop_
 _atom_site_type_symbol
 _atom_site_label
 _atom_site_symmetry_multiplicity
 _atom_site_fract_x
 _atom_site_fract_y
 _atom_site_fract_z
 _atom_site_occupancy
  La  La0  1  0.600014  0.600014  0.600067  1
  La  La1  1  0.600014  0.600014  0.199904  1
  La  La2  1  0.600723  0.197175  0.601051  1
  La  La3  1  0.197175  0.600723  0.601051  1
  Y  Y4  1  0.066032  0.066032  0.433968  1
  Y  Y5  1  0.185901  0.815090  0.815717  1
  Y  Y6  1  0.815090  0.185901  0.183291  1
  Y  Y7  1  0.815090  0.185901  0.815717  1
  Y  Y8  1  0.185901  0.815090  0.183291  1
  Y  Y9  1  0.815422  0.815422  0.184578  1
  Y  Y10  1  0.185475  0.185475  0.814525  1
  Er  Er11  1  0.065418  0.435994  0.434460  1
  Er  Er12  1  0.435994  0.065418  0.064127  1
  Er  Er13  1  0.435994  0.065418  0.434460  1
  Er  Er14  1  0.065418  0.435994  0.064127  1
  Er  Er15  1  0.435621  0.435621  0.064379  1
  Cd  Cd16  1  0.831385  0.831385  0.833489  1
  Cd  Cd17  1  0.831385  0.831385  0.503740  1
  Cd  Cd18  1  0.830815  0.502391  0.833396  1
  Cd  Cd19  1  0.502391  0.830815  0.833396  1
  Ni  Ni20  1  0.389640  0.389640  0.392780  1
  Ni  Ni21  1  0.389640  0.389640  0.827941  1
  Ni  Ni22  1  0.392383  0.827074  0.390273  1
  Ni  Ni23  1  0.827074  0.392383  0.390273  1
