# generated using pymatgen
data_Er3TmSc4(ReB6)4
_symmetry_space_group_name_H-M   'P 1'
_cell_length_a   3.57181400
_cell_length_b   8.98841000
_cell_length_c   11.35015100
_cell_angle_alpha   89.99880009
_cell_angle_beta   90.00000000
_cell_angle_gamma   90.00000000
_symmetry_Int_Tables_number   1
_chemical_formula_structural   Er3TmSc4(ReB6)4
_chemical_formula_sum   'Er3 Tm1 Sc4 Re4 B24'
_cell_volume   364.39578827
_cell_formula_units_Z   1
loop_
 _symmetry_equiv_pos_site_id
 _symmetry_equiv_pos_as_xyz
  1  'x, y, z'
loop_
 _atom_site_type_symbol
 _atom_site_label
 _atom_site_symmetry_multiplicity
 _atom_site_fract_x
 _atom_site_fract_y
 _atom_site_fract_z
 _atom_site_occupancy
  Er  Er0  1  0.000000  0.678174  0.586074  1
  Er  Er1  1  0.000000  0.821803  0.086112  1
  Er  Er2  1  0.000000  0.178189  0.913885  1
  Tm  Tm3  1  0.000000  0.321864  0.413887  1
  Sc  Sc4  1  0.000000  0.944290  0.370609  1
  Sc  Sc5  1  0.000000  0.055731  0.629387  1
  Sc  Sc6  1  0.000000  0.444288  0.129433  1
  Sc  Sc7  1  0.000000  0.555739  0.870595  1
  Re  Re8  1  0.000000  0.640475  0.318719  1
  Re  Re9  1  0.000000  0.359392  0.681193  1
  Re  Re10  1  0.000000  0.140677  0.181390  1
  Re  Re11  1  0.000000  0.859364  0.818699  1
  B  B12  1  0.500000  0.553971  0.433035  1
  B  B13  1  0.500000  0.445899  0.566850  1
  B  B14  1  0.500000  0.054074  0.066958  1
  B  B15  1  0.500000  0.945921  0.933039  1
  B  B16  1  0.500000  0.754447  0.419021  1
  B  B17  1  0.500000  0.245559  0.580821  1
  B  B18  1  0.500000  0.254473  0.080944  1
  B  B19  1  0.500000  0.745529  0.919056  1
  B  B20  1  0.500000  0.795428  0.264752  1
  B  B21  1  0.500000  0.204550  0.735262  1
  B  B22  1  0.500000  0.295466  0.235363  1
  B  B23  1  0.500000  0.704579  0.764748  1
  B  B24  1  0.500000  0.629463  0.182986  1
  B  B25  1  0.500000  0.370543  0.817059  1
  B  B26  1  0.500000  0.129564  0.317117  1
  B  B27  1  0.500000  0.870547  0.682950  1
  B  B28  1  0.500000  0.981109  0.213471  1
  B  B29  1  0.500000  0.018875  0.786525  1
  B  B30  1  0.500000  0.481053  0.286622  1
  B  B31  1  0.500000  0.518863  0.713459  1
  B  B32  1  0.500000  0.595944  0.026310  1
  B  B33  1  0.500000  0.404050  0.973705  1
  B  B34  1  0.500000  0.096048  0.473658  1
  B  B35  1  0.500000  0.904059  0.526305  1
