# generated using pymatgen
data_La4YbSn4
_symmetry_space_group_name_H-M   'P 1'
_cell_length_a   8.25081300
_cell_length_b   8.61938800
_cell_length_c   16.47655500
_cell_angle_alpha   90.00000000
_cell_angle_beta   90.00000000
_cell_angle_gamma   90.00000000
_symmetry_Int_Tables_number   1
_chemical_formula_structural   La4YbSn4
_chemical_formula_sum   'La16 Yb4 Sn16'
_cell_volume   1171.76247919
_cell_formula_units_Z   4
loop_
 _symmetry_equiv_pos_site_id
 _symmetry_equiv_pos_as_xyz
  1  'x, y, z'
loop_
 _atom_site_type_symbol
 _atom_site_label
 _atom_site_symmetry_multiplicity
 _atom_site_fract_x
 _atom_site_fract_y
 _atom_site_fract_z
 _atom_site_occupancy
  La  La0  1  0.649502  0.174626  0.623582  1
  La  La1  1  0.149502  0.325374  0.876418  1
  La  La2  1  0.350498  0.825374  0.123582  1
  La  La3  1  0.850498  0.674626  0.376418  1
  La  La4  1  0.350498  0.825374  0.376418  1
  La  La5  1  0.850498  0.674626  0.123582  1
  La  La6  1  0.649502  0.174626  0.876418  1
  La  La7  1  0.149502  0.325374  0.623582  1
  La  La8  1  0.493970  0.682710  0.597608  1
  La  La9  1  0.993970  0.817290  0.902392  1
  La  La10  1  0.506030  0.317290  0.097608  1
  La  La11  1  0.006030  0.182710  0.402392  1
  La  La12  1  0.506030  0.317290  0.402392  1
  La  La13  1  0.006030  0.182710  0.097608  1
  La  La14  1  0.493970  0.682710  0.902392  1
  La  La15  1  0.993970  0.817290  0.597608  1
  Yb  Yb16  1  0.817209  0.505068  0.750000  1
  Yb  Yb17  1  0.317209  0.994932  0.750000  1
  Yb  Yb18  1  0.182791  0.494932  0.250000  1
  Yb  Yb19  1  0.682791  0.005068  0.250000  1
  Sn  Sn20  1  0.684611  0.967189  0.462769  1
  Sn  Sn21  1  0.184611  0.532811  0.037231  1
  Sn  Sn22  1  0.315389  0.032811  0.962769  1
  Sn  Sn23  1  0.815389  0.467189  0.537231  1
  Sn  Sn24  1  0.315389  0.032811  0.537231  1
  Sn  Sn25  1  0.815389  0.467189  0.962769  1
  Sn  Sn26  1  0.684611  0.967189  0.037231  1
  Sn  Sn27  1  0.184611  0.532811  0.462769  1
  Sn  Sn28  1  0.447784  0.395820  0.750000  1
  Sn  Sn29  1  0.947784  0.104180  0.750000  1
  Sn  Sn30  1  0.552216  0.604180  0.250000  1
  Sn  Sn31  1  0.052216  0.895820  0.250000  1
  Sn  Sn32  1  0.689755  0.859644  0.750000  1
  Sn  Sn33  1  0.189755  0.640356  0.750000  1
  Sn  Sn34  1  0.310245  0.140356  0.250000  1
  Sn  Sn35  1  0.810245  0.359644  0.250000  1
