# generated using pymatgen
data_Y3Ga4Pd7
_symmetry_space_group_name_H-M   'P 1'
_cell_length_a   8.09927048
_cell_length_b   8.09927085
_cell_length_c   9.62968503
_cell_angle_alpha   56.21682075
_cell_angle_beta   56.21682049
_cell_angle_gamma   29.47666936
_symmetry_Int_Tables_number   1
_chemical_formula_structural   Y3Ga4Pd7
_chemical_formula_sum   'Y3 Ga4 Pd7'
_cell_volume   254.31745319
_cell_formula_units_Z   1
loop_
 _symmetry_equiv_pos_site_id
 _symmetry_equiv_pos_as_xyz
  1  'x, y, z'
loop_
 _atom_site_type_symbol
 _atom_site_label
 _atom_site_symmetry_multiplicity
 _atom_site_fract_x
 _atom_site_fract_y
 _atom_site_fract_z
 _atom_site_occupancy
  Y  Y0  1  0.672699  0.672699  0.332940  1
  Y  Y1  1  0.327301  0.327301  0.667060  1
  Y  Y2  1  0.000000  0.000000  0.000000  1
  Ga  Ga3  1  0.337422  0.337422  0.267927  1
  Ga  Ga4  1  0.662578  0.662578  0.732073  1
  Ga  Ga5  1  0.887438  0.887438  0.835150  1
  Ga  Ga6  1  0.112562  0.112562  0.164850  1
  Pd  Pd7  1  0.308184  0.308184  0.036521  1
  Pd  Pd8  1  0.691816  0.691816  0.963479  1
  Pd  Pd9  1  0.507033  0.507033  0.713404  1
  Pd  Pd10  1  0.836285  0.836285  0.425431  1
  Pd  Pd11  1  0.492967  0.492967  0.286596  1
  Pd  Pd12  1  0.163715  0.163715  0.574569  1
  Pd  Pd13  1  0.000000  0.000000  0.500000  1
