# generated using pymatgen
data_Er8Lu4TlCo4Os
_symmetry_space_group_name_H-M   'P 1'
_cell_length_a   8.18535330
_cell_length_b   8.18473325
_cell_length_c   8.18535259
_cell_angle_alpha   111.33773819
_cell_angle_beta   110.83405102
_cell_angle_gamma   106.29135375
_symmetry_Int_Tables_number   1
_chemical_formula_structural   Er8Lu4TlCo4Os
_chemical_formula_sum   'Er8 Lu4 Tl1 Co4 Os1'
_cell_volume   421.14783325
_cell_formula_units_Z   1
loop_
 _symmetry_equiv_pos_site_id
 _symmetry_equiv_pos_as_xyz
  1  'x, y, z'
loop_
 _atom_site_type_symbol
 _atom_site_label
 _atom_site_symmetry_multiplicity
 _atom_site_fract_x
 _atom_site_fract_y
 _atom_site_fract_z
 _atom_site_occupancy
  Er  Er0  1  0.418287  0.223498  0.194810  1
  Er  Er1  1  0.581713  0.776502  0.805190  1
  Er  Er2  1  0.028688  0.223498  0.805211  1
  Er  Er3  1  0.971312  0.776502  0.194789  1
  Er  Er4  1  0.181222  0.277194  0.458401  1
  Er  Er5  1  0.818778  0.722806  0.541599  1
  Er  Er6  1  0.181207  0.722806  0.904030  1
  Er  Er7  1  0.818793  0.277194  0.095970  1
  Lu  Lu8  1  0.315493  0.623031  0.307538  1
  Lu  Lu9  1  0.684507  0.376969  0.692462  1
  Lu  Lu10  1  0.315500  0.007976  0.692478  1
  Lu  Lu11  1  0.684500  0.992024  0.307522  1
  Tl  Tl12  1  0.500000  0.500000  0.000000  1
  Co  Co13  1  0.375970  0.000000  0.375970  1
  Co  Co14  1  0.624030  0.000000  0.624030  1
  Co  Co15  1  0.112312  0.612310  0.499998  1
  Co  Co16  1  0.887688  0.387690  0.500002  1
  Os  Os17  1  0.000000  0.000000  0.000000  1
