# generated using pymatgen
data_Tb4Y4Ho4Co5Sn
_symmetry_space_group_name_H-M   'P 1'
_cell_length_a   8.31705409
_cell_length_b   8.31705344
_cell_length_c   8.31705275
_cell_angle_alpha   107.12186790
_cell_angle_beta   110.53892004
_cell_angle_gamma   110.77820910
_symmetry_Int_Tables_number   1
_chemical_formula_structural   Tb4Y4Ho4Co5Sn
_chemical_formula_sum   'Tb4 Y4 Ho4 Co5 Sn1'
_cell_volume   442.32288234
_cell_formula_units_Z   1
loop_
 _symmetry_equiv_pos_site_id
 _symmetry_equiv_pos_as_xyz
  1  'x, y, z'
loop_
 _atom_site_type_symbol
 _atom_site_label
 _atom_site_symmetry_multiplicity
 _atom_site_fract_x
 _atom_site_fract_y
 _atom_site_fract_z
 _atom_site_occupancy
  Tb  Tb0  1  0.192655  0.207426  0.400081  1
  Tb  Tb1  1  0.807345  0.792574  0.599919  1
  Tb  Tb2  1  0.192655  0.792574  0.985229  1
  Tb  Tb3  1  0.807345  0.207426  0.014771  1
  Y  Y4  1  0.479344  0.292768  0.186577  1
  Y  Y5  1  0.106191  0.292768  0.813423  1
  Y  Y6  1  0.893809  0.707232  0.186577  1
  Y  Y7  1  0.520656  0.707232  0.813423  1
  Ho  Ho8  1  0.307549  0.621456  0.313905  1
  Ho  Ho9  1  0.307549  0.993644  0.686095  1
  Ho  Ho10  1  0.692451  0.378544  0.686095  1
  Ho  Ho11  1  0.692451  0.006356  0.313905  1
  Co  Co12  1  0.500000  0.612283  0.112283  1
  Co  Co13  1  0.500000  0.387717  0.887717  1
  Co  Co14  1  0.379288  0.000000  0.379288  1
  Co  Co15  1  0.620712  0.000000  0.620712  1
  Co  Co16  1  0.000000  0.000000  0.000000  1
  Sn  Sn17  1  0.000000  0.500000  0.500000  1
