# generated using pymatgen
data_Ce4SiB4IrRh8
_symmetry_space_group_name_H-M   'P 1'
_cell_length_a   10.66391813
_cell_length_b   10.66391763
_cell_length_c   10.66180894
_cell_angle_alpha   30.07823327
_cell_angle_beta   30.07823614
_cell_angle_gamma   30.05567592
_symmetry_Int_Tables_number   1
_chemical_formula_structural   Ce4SiB4IrRh8
_chemical_formula_sum   'Ce4 Si1 B4 Ir1 Rh8'
_cell_volume   269.66891510
_cell_formula_units_Z   1
loop_
 _symmetry_equiv_pos_site_id
 _symmetry_equiv_pos_as_xyz
  1  'x, y, z'
loop_
 _atom_site_type_symbol
 _atom_site_label
 _atom_site_symmetry_multiplicity
 _atom_site_fract_x
 _atom_site_fract_y
 _atom_site_fract_z
 _atom_site_occupancy
  Ce  Ce0  1  0.149734  0.149734  0.148480  1
  Ce  Ce1  1  0.947433  0.947433  0.947405  1
  Ce  Ce2  1  0.850795  0.850795  0.851268  1
  Ce  Ce3  1  0.052765  0.052765  0.052507  1
  Si  Si4  1  0.498492  0.498492  0.502988  1
  B  B5  1  0.615394  0.615394  0.617362  1
  B  B6  1  0.718312  0.718312  0.717929  1
  B  B7  1  0.383470  0.383470  0.384415  1
  B  B8  1  0.282372  0.282372  0.280489  1
  Ir  Ir9  1  0.402105  0.402105  0.898914  1
  Rh  Rh10  1  0.402214  0.899770  0.400937  1
  Rh  Rh11  1  0.899770  0.402214  0.400937  1
  Rh  Rh12  1  0.500197  0.500197  0.000211  1
  Rh  Rh13  1  0.500028  0.999966  0.500092  1
  Rh  Rh14  1  0.999966  0.500028  0.500092  1
  Rh  Rh15  1  0.598065  0.100773  0.597789  1
  Rh  Rh16  1  0.598116  0.598116  0.100396  1
  Rh  Rh17  1  0.100773  0.598065  0.597789  1
