# generated using pymatgen
data_Dy17Tm3(IrPd2)4
_symmetry_space_group_name_H-M   'P 1'
_cell_length_a   11.03176500
_cell_length_b   11.03176500
_cell_length_c   6.31849000
_cell_angle_alpha   90.00000000
_cell_angle_beta   90.00000000
_cell_angle_gamma   90.00000000
_symmetry_Int_Tables_number   1
_chemical_formula_structural   Dy17Tm3(IrPd2)4
_chemical_formula_sum   'Dy17 Tm3 Ir4 Pd8'
_cell_volume   768.95921582
_cell_formula_units_Z   1
loop_
 _symmetry_equiv_pos_site_id
 _symmetry_equiv_pos_as_xyz
  1  'x, y, z'
loop_
 _atom_site_type_symbol
 _atom_site_label
 _atom_site_symmetry_multiplicity
 _atom_site_fract_x
 _atom_site_fract_y
 _atom_site_fract_z
 _atom_site_occupancy
  Dy  Dy0  1  0.293623  0.085482  0.367624  1
  Dy  Dy1  1  0.293509  0.915153  0.867593  1
  Dy  Dy2  1  0.706491  0.084847  0.867593  1
  Dy  Dy3  1  0.706377  0.914518  0.367624  1
  Dy  Dy4  1  0.585095  0.794554  0.867131  1
  Dy  Dy5  1  0.585350  0.205089  0.366590  1
  Dy  Dy6  1  0.414650  0.794911  0.366590  1
  Dy  Dy7  1  0.414905  0.205446  0.867131  1
  Dy  Dy8  1  0.205089  0.414650  0.633410  1
  Dy  Dy9  1  0.205446  0.585095  0.132869  1
  Dy  Dy10  1  0.794554  0.414905  0.132869  1
  Dy  Dy11  1  0.794911  0.585350  0.633410  1
  Dy  Dy12  1  0.915153  0.706491  0.132407  1
  Dy  Dy13  1  0.914518  0.293623  0.632376  1
  Dy  Dy14  1  0.085482  0.706377  0.632376  1
  Dy  Dy15  1  0.084847  0.293509  0.132407  1
  Dy  Dy16  1  0.500000  0.500000  0.500000  1
  Tm  Tm17  1  0.000000  0.000000  0.500000  1
  Tm  Tm18  1  0.000000  0.000000  0.000000  1
  Tm  Tm19  1  0.500000  0.500000  0.000000  1
  Ir  Ir20  1  0.500000  0.000000  0.116044  1
  Ir  Ir21  1  0.500000  0.000000  0.615849  1
  Ir  Ir22  1  0.000000  0.500000  0.883956  1
  Ir  Ir23  1  0.000000  0.500000  0.384151  1
  Pd  Pd24  1  0.847557  0.152531  0.249887  1
  Pd  Pd25  1  0.847469  0.847557  0.750113  1
  Pd  Pd26  1  0.152531  0.152443  0.750113  1
  Pd  Pd27  1  0.152443  0.847469  0.249887  1
  Pd  Pd28  1  0.653221  0.346907  0.750659  1
  Pd  Pd29  1  0.653093  0.653221  0.249341  1
  Pd  Pd30  1  0.346907  0.346779  0.249341  1
  Pd  Pd31  1  0.346779  0.653093  0.750659  1
