# generated using pymatgen
data_GaFe3(SbCl6)4
_symmetry_space_group_name_H-M   'P 1'
_cell_length_a   7.97318968
_cell_length_b   10.76865483
_cell_length_c   13.70509935
_cell_angle_alpha   78.46366502
_cell_angle_beta   89.75881514
_cell_angle_gamma   89.85341671
_symmetry_Int_Tables_number   1
_chemical_formula_structural   GaFe3(SbCl6)4
_chemical_formula_sum   'Ga1 Fe3 Sb4 Cl24'
_cell_volume   1152.94292521
_cell_formula_units_Z   1
loop_
 _symmetry_equiv_pos_site_id
 _symmetry_equiv_pos_as_xyz
  1  'x, y, z'
loop_
 _atom_site_type_symbol
 _atom_site_label
 _atom_site_symmetry_multiplicity
 _atom_site_fract_x
 _atom_site_fract_y
 _atom_site_fract_z
 _atom_site_occupancy
  Ga  Ga0  1  0.736793  0.658938  0.421307  1
  Fe  Fe1  1  0.763148  0.661529  0.920019  1
  Fe  Fe2  1  0.263280  0.339404  0.579446  1
  Fe  Fe3  1  0.236818  0.338496  0.080015  1
  Sb  Sb4  1  0.232804  0.756106  0.373450  1
  Sb  Sb5  1  0.733160  0.242290  0.127267  1
  Sb  Sb6  1  0.767014  0.242399  0.627162  1
  Sb  Sb7  1  0.267090  0.757678  0.872739  1
  Cl  Cl8  1  0.662174  0.042573  0.094736  1
  Cl  Cl9  1  0.163859  0.956520  0.405574  1
  Cl  Cl10  1  0.337764  0.957413  0.905281  1
  Cl  Cl11  1  0.838200  0.042339  0.594700  1
  Cl  Cl12  1  0.815372  0.179805  0.294690  1
  Cl  Cl13  1  0.313753  0.819497  0.205671  1
  Cl  Cl14  1  0.184638  0.820004  0.705341  1
  Cl  Cl15  1  0.684231  0.179874  0.794859  1
  Cl  Cl16  1  0.419963  0.259166  0.203621  1
  Cl  Cl17  1  0.916360  0.741868  0.295865  1
  Cl  Cl18  1  0.579902  0.740844  0.796436  1
  Cl  Cl19  1  0.079415  0.259229  0.703287  1
  Cl  Cl20  1  0.380084  0.381773  0.942525  1
  Cl  Cl21  1  0.880471  0.620230  0.557782  1
  Cl  Cl22  1  0.619887  0.618178  0.057516  1
  Cl  Cl23  1  0.120251  0.381724  0.442419  1
  Cl  Cl24  1  0.895277  0.504290  0.877691  1
  Cl  Cl25  1  0.394821  0.495817  0.622332  1
  Cl  Cl26  1  0.104705  0.495760  0.122301  1
  Cl  Cl27  1  0.604008  0.505037  0.376271  1
  Cl  Cl28  1  0.049472  0.184021  0.069638  1
  Cl  Cl29  1  0.553652  0.817152  0.429967  1
  Cl  Cl30  1  0.950518  0.815921  0.930410  1
  Cl  Cl31  1  0.451116  0.184122  0.569680  1
