# generated using pymatgen
data_Zr4Ti2NbCrP4
_symmetry_space_group_name_H-M   'P 1'
_cell_length_a   3.54957100
_cell_length_b   6.76395596
_cell_length_c   8.13888563
_cell_angle_alpha   89.79854450
_cell_angle_beta   90.00000000
_cell_angle_gamma   90.00000000
_symmetry_Int_Tables_number   1
_chemical_formula_structural   Zr4Ti2NbCrP4
_chemical_formula_sum   'Zr4 Ti2 Nb1 Cr1 P4'
_cell_volume   195.40645213
_cell_formula_units_Z   1
loop_
 _symmetry_equiv_pos_site_id
 _symmetry_equiv_pos_as_xyz
  1  'x, y, z'
loop_
 _atom_site_type_symbol
 _atom_site_label
 _atom_site_symmetry_multiplicity
 _atom_site_fract_x
 _atom_site_fract_y
 _atom_site_fract_z
 _atom_site_occupancy
  Zr  Zr0  1  0.250000  0.533258  0.166389  1
  Zr  Zr1  1  0.750000  0.456248  0.836320  1
  Zr  Zr2  1  0.750000  0.965768  0.673510  1
  Zr  Zr3  1  0.250000  0.037474  0.325455  1
  Ti  Ti4  1  0.750000  0.361125  0.440149  1
  Ti  Ti5  1  0.750000  0.874321  0.057529  1
  Nb  Nb6  1  0.250000  0.636367  0.561553  1
  Cr  Cr7  1  0.250000  0.133815  0.941751  1
  P  P8  1  0.250000  0.765800  0.866314  1
  P  P9  1  0.750000  0.237960  0.130957  1
  P  P10  1  0.750000  0.738917  0.355377  1
  P  P11  1  0.250000  0.258948  0.644694  1
