# generated using pymatgen
data_Hf8Ta3NbGa12
_symmetry_space_group_name_H-M   'P 1'
_cell_length_a   5.52825613
_cell_length_b   8.48040719
_cell_length_c   9.14816300
_cell_angle_alpha   90.00000000
_cell_angle_beta   90.00000000
_cell_angle_gamma   90.02434637
_symmetry_Int_Tables_number   1
_chemical_formula_structural   Hf8Ta3NbGa12
_chemical_formula_sum   'Hf8 Ta3 Nb1 Ga12'
_cell_volume   428.88288572
_cell_formula_units_Z   1
loop_
 _symmetry_equiv_pos_site_id
 _symmetry_equiv_pos_as_xyz
  1  'x, y, z'
loop_
 _atom_site_type_symbol
 _atom_site_label
 _atom_site_symmetry_multiplicity
 _atom_site_fract_x
 _atom_site_fract_y
 _atom_site_fract_z
 _atom_site_occupancy
  Hf  Hf0  1  0.749997  0.469532  0.621988  1
  Hf  Hf1  1  0.250099  0.530178  0.378276  1
  Hf  Hf2  1  0.749901  0.969822  0.378276  1
  Hf  Hf3  1  0.250003  0.030468  0.621988  1
  Hf  Hf4  1  0.750066  0.366642  0.181720  1
  Hf  Hf5  1  0.249881  0.632891  0.817837  1
  Hf  Hf6  1  0.750119  0.867109  0.817837  1
  Hf  Hf7  1  0.249934  0.133358  0.181720  1
  Ta  Ta8  1  0.500000  0.250000  0.889532  1
  Ta  Ta9  1  0.000000  0.250000  0.889262  1
  Ta  Ta10  1  0.500000  0.750000  0.110505  1
  Nb  Nb11  1  0.000000  0.750000  0.111106  1
  Ga  Ga12  1  0.000000  0.750000  0.571339  1
  Ga  Ga13  1  0.500000  0.250000  0.428674  1
  Ga  Ga14  1  0.000000  0.250000  0.428569  1
  Ga  Ga15  1  0.500000  0.750000  0.571338  1
  Ga  Ga16  1  0.749399  0.044787  0.079970  1
  Ga  Ga17  1  0.250305  0.955414  0.919817  1
  Ga  Ga18  1  0.749695  0.544586  0.919817  1
  Ga  Ga19  1  0.250601  0.455213  0.079970  1
  Ga  Ga20  1  0.750001  0.132501  0.653205  1
  Ga  Ga21  1  0.250439  0.867801  0.347024  1
  Ga  Ga22  1  0.749561  0.632199  0.347024  1
  Ga  Ga23  1  0.249999  0.367499  0.653205  1
