# generated using pymatgen
data_EuAuF7
_symmetry_space_group_name_H-M   'P 1'
_cell_length_a   5.84816100
_cell_length_b   9.35122997
_cell_length_c   12.47937034
_cell_angle_alpha   62.01824163
_cell_angle_beta   90.00000000
_cell_angle_gamma   90.00000000
_symmetry_Int_Tables_number   1
_chemical_formula_structural   EuAuF7
_chemical_formula_sum   'Eu4 Au4 F28'
_cell_volume   602.68328742
_cell_formula_units_Z   4
loop_
 _symmetry_equiv_pos_site_id
 _symmetry_equiv_pos_as_xyz
  1  'x, y, z'
loop_
 _atom_site_type_symbol
 _atom_site_label
 _atom_site_symmetry_multiplicity
 _atom_site_fract_x
 _atom_site_fract_y
 _atom_site_fract_z
 _atom_site_occupancy
  Eu  Eu0  1  0.738563  0.817597  0.264079  1
  Eu  Eu1  1  0.238563  0.182403  0.235921  1
  Eu  Eu2  1  0.261437  0.182403  0.735921  1
  Eu  Eu3  1  0.761437  0.817597  0.764079  1
  Au  Au4  1  0.741374  0.273714  0.455939  1
  Au  Au5  1  0.241374  0.726286  0.044061  1
  Au  Au6  1  0.258626  0.726286  0.544061  1
  Au  Au7  1  0.758626  0.273714  0.955939  1
  F  F8  1  0.446013  0.707044  0.920926  1
  F  F9  1  0.946013  0.292956  0.579074  1
  F  F10  1  0.553987  0.292956  0.079074  1
  F  F11  1  0.053987  0.707044  0.420926  1
  F  F12  1  0.453989  0.282953  0.544908  1
  F  F13  1  0.953989  0.717047  0.955092  1
  F  F14  1  0.546011  0.717047  0.455092  1
  F  F15  1  0.046011  0.282953  0.044908  1
  F  F16  1  0.767787  0.514303  0.860455  1
  F  F17  1  0.267787  0.485697  0.639545  1
  F  F18  1  0.232213  0.485697  0.139545  1
  F  F19  1  0.732213  0.514303  0.360455  1
  F  F20  1  0.757460  0.032534  0.048390  1
  F  F21  1  0.257460  0.967466  0.451610  1
  F  F22  1  0.242540  0.967466  0.951610  1
  F  F23  1  0.742540  0.032534  0.548390  1
  F  F24  1  0.978117  0.729620  0.638889  1
  F  F25  1  0.478117  0.270380  0.861111  1
  F  F26  1  0.021883  0.270380  0.361111  1
  F  F27  1  0.521883  0.729620  0.138889  1
  F  F28  1  0.040821  0.743092  0.170554  1
  F  F29  1  0.540821  0.256908  0.329446  1
  F  F30  1  0.959179  0.256908  0.829446  1
  F  F31  1  0.459179  0.743092  0.670554  1
  F  F32  1  0.417766  0.969649  0.234742  1
  F  F33  1  0.917766  0.030351  0.265258  1
  F  F34  1  0.582234  0.030351  0.765258  1
  F  F35  1  0.082234  0.969649  0.734742  1
