# generated using pymatgen
data_YEr4(RhO6)2
_symmetry_space_group_name_H-M   'P 1'
_cell_length_a   6.81384460
_cell_length_b   6.81384342
_cell_length_c   7.24014102
_cell_angle_alpha   74.50072122
_cell_angle_beta   74.50072294
_cell_angle_gamma   51.22864941
_symmetry_Int_Tables_number   1
_chemical_formula_structural   YEr4(RhO6)2
_chemical_formula_sum   'Y1 Er4 Rh2 O12'
_cell_volume   250.30596304
_cell_formula_units_Z   1
loop_
 _symmetry_equiv_pos_site_id
 _symmetry_equiv_pos_as_xyz
  1  'x, y, z'
loop_
 _atom_site_type_symbol
 _atom_site_label
 _atom_site_symmetry_multiplicity
 _atom_site_fract_x
 _atom_site_fract_y
 _atom_site_fract_z
 _atom_site_occupancy
  Y  Y0  1  0.500000  0.500000  0.500000  1
  Er  Er1  1  0.190962  0.190962  0.170836  1
  Er  Er2  1  0.809038  0.809038  0.829164  1
  Er  Er3  1  0.801885  0.801885  0.360453  1
  Er  Er4  1  0.198115  0.198115  0.639547  1
  Rh  Rh5  1  0.747269  0.252731  0.000000  1
  Rh  Rh6  1  0.252731  0.747269  0.000000  1
  O  O7  1  0.999777  0.999777  0.192852  1
  O  O8  1  0.000223  0.000223  0.807148  1
  O  O9  1  0.499965  0.499965  0.816595  1
  O  O10  1  0.500035  0.500035  0.183405  1
  O  O11  1  0.597178  0.095277  0.574376  1
  O  O12  1  0.904723  0.402822  0.425624  1
  O  O13  1  0.402822  0.904723  0.425624  1
  O  O14  1  0.401784  0.932848  0.914796  1
  O  O15  1  0.067152  0.598216  0.085204  1
  O  O16  1  0.598216  0.067152  0.085204  1
  O  O17  1  0.932848  0.401784  0.914796  1
  O  O18  1  0.095277  0.597178  0.574376  1
