# generated using pymatgen
data_Rb2Mg2MnSe4
_symmetry_space_group_name_H-M   'P 1'
_cell_length_a   9.83244532
_cell_length_b   9.83244489
_cell_length_c   9.83244600
_cell_angle_alpha   143.80671177
_cell_angle_beta   104.79466332
_cell_angle_gamma   86.42326989
_symmetry_Int_Tables_number   1
_chemical_formula_structural   Rb2Mg2MnSe4
_chemical_formula_sum   'Rb4 Mg4 Mn2 Se8'
_cell_volume   525.24331560
_cell_formula_units_Z   2
loop_
 _symmetry_equiv_pos_site_id
 _symmetry_equiv_pos_as_xyz
  1  'x, y, z'
loop_
 _atom_site_type_symbol
 _atom_site_label
 _atom_site_symmetry_multiplicity
 _atom_site_fract_x
 _atom_site_fract_y
 _atom_site_fract_z
 _atom_site_occupancy
  Rb  Rb0  1  0.122075  0.234286  0.358037  1
  Rb  Rb1  1  0.377925  0.735962  0.112211  1
  Rb  Rb2  1  0.623751  0.265714  0.887789  1
  Rb  Rb3  1  0.876249  0.764038  0.641963  1
  Mg  Mg4  1  0.480010  0.250000  0.230010  1
  Mg  Mg5  1  0.750000  0.250000  0.500000  1
  Mg  Mg6  1  0.250000  0.750000  0.500000  1
  Mg  Mg7  1  0.019990  0.250000  0.769990  1
  Mn  Mn8  1  0.517523  0.750000  0.767523  1
  Mn  Mn9  1  0.982477  0.750000  0.232477  1
  Se  Se10  1  0.223240  0.076770  0.587457  1
  Se  Se11  1  0.276760  0.864217  0.853530  1
  Se  Se12  1  0.010688  0.423230  0.146470  1
  Se  Se13  1  0.489312  0.635783  0.412543  1
  Se  Se14  1  0.778514  0.916204  0.402889  1
  Se  Se15  1  0.721486  0.124375  0.137690  1
  Se  Se16  1  0.986685  0.583796  0.862310  1
  Se  Se17  1  0.513315  0.375625  0.597111  1
