# generated using pymatgen
data_CeY13Sc2(CdIr)4
_symmetry_space_group_name_H-M   'P 1'
_cell_length_a   9.55895360
_cell_length_b   9.61980316
_cell_length_c   9.61980424
_cell_angle_alpha   60.31143081
_cell_angle_beta   60.00290008
_cell_angle_gamma   60.00289787
_symmetry_Int_Tables_number   1
_chemical_formula_structural   CeY13Sc2(CdIr)4
_chemical_formula_sum   'Ce1 Y13 Sc2 Cd4 Ir4'
_cell_volume   626.98716487
_cell_formula_units_Z   1
loop_
 _symmetry_equiv_pos_site_id
 _symmetry_equiv_pos_as_xyz
  1  'x, y, z'
loop_
 _atom_site_type_symbol
 _atom_site_label
 _atom_site_symmetry_multiplicity
 _atom_site_fract_x
 _atom_site_fract_y
 _atom_site_fract_z
 _atom_site_occupancy
  Ce  Ce0  1  0.343686  0.342805  0.342805  1
  Y  Y1  1  0.950351  0.349570  0.349570  1
  Y  Y2  1  0.812990  0.187965  0.187965  1
  Y  Y3  1  0.192369  0.807204  0.807204  1
  Y  Y4  1  0.191426  0.810885  0.190698  1
  Y  Y5  1  0.808847  0.190151  0.809695  1
  Y  Y6  1  0.191426  0.190698  0.810885  1
  Y  Y7  1  0.808847  0.809695  0.190151  1
  Y  Y8  1  0.937110  0.563987  0.563987  1
  Y  Y9  1  0.554613  0.946068  0.946068  1
  Y  Y10  1  0.561036  0.939486  0.562593  1
  Y  Y11  1  0.941842  0.561351  0.939097  1
  Y  Y12  1  0.561036  0.562593  0.939486  1
  Y  Y13  1  0.941842  0.939097  0.561351  1
  Sc  Sc14  1  0.346942  0.349973  0.958424  1
  Sc  Sc15  1  0.346942  0.958424  0.349973  1
  Cd  Cd16  1  0.575068  0.580256  0.580256  1
  Cd  Cd17  1  0.578388  0.581718  0.257669  1
  Cd  Cd18  1  0.578388  0.257669  0.581718  1
  Cd  Cd19  1  0.258963  0.580716  0.580716  1
  Ir  Ir20  1  0.155778  0.140091  0.140091  1
  Ir  Ir21  1  0.147958  0.137745  0.570949  1
  Ir  Ir22  1  0.147958  0.570949  0.137745  1
  Ir  Ir23  1  0.566190  0.140904  0.140904  1
