# generated using pymatgen
data_Sc4Ga2Fe3B4Ru7
_symmetry_space_group_name_H-M   'P 1'
_cell_length_a   9.10813124
_cell_length_b   9.29128634
_cell_length_c   3.06579100
_cell_angle_alpha   90.00000000
_cell_angle_beta   90.00000000
_cell_angle_gamma   90.23769314
_symmetry_Int_Tables_number   1
_chemical_formula_structural   Sc4Ga2Fe3B4Ru7
_chemical_formula_sum   'Sc4 Ga2 Fe3 B4 Ru7'
_cell_volume   259.44417952
_cell_formula_units_Z   1
loop_
 _symmetry_equiv_pos_site_id
 _symmetry_equiv_pos_as_xyz
  1  'x, y, z'
loop_
 _atom_site_type_symbol
 _atom_site_label
 _atom_site_symmetry_multiplicity
 _atom_site_fract_x
 _atom_site_fract_y
 _atom_site_fract_z
 _atom_site_occupancy
  Sc  Sc0  1  0.678624  0.176023  0.000000  1
  Sc  Sc1  1  0.324053  0.808189  0.000000  1
  Sc  Sc2  1  0.178947  0.325723  0.000000  1
  Sc  Sc3  1  0.820623  0.683631  0.000000  1
  Ga  Ga4  1  0.006389  0.002042  0.000000  1
  Ga  Ga5  1  0.500121  0.500529  0.000000  1
  Fe  Fe6  1  0.230496  0.061618  0.500000  1
  Fe  Fe7  1  0.486703  0.998049  0.500000  1
  Fe  Fe8  1  0.996793  0.501970  0.500000  1
  B  B9  1  0.113312  0.618627  0.000000  1
  B  B10  1  0.884168  0.379269  0.000000  1
  B  B11  1  0.614592  0.884586  0.000000  1
  B  B12  1  0.382634  0.121606  0.000000  1
  Ru  Ru13  1  0.776896  0.940150  0.500000  1
  Ru  Ru14  1  0.064901  0.781689  0.500000  1
  Ru  Ru15  1  0.722900  0.436551  0.500000  1
  Ru  Ru16  1  0.944070  0.220324  0.500000  1
  Ru  Ru17  1  0.275929  0.559916  0.500000  1
  Ru  Ru18  1  0.563634  0.722077  0.500000  1
  Ru  Ru19  1  0.434216  0.277431  0.500000  1
