# generated using pymatgen
data_Ho5Mo2C7
_symmetry_space_group_name_H-M   'P 1'
_cell_length_a   8.38586637
_cell_length_b   8.38586616
_cell_length_c   3.42474200
_cell_angle_alpha   90.00000000
_cell_angle_beta   90.00000000
_cell_angle_gamma   122.50102976
_symmetry_Int_Tables_number   1
_chemical_formula_structural   Ho5Mo2C7
_chemical_formula_sum   'Ho5 Mo2 C7'
_cell_volume   203.11778109
_cell_formula_units_Z   1
loop_
 _symmetry_equiv_pos_site_id
 _symmetry_equiv_pos_as_xyz
  1  'x, y, z'
loop_
 _atom_site_type_symbol
 _atom_site_label
 _atom_site_symmetry_multiplicity
 _atom_site_fract_x
 _atom_site_fract_y
 _atom_site_fract_z
 _atom_site_occupancy
  Ho  Ho0  1  0.500000  0.500000  0.000000  1
  Ho  Ho1  1  0.075258  0.333377  0.500000  1
  Ho  Ho2  1  0.924742  0.666623  0.500000  1
  Ho  Ho3  1  0.666623  0.924742  0.500000  1
  Ho  Ho4  1  0.333377  0.075258  0.500000  1
  Mo  Mo5  1  0.712245  0.287755  0.000000  1
  Mo  Mo6  1  0.287755  0.712245  0.000000  1
  C  C7  1  0.624211  0.375789  0.500000  1
  C  C8  1  0.375789  0.624211  0.500000  1
  C  C9  1  0.000000  0.000000  0.000000  1
  C  C10  1  0.167882  0.167882  0.000000  1
  C  C11  1  0.832118  0.832118  0.000000  1
  C  C12  1  0.000000  0.500000  0.000000  1
  C  C13  1  0.500000  0.000000  0.000000  1
