# generated using pymatgen
data_TmLu6(CoSe)2
_symmetry_space_group_name_H-M   'P 1'
_cell_length_a   8.87094137
_cell_length_b   8.86763314
_cell_length_c   8.86763363
_cell_angle_alpha   155.63274352
_cell_angle_beta   67.01839979
_cell_angle_gamma   118.65161858
_symmetry_Int_Tables_number   1
_chemical_formula_structural   TmLu6(CoSe)2
_chemical_formula_sum   'Tm1 Lu6 Co2 Se2'
_cell_volume   250.48647822
_cell_formula_units_Z   1
loop_
 _symmetry_equiv_pos_site_id
 _symmetry_equiv_pos_as_xyz
  1  'x, y, z'
loop_
 _atom_site_type_symbol
 _atom_site_label
 _atom_site_symmetry_multiplicity
 _atom_site_fract_x
 _atom_site_fract_y
 _atom_site_fract_z
 _atom_site_occupancy
  Tm  Tm0  1  0.609343  0.736053  0.873289  1
  Lu  Lu1  1  0.322153  0.322192  0.999960  1
  Lu  Lu2  1  0.863151  0.736070  0.127081  1
  Lu  Lu3  1  0.258153  0.943325  0.314828  1
  Lu  Lu4  1  0.941795  0.584279  0.357517  1
  Lu  Lu5  1  0.226326  0.583953  0.642373  1
  Lu  Lu6  1  0.629237  0.944058  0.685179  1
  Co  Co7  1  0.484843  0.246430  0.238413  1
  Co  Co8  1  0.007806  0.246653  0.761154  1
  Se  Se9  1  0.982541  0.982416  0.000125  1
  Se  Se10  1  0.580003  0.079922  0.500081  1
