# generated using pymatgen
data_DyTm2ZnIn3HgPt
_symmetry_space_group_name_H-M   'P 1'
_cell_length_a   7.84430090
_cell_length_b   7.83097803
_cell_length_c   3.86057400
_cell_angle_alpha   90.00000000
_cell_angle_beta   90.00000000
_cell_angle_gamma   119.84830773
_symmetry_Int_Tables_number   1
_chemical_formula_structural   DyTm2ZnIn3HgPt
_chemical_formula_sum   'Dy1 Tm2 Zn1 In3 Hg1 Pt1'
_cell_volume   205.69066268
_cell_formula_units_Z   1
loop_
 _symmetry_equiv_pos_site_id
 _symmetry_equiv_pos_as_xyz
  1  'x, y, z'
loop_
 _atom_site_type_symbol
 _atom_site_label
 _atom_site_symmetry_multiplicity
 _atom_site_fract_x
 _atom_site_fract_y
 _atom_site_fract_z
 _atom_site_occupancy
  Dy  Dy0  1  0.976094  0.589266  0.500000  1
  Tm  Tm1  1  0.614167  0.026254  0.500000  1
  Tm  Tm2  1  0.411708  0.385251  0.500000  1
  Zn  Zn3  1  0.999619  0.000127  0.500000  1
  In  In4  1  0.740146  0.741346  0.000000  1
  In  In5  1  0.999984  0.258697  0.000000  1
  In  In6  1  0.259690  0.000530  0.000000  1
  Hg  Hg7  1  0.335157  0.667347  0.000000  1
  Pt  Pt8  1  0.663437  0.331182  0.000000  1
