# generated using pymatgen
data_AlVCl14
_symmetry_space_group_name_H-M   'P 1'
_cell_length_a   10.06744700
_cell_length_b   10.29381626
_cell_length_c   11.36355911
_cell_angle_alpha   81.29570279
_cell_angle_beta   90.00000000
_cell_angle_gamma   90.00000000
_symmetry_Int_Tables_number   1
_chemical_formula_structural   AlVCl14
_chemical_formula_sum   'Al2 V2 Cl28'
_cell_volume   1164.07012053
_cell_formula_units_Z   2
loop_
 _symmetry_equiv_pos_site_id
 _symmetry_equiv_pos_as_xyz
  1  'x, y, z'
loop_
 _atom_site_type_symbol
 _atom_site_label
 _atom_site_symmetry_multiplicity
 _atom_site_fract_x
 _atom_site_fract_y
 _atom_site_fract_z
 _atom_site_occupancy
  Al  Al0  1  0.243622  0.328266  0.079542  1
  Al  Al1  1  0.743622  0.671734  0.420458  1
  V  V2  1  0.757011  0.673320  0.918851  1
  V  V3  1  0.257011  0.326680  0.581149  1
  Cl  Cl4  1  0.237116  0.753910  0.362639  1
  Cl  Cl5  1  0.737116  0.246090  0.137361  1
  Cl  Cl6  1  0.740915  0.255216  0.640476  1
  Cl  Cl7  1  0.240915  0.744784  0.859524  1
  Cl  Cl8  1  0.571130  0.050972  0.040308  1
  Cl  Cl9  1  0.071130  0.949028  0.459692  1
  Cl  Cl10  1  0.440830  0.935478  0.966385  1
  Cl  Cl11  1  0.940830  0.064522  0.533615  1
  Cl  Cl12  1  0.812483  0.178159  0.297711  1
  Cl  Cl13  1  0.312483  0.821841  0.202289  1
  Cl  Cl14  1  0.187734  0.827738  0.694090  1
  Cl  Cl15  1  0.687734  0.172262  0.805910  1
  Cl  Cl16  1  0.353672  0.252611  0.236783  1
  Cl  Cl17  1  0.853672  0.747389  0.263217  1
  Cl  Cl18  1  0.650441  0.727963  0.761064  1
  Cl  Cl19  1  0.150441  0.272037  0.738936  1
  Cl  Cl20  1  0.382914  0.398316  0.938239  1
  Cl  Cl21  1  0.882914  0.601684  0.561761  1
  Cl  Cl22  1  0.628559  0.610098  0.059761  1
  Cl  Cl23  1  0.128559  0.389902  0.440239  1
  Cl  Cl24  1  0.885630  0.519464  0.896135  1
  Cl  Cl25  1  0.385630  0.480536  0.603865  1
  Cl  Cl26  1  0.120946  0.490607  0.115286  1
  Cl  Cl27  1  0.620946  0.509393  0.384714  1
  Cl  Cl28  1  0.119442  0.176838  0.024260  1
  Cl  Cl29  1  0.619442  0.823162  0.475740  1
  Cl  Cl30  1  0.867555  0.834864  0.956468  1
  Cl  Cl31  1  0.367555  0.165136  0.543532  1
