# generated using pymatgen
data_Ho5(MnTe)2
_symmetry_space_group_name_H-M   'P 1'
_cell_length_a   7.69926060
_cell_length_b   7.69926032
_cell_length_c   15.37288600
_cell_angle_alpha   90.00000000
_cell_angle_beta   90.00000000
_cell_angle_gamma   150.42805599
_symmetry_Int_Tables_number   1
_chemical_formula_structural   Ho5(MnTe)2
_chemical_formula_sum   'Ho10 Mn4 Te4'
_cell_volume   449.73294710
_cell_formula_units_Z   2
loop_
 _symmetry_equiv_pos_site_id
 _symmetry_equiv_pos_as_xyz
  1  'x, y, z'
loop_
 _atom_site_type_symbol
 _atom_site_label
 _atom_site_symmetry_multiplicity
 _atom_site_fract_x
 _atom_site_fract_y
 _atom_site_fract_z
 _atom_site_occupancy
  Ho  Ho0  1  0.960782  0.039218  0.112292  1
  Ho  Ho1  1  0.039218  0.960782  0.887708  1
  Ho  Ho2  1  0.039218  0.960782  0.612292  1
  Ho  Ho3  1  0.960782  0.039218  0.387708  1
  Ho  Ho4  1  0.742963  0.257037  0.633435  1
  Ho  Ho5  1  0.257037  0.742963  0.366565  1
  Ho  Ho6  1  0.257037  0.742963  0.133435  1
  Ho  Ho7  1  0.742963  0.257037  0.866565  1
  Ho  Ho8  1  0.596144  0.403856  0.250000  1
  Ho  Ho9  1  0.403856  0.596144  0.750000  1
  Mn  Mn10  1  0.407666  0.592334  0.250000  1
  Mn  Mn11  1  0.592334  0.407666  0.750000  1
  Mn  Mn12  1  0.840424  0.159576  0.250000  1
  Mn  Mn13  1  0.159576  0.840424  0.750000  1
  Te  Te14  1  0.620221  0.379779  0.040444  1
  Te  Te15  1  0.379779  0.620221  0.959556  1
  Te  Te16  1  0.379779  0.620221  0.540444  1
  Te  Te17  1  0.620221  0.379779  0.459556  1
