# generated using pymatgen
data_Nd4Ga5Ir8Pd
_symmetry_space_group_name_H-M   'P 1'
_cell_length_a   12.44657391
_cell_length_b   12.44761059
_cell_length_c   12.44657385
_cell_angle_alpha   26.08287553
_cell_angle_beta   26.18344821
_cell_angle_gamma   26.08287699
_symmetry_Int_Tables_number   1
_chemical_formula_structural   Nd4Ga5Ir8Pd
_chemical_formula_sum   'Nd4 Ga5 Ir8 Pd1'
_cell_volume   329.19516479
_cell_formula_units_Z   1
loop_
 _symmetry_equiv_pos_site_id
 _symmetry_equiv_pos_as_xyz
  1  'x, y, z'
loop_
 _atom_site_type_symbol
 _atom_site_label
 _atom_site_symmetry_multiplicity
 _atom_site_fract_x
 _atom_site_fract_y
 _atom_site_fract_z
 _atom_site_occupancy
  Nd  Nd0  1  0.952203  0.952638  0.952203  1
  Nd  Nd1  1  0.048616  0.049028  0.048616  1
  Nd  Nd2  1  0.852471  0.854621  0.852471  1
  Nd  Nd3  1  0.143237  0.150930  0.143237  1
  Ga  Ga4  1  0.503999  0.490579  0.503999  1
  Ga  Ga5  1  0.721898  0.720276  0.721898  1
  Ga  Ga6  1  0.276289  0.282374  0.276289  1
  Ga  Ga7  1  0.615062  0.604091  0.615062  1
  Ga  Ga8  1  0.389803  0.388095  0.389803  1
  Ir  Ir9  1  0.499449  0.499545  0.001887  1
  Ir  Ir10  1  0.001887  0.499545  0.499449  1
  Ir  Ir11  1  0.499664  0.999035  0.499664  1
  Ir  Ir12  1  0.384781  0.391331  0.893740  1
  Ir  Ir13  1  0.893740  0.391331  0.384781  1
  Ir  Ir14  1  0.613800  0.101972  0.613800  1
  Ir  Ir15  1  0.610823  0.615286  0.104684  1
  Ir  Ir16  1  0.104684  0.615286  0.610823  1
  Pd  Pd17  1  0.387594  0.894037  0.387594  1
