# generated using pymatgen
data_Pr16Hg4Os3Rh
_symmetry_space_group_name_H-M   'P 1'
_cell_length_a   9.92982563
_cell_length_b   9.97874334
_cell_length_c   9.97874300
_cell_angle_alpha   59.99999782
_cell_angle_beta   59.83690151
_cell_angle_gamma   59.83690930
_symmetry_Int_Tables_number   1
_chemical_formula_structural   Pr16Hg4Os3Rh
_chemical_formula_sum   'Pr16 Hg4 Os3 Rh1'
_cell_volume   697.43427362
_cell_formula_units_Z   1
loop_
 _symmetry_equiv_pos_site_id
 _symmetry_equiv_pos_as_xyz
  1  'x, y, z'
loop_
 _atom_site_type_symbol
 _atom_site_label
 _atom_site_symmetry_multiplicity
 _atom_site_fract_x
 _atom_site_fract_y
 _atom_site_fract_z
 _atom_site_occupancy
  Pr  Pr0  1  0.347233  0.349380  0.349380  1
  Pr  Pr1  1  0.347233  0.349380  0.954004  1
  Pr  Pr2  1  0.347233  0.954004  0.349380  1
  Pr  Pr3  1  0.955234  0.348255  0.348255  1
  Pr  Pr4  1  0.810624  0.190860  0.190860  1
  Pr  Pr5  1  0.190369  0.809422  0.809421  1
  Pr  Pr6  1  0.190369  0.809421  0.190787  1
  Pr  Pr7  1  0.810624  0.190860  0.807657  1
  Pr  Pr8  1  0.190369  0.190788  0.809421  1
  Pr  Pr9  1  0.810625  0.807658  0.190859  1
  Pr  Pr10  1  0.940362  0.559211  0.559211  1
  Pr  Pr11  1  0.558693  0.939396  0.939396  1
  Pr  Pr12  1  0.558693  0.939396  0.562515  1
  Pr  Pr13  1  0.940362  0.559211  0.941215  1
  Pr  Pr14  1  0.558693  0.562515  0.939396  1
  Pr  Pr15  1  0.940362  0.941215  0.559211  1
  Hg  Hg16  1  0.583351  0.583750  0.583750  1
  Hg  Hg17  1  0.583351  0.583750  0.249151  1
  Hg  Hg18  1  0.583351  0.249151  0.583750  1
  Hg  Hg19  1  0.249730  0.583424  0.583424  1
  Os  Os20  1  0.140707  0.138488  0.138488  1
  Os  Os21  1  0.140707  0.138488  0.582318  1
  Os  Os22  1  0.140707  0.582318  0.138488  1
  Rh  Rh23  1  0.581018  0.139661  0.139661  1
