# generated using pymatgen
data_Ba2CaAl2VF14
_symmetry_space_group_name_H-M   'P 1'
_cell_length_a   7.43313094
_cell_length_b   7.43313043
_cell_length_c   15.00818354
_cell_angle_alpha   87.84160528
_cell_angle_beta   87.84160651
_cell_angle_gamma   41.96414645
_symmetry_Int_Tables_number   1
_chemical_formula_structural   Ba2CaAl2VF14
_chemical_formula_sum   'Ba4 Ca2 Al4 V2 F28'
_cell_volume   554.02192199
_cell_formula_units_Z   2
loop_
 _symmetry_equiv_pos_site_id
 _symmetry_equiv_pos_as_xyz
  1  'x, y, z'
loop_
 _atom_site_type_symbol
 _atom_site_label
 _atom_site_symmetry_multiplicity
 _atom_site_fract_x
 _atom_site_fract_y
 _atom_site_fract_z
 _atom_site_occupancy
  Ba  Ba0  1  0.228156  0.154291  0.380690  1
  Ba  Ba1  1  0.845709  0.771844  0.119310  1
  Ba  Ba2  1  0.771844  0.845709  0.619310  1
  Ba  Ba3  1  0.154291  0.228156  0.880690  1
  Ca  Ca4  1  0.559418  0.440582  0.250000  1
  Ca  Ca5  1  0.440582  0.559418  0.750000  1
  Al  Al6  1  0.120471  0.115965  0.122246  1
  Al  Al7  1  0.884035  0.879529  0.377754  1
  Al  Al8  1  0.879529  0.884035  0.877754  1
  Al  Al9  1  0.115965  0.120471  0.622246  1
  V  V10  1  0.500000  0.500000  0.000000  1
  V  V11  1  0.500000  0.500000  0.500000  1
  F  F12  1  0.287358  0.196591  0.082461  1
  F  F13  1  0.803409  0.712642  0.417539  1
  F  F14  1  0.712642  0.803409  0.917539  1
  F  F15  1  0.196591  0.287358  0.582461  1
  F  F16  1  0.743070  0.092780  0.976391  1
  F  F17  1  0.907220  0.256930  0.523609  1
  F  F18  1  0.256930  0.907220  0.023609  1
  F  F19  1  0.092780  0.743070  0.476391  1
  F  F20  1  0.408921  0.830998  0.551275  1
  F  F21  1  0.169002  0.591079  0.948725  1
  F  F22  1  0.591079  0.169002  0.448725  1
  F  F23  1  0.830998  0.408921  0.051275  1
  F  F24  1  0.923641  0.067852  0.156885  1
  F  F25  1  0.932148  0.076359  0.343115  1
  F  F26  1  0.076359  0.932148  0.843115  1
  F  F27  1  0.067852  0.923641  0.656885  1
  F  F28  1  0.355831  0.962829  0.715745  1
  F  F29  1  0.037171  0.644169  0.784255  1
  F  F30  1  0.644169  0.037171  0.284255  1
  F  F31  1  0.962829  0.355831  0.215745  1
  F  F32  1  0.596258  0.155690  0.808059  1
  F  F33  1  0.844310  0.403742  0.691941  1
  F  F34  1  0.403742  0.844310  0.191941  1
  F  F35  1  0.155690  0.596258  0.308059  1
  F  F36  1  0.505837  0.632925  0.375357  1
  F  F37  1  0.367075  0.494163  0.124643  1
  F  F38  1  0.494163  0.367075  0.624643  1
  F  F39  1  0.632925  0.505837  0.875357  1
