# generated using pymatgen
data_DyHo2Tm5Pt4
_symmetry_space_group_name_H-M   'P 1'
_cell_length_a   4.74178400
_cell_length_b   7.08591927
_cell_length_c   8.67771003
_cell_angle_alpha   89.96086151
_cell_angle_beta   90.00000000
_cell_angle_gamma   90.00000000
_symmetry_Int_Tables_number   1
_chemical_formula_structural   DyHo2Tm5Pt4
_chemical_formula_sum   'Dy1 Ho2 Tm5 Pt4'
_cell_volume   291.57010923
_cell_formula_units_Z   1
loop_
 _symmetry_equiv_pos_site_id
 _symmetry_equiv_pos_as_xyz
  1  'x, y, z'
loop_
 _atom_site_type_symbol
 _atom_site_label
 _atom_site_symmetry_multiplicity
 _atom_site_fract_x
 _atom_site_fract_y
 _atom_site_fract_z
 _atom_site_occupancy
  Dy  Dy0  1  0.250000  0.510424  0.170452  1
  Ho  Ho1  1  0.750000  0.989294  0.668992  1
  Ho  Ho2  1  0.750000  0.489575  0.830386  1
  Tm  Tm3  1  0.250000  0.143913  0.921392  1
  Tm  Tm4  1  0.250000  0.644492  0.578594  1
  Tm  Tm5  1  0.750000  0.856291  0.079748  1
  Tm  Tm6  1  0.750000  0.355081  0.421331  1
  Tm  Tm7  1  0.250000  0.010706  0.331607  1
  Pt  Pt8  1  0.250000  0.242542  0.591925  1
  Pt  Pt9  1  0.250000  0.742896  0.906223  1
  Pt  Pt10  1  0.750000  0.758288  0.406345  1
  Pt  Pt11  1  0.750000  0.256499  0.093006  1
