# generated using pymatgen
data_Tm3Lu2InBi2
_symmetry_space_group_name_H-M   'P 1'
_cell_length_a   6.41297005
_cell_length_b   8.98255670
_cell_length_c   8.94461721
_cell_angle_alpha   120.14041784
_cell_angle_beta   90.00547178
_cell_angle_gamma   89.98912799
_symmetry_Int_Tables_number   1
_chemical_formula_structural   Tm3Lu2InBi2
_chemical_formula_sum   'Tm6 Lu4 In2 Bi4'
_cell_volume   445.58988029
_cell_formula_units_Z   2
loop_
 _symmetry_equiv_pos_site_id
 _symmetry_equiv_pos_as_xyz
  1  'x, y, z'
loop_
 _atom_site_type_symbol
 _atom_site_label
 _atom_site_symmetry_multiplicity
 _atom_site_fract_x
 _atom_site_fract_y
 _atom_site_fract_z
 _atom_site_occupancy
  Tm  Tm0  1  0.750184  0.235116  0.000000  1
  Tm  Tm1  1  0.750130  0.765823  0.763535  1
  Tm  Tm2  1  0.750130  0.002288  0.236465  1
  Tm  Tm3  1  0.250386  0.766901  0.000000  1
  Tm  Tm4  1  0.250159  0.231861  0.241955  1
  Tm  Tm5  1  0.250159  0.989906  0.758045  1
  Lu  Lu6  1  0.496045  0.332232  0.659677  1
  Lu  Lu7  1  0.496045  0.672555  0.340323  1
  Lu  Lu8  1  0.003851  0.672352  0.340099  1
  Lu  Lu9  1  0.003851  0.332254  0.659901  1
  In  In10  1  0.249475  0.602841  0.604426  1
  In  In11  1  0.249475  0.998416  0.395574  1
  Bi  Bi12  1  0.750062  0.605562  0.000000  1
  Bi  Bi13  1  0.749921  0.397912  0.393477  1
  Bi  Bi14  1  0.749921  0.004435  0.606523  1
  Bi  Bi15  1  0.250209  0.389549  0.000000  1
