# generated using pymatgen
data_Yb20IrRh3
_symmetry_space_group_name_H-M   'P 1'
_cell_length_a   6.71049808
_cell_length_b   7.34431032
_cell_length_c   15.79491000
_cell_angle_alpha   90.00000000
_cell_angle_beta   90.00000000
_cell_angle_gamma   89.99163515
_symmetry_Int_Tables_number   1
_chemical_formula_structural   Yb20IrRh3
_chemical_formula_sum   'Yb20 Ir1 Rh3'
_cell_volume   778.43602505
_cell_formula_units_Z   1
loop_
 _symmetry_equiv_pos_site_id
 _symmetry_equiv_pos_as_xyz
  1  'x, y, z'
loop_
 _atom_site_type_symbol
 _atom_site_label
 _atom_site_symmetry_multiplicity
 _atom_site_fract_x
 _atom_site_fract_y
 _atom_site_fract_z
 _atom_site_occupancy
  Yb  Yb0  1  0.155170  0.098348  0.250000  1
  Yb  Yb1  1  0.857031  0.191315  0.564777  1
  Yb  Yb2  1  0.845686  0.905194  0.750000  1
  Yb  Yb3  1  0.824004  0.463411  0.145835  1
  Yb  Yb4  1  0.175609  0.536225  0.645705  1
  Yb  Yb5  1  0.358023  0.307863  0.065273  1
  Yb  Yb6  1  0.347158  0.593837  0.250000  1
  Yb  Yb7  1  0.824004  0.463411  0.354165  1
  Yb  Yb8  1  0.324111  0.036064  0.854279  1
  Yb  Yb9  1  0.141686  0.808318  0.067428  1
  Yb  Yb10  1  0.642863  0.691575  0.564852  1
  Yb  Yb11  1  0.676262  0.963937  0.353723  1
  Yb  Yb12  1  0.642863  0.691575  0.935148  1
  Yb  Yb13  1  0.324111  0.036064  0.645721  1
  Yb  Yb14  1  0.141686  0.808318  0.432572  1
  Yb  Yb15  1  0.654464  0.405237  0.750000  1
  Yb  Yb16  1  0.175609  0.536225  0.854295  1
  Yb  Yb17  1  0.358023  0.307863  0.434727  1
  Yb  Yb18  1  0.676262  0.963937  0.146277  1
  Yb  Yb19  1  0.857031  0.191315  0.935223  1
  Ir  Ir20  1  0.963568  0.758594  0.250000  1
  Rh  Rh21  1  0.034106  0.242041  0.750000  1
  Rh  Rh22  1  0.466002  0.741883  0.750000  1
  Rh  Rh23  1  0.534672  0.257450  0.250000  1
