# generated using pymatgen
data_DyTm3Ga12Tc
_symmetry_space_group_name_H-M   'P 1'
_cell_length_a   7.45607758
_cell_length_b   7.45607718
_cell_length_c   7.44834800
_cell_angle_alpha   109.45021747
_cell_angle_beta   109.45021638
_cell_angle_gamma   109.49221781
_symmetry_Int_Tables_number   1
_chemical_formula_structural   DyTm3Ga12Tc
_chemical_formula_sum   'Dy1 Tm3 Ga12 Tc1'
_cell_volume   318.83895889
_cell_formula_units_Z   1
loop_
 _symmetry_equiv_pos_site_id
 _symmetry_equiv_pos_as_xyz
  1  'x, y, z'
loop_
 _atom_site_type_symbol
 _atom_site_label
 _atom_site_symmetry_multiplicity
 _atom_site_fract_x
 _atom_site_fract_y
 _atom_site_fract_z
 _atom_site_occupancy
  Dy  Dy0  1  0.000000  0.000000  0.500000  1
  Tm  Tm1  1  0.000000  0.500000  0.000000  1
  Tm  Tm2  1  0.500000  0.000000  0.000000  1
  Tm  Tm3  1  0.500000  0.500000  0.500000  1
  Ga  Ga4  1  0.749862  0.250138  0.500000  1
  Ga  Ga5  1  0.749862  0.499724  0.249862  1
  Ga  Ga6  1  0.500276  0.250138  0.750138  1
  Ga  Ga7  1  0.250138  0.500276  0.750138  1
  Ga  Ga8  1  0.250138  0.749862  0.500000  1
  Ga  Ga9  1  0.499724  0.749862  0.249862  1
  Ga  Ga10  1  0.708592  0.708592  0.999798  1
  Ga  Ga11  1  0.291408  0.000000  0.291206  1
  Ga  Ga12  1  0.000000  0.291408  0.291206  1
  Ga  Ga13  1  0.291408  0.291408  0.000202  1
  Ga  Ga14  1  0.708592  0.000000  0.708794  1
  Ga  Ga15  1  0.000000  0.708592  0.708794  1
  Tc  Tc16  1  0.000000  0.000000  0.000000  1
