# generated using pymatgen
data_Ba16Li4Mo3W5N28
_symmetry_space_group_name_H-M   'P 1'
_cell_length_a   6.55810708
_cell_length_b   10.46614115
_cell_length_c   15.73714246
_cell_angle_alpha   98.97102629
_cell_angle_beta   90.00152682
_cell_angle_gamma   89.98198181
_symmetry_Int_Tables_number   1
_chemical_formula_structural   Ba16Li4Mo3W5N28
_chemical_formula_sum   'Ba16 Li4 Mo3 W5 N28'
_cell_volume   1066.95376398
_cell_formula_units_Z   1
loop_
 _symmetry_equiv_pos_site_id
 _symmetry_equiv_pos_as_xyz
  1  'x, y, z'
loop_
 _atom_site_type_symbol
 _atom_site_label
 _atom_site_symmetry_multiplicity
 _atom_site_fract_x
 _atom_site_fract_y
 _atom_site_fract_z
 _atom_site_occupancy
  Ba  Ba0  1  0.685446  0.250096  0.249934  1
  Ba  Ba1  1  0.143426  0.075684  0.379482  1
  Ba  Ba2  1  0.143807  0.424451  0.120199  1
  Ba  Ba3  1  0.856099  0.924264  0.620563  1
  Ba  Ba4  1  0.856203  0.575527  0.879712  1
  Ba  Ba5  1  0.720674  0.256358  0.515983  1
  Ba  Ba6  1  0.719779  0.244158  0.984043  1
  Ba  Ba7  1  0.280089  0.743610  0.484135  1
  Ba  Ba8  1  0.280245  0.755821  0.015846  1
  Ba  Ba9  1  0.229173  0.420660  0.572571  1
  Ba  Ba10  1  0.229157  0.079484  0.927385  1
  Ba  Ba11  1  0.770830  0.579426  0.427512  1
  Ba  Ba12  1  0.770846  0.920446  0.072445  1
  Ba  Ba13  1  0.023153  0.250091  0.750118  1
  Ba  Ba14  1  0.976696  0.749856  0.249836  1
  Ba  Ba15  1  0.314510  0.750070  0.750008  1
  Li  Li16  1  0.456374  0.872202  0.239258  1
  Li  Li17  1  0.543524  0.372117  0.739285  1
  Li  Li18  1  0.543647  0.127923  0.760809  1
  Li  Li19  1  0.456485  0.627747  0.260630  1
  Mo  Mo20  1  0.670526  0.578847  0.097105  1
  Mo  Mo21  1  0.670760  0.921012  0.402798  1
  Mo  Mo22  1  0.329436  0.421136  0.902952  1
  W  W23  1  0.330066  0.078551  0.596739  1
  W  W24  1  0.774777  0.894162  0.844761  1
  W  W25  1  0.774797  0.605885  0.655248  1
  W  W26  1  0.225215  0.105818  0.155258  1
  W  W27  1  0.225251  0.394199  0.344694  1
  N  N28  1  0.465381  0.107858  0.091877  1
  N  N29  1  0.816958  0.052332  0.804864  1
  N  N30  1  0.817162  0.447782  0.695170  1
  N  N31  1  0.182931  0.947622  0.195236  1
  N  N32  1  0.182982  0.552482  0.304840  1
  N  N33  1  0.469921  0.221383  0.653508  1
  N  N34  1  0.469557  0.279056  0.846866  1
  N  N35  1  0.530643  0.779143  0.346697  1
  N  N36  1  0.530521  0.721000  0.153330  1
  N  N37  1  0.534671  0.892148  0.908219  1
  N  N38  1  0.534678  0.607859  0.591757  1
  N  N39  1  0.921294  0.859095  0.435302  1
  N  N40  1  0.724800  0.036928  0.328794  1
  N  N41  1  0.724853  0.462891  0.171249  1
  N  N42  1  0.274860  0.962362  0.671585  1
  N  N43  1  0.275081  0.536992  0.828800  1
  N  N44  1  0.500086  0.500067  0.000053  1
  N  N45  1  0.499318  0.000139  0.500094  1
  N  N46  1  0.239919  0.249983  0.250007  1
  N  N47  1  0.760157  0.749998  0.749994  1
  N  N48  1  0.988975  0.861715  0.916573  1
  N  N49  1  0.988949  0.638324  0.583391  1
  N  N50  1  0.011020  0.138293  0.083499  1
  N  N51  1  0.011056  0.361762  0.416464  1
  N  N52  1  0.078515  0.359133  0.935490  1
  N  N53  1  0.921422  0.640872  0.064615  1
  N  N54  1  0.077949  0.141025  0.564297  1
  N  N55  1  0.465350  0.392155  0.408119  1
