# generated using pymatgen
data_HoTm4VMoO12
_symmetry_space_group_name_H-M   'P 1'
_cell_length_a   6.73897134
_cell_length_b   6.73897070
_cell_length_c   7.23612957
_cell_angle_alpha   74.32272395
_cell_angle_beta   74.32272603
_cell_angle_gamma   51.77202096
_symmetry_Int_Tables_number   1
_chemical_formula_structural   HoTm4VMoO12
_chemical_formula_sum   'Ho1 Tm4 V1 Mo1 O12'
_cell_volume   246.22937193
_cell_formula_units_Z   1
loop_
 _symmetry_equiv_pos_site_id
 _symmetry_equiv_pos_as_xyz
  1  'x, y, z'
loop_
 _atom_site_type_symbol
 _atom_site_label
 _atom_site_symmetry_multiplicity
 _atom_site_fract_x
 _atom_site_fract_y
 _atom_site_fract_z
 _atom_site_occupancy
  Ho  Ho0  1  0.003627  0.996373  0.500000  1
  Tm  Tm1  1  0.312841  0.293709  0.361956  1
  Tm  Tm2  1  0.706291  0.687159  0.638044  1
  Tm  Tm3  1  0.312890  0.307468  0.824777  1
  Tm  Tm4  1  0.692532  0.687110  0.175223  1
  V  V5  1  0.743961  0.256039  0.000000  1
  Mo  Mo6  1  0.232381  0.767619  0.000000  1
  O  O7  1  0.896933  0.428350  0.917542  1
  O  O8  1  0.431808  0.899138  0.916688  1
  O  O9  1  0.100862  0.568192  0.083312  1
  O  O10  1  0.571650  0.103067  0.082458  1
  O  O11  1  0.103692  0.588917  0.574852  1
  O  O12  1  0.597818  0.089946  0.576809  1
  O  O13  1  0.910054  0.402182  0.423191  1
  O  O14  1  0.411083  0.896308  0.425148  1
  O  O15  1  0.990081  0.011280  0.812542  1
  O  O16  1  0.988720  0.009919  0.187458  1
  O  O17  1  0.495703  0.502928  0.807041  1
  O  O18  1  0.497072  0.504297  0.192959  1
