# generated using pymatgen
data_EuTi11O20
_symmetry_space_group_name_H-M   'P 1'
_cell_length_a   7.18400222
_cell_length_b   7.70659130
_cell_length_c   13.28018400
_cell_angle_alpha   90.28529086
_cell_angle_beta   92.73433434
_cell_angle_gamma   103.73560757
_symmetry_Int_Tables_number   1
_chemical_formula_structural   EuTi11O20
_chemical_formula_sum   'Eu2 Ti22 O40'
_cell_volume   713.30567587
_cell_formula_units_Z   2
loop_
 _symmetry_equiv_pos_site_id
 _symmetry_equiv_pos_as_xyz
  1  'x, y, z'
loop_
 _atom_site_type_symbol
 _atom_site_label
 _atom_site_symmetry_multiplicity
 _atom_site_fract_x
 _atom_site_fract_y
 _atom_site_fract_z
 _atom_site_occupancy
  Eu  Eu0  1  0.445774  0.822688  0.763838  1
  Eu  Eu1  1  0.554226  0.177312  0.236162  1
  Ti  Ti2  1  0.036519  0.433306  0.707945  1
  Ti  Ti3  1  0.699046  0.796612  0.415405  1
  Ti  Ti4  1  0.679905  0.919371  0.998695  1
  Ti  Ti5  1  0.353923  0.635690  0.285907  1
  Ti  Ti6  1  0.677685  0.066413  0.563251  1
  Ti  Ti7  1  0.322315  0.933587  0.436749  1
  Ti  Ti8  1  0.995647  0.704238  0.874475  1
  Ti  Ti9  1  0.978875  0.793401  0.632925  1
  Ti  Ti10  1  0.324715  0.580223  0.511671  1
  Ti  Ti11  1  0.300954  0.203388  0.584595  1
  Ti  Ti12  1  0.338671  0.433412  0.931713  1
  Ti  Ti13  1  0.010442  0.928203  0.201372  1
  Ti  Ti14  1  0.319628  0.709763  0.081800  1
  Ti  Ti15  1  0.661329  0.566588  0.068287  1
  Ti  Ti16  1  0.963481  0.566694  0.292055  1
  Ti  Ti17  1  0.320095  0.080629  0.001305  1
  Ti  Ti18  1  0.675285  0.419777  0.488329  1
  Ti  Ti19  1  0.989558  0.071797  0.798628  1
  Ti  Ti20  1  0.680372  0.290237  0.918200  1
  Ti  Ti21  1  0.004353  0.295762  0.125525  1
  Ti  Ti22  1  0.646077  0.364310  0.714093  1
  Ti  Ti23  1  0.021125  0.206599  0.367075  1
  O  O24  1  0.501222  0.316636  0.035422  1
  O  O25  1  0.853394  0.597760  0.731247  1
  O  O26  1  0.875324  0.114160  0.233912  1
  O  O27  1  0.841439  0.263550  0.799448  1
  O  O28  1  0.504030  0.822117  0.531619  1
  O  O29  1  0.831600  0.819324  0.097289  1
  O  O30  1  0.515331  0.042658  0.903058  1
  O  O31  1  0.495466  0.599250  0.174952  1
  O  O32  1  0.851860  0.766043  0.306267  1
  O  O33  1  0.489240  0.450362  0.603100  1
  O  O34  1  0.174869  0.670746  0.404803  1
  O  O35  1  0.171413  0.824911  0.976130  1
  O  O36  1  0.146606  0.402240  0.268753  1
  O  O37  1  0.829938  0.536808  0.951897  1
  O  O38  1  0.832764  0.045494  0.446723  1
  O  O39  1  0.828587  0.175089  0.023870  1
  O  O40  1  0.170062  0.463192  0.048103  1
  O  O41  1  0.495970  0.177883  0.468381  1
  O  O42  1  0.504534  0.400750  0.825048  1
  O  O43  1  0.498778  0.683364  0.964578  1
  O  O44  1  0.158561  0.736450  0.200552  1
  O  O45  1  0.148140  0.233957  0.693733  1
  O  O46  1  0.826865  0.445280  0.168865  1
  O  O47  1  0.176900  0.044654  0.333630  1
  O  O48  1  0.178025  0.624406  0.627062  1
  O  O49  1  0.167236  0.954506  0.553277  1
  O  O50  1  0.510760  0.549638  0.396900  1
  O  O51  1  0.821975  0.375594  0.372938  1
  O  O52  1  0.823100  0.955346  0.666370  1
  O  O53  1  0.822446  0.671891  0.520479  1
  O  O54  1  0.172661  0.116156  0.124273  1
  O  O55  1  0.168400  0.180676  0.902711  1
  O  O56  1  0.484669  0.957342  0.096942  1
  O  O57  1  0.124676  0.885840  0.766088  1
  O  O58  1  0.825131  0.329254  0.595197  1
  O  O59  1  0.497888  0.881248  0.331626  1
  O  O60  1  0.177554  0.328109  0.479521  1
  O  O61  1  0.827339  0.883844  0.875727  1
  O  O62  1  0.502112  0.118752  0.668374  1
  O  O63  1  0.173135  0.554720  0.831135  1
