# generated using pymatgen
data_Ca2(Al3Pt)3
_symmetry_space_group_name_H-M   'P 1'
_cell_length_a   7.64708446
_cell_length_b   7.64708461
_cell_length_c   9.52806900
_cell_angle_alpha   90.00000000
_cell_angle_beta   90.00000000
_cell_angle_gamma   119.63042264
_symmetry_Int_Tables_number   1
_chemical_formula_structural   Ca2(Al3Pt)3
_chemical_formula_sum   'Ca4 Al18 Pt6'
_cell_volume   484.32027411
_cell_formula_units_Z   2
loop_
 _symmetry_equiv_pos_site_id
 _symmetry_equiv_pos_as_xyz
  1  'x, y, z'
loop_
 _atom_site_type_symbol
 _atom_site_label
 _atom_site_symmetry_multiplicity
 _atom_site_fract_x
 _atom_site_fract_y
 _atom_site_fract_z
 _atom_site_occupancy
  Ca  Ca0  1  0.996085  0.670956  0.250000  1
  Ca  Ca1  1  0.003915  0.329044  0.750000  1
  Ca  Ca2  1  0.670956  0.996085  0.250000  1
  Ca  Ca3  1  0.329044  0.003915  0.750000  1
  Al  Al4  1  0.130985  0.130985  0.250000  1
  Al  Al5  1  0.869015  0.869015  0.750000  1
  Al  Al6  1  0.999297  0.334779  0.076750  1
  Al  Al7  1  0.000703  0.665221  0.923250  1
  Al  Al8  1  0.000703  0.665221  0.576750  1
  Al  Al9  1  0.334779  0.999297  0.423250  1
  Al  Al10  1  0.999297  0.334779  0.423250  1
  Al  Al11  1  0.665221  0.000703  0.576750  1
  Al  Al12  1  0.665221  0.000703  0.923250  1
  Al  Al13  1  0.334779  0.999297  0.076750  1
  Al  Al14  1  0.332052  0.332052  0.553857  1
  Al  Al15  1  0.667948  0.667948  0.446143  1
  Al  Al16  1  0.667948  0.667948  0.053857  1
  Al  Al17  1  0.332052  0.332052  0.946143  1
  Al  Al18  1  0.340647  0.545886  0.250000  1
  Al  Al19  1  0.659353  0.454114  0.750000  1
  Al  Al20  1  0.545886  0.340647  0.250000  1
  Al  Al21  1  0.454114  0.659353  0.750000  1
  Pt  Pt22  1  0.670942  0.329058  0.000000  1
  Pt  Pt23  1  0.329058  0.670942  0.000000  1
  Pt  Pt24  1  0.329058  0.670942  0.500000  1
  Pt  Pt25  1  0.670942  0.329058  0.500000  1
  Pt  Pt26  1  0.000000  0.000000  0.000000  1
  Pt  Pt27  1  0.000000  0.000000  0.500000  1
