# generated using pymatgen
data_Dy6Y4Si16Ge
_symmetry_space_group_name_H-M   'P 1'
_cell_length_a   11.04154919
_cell_length_b   11.02902010
_cell_length_c   11.04178513
_cell_angle_alpha   144.76088266
_cell_angle_beta   135.77285471
_cell_angle_gamma   57.79117003
_symmetry_Int_Tables_number   1
_chemical_formula_structural   Dy6Y4Si16Ge
_chemical_formula_sum   'Dy6 Y4 Si16 Ge1'
_cell_volume   536.57297532
_cell_formula_units_Z   1
loop_
 _symmetry_equiv_pos_site_id
 _symmetry_equiv_pos_as_xyz
  1  'x, y, z'
loop_
 _atom_site_type_symbol
 _atom_site_label
 _atom_site_symmetry_multiplicity
 _atom_site_fract_x
 _atom_site_fract_y
 _atom_site_fract_z
 _atom_site_occupancy
  Dy  Dy0  1  0.151576  0.166888  0.519357  1
  Dy  Dy1  1  0.351353  0.367460  0.519137  1
  Dy  Dy2  1  0.244182  0.759795  0.004375  1
  Dy  Dy3  1  0.548617  0.561865  0.509048  1
  Dy  Dy4  1  0.052827  0.561887  0.013250  1
  Dy  Dy5  1  0.647515  0.166869  0.015310  1
  Y  Y6  1  0.755423  0.759790  0.515631  1
  Y  Y7  1  0.448641  0.963848  0.013327  1
  Y  Y8  1  0.848323  0.367465  0.016092  1
  Y  Y9  1  0.950535  0.963865  0.515202  1
  Si  Si10  1  0.199505  0.577557  0.378141  1
  Si  Si11  1  0.000243  0.081569  0.081495  1
  Si  Si12  1  0.698944  0.290146  0.591115  1
  Si  Si13  1  0.800747  0.180378  0.379620  1
  Si  Si14  1  0.895735  0.504814  0.609155  1
  Si  Si15  1  0.417646  0.872547  0.454806  1
  Si  Si16  1  0.104409  0.713170  0.608906  1
  Si  Si17  1  0.300807  0.896418  0.595617  1
  Si  Si18  1  0.581326  0.037857  0.456334  1
  Si  Si19  1  0.999930  0.430827  0.431073  1
  Si  Si20  1  0.880563  0.843111  0.962581  1
  Si  Si21  1  0.399776  0.500444  0.100590  1
  Si  Si22  1  0.120373  0.084798  0.964545  1
  Si  Si23  1  0.285612  0.241113  0.955510  1
  Si  Si24  1  0.499513  0.387653  0.887997  1
  Si  Si25  1  0.598563  0.701577  0.102846  1
  Ge  Ge26  1  0.717317  0.677785  0.960438  1
