# generated using pymatgen
data_Dy3Er7Os4
_symmetry_space_group_name_H-M   'P 1'
_cell_length_a   6.32262051
_cell_length_b   7.33702756
_cell_length_c   8.38219780
_cell_angle_alpha   96.94969903
_cell_angle_beta   112.21146432
_cell_angle_gamma   90.04629097
_symmetry_Int_Tables_number   1
_chemical_formula_structural   Dy3Er7Os4
_chemical_formula_sum   'Dy3 Er7 Os4'
_cell_volume   356.88600553
_cell_formula_units_Z   1
loop_
 _symmetry_equiv_pos_site_id
 _symmetry_equiv_pos_as_xyz
  1  'x, y, z'
loop_
 _atom_site_type_symbol
 _atom_site_label
 _atom_site_symmetry_multiplicity
 _atom_site_fract_x
 _atom_site_fract_y
 _atom_site_fract_z
 _atom_site_occupancy
  Dy  Dy0  1  0.791838  0.583610  0.815280  1
  Dy  Dy1  1  0.975959  0.916431  0.183882  1
  Dy  Dy2  1  0.208329  0.416279  0.184346  1
  Er  Er3  1  0.023753  0.083933  0.816175  1
  Er  Er4  1  0.203441  0.683305  0.564778  1
  Er  Er5  1  0.639353  0.817055  0.435858  1
  Er  Er6  1  0.796628  0.316542  0.435417  1
  Er  Er7  1  0.360601  0.183277  0.564645  1
  Er  Er8  1  0.420758  0.749916  0.999768  1
  Er  Er9  1  0.578847  0.250094  0.999935  1
  Os  Os10  1  0.602164  0.923501  0.779974  1
  Os  Os11  1  0.820940  0.577245  0.220015  1
  Os  Os12  1  0.398802  0.076699  0.219825  1
  Os  Os13  1  0.178588  0.422113  0.780101  1
