# generated using pymatgen
data_YTm15Cd4(NiIr)2
_symmetry_space_group_name_H-M   'P 1'
_cell_length_a   9.47373750
_cell_length_b   9.47373670
_cell_length_c   9.53129500
_cell_angle_alpha   59.79882109
_cell_angle_beta   59.79882392
_cell_angle_gamma   59.43070387
_symmetry_Int_Tables_number   1
_chemical_formula_structural   YTm15Cd4(NiIr)2
_chemical_formula_sum   'Y1 Tm15 Cd4 Ni2 Ir2'
_cell_volume   600.42691146
_cell_formula_units_Z   1
loop_
 _symmetry_equiv_pos_site_id
 _symmetry_equiv_pos_as_xyz
  1  'x, y, z'
loop_
 _atom_site_type_symbol
 _atom_site_label
 _atom_site_symmetry_multiplicity
 _atom_site_fract_x
 _atom_site_fract_y
 _atom_site_fract_z
 _atom_site_occupancy
  Y  Y0  1  0.188756  0.188756  0.811244  1
  Tm  Tm1  1  0.600721  0.600721  0.593606  1
  Tm  Tm2  1  0.600721  0.600721  0.204951  1
  Tm  Tm3  1  0.604361  0.201935  0.596852  1
  Tm  Tm4  1  0.201935  0.604361  0.596852  1
  Tm  Tm5  1  0.058604  0.437699  0.439650  1
  Tm  Tm6  1  0.437699  0.058604  0.064047  1
  Tm  Tm7  1  0.437699  0.058604  0.439650  1
  Tm  Tm8  1  0.058604  0.437699  0.064047  1
  Tm  Tm9  1  0.439187  0.439187  0.060813  1
  Tm  Tm10  1  0.061560  0.061560  0.438440  1
  Tm  Tm11  1  0.187374  0.810276  0.815860  1
  Tm  Tm12  1  0.810276  0.187374  0.186490  1
  Tm  Tm13  1  0.810276  0.187374  0.815860  1
  Tm  Tm14  1  0.187374  0.810276  0.186490  1
  Tm  Tm15  1  0.816052  0.816052  0.183948  1
  Cd  Cd16  1  0.830086  0.830086  0.833063  1
  Cd  Cd17  1  0.830086  0.830086  0.506762  1
  Cd  Cd18  1  0.829329  0.506287  0.832192  1
  Cd  Cd19  1  0.506287  0.829329  0.832192  1
  Ni  Ni20  1  0.391821  0.824741  0.391719  1
  Ni  Ni21  1  0.824741  0.391821  0.391719  1
  Ir  Ir22  1  0.393223  0.393223  0.391022  1
  Ir  Ir23  1  0.393223  0.393223  0.822533  1
