# generated using pymatgen
data_TlBH4
_symmetry_space_group_name_H-M   'P 1'
_cell_length_a   4.81764797
_cell_length_b   4.81674564
_cell_length_c   6.82170725
_cell_angle_alpha   90.20236908
_cell_angle_beta   90.10571892
_cell_angle_gamma   90.02072608
_symmetry_Int_Tables_number   1
_chemical_formula_structural   TlBH4
_chemical_formula_sum   'Tl2 B2 H8'
_cell_volume   158.29907437
_cell_formula_units_Z   2
loop_
 _symmetry_equiv_pos_site_id
 _symmetry_equiv_pos_as_xyz
  1  'x, y, z'
loop_
 _atom_site_type_symbol
 _atom_site_label
 _atom_site_symmetry_multiplicity
 _atom_site_fract_x
 _atom_site_fract_y
 _atom_site_fract_z
 _atom_site_occupancy
  Tl  Tl0  1  0.995869  0.003094  0.000964  1
  Tl  Tl1  1  0.495931  0.497469  0.502754  1
  B  B2  1  0.499573  0.499860  0.002995  1
  B  B3  1  0.996232  0.000295  0.500553  1
  H  H4  1  0.999521  0.793296  0.607052  1
  H  H5  1  0.203458  0.998317  0.393964  1
  H  H6  1  0.998124  0.212815  0.602878  1
  H  H7  1  0.498938  0.286709  0.901285  1
  H  H8  1  0.289706  0.503710  0.106893  1
  H  H9  1  0.709369  0.502592  0.107654  1
  H  H10  1  0.500326  0.706192  0.895829  1
  H  H11  1  0.783852  0.996945  0.398576  1
