# generated using pymatgen
data_Tm6Al24Fe3Ru2Au3
_symmetry_space_group_name_H-M   'P 1'
_cell_length_a   8.83386050
_cell_length_b   8.76106543
_cell_length_c   9.40523483
_cell_angle_alpha   89.95653450
_cell_angle_beta   90.04724123
_cell_angle_gamma   119.46963470
_symmetry_Int_Tables_number   1
_chemical_formula_structural   Tm6Al24Fe3Ru2Au3
_chemical_formula_sum   'Tm6 Al24 Fe3 Ru2 Au3'
_cell_volume   633.72937306
_cell_formula_units_Z   1
loop_
 _symmetry_equiv_pos_site_id
 _symmetry_equiv_pos_as_xyz
  1  'x, y, z'
loop_
 _atom_site_type_symbol
 _atom_site_label
 _atom_site_symmetry_multiplicity
 _atom_site_fract_x
 _atom_site_fract_y
 _atom_site_fract_z
 _atom_site_occupancy
  Tm  Tm0  1  0.806694  0.195002  0.749502  1
  Tm  Tm1  1  0.193306  0.804998  0.250498  1
  Tm  Tm2  1  0.385339  0.191444  0.750250  1
  Tm  Tm3  1  0.614661  0.808556  0.249750  1
  Tm  Tm4  1  0.808719  0.613003  0.744357  1
  Tm  Tm5  1  0.191281  0.386997  0.255643  1
  Al  Al6  1  0.678509  0.339435  0.968522  1
  Al  Al7  1  0.321491  0.660565  0.031478  1
  Al  Al8  1  0.331717  0.679157  0.471969  1
  Al  Al9  1  0.668283  0.320843  0.528031  1
  Al  Al10  1  0.836952  0.159161  0.423377  1
  Al  Al11  1  0.163048  0.840839  0.576623  1
  Al  Al12  1  0.316859  0.145369  0.425776  1
  Al  Al13  1  0.150108  0.833103  0.918330  1
  Al  Al14  1  0.683141  0.854631  0.574224  1
  Al  Al15  1  0.849892  0.166897  0.081670  1
  Al  Al16  1  0.851065  0.683947  0.422173  1
  Al  Al17  1  0.690967  0.845314  0.917604  1
  Al  Al18  1  0.148935  0.316053  0.577827  1
  Al  Al19  1  0.309033  0.154686  0.082396  1
  Al  Al20  1  0.148282  0.315197  0.920699  1
  Al  Al21  1  0.851718  0.684803  0.079301  1
  Al  Al22  1  0.432186  0.566530  0.749647  1
  Al  Al23  1  0.567814  0.433470  0.250353  1
  Al  Al24  1  0.120601  0.560898  0.749565  1
  Al  Al25  1  0.879399  0.439102  0.250435  1
  Al  Al26  1  0.437346  0.876915  0.736767  1
  Al  Al27  1  0.562654  0.123085  0.263233  1
  Al  Al28  1  0.002990  0.000604  0.748836  1
  Al  Al29  1  0.997010  0.999396  0.251164  1
  Fe  Fe30  1  0.500000  0.000000  0.500000  1
  Fe  Fe31  1  0.000000  0.000000  0.000000  1
  Fe  Fe32  1  0.000000  0.000000  0.500000  1
  Ru  Ru33  1  0.000000  0.500000  0.000000  1
  Ru  Ru34  1  0.000000  0.500000  0.500000  1
  Au  Au35  1  0.500000  0.500000  0.000000  1
  Au  Au36  1  0.500000  0.500000  0.500000  1
  Au  Au37  1  0.500000  0.000000  0.000000  1
