# generated using pymatgen
data_Ce6Er2Ti7Si16W5
_symmetry_space_group_name_H-M   'P 1'
_cell_length_a   6.99128321
_cell_length_b   6.98353523
_cell_length_c   13.00915383
_cell_angle_alpha   89.86940816
_cell_angle_beta   90.09754952
_cell_angle_gamma   90.41480673
_symmetry_Int_Tables_number   1
_chemical_formula_structural   Ce6Er2Ti7Si16W5
_chemical_formula_sum   'Ce6 Er2 Ti7 Si16 W5'
_cell_volume   635.13807117
_cell_formula_units_Z   1
loop_
 _symmetry_equiv_pos_site_id
 _symmetry_equiv_pos_as_xyz
  1  'x, y, z'
loop_
 _atom_site_type_symbol
 _atom_site_label
 _atom_site_symmetry_multiplicity
 _atom_site_fract_x
 _atom_site_fract_y
 _atom_site_fract_z
 _atom_site_occupancy
  Ce  Ce0  1  0.337643  0.001011  0.467985  1
  Ce  Ce1  1  0.494910  0.832882  0.718506  1
  Ce  Ce2  1  0.504483  0.167230  0.217367  1
  Ce  Ce3  1  0.832964  0.494182  0.281656  1
  Ce  Ce4  1  0.166230  0.505128  0.781757  1
  Ce  Ce5  1  0.662265  0.999678  0.967835  1
  Er  Er6  1  0.998230  0.338076  0.533011  1
  Er  Er7  1  0.001591  0.663184  0.030654  1
  Ti  Ti8  1  0.490835  0.658253  0.126318  1
  Ti  Ti9  1  0.505395  0.342726  0.627483  1
  Ti  Ti10  1  0.656645  0.493032  0.872652  1
  Ti  Ti11  1  0.343056  0.506269  0.373329  1
  Ti  Ti12  1  0.842874  0.992358  0.376589  1
  Ti  Ti13  1  0.004933  0.156676  0.123476  1
  Ti  Ti14  1  0.996282  0.842066  0.624180  1
  Si  Si15  1  0.197882  0.128265  0.686135  1
  Si  Si16  1  0.372784  0.703634  0.936634  1
  Si  Si17  1  0.628422  0.300454  0.438712  1
  Si  Si18  1  0.700870  0.377206  0.062613  1
  Si  Si19  1  0.299143  0.623663  0.562781  1
  Si  Si20  1  0.803275  0.870609  0.185130  1
  Si  Si21  1  0.126829  0.198575  0.314160  1
  Si  Si22  1  0.874582  0.801054  0.815895  1
  Si  Si23  1  0.288378  0.957942  0.065180  1
  Si  Si24  1  0.541695  0.791137  0.315158  1
  Si  Si25  1  0.455829  0.209603  0.815496  1
  Si  Si26  1  0.792556  0.540902  0.682993  1
  Si  Si27  1  0.205734  0.459071  0.182797  1
  Si  Si28  1  0.712329  0.042593  0.567115  1
  Si  Si29  1  0.960720  0.292242  0.935000  1
  Si  Si30  1  0.041079  0.705462  0.434793  1
  W  W31  1  0.330691  0.329990  0.998921  1
  W  W32  1  0.170063  0.829456  0.249957  1
  W  W33  1  0.831748  0.169304  0.751602  1
  W  W34  1  0.669340  0.670185  0.499927  1
  W  W35  1  0.157718  0.005906  0.876206  1
