# generated using pymatgen
data_Dy2Y2MnNiC8
_symmetry_space_group_name_H-M   'P 1'
_cell_length_a   6.62403021
_cell_length_b   6.61779474
_cell_length_c   6.61779500
_cell_angle_alpha   134.87286732
_cell_angle_beta   110.85824610
_cell_angle_gamma   86.45282534
_symmetry_Int_Tables_number   1
_chemical_formula_structural   Dy2Y2MnNiC8
_chemical_formula_sum   'Dy2 Y2 Mn1 Ni1 C8'
_cell_volume   184.09387870
_cell_formula_units_Z   1
loop_
 _symmetry_equiv_pos_site_id
 _symmetry_equiv_pos_as_xyz
  1  'x, y, z'
loop_
 _atom_site_type_symbol
 _atom_site_label
 _atom_site_symmetry_multiplicity
 _atom_site_fract_x
 _atom_site_fract_y
 _atom_site_fract_z
 _atom_site_occupancy
  Dy  Dy0  1  0.514644  0.356468  0.159357  1
  Dy  Dy1  1  0.485356  0.644713  0.841824  1
  Y  Y2  1  0.196967  0.854783  0.341010  1
  Y  Y3  1  0.803033  0.144044  0.657816  1
  Mn  Mn4  1  0.000000  0.749923  0.749923  1
  Ni  Ni5  1  0.000000  0.250603  0.250603  1
  C  C6  1  0.251447  0.050765  0.140914  1
  C  C7  1  0.748553  0.889466  0.799316  1
  C  C8  1  0.908781  0.609724  0.358138  1
  C  C9  1  0.091219  0.449357  0.700943  1
  C  C10  1  0.467864  0.133538  0.344237  1
  C  C11  1  0.532136  0.876372  0.665674  1
  C  C12  1  0.787495  0.622742  0.154997  1
  C  C13  1  0.212505  0.367504  0.835247  1
