# generated using pymatgen
data_Y(MnH3)2
_symmetry_space_group_name_H-M   'P 1'
_cell_length_a   4.70855802
_cell_length_b   4.71483065
_cell_length_c   4.70900708
_cell_angle_alpha   59.90225459
_cell_angle_beta   59.89962589
_cell_angle_gamma   59.92296730
_symmetry_Int_Tables_number   1
_chemical_formula_structural   Y(MnH3)2
_chemical_formula_sum   'Y1 Mn2 H6'
_cell_volume   73.76727925
_cell_formula_units_Z   1
loop_
 _symmetry_equiv_pos_site_id
 _symmetry_equiv_pos_as_xyz
  1  'x, y, z'
loop_
 _atom_site_type_symbol
 _atom_site_label
 _atom_site_symmetry_multiplicity
 _atom_site_fract_x
 _atom_site_fract_y
 _atom_site_fract_z
 _atom_site_occupancy
  Y  Y0  1  0.643571  0.892671  0.908139  1
  Mn  Mn1  1  0.143667  0.393824  0.407991  1
  Mn  Mn2  1  0.893755  0.141816  0.158160  1
  H  H3  1  0.140499  0.943235  0.399120  1
  H  H4  1  0.626732  0.392305  0.398202  1
  H  H5  1  0.145129  0.880246  0.929781  1
  H  H6  1  0.638366  0.373347  0.922752  1
  H  H7  1  0.677893  0.868152  0.411556  1
  H  H8  1  0.129285  0.396055  0.885488  1
