# generated using pymatgen
data_Nb8CoBiSe16
_symmetry_space_group_name_H-M   'P 1'
_cell_length_a   6.98489800
_cell_length_b   6.98489704
_cell_length_c   13.70999400
_cell_angle_alpha   90.00000000
_cell_angle_beta   90.00000000
_cell_angle_gamma   120.00000456
_symmetry_Int_Tables_number   1
_chemical_formula_structural   Nb8CoBiSe16
_chemical_formula_sum   'Nb8 Co1 Bi1 Se16'
_cell_volume   579.27922536
_cell_formula_units_Z   1
loop_
 _symmetry_equiv_pos_site_id
 _symmetry_equiv_pos_as_xyz
  1  'x, y, z'
loop_
 _atom_site_type_symbol
 _atom_site_label
 _atom_site_symmetry_multiplicity
 _atom_site_fract_x
 _atom_site_fract_y
 _atom_site_fract_z
 _atom_site_occupancy
  Nb  Nb0  1  0.000000  0.000000  0.226756  1
  Nb  Nb1  1  0.000000  0.000000  0.773244  1
  Nb  Nb2  1  0.508813  0.017628  0.226911  1
  Nb  Nb3  1  0.982372  0.491187  0.226911  1
  Nb  Nb4  1  0.508813  0.491187  0.226911  1
  Nb  Nb5  1  0.491187  0.982372  0.773089  1
  Nb  Nb6  1  0.017628  0.508813  0.773089  1
  Nb  Nb7  1  0.491187  0.508813  0.773089  1
  Co  Co8  1  0.000000  0.000000  0.000000  1
  Bi  Bi9  1  0.000000  0.000000  0.500000  1
  Se  Se10  1  0.333333  0.666667  0.900307  1
  Se  Se11  1  0.666667  0.333333  0.099693  1
  Se  Se12  1  0.666667  0.333333  0.356218  1
  Se  Se13  1  0.333333  0.666667  0.643782  1
  Se  Se14  1  0.170165  0.829835  0.348096  1
  Se  Se15  1  0.170165  0.340330  0.348096  1
  Se  Se16  1  0.659670  0.829835  0.348096  1
  Se  Se17  1  0.829835  0.170165  0.651904  1
  Se  Se18  1  0.829835  0.659670  0.651904  1
  Se  Se19  1  0.340330  0.170165  0.651904  1
  Se  Se20  1  0.832393  0.167607  0.892372  1
  Se  Se21  1  0.832393  0.664785  0.892372  1
  Se  Se22  1  0.335215  0.167607  0.892372  1
  Se  Se23  1  0.167607  0.832393  0.107628  1
  Se  Se24  1  0.167607  0.335215  0.107628  1
  Se  Se25  1  0.664785  0.832393  0.107628  1
