# generated using pymatgen
data_NdPa(TaN3)2
_symmetry_space_group_name_H-M   'P 1'
_cell_length_a   5.52791100
_cell_length_b   5.74351900
_cell_length_c   7.96196100
_cell_angle_alpha   90.00000000
_cell_angle_beta   90.00000000
_cell_angle_gamma   90.00000000
_symmetry_Int_Tables_number   1
_chemical_formula_structural   NdPa(TaN3)2
_chemical_formula_sum   'Nd2 Pa2 Ta4 N12'
_cell_volume   252.78956948
_cell_formula_units_Z   2
loop_
 _symmetry_equiv_pos_site_id
 _symmetry_equiv_pos_as_xyz
  1  'x, y, z'
loop_
 _atom_site_type_symbol
 _atom_site_label
 _atom_site_symmetry_multiplicity
 _atom_site_fract_x
 _atom_site_fract_y
 _atom_site_fract_z
 _atom_site_occupancy
  Nd  Nd0  1  0.510435  0.543754  0.750000  1
  Nd  Nd1  1  0.989565  0.043754  0.750000  1
  Pa  Pa2  1  0.491031  0.436390  0.250000  1
  Pa  Pa3  1  0.008969  0.936390  0.250000  1
  Ta  Ta4  1  0.505237  0.991584  0.501316  1
  Ta  Ta5  1  0.994763  0.491584  0.998684  1
  Ta  Ta6  1  0.994763  0.491584  0.501316  1
  Ta  Ta7  1  0.505237  0.991584  0.998684  1
  N  N8  1  0.693693  0.305250  0.534168  1
  N  N9  1  0.301697  0.699997  0.070038  1
  N  N10  1  0.198303  0.199997  0.070038  1
  N  N11  1  0.417001  0.979330  0.750000  1
  N  N12  1  0.881368  0.546864  0.250000  1
  N  N13  1  0.301697  0.699997  0.429962  1
  N  N14  1  0.806307  0.805250  0.965832  1
  N  N15  1  0.693693  0.305250  0.965832  1
  N  N16  1  0.806307  0.805250  0.534168  1
  N  N17  1  0.082999  0.479330  0.750000  1
  N  N18  1  0.198303  0.199997  0.429962  1
  N  N19  1  0.618632  0.046864  0.250000  1
