# generated using pymatgen
data_Cs12BaTi2(In3As5)2
_symmetry_space_group_name_H-M   'P 1'
_cell_length_a   9.92118157
_cell_length_b   9.88283351
_cell_length_c   13.76888613
_cell_angle_alpha   81.51262439
_cell_angle_beta   80.42253924
_cell_angle_gamma   64.20222861
_symmetry_Int_Tables_number   1
_chemical_formula_structural   Cs12BaTi2(In3As5)2
_chemical_formula_sum   'Cs12 Ba1 Ti2 In6 As10'
_cell_volume   1194.23350794
_cell_formula_units_Z   1
loop_
 _symmetry_equiv_pos_site_id
 _symmetry_equiv_pos_as_xyz
  1  'x, y, z'
loop_
 _atom_site_type_symbol
 _atom_site_label
 _atom_site_symmetry_multiplicity
 _atom_site_fract_x
 _atom_site_fract_y
 _atom_site_fract_z
 _atom_site_occupancy
  Cs  Cs0  1  0.496683  0.871526  0.352354  1
  Cs  Cs1  1  0.503317  0.128474  0.647646  1
  Cs  Cs2  1  0.864697  0.578289  0.881212  1
  Cs  Cs3  1  0.135303  0.421711  0.118788  1
  Cs  Cs4  1  0.088678  0.783853  0.426387  1
  Cs  Cs5  1  0.911322  0.216147  0.573613  1
  Cs  Cs6  1  0.747054  0.683390  0.595664  1
  Cs  Cs7  1  0.252946  0.316610  0.404336  1
  Cs  Cs8  1  0.312501  0.937744  0.090405  1
  Cs  Cs9  1  0.687499  0.062256  0.909595  1
  Cs  Cs10  1  0.890762  0.861969  0.166272  1
  Cs  Cs11  1  0.109238  0.138031  0.833728  1
  Ba  Ba12  1  0.500000  0.500000  0.000000  1
  Ti  Ti13  1  0.381939  0.732004  0.777200  1
  Ti  Ti14  1  0.618061  0.267996  0.222800  1
  In  In15  1  0.039187  0.804111  0.710446  1
  In  In16  1  0.960813  0.195889  0.289554  1
  In  In17  1  0.596257  0.446213  0.407325  1
  In  In18  1  0.403743  0.553787  0.592675  1
  In  In19  1  0.716167  0.567010  0.165800  1
  In  In20  1  0.283833  0.432990  0.834200  1
  As  As21  1  0.434582  0.546814  0.244393  1
  As  As22  1  0.565418  0.453186  0.755607  1
  As  As23  1  0.158856  0.733522  0.898623  1
  As  As24  1  0.841144  0.266478  0.101377  1
  As  As25  1  0.708844  0.135715  0.388069  1
  As  As26  1  0.291156  0.864285  0.611931  1
  As  As27  1  0.846024  0.508361  0.349789  1
  As  As28  1  0.153976  0.491639  0.650211  1
  As  As29  1  0.503217  0.847001  0.849353  1
  As  As30  1  0.496783  0.152999  0.150647  1
