# generated using pymatgen
data_Pr3Pu(Ga5Pt3)2
_symmetry_space_group_name_H-M   'P 1'
_cell_length_a   8.65500981
_cell_length_b   8.64023920
_cell_length_c   8.64024000
_cell_angle_alpha   138.96269317
_cell_angle_beta   106.70391801
_cell_angle_gamma   87.58554852
_symmetry_Int_Tables_number   1
_chemical_formula_structural   Pr3Pu(Ga5Pt3)2
_chemical_formula_sum   'Pr3 Pu1 Ga10 Pt6'
_cell_volume   390.32623545
_cell_formula_units_Z   1
loop_
 _symmetry_equiv_pos_site_id
 _symmetry_equiv_pos_as_xyz
  1  'x, y, z'
loop_
 _atom_site_type_symbol
 _atom_site_label
 _atom_site_symmetry_multiplicity
 _atom_site_fract_x
 _atom_site_fract_y
 _atom_site_fract_z
 _atom_site_occupancy
  Pr  Pr0  1  0.637899  0.367019  0.270880  1
  Pr  Pr1  1  0.361838  0.632097  0.729740  1
  Pr  Pr2  1  0.095942  0.866885  0.229057  1
  Pu  Pu3  1  0.905137  0.134203  0.770934  1
  Ga  Ga4  1  0.279806  0.529554  0.249097  1
  Ga  Ga5  1  0.719924  0.467985  0.749589  1
  Ga  Ga6  1  0.719924  0.970335  0.251939  1
  Ga  Ga7  1  0.279806  0.030710  0.750252  1
  Ga  Ga8  1  0.446132  0.102468  0.343664  1
  Ga  Ga9  1  0.556106  0.899194  0.656912  1
  Ga  Ga10  1  0.758868  0.602374  0.156495  1
  Ga  Ga11  1  0.240908  0.396925  0.843982  1
  Ga  Ga12  1  0.999145  0.249427  0.247900  1
  Ga  Ga13  1  0.999145  0.751245  0.749718  1
  Pt  Pt14  1  0.248545  0.140827  0.107719  1
  Pt  Pt15  1  0.751358  0.858556  0.892801  1
  Pt  Pt16  1  0.033357  0.641367  0.391991  1
  Pt  Pt17  1  0.966897  0.358878  0.608020  1
  Pt  Pt18  1  0.499632  0.250241  0.749922  1
  Pt  Pt19  1  0.499632  0.749710  0.249391  1
