# generated using pymatgen
data_LiHo2ErIn3HgPt
_symmetry_space_group_name_H-M   'P 1'
_cell_length_a   7.95089408
_cell_length_b   7.95873651
_cell_length_c   3.74573700
_cell_angle_alpha   90.00000000
_cell_angle_beta   90.00000000
_cell_angle_gamma   120.05363850
_symmetry_Int_Tables_number   1
_chemical_formula_structural   LiHo2ErIn3HgPt
_chemical_formula_sum   'Li1 Ho2 Er1 In3 Hg1 Pt1'
_cell_volume   205.16015496
_cell_formula_units_Z   1
loop_
 _symmetry_equiv_pos_site_id
 _symmetry_equiv_pos_as_xyz
  1  'x, y, z'
loop_
 _atom_site_type_symbol
 _atom_site_label
 _atom_site_symmetry_multiplicity
 _atom_site_fract_x
 _atom_site_fract_y
 _atom_site_fract_z
 _atom_site_occupancy
  Li  Li0  1  0.000023  0.999956  0.500000  1
  Ho  Ho1  1  0.606239  0.027474  0.500000  1
  Ho  Ho2  1  0.421510  0.393975  0.500000  1
  Er  Er3  1  0.971730  0.578270  0.500000  1
  In  In4  1  0.745026  0.746065  0.000000  1
  In  In5  1  0.001311  0.255386  0.000000  1
  In  In6  1  0.253677  0.998256  0.000000  1
  Hg  Hg7  1  0.332759  0.666718  0.000000  1
  Pt  Pt8  1  0.667724  0.333900  0.000000  1
