# generated using pymatgen
data_Tb7CuNi15
_symmetry_space_group_name_H-M   'P 1'
_cell_length_a   8.71561917
_cell_length_b   8.74622554
_cell_length_c   8.73774106
_cell_angle_alpha   131.63091277
_cell_angle_beta   131.54082568
_cell_angle_gamma   70.82104639
_symmetry_Int_Tables_number   1
_chemical_formula_structural   Tb7CuNi15
_chemical_formula_sum   'Tb7 Cu1 Ni15'
_cell_volume   365.08067465
_cell_formula_units_Z   1
loop_
 _symmetry_equiv_pos_site_id
 _symmetry_equiv_pos_as_xyz
  1  'x, y, z'
loop_
 _atom_site_type_symbol
 _atom_site_label
 _atom_site_symmetry_multiplicity
 _atom_site_fract_x
 _atom_site_fract_y
 _atom_site_fract_z
 _atom_site_occupancy
  Tb  Tb0  1  0.095057  0.095058  0.393205  1
  Tb  Tb1  1  0.701852  0.701852  0.606795  1
  Tb  Tb2  1  0.904665  0.299198  0.000000  1
  Tb  Tb3  1  0.751654  0.249937  0.502126  1
  Tb  Tb4  1  0.500624  0.502329  0.000000  1
  Tb  Tb5  1  0.297883  0.903307  0.000000  1
  Tb  Tb6  1  0.249528  0.747811  0.497874  1
  Cu  Cu7  1  0.431822  0.193268  0.000000  1
  Ni  Ni8  1  0.681066  0.934071  0.482235  1
  Ni  Ni9  1  0.933436  0.680869  0.481197  1
  Ni  Ni10  1  0.191020  0.434078  0.000000  1
  Ni  Ni11  1  0.319476  0.800410  0.252831  1
  Ni  Ni12  1  0.940761  0.663207  0.000000  1
  Ni  Ni13  1  0.807598  0.807995  0.240663  1
  Ni  Ni14  1  0.066645  0.547579  0.747169  1
  Ni  Ni15  1  0.057269  0.057410  0.720389  1
  Ni  Ni16  1  0.664200  0.939221  0.000000  1
  Ni  Ni17  1  0.566934  0.567332  0.759337  1
  Ni  Ni18  1  0.802221  0.320210  0.253881  1
  Ni  Ni19  1  0.548340  0.066328  0.746119  1
  Ni  Ni20  1  0.198832  0.451837  0.517765  1
  Ni  Ni21  1  0.336880  0.337021  0.279611  1
  Ni  Ni22  1  0.452239  0.199673  0.518803  1
