# generated using pymatgen
data_Cr20(RhC2)3
_symmetry_space_group_name_H-M   'P 1'
_cell_length_a   7.52392012
_cell_length_b   7.52391986
_cell_length_c   7.52392000
_cell_angle_alpha   59.99999938
_cell_angle_beta   60.00000055
_cell_angle_gamma   60.00000427
_symmetry_Int_Tables_number   1
_chemical_formula_structural   Cr20(RhC2)3
_chemical_formula_sum   'Cr20 Rh3 C6'
_cell_volume   301.17403148
_cell_formula_units_Z   1
loop_
 _symmetry_equiv_pos_site_id
 _symmetry_equiv_pos_as_xyz
  1  'x, y, z'
loop_
 _atom_site_type_symbol
 _atom_site_label
 _atom_site_symmetry_multiplicity
 _atom_site_fract_x
 _atom_site_fract_y
 _atom_site_fract_z
 _atom_site_occupancy
  Cr  Cr0  1  0.615130  0.615130  0.154610  1
  Cr  Cr1  1  0.615130  0.154610  0.615130  1
  Cr  Cr2  1  0.154610  0.615130  0.615130  1
  Cr  Cr3  1  0.615130  0.615130  0.615130  1
  Cr  Cr4  1  0.384870  0.384870  0.845390  1
  Cr  Cr5  1  0.384870  0.845390  0.384870  1
  Cr  Cr6  1  0.845390  0.384870  0.384870  1
  Cr  Cr7  1  0.384870  0.384870  0.384870  1
  Cr  Cr8  1  0.000000  0.000000  0.339109  1
  Cr  Cr9  1  0.660891  0.000000  0.339109  1
  Cr  Cr10  1  0.000000  0.660891  0.339109  1
  Cr  Cr11  1  0.660891  0.339109  0.000000  1
  Cr  Cr12  1  0.000000  0.339109  0.000000  1
  Cr  Cr13  1  0.000000  0.339109  0.660891  1
  Cr  Cr14  1  0.339109  0.660891  0.000000  1
  Cr  Cr15  1  0.339109  0.000000  0.660891  1
  Cr  Cr16  1  0.339109  0.000000  0.000000  1
  Cr  Cr17  1  0.000000  0.000000  0.660891  1
  Cr  Cr18  1  0.000000  0.660891  0.000000  1
  Cr  Cr19  1  0.660891  0.000000  0.000000  1
  Rh  Rh20  1  0.000000  0.000000  0.000000  1
  Rh  Rh21  1  0.750000  0.750000  0.750000  1
  Rh  Rh22  1  0.250000  0.250000  0.250000  1
  C  C23  1  0.722594  0.722594  0.277406  1
  C  C24  1  0.277406  0.722594  0.277406  1
  C  C25  1  0.722594  0.277406  0.277406  1
  C  C26  1  0.277406  0.277406  0.722594  1
  C  C27  1  0.722594  0.277406  0.722594  1
  C  C28  1  0.277406  0.722594  0.722594  1
