# generated using pymatgen
data_TbTm5(Sc2Sn3)2
_symmetry_space_group_name_H-M   'P 1'
_cell_length_a   6.24359000
_cell_length_b   8.72803376
_cell_length_c   8.73996557
_cell_angle_alpha   119.95484278
_cell_angle_beta   89.99959516
_cell_angle_gamma   90.00080338
_symmetry_Int_Tables_number   1
_chemical_formula_structural   TbTm5(Sc2Sn3)2
_chemical_formula_sum   'Tb1 Tm5 Sc4 Sn6'
_cell_volume   412.65640111
_cell_formula_units_Z   1
loop_
 _symmetry_equiv_pos_site_id
 _symmetry_equiv_pos_as_xyz
  1  'x, y, z'
loop_
 _atom_site_type_symbol
 _atom_site_label
 _atom_site_symmetry_multiplicity
 _atom_site_fract_x
 _atom_site_fract_y
 _atom_site_fract_z
 _atom_site_occupancy
  Tb  Tb0  1  0.750003  0.238395  0.000000  1
  Tm  Tm1  1  0.750002  0.761027  0.761176  1
  Tm  Tm2  1  0.750002  0.999851  0.238824  1
  Tm  Tm3  1  0.250002  0.761739  0.000000  1
  Tm  Tm4  1  0.250003  0.238740  0.239077  1
  Tm  Tm5  1  0.250003  0.999663  0.760923  1
  Sc  Sc6  1  0.499898  0.333401  0.666670  1
  Sc  Sc7  1  0.499898  0.666731  0.333330  1
  Sc  Sc8  1  0.000095  0.666730  0.333327  1
  Sc  Sc9  1  0.000095  0.333404  0.666673  1
  Sn  Sn10  1  0.749982  0.601717  0.000000  1
  Sn  Sn11  1  0.750004  0.399257  0.399972  1
  Sn  Sn12  1  0.750004  0.999284  0.600028  1
  Sn  Sn13  1  0.249996  0.399013  0.000000  1
  Sn  Sn14  1  0.250003  0.601083  0.601119  1
  Sn  Sn15  1  0.250003  0.999965  0.398881  1
