# generated using pymatgen
data_Ac7Yb5(DySn2)8
_symmetry_space_group_name_H-M   'P 1'
_cell_length_a   8.18561679
_cell_length_b   8.54930317
_cell_length_c   16.12177126
_cell_angle_alpha   90.13685936
_cell_angle_beta   89.78686711
_cell_angle_gamma   90.01517428
_symmetry_Int_Tables_number   1
_chemical_formula_structural   Ac7Yb5(DySn2)8
_chemical_formula_sum   'Ac7 Yb5 Dy8 Sn16'
_cell_volume   1128.21176485
_cell_formula_units_Z   1
loop_
 _symmetry_equiv_pos_site_id
 _symmetry_equiv_pos_as_xyz
  1  'x, y, z'
loop_
 _atom_site_type_symbol
 _atom_site_label
 _atom_site_symmetry_multiplicity
 _atom_site_fract_x
 _atom_site_fract_y
 _atom_site_fract_z
 _atom_site_occupancy
  Ac  Ac0  1  0.506709  0.679145  0.596959  1
  Ac  Ac1  1  0.007675  0.823020  0.905315  1
  Ac  Ac2  1  0.493378  0.322674  0.096578  1
  Ac  Ac3  1  0.993459  0.177544  0.405052  1
  Ac  Ac4  1  0.490761  0.322474  0.404761  1
  Ac  Ac5  1  0.993442  0.177589  0.096443  1
  Ac  Ac6  1  0.507618  0.678925  0.902270  1
  Yb  Yb7  1  0.005871  0.815178  0.595744  1
  Yb  Yb8  1  0.834403  0.504197  0.748771  1
  Yb  Yb9  1  0.331721  0.996904  0.748066  1
  Yb  Yb10  1  0.166789  0.499242  0.250183  1
  Yb  Yb11  1  0.667002  0.000990  0.249896  1
  Dy  Dy12  1  0.672370  0.167512  0.624073  1
  Dy  Dy13  1  0.168516  0.329372  0.874889  1
  Dy  Dy14  1  0.331180  0.830312  0.124482  1
  Dy  Dy15  1  0.831265  0.670745  0.376606  1
  Dy  Dy16  1  0.330188  0.831015  0.375910  1
  Dy  Dy17  1  0.830503  0.670644  0.124632  1
  Dy  Dy18  1  0.668977  0.168992  0.874208  1
  Dy  Dy19  1  0.169309  0.331383  0.624758  1
  Sn  Sn20  1  0.665526  0.959463  0.461166  1
  Sn  Sn21  1  0.168369  0.540981  0.038598  1
  Sn  Sn22  1  0.332603  0.042425  0.961242  1
  Sn  Sn23  1  0.833653  0.461416  0.540379  1
  Sn  Sn24  1  0.326405  0.036760  0.540765  1
  Sn  Sn25  1  0.831633  0.458426  0.960738  1
  Sn  Sn26  1  0.669106  0.958369  0.038318  1
  Sn  Sn27  1  0.165385  0.543726  0.461617  1
  Sn  Sn28  1  0.470636  0.374001  0.749514  1
  Sn  Sn29  1  0.970569  0.126502  0.749399  1
  Sn  Sn30  1  0.530323  0.628185  0.250565  1
  Sn  Sn31  1  0.030472  0.871677  0.251146  1
  Sn  Sn32  1  0.712392  0.873273  0.747878  1
  Sn  Sn33  1  0.204584  0.626743  0.748262  1
  Sn  Sn34  1  0.293620  0.126170  0.249879  1
  Sn  Sn35  1  0.793584  0.374025  0.250939  1
