# generated using pymatgen
data_Na5Tl(CO3)4
_symmetry_space_group_name_H-M   'P 1'
_cell_length_a   10.20851700
_cell_length_b   8.87630620
_cell_length_c   12.36584000
_cell_angle_alpha   89.73186196
_cell_angle_beta   90.00000000
_cell_angle_gamma   90.00000000
_symmetry_Int_Tables_number   1
_chemical_formula_structural   Na5Tl(CO3)4
_chemical_formula_sum   'Na20 Tl4 C16 O48'
_cell_volume   1120.50500015
_cell_formula_units_Z   4
loop_
 _symmetry_equiv_pos_site_id
 _symmetry_equiv_pos_as_xyz
  1  'x, y, z'
loop_
 _atom_site_type_symbol
 _atom_site_label
 _atom_site_symmetry_multiplicity
 _atom_site_fract_x
 _atom_site_fract_y
 _atom_site_fract_z
 _atom_site_occupancy
  Na  Na0  1  0.624492  0.450055  0.069116  1
  Na  Na1  1  0.377257  0.199577  0.788277  1
  Na  Na2  1  0.828090  0.978794  0.364658  1
  Na  Na3  1  0.915008  0.574584  0.596961  1
  Na  Na4  1  0.870222  0.585639  0.888575  1
  Na  Na5  1  0.122743  0.699577  0.788277  1
  Na  Na6  1  0.084992  0.425416  0.403039  1
  Na  Na7  1  0.877257  0.300423  0.211723  1
  Na  Na8  1  0.629778  0.085639  0.888575  1
  Na  Na9  1  0.671910  0.478794  0.364658  1
  Na  Na10  1  0.124492  0.049945  0.930884  1
  Na  Na11  1  0.129778  0.414361  0.111425  1
  Na  Na12  1  0.584992  0.074584  0.596961  1
  Na  Na13  1  0.415008  0.925416  0.403039  1
  Na  Na14  1  0.875508  0.950055  0.069116  1
  Na  Na15  1  0.171910  0.021206  0.635342  1
  Na  Na16  1  0.622743  0.800423  0.211723  1
  Na  Na17  1  0.328090  0.521206  0.635342  1
  Na  Na18  1  0.375508  0.549945  0.930884  1
  Na  Na19  1  0.370222  0.914361  0.111425  1
  Tl  Tl20  1  0.393689  0.271988  0.268824  1
  Tl  Tl21  1  0.606311  0.728012  0.731176  1
  Tl  Tl22  1  0.106311  0.771988  0.268824  1
  Tl  Tl23  1  0.893689  0.228012  0.731176  1
  C  C24  1  0.859655  0.256586  0.492291  1
  C  C25  1  0.359655  0.243414  0.507709  1
  C  C26  1  0.633738  0.132589  0.212655  1
  C  C27  1  0.391394  0.246582  0.016351  1
  C  C28  1  0.862193  0.884960  0.723415  1
  C  C29  1  0.137807  0.115040  0.276585  1
  C  C30  1  0.140345  0.743414  0.507709  1
  C  C31  1  0.640345  0.756586  0.492291  1
  C  C32  1  0.637807  0.384960  0.723415  1
  C  C33  1  0.366262  0.867411  0.787345  1
  C  C34  1  0.108606  0.746582  0.016351  1
  C  C35  1  0.362193  0.615040  0.276585  1
  C  C36  1  0.133738  0.367411  0.787345  1
  C  C37  1  0.891394  0.253418  0.983649  1
  C  C38  1  0.866262  0.632589  0.212655  1
  C  C39  1  0.608606  0.753418  0.983649  1
  O  O40  1  0.831852  0.377638  0.999913  1
  O  O41  1  0.851727  0.158618  0.905630  1
  O  O42  1  0.648273  0.658618  0.905630  1
  O  O43  1  0.888335  0.745154  0.732049  1
  O  O44  1  0.758699  0.433932  0.729454  1
  O  O45  1  0.741301  0.933932  0.729454  1
  O  O46  1  0.970701  0.548826  0.216705  1
  O  O47  1  0.290163  0.357459  0.480011  1
  O  O48  1  0.388335  0.754846  0.267951  1
  O  O49  1  0.987818  0.207728  0.043084  1
  O  O50  1  0.512182  0.707728  0.043084  1
  O  O51  1  0.470701  0.951174  0.783295  1
  O  O52  1  0.955502  0.983541  0.708206  1
  O  O53  1  0.145872  0.677709  0.600228  1
  O  O54  1  0.354128  0.177709  0.600228  1
  O  O55  1  0.790163  0.142541  0.519989  1
  O  O56  1  0.709837  0.642541  0.519989  1
  O  O57  1  0.111665  0.254846  0.267951  1
  O  O58  1  0.381219  0.720761  0.777098  1
  O  O59  1  0.012182  0.792272  0.956916  1
  O  O60  1  0.946813  0.312955  0.562771  1
  O  O61  1  0.529299  0.048826  0.216705  1
  O  O62  1  0.544498  0.483541  0.708206  1
  O  O63  1  0.209837  0.857459  0.480011  1
  O  O64  1  0.748710  0.077171  0.201084  1
  O  O65  1  0.248710  0.422829  0.798916  1
  O  O66  1  0.053187  0.687045  0.437229  1
  O  O67  1  0.668148  0.877638  0.999913  1
  O  O68  1  0.487818  0.292272  0.956916  1
  O  O69  1  0.148273  0.841382  0.094370  1
  O  O70  1  0.854128  0.322291  0.399772  1
  O  O71  1  0.881219  0.779239  0.222902  1
  O  O72  1  0.751290  0.577171  0.201084  1
  O  O73  1  0.044498  0.016459  0.291794  1
  O  O74  1  0.611665  0.245154  0.732049  1
  O  O75  1  0.168148  0.622362  0.000087  1
  O  O76  1  0.029299  0.451174  0.783295  1
  O  O77  1  0.645872  0.822291  0.399772  1
  O  O78  1  0.351727  0.341382  0.094370  1
  O  O79  1  0.618781  0.279239  0.222902  1
  O  O80  1  0.251290  0.922829  0.798916  1
  O  O81  1  0.446813  0.187045  0.437229  1
  O  O82  1  0.455502  0.516459  0.291794  1
  O  O83  1  0.241301  0.566068  0.270546  1
  O  O84  1  0.553187  0.812955  0.562771  1
  O  O85  1  0.331852  0.122362  0.000087  1
  O  O86  1  0.258699  0.066068  0.270546  1
  O  O87  1  0.118781  0.220761  0.777098  1
