# generated using pymatgen
data_Dy4Er5Lu11Bi12
_symmetry_space_group_name_H-M   'P 1'
_cell_length_a   8.17312854
_cell_length_b   9.40999002
_cell_length_c   11.91245775
_cell_angle_alpha   90.00226028
_cell_angle_beta   89.95923921
_cell_angle_gamma   89.99294697
_symmetry_Int_Tables_number   1
_chemical_formula_structural   Dy4Er5Lu11Bi12
_chemical_formula_sum   'Dy4 Er5 Lu11 Bi12'
_cell_volume   916.17566403
_cell_formula_units_Z   1
loop_
 _symmetry_equiv_pos_site_id
 _symmetry_equiv_pos_as_xyz
  1  'x, y, z'
loop_
 _atom_site_type_symbol
 _atom_site_label
 _atom_site_symmetry_multiplicity
 _atom_site_fract_x
 _atom_site_fract_y
 _atom_site_fract_z
 _atom_site_occupancy
  Dy  Dy0  1  0.312986  0.250005  0.217804  1
  Dy  Dy1  1  0.812866  0.250027  0.282149  1
  Dy  Dy2  1  0.687195  0.750213  0.782001  1
  Dy  Dy3  1  0.187176  0.750049  0.717746  1
  Er  Er4  1  0.352150  0.750238  0.217724  1
  Er  Er5  1  0.852679  0.750433  0.282607  1
  Er  Er6  1  0.647634  0.250280  0.782367  1
  Er  Er7  1  0.147625  0.250058  0.717621  1
  Er  Er8  1  0.691916  0.565699  0.059299  1
  Lu  Lu9  1  0.192270  0.933029  0.440714  1
  Lu  Lu10  1  0.307584  0.066892  0.940565  1
  Lu  Lu11  1  0.807842  0.432976  0.559326  1
  Lu  Lu12  1  0.307945  0.432993  0.940696  1
  Lu  Lu13  1  0.807716  0.066946  0.559277  1
  Lu  Lu14  1  0.692241  0.933091  0.059408  1
  Lu  Lu15  1  0.192231  0.566969  0.440738  1
  Lu  Lu16  1  0.477117  0.250125  0.489200  1
  Lu  Lu17  1  0.977315  0.249996  0.010846  1
  Lu  Lu18  1  0.522922  0.749999  0.510909  1
  Lu  Lu19  1  0.023354  0.750242  0.989038  1
  Bi  Bi20  1  0.403068  0.750419  0.958023  1
  Bi  Bi21  1  0.903186  0.749957  0.541914  1
  Bi  Bi22  1  0.596323  0.248253  0.041547  1
  Bi  Bi23  1  0.096835  0.250014  0.458166  1
  Bi  Bi24  1  0.565163  0.995279  0.326864  1
  Bi  Bi25  1  0.065428  0.504928  0.173425  1
  Bi  Bi26  1  0.434590  0.495244  0.673182  1
  Bi  Bi27  1  0.934889  0.004950  0.826651  1
  Bi  Bi28  1  0.434745  0.004963  0.673285  1
  Bi  Bi29  1  0.934639  0.495374  0.826624  1
  Bi  Bi30  1  0.565110  0.504975  0.326870  1
  Bi  Bi31  1  0.065263  0.995385  0.173413  1
