# generated using pymatgen
data_CuNi3Bi4(TeO6)4
_symmetry_space_group_name_H-M   'P 1'
_cell_length_a   5.24091216
_cell_length_b   9.08220203
_cell_length_c   9.82112854
_cell_angle_alpha   90.00746690
_cell_angle_beta   89.99389396
_cell_angle_gamma   89.99920326
_symmetry_Int_Tables_number   1
_chemical_formula_structural   CuNi3Bi4(TeO6)4
_chemical_formula_sum   'Cu1 Ni3 Bi4 Te4 O24'
_cell_volume   467.47611739
_cell_formula_units_Z   1
loop_
 _symmetry_equiv_pos_site_id
 _symmetry_equiv_pos_as_xyz
  1  'x, y, z'
loop_
 _atom_site_type_symbol
 _atom_site_label
 _atom_site_symmetry_multiplicity
 _atom_site_fract_x
 _atom_site_fract_y
 _atom_site_fract_z
 _atom_site_occupancy
  Cu  Cu0  1  0.499543  0.834217  0.750254  1
  Ni  Ni1  1  0.500218  0.166640  0.250040  1
  Ni  Ni2  1  0.000205  0.332644  0.749955  1
  Ni  Ni3  1  0.999755  0.666638  0.250010  1
  Bi  Bi4  1  0.003779  0.002212  0.495937  1
  Bi  Bi5  1  0.496894  0.497904  0.496437  1
  Bi  Bi6  1  0.996203  0.002275  0.004075  1
  Bi  Bi7  1  0.503168  0.497830  0.003517  1
  Te  Te8  1  0.500073  0.166137  0.749969  1
  Te  Te9  1  0.999852  0.666936  0.749990  1
  Te  Te10  1  0.000111  0.334236  0.249996  1
  Te  Te11  1  0.499942  0.832676  0.249981  1
  O  O12  1  0.635666  0.001024  0.640927  1
  O  O13  1  0.132477  0.508036  0.637631  1
  O  O14  1  0.673452  0.312351  0.638037  1
  O  O15  1  0.179343  0.817585  0.641069  1
  O  O16  1  0.191852  0.177707  0.638338  1
  O  O17  1  0.687104  0.683700  0.640471  1
  O  O18  1  0.171510  0.184739  0.139186  1
  O  O19  1  0.673041  0.683757  0.138849  1
  O  O20  1  0.138206  0.493982  0.139155  1
  O  O21  1  0.636394  0.993521  0.138533  1
  O  O22  1  0.690798  0.321756  0.138341  1
  O  O23  1  0.190352  0.821427  0.139241  1
  O  O24  1  0.861795  0.494080  0.360742  1
  O  O25  1  0.363577  0.993558  0.361506  1
  O  O26  1  0.828754  0.184806  0.360812  1
  O  O27  1  0.326775  0.683780  0.360970  1
  O  O28  1  0.309376  0.321787  0.361666  1
  O  O29  1  0.809589  0.821350  0.360659  1
  O  O30  1  0.326669  0.312392  0.861963  1
  O  O31  1  0.820547  0.817639  0.859019  1
  O  O32  1  0.364290  0.001255  0.859207  1
  O  O33  1  0.867661  0.508001  0.862314  1
  O  O34  1  0.808331  0.177783  0.861603  1
  O  O35  1  0.312698  0.683640  0.859601  1
