# generated using pymatgen
data_Tb2Hf3Ni9P7
_symmetry_space_group_name_H-M   'P 1'
_cell_length_a   9.44749600
_cell_length_b   9.44749603
_cell_length_c   3.73585700
_cell_angle_alpha   90.00000000
_cell_angle_beta   90.00000000
_cell_angle_gamma   120.00000688
_symmetry_Int_Tables_number   1
_chemical_formula_structural   Tb2Hf3Ni9P7
_chemical_formula_sum   'Tb2 Hf3 Ni9 P7'
_cell_volume   288.77146799
_cell_formula_units_Z   1
loop_
 _symmetry_equiv_pos_site_id
 _symmetry_equiv_pos_as_xyz
  1  'x, y, z'
loop_
 _atom_site_type_symbol
 _atom_site_label
 _atom_site_symmetry_multiplicity
 _atom_site_fract_x
 _atom_site_fract_y
 _atom_site_fract_z
 _atom_site_occupancy
  Tb  Tb0  1  0.333333  0.666667  0.000000  1
  Tb  Tb1  1  0.666667  0.333333  0.500000  1
  Hf  Hf2  1  0.229302  0.120327  0.500000  1
  Hf  Hf3  1  0.879673  0.108974  0.500000  1
  Hf  Hf4  1  0.891026  0.770698  0.500000  1
  Ni  Ni5  1  0.128718  0.286601  0.000000  1
  Ni  Ni6  1  0.713399  0.842117  0.000000  1
  Ni  Ni7  1  0.157883  0.871282  0.000000  1
  Ni  Ni8  1  0.430073  0.365952  0.000000  1
  Ni  Ni9  1  0.634048  0.064122  0.000000  1
  Ni  Ni10  1  0.935878  0.569927  0.000000  1
  Ni  Ni11  1  0.055694  0.444738  0.500000  1
  Ni  Ni12  1  0.555262  0.610956  0.500000  1
  Ni  Ni13  1  0.389044  0.944306  0.500000  1
  P  P14  1  0.288685  0.414383  0.500000  1
  P  P15  1  0.585617  0.874301  0.500000  1
  P  P16  1  0.125699  0.711315  0.500000  1
  P  P17  1  0.420831  0.107610  0.000000  1
  P  P18  1  0.892390  0.313221  0.000000  1
  P  P19  1  0.686779  0.579169  0.000000  1
  P  P20  1  0.000000  0.000000  0.000000  1
