# generated using pymatgen
data_RbCeMnS3
_symmetry_space_group_name_H-M   'P 1'
_cell_length_a   4.15352100
_cell_length_b   7.66638828
_cell_length_c   10.88585100
_cell_angle_alpha   90.00000000
_cell_angle_beta   90.00000000
_cell_angle_gamma   74.28267234
_symmetry_Int_Tables_number   1
_chemical_formula_structural   RbCeMnS3
_chemical_formula_sum   'Rb2 Ce2 Mn2 S6'
_cell_volume   333.67211661
_cell_formula_units_Z   2
loop_
 _symmetry_equiv_pos_site_id
 _symmetry_equiv_pos_as_xyz
  1  'x, y, z'
loop_
 _atom_site_type_symbol
 _atom_site_label
 _atom_site_symmetry_multiplicity
 _atom_site_fract_x
 _atom_site_fract_y
 _atom_site_fract_z
 _atom_site_occupancy
  Rb  Rb0  1  0.260614  0.478770  0.250000  1
  Rb  Rb1  1  0.739384  0.521230  0.750000  1
  Ce  Ce2  1  0.000000  0.000000  0.000000  1
  Ce  Ce3  1  0.000000  0.000000  0.500000  1
  Mn  Mn4  1  0.536260  0.927478  0.250000  1
  Mn  Mn5  1  0.463739  0.072522  0.750000  1
  S  S6  1  0.619415  0.761168  0.066928  1
  S  S7  1  0.947896  0.104206  0.250000  1
  S  S8  1  0.619415  0.761168  0.433072  1
  S  S9  1  0.380583  0.238832  0.566928  1
  S  S10  1  0.052103  0.895794  0.750000  1
  S  S11  1  0.380583  0.238832  0.933072  1
