# generated using pymatgen
data_Li5(Ga2Pt)8
_symmetry_space_group_name_H-M   'P 1'
_cell_length_a   8.61338360
_cell_length_b   8.65541092
_cell_length_c   8.65541200
_cell_angle_alpha   59.67900480
_cell_angle_beta   60.16050181
_cell_angle_gamma   60.16050073
_symmetry_Int_Tables_number   1
_chemical_formula_structural   Li5(Ga2Pt)8
_chemical_formula_sum   'Li5 Ga16 Pt8'
_cell_volume   456.26154852
_cell_formula_units_Z   1
loop_
 _symmetry_equiv_pos_site_id
 _symmetry_equiv_pos_as_xyz
  1  'x, y, z'
loop_
 _atom_site_type_symbol
 _atom_site_label
 _atom_site_symmetry_multiplicity
 _atom_site_fract_x
 _atom_site_fract_y
 _atom_site_fract_z
 _atom_site_occupancy
  Li  Li0  1  0.760325  0.239675  0.239675  1
  Li  Li1  1  0.759480  0.240520  0.741987  1
  Li  Li2  1  0.759480  0.741987  0.240520  1
  Li  Li3  1  0.258013  0.741987  0.240520  1
  Li  Li4  1  0.258013  0.240520  0.741987  1
  Ga  Ga5  1  0.893583  0.859930  0.859930  1
  Ga  Ga6  1  0.879908  0.858855  0.381330  1
  Ga  Ga7  1  0.386559  0.859930  0.859930  1
  Ga  Ga8  1  0.879908  0.381330  0.858855  1
  Ga  Ga9  1  0.141145  0.120092  0.120092  1
  Ga  Ga10  1  0.140070  0.106417  0.613441  1
  Ga  Ga11  1  0.140070  0.613441  0.106417  1
  Ga  Ga12  1  0.618670  0.120092  0.120092  1
  Ga  Ga13  1  0.624851  0.622356  0.622356  1
  Ga  Ga14  1  0.636670  0.622129  0.104533  1
  Ga  Ga15  1  0.130438  0.622356  0.622356  1
  Ga  Ga16  1  0.636670  0.104533  0.622129  1
  Ga  Ga17  1  0.377871  0.363330  0.363330  1
  Ga  Ga18  1  0.377644  0.375149  0.869562  1
  Ga  Ga19  1  0.377644  0.869562  0.375149  1
  Ga  Ga20  1  0.895467  0.363330  0.363330  1
  Pt  Pt21  1  0.003095  0.996905  0.996905  1
  Pt  Pt22  1  0.009157  0.490843  0.490843  1
  Pt  Pt23  1  0.509157  0.990843  0.990843  1
  Pt  Pt24  1  0.509992  0.993213  0.490008  1
  Pt  Pt25  1  0.509992  0.490008  0.993213  1
  Pt  Pt26  1  0.006787  0.490008  0.993213  1
  Pt  Pt27  1  0.006787  0.993213  0.490008  1
  Pt  Pt28  1  0.512557  0.487443  0.487443  1
