# generated using pymatgen
data_Li4SmUS6
_symmetry_space_group_name_H-M   'P 1'
_cell_length_a   6.74567568
_cell_length_b   6.74567633
_cell_length_c   6.53491872
_cell_angle_alpha   100.05122363
_cell_angle_beta   100.05123185
_cell_angle_gamma   120.00916086
_symmetry_Int_Tables_number   1
_chemical_formula_structural   Li4SmUS6
_chemical_formula_sum   'Li4 Sm1 U1 S6'
_cell_volume   241.30144668
_cell_formula_units_Z   1
loop_
 _symmetry_equiv_pos_site_id
 _symmetry_equiv_pos_as_xyz
  1  'x, y, z'
loop_
 _atom_site_type_symbol
 _atom_site_label
 _atom_site_symmetry_multiplicity
 _atom_site_fract_x
 _atom_site_fract_y
 _atom_site_fract_z
 _atom_site_occupancy
  Li  Li0  1  0.499056  0.500945  0.000000  1
  Li  Li1  1  0.010038  0.989961  0.499998  1
  Li  Li2  1  0.666350  0.333650  0.500001  1
  Li  Li3  1  0.322643  0.677357  0.500001  1
  Sm  Sm4  1  0.834812  0.165188  0.000000  1
  U  U5  1  0.166593  0.833407  0.000000  1
  S  S6  1  0.929337  0.598028  0.244467  1
  S  S7  1  0.566864  0.915269  0.249880  1
  S  S8  1  0.252006  0.234404  0.251927  1
  S  S9  1  0.765598  0.747997  0.748076  1
  S  S10  1  0.084733  0.433139  0.750123  1
  S  S11  1  0.401975  0.070666  0.755534  1
