# generated using pymatgen
data_Pr6GdRhO12
_symmetry_space_group_name_H-M   'P 1'
_cell_length_a   6.89990502
_cell_length_b   6.89990601
_cell_length_c   6.89990500
_cell_angle_alpha   97.05918621
_cell_angle_beta   97.05917885
_cell_angle_gamma   97.05919019
_symmetry_Int_Tables_number   1
_chemical_formula_structural   Pr6GdRhO12
_chemical_formula_sum   'Pr6 Gd1 Rh1 O12'
_cell_volume   320.34265760
_cell_formula_units_Z   1
loop_
 _symmetry_equiv_pos_site_id
 _symmetry_equiv_pos_as_xyz
  1  'x, y, z'
loop_
 _atom_site_type_symbol
 _atom_site_label
 _atom_site_symmetry_multiplicity
 _atom_site_fract_x
 _atom_site_fract_y
 _atom_site_fract_z
 _atom_site_occupancy
  Pr  Pr0  1  0.723747  0.898700  0.412921  1
  Pr  Pr1  1  0.412921  0.723747  0.898700  1
  Pr  Pr2  1  0.101300  0.587079  0.276253  1
  Pr  Pr3  1  0.898700  0.412921  0.723747  1
  Pr  Pr4  1  0.587079  0.276253  0.101300  1
  Pr  Pr5  1  0.276253  0.101300  0.587079  1
  Gd  Gd6  1  0.000000  0.000000  0.000000  1
  Rh  Rh7  1  0.500000  0.500000  0.500000  1
  O  O8  1  0.061746  0.922999  0.317423  1
  O  O9  1  0.682577  0.938254  0.077001  1
  O  O10  1  0.439882  0.793014  0.571906  1
  O  O11  1  0.077001  0.682577  0.938254  1
  O  O12  1  0.793014  0.571906  0.439882  1
  O  O13  1  0.428094  0.560118  0.206986  1
  O  O14  1  0.571906  0.439882  0.793014  1
  O  O15  1  0.206986  0.428094  0.560118  1
  O  O16  1  0.922999  0.317423  0.061746  1
  O  O17  1  0.560118  0.206986  0.428094  1
  O  O18  1  0.317423  0.061746  0.922999  1
  O  O19  1  0.938254  0.077001  0.682577  1
