# generated using pymatgen
data_Nd3Al12IrOs2Pt
_symmetry_space_group_name_H-M   'P 1'
_cell_length_a   8.91506371
_cell_length_b   8.91929703
_cell_length_c   9.64905493
_cell_angle_alpha   90.28716724
_cell_angle_beta   89.70972035
_cell_angle_gamma   119.65483746
_symmetry_Int_Tables_number   1
_chemical_formula_structural   Nd3Al12IrOs2Pt
_chemical_formula_sum   'Nd6 Al24 Ir2 Os4 Pt2'
_cell_volume   666.75017846
_cell_formula_units_Z   2
loop_
 _symmetry_equiv_pos_site_id
 _symmetry_equiv_pos_as_xyz
  1  'x, y, z'
loop_
 _atom_site_type_symbol
 _atom_site_label
 _atom_site_symmetry_multiplicity
 _atom_site_fract_x
 _atom_site_fract_y
 _atom_site_fract_z
 _atom_site_occupancy
  Nd  Nd0  1  0.188304  0.381238  0.252134  1
  Nd  Nd1  1  0.811696  0.618762  0.747866  1
  Nd  Nd2  1  0.618127  0.812248  0.253169  1
  Nd  Nd3  1  0.381873  0.187752  0.746831  1
  Nd  Nd4  1  0.191388  0.809838  0.250814  1
  Nd  Nd5  1  0.808612  0.190162  0.749186  1
  Al  Al6  1  0.336824  0.668395  0.022281  1
  Al  Al7  1  0.663176  0.331605  0.977719  1
  Al  Al8  1  0.669399  0.330659  0.518950  1
  Al  Al9  1  0.330601  0.669341  0.481050  1
  Al  Al10  1  0.158934  0.325571  0.575267  1
  Al  Al11  1  0.841066  0.674429  0.424733  1
  Al  Al12  1  0.674005  0.840789  0.575690  1
  Al  Al13  1  0.833921  0.675387  0.074830  1
  Al  Al14  1  0.325995  0.159211  0.424310  1
  Al  Al15  1  0.166079  0.324613  0.925170  1
  Al  Al16  1  0.164398  0.835966  0.573797  1
  Al  Al17  1  0.325872  0.163231  0.073951  1
  Al  Al18  1  0.835602  0.164034  0.426203  1
  Al  Al19  1  0.674128  0.836769  0.926049  1
  Al  Al20  1  0.833725  0.159851  0.074655  1
  Al  Al21  1  0.166275  0.840149  0.925345  1
  Al  Al22  1  0.562182  0.126217  0.250655  1
  Al  Al23  1  0.437818  0.873783  0.749345  1
  Al  Al24  1  0.872276  0.436967  0.253185  1
  Al  Al25  1  0.127724  0.563033  0.746815  1
  Al  Al26  1  0.563312  0.436531  0.246138  1
  Al  Al27  1  0.436688  0.563469  0.753862  1
  Al  Al28  1  0.999775  0.001267  0.250137  1
  Al  Al29  1  0.000225  0.998733  0.749863  1
  Ir  Ir30  1  0.500000  0.000000  0.000000  1
  Ir  Ir31  1  0.500000  0.500000  0.000000  1
  Os  Os32  1  0.500000  0.000000  0.500000  1
  Os  Os33  1  0.000000  0.500000  0.500000  1
  Os  Os34  1  0.000000  0.000000  0.000000  1
  Os  Os35  1  0.000000  0.000000  0.500000  1
  Pt  Pt36  1  0.000000  0.500000  0.000000  1
  Pt  Pt37  1  0.500000  0.500000  0.500000  1
