# generated using pymatgen
data_TbDy2Er2Pb3
_symmetry_space_group_name_H-M   'P 1'
_cell_length_a   9.05586716
_cell_length_b   9.05884397
_cell_length_c   6.59084700
_cell_angle_alpha   90.00000000
_cell_angle_beta   90.00000000
_cell_angle_gamma   120.01086976
_symmetry_Int_Tables_number   1
_chemical_formula_structural   TbDy2Er2Pb3
_chemical_formula_sum   'Tb2 Dy4 Er4 Pb6'
_cell_volume   468.19536019
_cell_formula_units_Z   2
loop_
 _symmetry_equiv_pos_site_id
 _symmetry_equiv_pos_as_xyz
  1  'x, y, z'
loop_
 _atom_site_type_symbol
 _atom_site_label
 _atom_site_symmetry_multiplicity
 _atom_site_fract_x
 _atom_site_fract_y
 _atom_site_fract_z
 _atom_site_occupancy
  Tb  Tb0  1  0.760943  0.760998  0.750000  1
  Tb  Tb1  1  0.239057  0.000055  0.750000  1
  Dy  Dy2  1  0.000000  0.239109  0.750000  1
  Dy  Dy3  1  0.238947  0.239002  0.250000  1
  Dy  Dy4  1  0.761053  0.000055  0.250000  1
  Dy  Dy5  1  0.000000  0.760927  0.250000  1
  Er  Er6  1  0.666689  0.333318  0.000035  1
  Er  Er7  1  0.333311  0.666630  0.000035  1
  Er  Er8  1  0.333311  0.666630  0.499965  1
  Er  Er9  1  0.666689  0.333318  0.499965  1
  Pb  Pb10  1  0.394201  0.394347  0.750000  1
  Pb  Pb11  1  0.605799  0.000145  0.750000  1
  Pb  Pb12  1  0.000000  0.605432  0.750000  1
  Pb  Pb13  1  0.605779  0.605786  0.250000  1
  Pb  Pb14  1  0.394221  0.000007  0.250000  1
  Pb  Pb15  1  0.000000  0.394238  0.250000  1
