# generated using pymatgen
data_Er3Tm5Tc(B8Rh)3
_symmetry_space_group_name_H-M   'P 1'
_cell_length_a   3.63518800
_cell_length_b   9.09997092
_cell_length_c   11.44667813
_cell_angle_alpha   90.15686868
_cell_angle_beta   90.00000000
_cell_angle_gamma   90.00000000
_symmetry_Int_Tables_number   1
_chemical_formula_structural   Er3Tm5Tc(B8Rh)3
_chemical_formula_sum   'Er3 Tm5 Tc1 B24 Rh3'
_cell_volume   378.65589610
_cell_formula_units_Z   1
loop_
 _symmetry_equiv_pos_site_id
 _symmetry_equiv_pos_as_xyz
  1  'x, y, z'
loop_
 _atom_site_type_symbol
 _atom_site_label
 _atom_site_symmetry_multiplicity
 _atom_site_fract_x
 _atom_site_fract_y
 _atom_site_fract_z
 _atom_site_occupancy
  Er  Er0  1  0.500000  0.318042  0.410295  1
  Er  Er1  1  0.500000  0.677956  0.585841  1
  Er  Er2  1  0.500000  0.178569  0.917471  1
  Tm  Tm3  1  0.500000  0.824836  0.087078  1
  Tm  Tm4  1  0.500000  0.442946  0.126024  1
  Tm  Tm5  1  0.500000  0.556442  0.872791  1
  Tm  Tm6  1  0.500000  0.056118  0.627808  1
  Tm  Tm7  1  0.500000  0.945998  0.372758  1
  Tc  Tc8  1  0.500000  0.138439  0.179366  1
  B  B9  1  0.000000  0.106891  0.471802  1
  B  B10  1  0.000000  0.892204  0.529911  1
  B  B11  1  0.000000  0.393464  0.969791  1
  B  B12  1  0.000000  0.609044  0.029105  1
  B  B13  1  0.000000  0.131786  0.315118  1
  B  B14  1  0.000000  0.867035  0.683776  1
  B  B15  1  0.000000  0.368366  0.816402  1
  B  B16  1  0.000000  0.632781  0.183279  1
  B  B17  1  0.000000  0.053555  0.066565  1
  B  B18  1  0.000000  0.946305  0.934024  1
  B  B19  1  0.000000  0.445109  0.565185  1
  B  B20  1  0.000000  0.553258  0.433912  1
  B  B21  1  0.000000  0.482862  0.286602  1
  B  B22  1  0.000000  0.517621  0.712689  1
  B  B23  1  0.000000  0.017883  0.787473  1
  B  B24  1  0.000000  0.982775  0.213288  1
  B  B25  1  0.000000  0.249144  0.080193  1
  B  B26  1  0.000000  0.750851  0.920769  1
  B  B27  1  0.000000  0.249855  0.579004  1
  B  B28  1  0.000000  0.749439  0.420850  1
  B  B29  1  0.000000  0.293140  0.234513  1
  B  B30  1  0.000000  0.705901  0.763843  1
  B  B31  1  0.000000  0.206945  0.736087  1
  B  B32  1  0.000000  0.793066  0.265290  1
  Rh  Rh33  1  0.500000  0.861471  0.821408  1
  Rh  Rh34  1  0.500000  0.361051  0.678795  1
  Rh  Rh35  1  0.500000  0.638855  0.320895  1
