# generated using pymatgen
data_Sc2Ni5BRh
_symmetry_space_group_name_H-M   'P 1'
_cell_length_a   5.37347351
_cell_length_b   5.42400476
_cell_length_c   5.42400623
_cell_angle_alpha   59.38458524
_cell_angle_beta   60.30771634
_cell_angle_gamma   60.30771097
_symmetry_Int_Tables_number   1
_chemical_formula_structural   Sc2Ni5BRh
_chemical_formula_sum   'Sc2 Ni5 B1 Rh1'
_cell_volume   111.76496719
_cell_formula_units_Z   1
loop_
 _symmetry_equiv_pos_site_id
 _symmetry_equiv_pos_as_xyz
  1  'x, y, z'
loop_
 _atom_site_type_symbol
 _atom_site_label
 _atom_site_symmetry_multiplicity
 _atom_site_fract_x
 _atom_site_fract_y
 _atom_site_fract_z
 _atom_site_occupancy
  Sc  Sc0  1  0.251821  0.248179  0.248179  1
  Sc  Sc1  1  0.751821  0.748179  0.748179  1
  Ni  Ni2  1  0.736259  0.263742  0.263742  1
  Ni  Ni3  1  0.262516  0.737485  0.256994  1
  Ni  Ni4  1  0.743005  0.737483  0.256996  1
  Ni  Ni5  1  0.262516  0.256994  0.737485  1
  Ni  Ni6  1  0.743005  0.256996  0.737483  1
  B  B7  1  0.990114  0.009886  0.009886  1
  Rh  Rh8  1  0.258943  0.741058  0.741058  1
