# generated using pymatgen
data_Co3Sn16Rh
_symmetry_space_group_name_H-M   'P 1'
_cell_length_a   12.61047872
_cell_length_b   12.61047831
_cell_length_c   12.61123534
_cell_angle_alpha   151.33446029
_cell_angle_beta   151.33445891
_cell_angle_gamma   40.97682135
_symmetry_Int_Tables_number   1
_chemical_formula_structural   Co3Sn16Rh
_chemical_formula_sum   'Co3 Sn16 Rh1'
_cell_volume   460.50913969
_cell_formula_units_Z   1
loop_
 _symmetry_equiv_pos_site_id
 _symmetry_equiv_pos_as_xyz
  1  'x, y, z'
loop_
 _atom_site_type_symbol
 _atom_site_label
 _atom_site_symmetry_multiplicity
 _atom_site_fract_x
 _atom_site_fract_y
 _atom_site_fract_z
 _atom_site_occupancy
  Co  Co0  1  0.750000  0.750000  0.000000  1
  Co  Co1  1  0.250000  0.250000  0.000000  1
  Co  Co2  1  0.000000  0.500000  0.500000  1
  Sn  Sn3  1  0.127808  0.627762  0.131052  1
  Sn  Sn4  1  0.627724  0.496161  0.499873  1
  Sn  Sn5  1  0.886706  0.877408  0.637660  1
  Sn  Sn6  1  0.377760  0.740314  0.991349  1
  Sn  Sn7  1  0.622592  0.613294  0.362340  1
  Sn  Sn8  1  0.113589  0.751033  0.991349  1
  Sn  Sn9  1  0.872238  0.372192  0.868948  1
  Sn  Sn10  1  0.372150  0.503713  0.499873  1
  Sn  Sn11  1  0.996287  0.127850  0.500127  1
  Sn  Sn12  1  0.496709  0.996757  0.868948  1
  Sn  Sn13  1  0.748967  0.386411  0.008651  1
  Sn  Sn14  1  0.239749  0.249046  0.362340  1
  Sn  Sn15  1  0.759686  0.122240  0.008651  1
  Sn  Sn16  1  0.250954  0.260251  0.637660  1
  Sn  Sn17  1  0.003839  0.872276  0.500127  1
  Sn  Sn18  1  0.503243  0.003291  0.131052  1
  Rh  Rh19  1  0.500000  0.000000  0.500000  1
