# generated using pymatgen
data_Sc8Cr9Re3Si16
_symmetry_space_group_name_H-M   'P 1'
_cell_length_a   6.54197365
_cell_length_b   6.54197365
_cell_length_c   12.09336937
_cell_angle_alpha   89.98024947
_cell_angle_beta   90.01975053
_cell_angle_gamma   90.27290676
_symmetry_Int_Tables_number   1
_chemical_formula_structural   Sc8Cr9Re3Si16
_chemical_formula_sum   'Sc8 Cr9 Re3 Si16'
_cell_volume   517.55906602
_cell_formula_units_Z   1
loop_
 _symmetry_equiv_pos_site_id
 _symmetry_equiv_pos_as_xyz
  1  'x, y, z'
loop_
 _atom_site_type_symbol
 _atom_site_label
 _atom_site_symmetry_multiplicity
 _atom_site_fract_x
 _atom_site_fract_y
 _atom_site_fract_z
 _atom_site_occupancy
  Sc  Sc0  1  0.004738  0.664012  0.029299  1
  Sc  Sc1  1  0.995406  0.335350  0.529614  1
  Sc  Sc2  1  0.335350  0.995406  0.470386  1
  Sc  Sc3  1  0.162723  0.494492  0.778688  1
  Sc  Sc4  1  0.837164  0.503994  0.278848  1
  Sc  Sc5  1  0.494492  0.162723  0.221312  1
  Sc  Sc6  1  0.503994  0.837164  0.721152  1
  Sc  Sc7  1  0.664012  0.004738  0.970701  1
  Cr  Cr8  1  0.665169  0.665169  0.500000  1
  Cr  Cr9  1  0.004926  0.827781  0.625707  1
  Cr  Cr10  1  0.989715  0.172100  0.128684  1
  Cr  Cr11  1  0.827781  0.004926  0.374293  1
  Cr  Cr12  1  0.334896  0.493444  0.379000  1
  Cr  Cr13  1  0.671950  0.508644  0.877936  1
  Cr  Cr14  1  0.493444  0.334896  0.621000  1
  Cr  Cr15  1  0.508644  0.671950  0.122064  1
  Cr  Cr16  1  0.172100  0.989715  0.871316  1
  Re  Re17  1  0.165867  0.835261  0.249260  1
  Re  Re18  1  0.334011  0.334011  0.000000  1
  Re  Re19  1  0.835261  0.165867  0.750740  1
  Si  Si20  1  0.030346  0.711145  0.435879  1
  Si  Si21  1  0.622073  0.299355  0.432640  1
  Si  Si22  1  0.380552  0.701480  0.931370  1
  Si  Si23  1  0.201779  0.120266  0.680801  1
  Si  Si24  1  0.299355  0.622073  0.567360  1
  Si  Si25  1  0.701480  0.380552  0.068630  1
  Si  Si26  1  0.797468  0.880072  0.181990  1
  Si  Si27  1  0.120266  0.201779  0.319199  1
  Si  Si28  1  0.967573  0.285789  0.936212  1
  Si  Si29  1  0.711145  0.030346  0.564121  1
  Si  Si30  1  0.214435  0.467534  0.186356  1
  Si  Si31  1  0.784861  0.533628  0.684815  1
  Si  Si32  1  0.467534  0.214435  0.813644  1
  Si  Si33  1  0.533628  0.784861  0.315185  1
  Si  Si34  1  0.285789  0.967573  0.063788  1
  Si  Si35  1  0.880072  0.797468  0.818010  1
