# generated using pymatgen
data_Be8V2ReOs
_symmetry_space_group_name_H-M   'P 1'
_cell_length_a   4.32403000
_cell_length_b   4.32403152
_cell_length_c   7.10462200
_cell_angle_alpha   90.00000000
_cell_angle_beta   90.00000000
_cell_angle_gamma   120.00000370
_symmetry_Int_Tables_number   1
_chemical_formula_structural   Be8V2ReOs
_chemical_formula_sum   'Be8 V2 Re1 Os1'
_cell_volume   115.04007096
_cell_formula_units_Z   1
loop_
 _symmetry_equiv_pos_site_id
 _symmetry_equiv_pos_as_xyz
  1  'x, y, z'
loop_
 _atom_site_type_symbol
 _atom_site_label
 _atom_site_symmetry_multiplicity
 _atom_site_fract_x
 _atom_site_fract_y
 _atom_site_fract_z
 _atom_site_occupancy
  Be  Be0  1  0.000000  0.000000  0.000370  1
  Be  Be1  1  0.000000  0.000000  0.498760  1
  Be  Be2  1  0.830263  0.660525  0.249444  1
  Be  Be3  1  0.169384  0.830616  0.750235  1
  Be  Be4  1  0.661232  0.830616  0.750235  1
  Be  Be5  1  0.339475  0.169737  0.249444  1
  Be  Be6  1  0.830263  0.169737  0.249444  1
  Be  Be7  1  0.169384  0.338768  0.750235  1
  V  V8  1  0.666667  0.333333  0.937948  1
  V  V9  1  0.333333  0.666667  0.438077  1
  Re  Re10  1  0.666667  0.333333  0.562598  1
  Os  Os11  1  0.333333  0.666667  0.063210  1
