# generated using pymatgen
data_Th6Pd6RuRh
_symmetry_space_group_name_H-M   'P 1'
_cell_length_a   8.08888751
_cell_length_b   8.08888675
_cell_length_c   8.08888680
_cell_angle_alpha   114.19270086
_cell_angle_beta   114.19268434
_cell_angle_gamma   114.19269844
_symmetry_Int_Tables_number   1
_chemical_formula_structural   Th6Pd6RuRh
_chemical_formula_sum   'Th6 Pd6 Ru1 Rh1'
_cell_volume   316.90416672
_cell_formula_units_Z   1
loop_
 _symmetry_equiv_pos_site_id
 _symmetry_equiv_pos_as_xyz
  1  'x, y, z'
loop_
 _atom_site_type_symbol
 _atom_site_label
 _atom_site_symmetry_multiplicity
 _atom_site_fract_x
 _atom_site_fract_y
 _atom_site_fract_z
 _atom_site_occupancy
  Th  Th0  1  0.395085  0.034289  0.276278  1
  Th  Th1  1  0.034289  0.276278  0.395085  1
  Th  Th2  1  0.276278  0.395085  0.034289  1
  Th  Th3  1  0.604915  0.965711  0.723722  1
  Th  Th4  1  0.965711  0.723722  0.604915  1
  Th  Th5  1  0.723722  0.604915  0.965711  1
  Pd  Pd6  1  0.231668  0.068198  0.570903  1
  Pd  Pd7  1  0.068198  0.570903  0.231668  1
  Pd  Pd8  1  0.570903  0.231668  0.068198  1
  Pd  Pd9  1  0.768332  0.931802  0.429097  1
  Pd  Pd10  1  0.931802  0.429097  0.768332  1
  Pd  Pd11  1  0.429097  0.768332  0.931802  1
  Ru  Ru12  1  0.000000  0.000000  0.000000  1
  Rh  Rh13  1  0.500000  0.500000  0.500000  1
