# generated using pymatgen
data_LaYB4(OsRh)2
_symmetry_space_group_name_H-M   'P 1'
_cell_length_a   6.93729446
_cell_length_b   6.08391070
_cell_length_c   5.59389784
_cell_angle_alpha   72.75410066
_cell_angle_beta   56.88311934
_cell_angle_gamma   50.36278167
_symmetry_Int_Tables_number   1
_chemical_formula_structural   LaYB4(OsRh)2
_chemical_formula_sum   'La1 Y1 B4 Os2 Rh2'
_cell_volume   151.78533551
_cell_formula_units_Z   1
loop_
 _symmetry_equiv_pos_site_id
 _symmetry_equiv_pos_as_xyz
  1  'x, y, z'
loop_
 _atom_site_type_symbol
 _atom_site_label
 _atom_site_symmetry_multiplicity
 _atom_site_fract_x
 _atom_site_fract_y
 _atom_site_fract_z
 _atom_site_occupancy
  La  La0  1  0.250000  0.250000  0.250000  1
  Y  Y1  1  0.000000  0.000000  0.000000  1
  B  B2  1  0.306992  0.693008  0.306992  1
  B  B3  1  0.693008  0.306992  0.693008  1
  B  B4  1  0.578065  0.921935  0.578065  1
  B  B5  1  0.921935  0.578065  0.921935  1
  Os  Os6  1  0.614501  0.614501  0.885499  1
  Os  Os7  1  0.885499  0.885499  0.614501  1
  Rh  Rh8  1  0.631783  0.631783  0.368217  1
  Rh  Rh9  1  0.368217  0.368217  0.631783  1
