# generated using pymatgen
data_Tb7Lu5AlTlCo4
_symmetry_space_group_name_H-M   'P 1'
_cell_length_a   8.28857576
_cell_length_b   8.28857552
_cell_length_c   8.28271146
_cell_angle_alpha   112.16461080
_cell_angle_beta   109.48877900
_cell_angle_gamma   106.83472512
_symmetry_Int_Tables_number   1
_chemical_formula_structural   Tb7Lu5AlTlCo4
_chemical_formula_sum   'Tb7 Lu5 Al1 Tl1 Co4'
_cell_volume   436.92371368
_cell_formula_units_Z   1
loop_
 _symmetry_equiv_pos_site_id
 _symmetry_equiv_pos_as_xyz
  1  'x, y, z'
loop_
 _atom_site_type_symbol
 _atom_site_label
 _atom_site_symmetry_multiplicity
 _atom_site_fract_x
 _atom_site_fract_y
 _atom_site_fract_z
 _atom_site_occupancy
  Tb  Tb0  1  0.439165  0.234692  0.201978  1
  Tb  Tb1  1  0.563483  0.766532  0.799000  1
  Tb  Tb2  1  0.032468  0.235516  0.799000  1
  Tb  Tb3  1  0.967287  0.762815  0.201978  1
  Tb  Tb4  1  0.180272  0.283129  0.463402  1
  Tb  Tb5  1  0.818484  0.717305  0.535788  1
  Tb  Tb6  1  0.181287  0.717951  0.899237  1
  Lu  Lu7  1  0.818745  0.281217  0.099962  1
  Lu  Lu8  1  0.324481  0.638930  0.313461  1
  Lu  Lu9  1  0.674732  0.358888  0.686955  1
  Lu  Lu10  1  0.328067  0.012223  0.686955  1
  Lu  Lu11  1  0.674532  0.988979  0.313461  1
  Al  Al12  1  0.999569  0.002464  0.002032  1
  Tl  Tl13  1  0.500093  0.500212  0.000306  1
  Co  Co14  1  0.342784  0.000342  0.343126  1
  Co  Co15  1  0.659817  0.002369  0.662186  1
  Co  Co16  1  0.112642  0.613493  0.495586  1
  Co  Co17  1  0.882092  0.382943  0.495586  1
