# generated using pymatgen
data_NdDy9(SiSb)4
_symmetry_space_group_name_H-M   'P 1'
_cell_length_a   8.62645980
_cell_length_b   8.48162025
_cell_length_c   7.88655832
_cell_angle_alpha   89.58959461
_cell_angle_beta   89.91506725
_cell_angle_gamma   125.39587806
_symmetry_Int_Tables_number   1
_chemical_formula_structural   NdDy9(SiSb)4
_chemical_formula_sum   'Nd1 Dy9 Si4 Sb4'
_cell_volume   470.35454573
_cell_formula_units_Z   1
loop_
 _symmetry_equiv_pos_site_id
 _symmetry_equiv_pos_as_xyz
  1  'x, y, z'
loop_
 _atom_site_type_symbol
 _atom_site_label
 _atom_site_symmetry_multiplicity
 _atom_site_fract_x
 _atom_site_fract_y
 _atom_site_fract_z
 _atom_site_occupancy
  Nd  Nd0  1  0.047537  0.313199  0.325058  1
  Dy  Dy1  1  0.954247  0.698995  0.670226  1
  Dy  Dy2  1  0.452432  0.196216  0.831165  1
  Dy  Dy3  1  0.787952  0.536194  0.166883  1
  Dy  Dy4  1  0.544982  0.797790  0.168347  1
  Dy  Dy5  1  0.209635  0.459126  0.832041  1
  Dy  Dy6  1  0.713622  0.961501  0.665851  1
  Dy  Dy7  1  0.290225  0.040289  0.333257  1
  Dy  Dy8  1  0.999607  0.997984  0.000304  1
  Dy  Dy9  1  0.499990  0.501445  0.500852  1
  Si  Si10  1  0.376673  0.373309  0.123003  1
  Si  Si11  1  0.626490  0.624464  0.874417  1
  Si  Si12  1  0.128682  0.126947  0.628689  1
  Si  Si13  1  0.871643  0.870523  0.371340  1
  Sb  Sb14  1  0.792196  0.205744  0.988760  1
  Sb  Sb15  1  0.199938  0.784151  0.009432  1
  Sb  Sb16  1  0.698404  0.291439  0.498518  1
  Sb  Sb17  1  0.305744  0.720684  0.511858  1
