# generated using pymatgen
data_Yb4MgMnC8
_symmetry_space_group_name_H-M   'P 1'
_cell_length_a   6.81358903
_cell_length_b   6.81358826
_cell_length_c   6.81358700
_cell_angle_alpha   135.40881141
_cell_angle_beta   109.93605920
_cell_angle_gamma   86.95585263
_symmetry_Int_Tables_number   1
_chemical_formula_structural   Yb4MgMnC8
_chemical_formula_sum   'Yb4 Mg1 Mn1 C8'
_cell_volume   199.95206542
_cell_formula_units_Z   1
loop_
 _symmetry_equiv_pos_site_id
 _symmetry_equiv_pos_as_xyz
  1  'x, y, z'
loop_
 _atom_site_type_symbol
 _atom_site_label
 _atom_site_symmetry_multiplicity
 _atom_site_fract_x
 _atom_site_fract_y
 _atom_site_fract_z
 _atom_site_occupancy
  Yb  Yb0  1  0.205001  0.349877  0.850712  1
  Yb  Yb1  1  0.794999  0.645712  0.144877  1
  Yb  Yb2  1  0.499165  0.854288  0.649288  1
  Yb  Yb3  1  0.500835  0.150123  0.355123  1
  Mg  Mg4  1  0.000000  0.250000  0.250000  1
  Mn  Mn5  1  0.000000  0.750000  0.750000  1
  C  C6  1  0.796168  0.133780  0.677961  1
  C  C7  1  0.203832  0.881793  0.337612  1
  C  C8  1  0.455818  0.618207  0.822039  1
  C  C9  1  0.544182  0.366220  0.162388  1
  C  C10  1  0.903641  0.016219  0.752942  1
  C  C11  1  0.096359  0.849299  0.112577  1
  C  C12  1  0.263277  0.650701  0.747058  1
  C  C13  1  0.736723  0.483781  0.387423  1
