# generated using pymatgen
data_Tb2UTc2
_symmetry_space_group_name_H-M   'P 1'
_cell_length_a   5.98794910
_cell_length_b   5.98794880
_cell_length_c   5.98794865
_cell_angle_alpha   139.06806326
_cell_angle_beta   123.29471132
_cell_angle_gamma   72.27587708
_symmetry_Int_Tables_number   1
_chemical_formula_structural   Tb2UTc2
_chemical_formula_sum   'Tb2 U1 Tc2'
_cell_volume   115.16605361
_cell_formula_units_Z   1
loop_
 _symmetry_equiv_pos_site_id
 _symmetry_equiv_pos_as_xyz
  1  'x, y, z'
loop_
 _atom_site_type_symbol
 _atom_site_label
 _atom_site_symmetry_multiplicity
 _atom_site_fract_x
 _atom_site_fract_y
 _atom_site_fract_z
 _atom_site_occupancy
  Tb  Tb0  1  0.699831  0.199832  0.500000  1
  Tb  Tb1  1  0.300168  0.800168  0.500000  1
  U  U2  1  0.000000  0.000000  0.000000  1
  Tc  Tc3  1  0.751344  0.500000  0.251344  1
  Tc  Tc4  1  0.248655  0.500000  0.748656  1
