# generated using pymatgen
data_Ca12Zr3Ga12Sn(SbO12)4
_symmetry_space_group_name_H-M   'P 1'
_cell_length_a   11.01011245
_cell_length_b   11.01011282
_cell_length_c   11.01011300
_cell_angle_alpha   109.44553665
_cell_angle_beta   109.44553181
_cell_angle_gamma   109.52260707
_symmetry_Int_Tables_number   1
_chemical_formula_structural   Ca12Zr3Ga12Sn(SbO12)4
_chemical_formula_sum   'Ca12 Zr3 Ga12 Sn1 Sb4 O48'
_cell_volume   1027.43212265
_cell_formula_units_Z   1
loop_
 _symmetry_equiv_pos_site_id
 _symmetry_equiv_pos_as_xyz
  1  'x, y, z'
loop_
 _atom_site_type_symbol
 _atom_site_label
 _atom_site_symmetry_multiplicity
 _atom_site_fract_x
 _atom_site_fract_y
 _atom_site_fract_z
 _atom_site_occupancy
  Ca  Ca0  1  0.242600  0.371817  0.120827  1
  Ca  Ca1  1  0.757400  0.628183  0.879173  1
  Ca  Ca2  1  0.750820  0.121515  0.379212  1
  Ca  Ca3  1  0.122017  0.242892  0.371031  1
  Ca  Ca4  1  0.371940  0.751227  0.129296  1
  Ca  Ca5  1  0.249180  0.878485  0.620788  1
  Ca  Ca6  1  0.877983  0.757108  0.628969  1
  Ca  Ca7  1  0.628060  0.248773  0.870704  1
  Ca  Ca8  1  0.372937  0.122842  0.250347  1
  Ca  Ca9  1  0.627063  0.877158  0.749653  1
  Ca  Ca10  1  0.122717  0.372571  0.750137  1
  Ca  Ca11  1  0.877283  0.627429  0.249863  1
  Zr  Zr12  1  0.000000  0.000000  0.000000  1
  Zr  Zr13  1  0.000000  0.000000  0.500000  1
  Zr  Zr14  1  0.000000  0.500000  0.000000  1
  Ga  Ga15  1  0.256119  0.627032  0.379781  1
  Ga  Ga16  1  0.743881  0.372968  0.620219  1
  Ga  Ga17  1  0.744886  0.874758  0.120085  1
  Ga  Ga18  1  0.376178  0.253714  0.628354  1
  Ga  Ga19  1  0.623822  0.746286  0.371646  1
  Ga  Ga20  1  0.255114  0.125242  0.879915  1
  Ga  Ga21  1  0.125105  0.745200  0.869773  1
  Ga  Ga22  1  0.874895  0.254800  0.130227  1
  Ga  Ga23  1  0.625036  0.375145  0.249951  1
  Ga  Ga24  1  0.374964  0.624855  0.750049  1
  Ga  Ga25  1  0.872720  0.124115  0.747525  1
  Ga  Ga26  1  0.127280  0.875885  0.252475  1
  Sn  Sn27  1  0.500000  0.000000  0.500000  1
  Sb  Sb28  1  0.000000  0.500000  0.500000  1
  Sb  Sb29  1  0.500000  0.000000  0.000000  1
  Sb  Sb30  1  0.500000  0.500000  0.000000  1
  Sb  Sb31  1  0.500000  0.500000  0.500000  1
  O  O32  1  0.481546  0.381272  0.303446  1
  O  O33  1  0.518454  0.618728  0.696554  1
  O  O34  1  0.577855  0.178249  0.196605  1
  O  O35  1  0.914295  0.123830  0.597180  1
  O  O36  1  0.301351  0.475843  0.381303  1
  O  O37  1  0.319533  0.915778  0.292865  1
  O  O38  1  0.422145  0.821751  0.803395  1
  O  O39  1  0.085705  0.876170  0.402820  1
  O  O40  1  0.698649  0.524157  0.618697  1
  O  O41  1  0.680467  0.084222  0.707135  1
  O  O42  1  0.024058  0.315422  0.901351  1
  O  O43  1  0.206274  0.582895  0.186925  1
  O  O44  1  0.123876  0.025009  0.209201  1
  O  O45  1  0.975942  0.684578  0.098649  1
  O  O46  1  0.793726  0.417105  0.813075  1
  O  O47  1  0.876124  0.974991  0.790799  1
  O  O48  1  0.593631  0.919892  0.119238  1
  O  O49  1  0.177848  0.481280  0.600529  1
  O  O50  1  0.406369  0.080108  0.880762  1
  O  O51  1  0.822152  0.518720  0.399471  1
  O  O52  1  0.895534  0.018500  0.312328  1
  O  O53  1  0.381209  0.577679  0.899726  1
  O  O54  1  0.104466  0.981500  0.687672  1
  O  O55  1  0.618791  0.422321  0.100274  1
  O  O56  1  0.384502  0.303694  0.481513  1
  O  O57  1  0.581924  0.897073  0.377026  1
  O  O58  1  0.615498  0.696306  0.518487  1
  O  O59  1  0.418076  0.102927  0.622974  1
  O  O60  1  0.126712  0.599802  0.916606  1
  O  O61  1  0.018716  0.206121  0.123408  1
  O  O62  1  0.873288  0.400198  0.083394  1
  O  O63  1  0.981284  0.793879  0.876592  1
  O  O64  1  0.321307  0.902467  0.017490  1
  O  O65  1  0.920120  0.300714  0.326597  1
  O  O66  1  0.678693  0.097533  0.982510  1
  O  O67  1  0.079880  0.699286  0.673403  1
  O  O68  1  0.184055  0.209345  0.583222  1
  O  O69  1  0.474960  0.594754  0.174153  1
  O  O70  1  0.815945  0.790655  0.416778  1
  O  O71  1  0.525040  0.405246  0.825847  1
  O  O72  1  0.303856  0.321739  0.919331  1
  O  O73  1  0.696144  0.678261  0.080669  1
  O  O74  1  0.209989  0.126816  0.026977  1
  O  O75  1  0.790011  0.873184  0.973023  1
  O  O76  1  0.901306  0.384513  0.580418  1
  O  O77  1  0.098694  0.615487  0.419582  1
  O  O78  1  0.598410  0.180215  0.471925  1
  O  O79  1  0.401590  0.819785  0.528075  1
