# generated using pymatgen
data_Tb4Y12MgNi4Ag3
_symmetry_space_group_name_H-M   'P 1'
_cell_length_a   9.53787211
_cell_length_b   9.57492658
_cell_length_c   9.57492600
_cell_angle_alpha   60.00000199
_cell_angle_beta   59.87140439
_cell_angle_gamma   59.87139846
_symmetry_Int_Tables_number   1
_chemical_formula_structural   Tb4Y12MgNi4Ag3
_chemical_formula_sum   'Tb4 Y12 Mg1 Ni4 Ag3'
_cell_volume   617.10700238
_cell_formula_units_Z   1
loop_
 _symmetry_equiv_pos_site_id
 _symmetry_equiv_pos_as_xyz
  1  'x, y, z'
loop_
 _atom_site_type_symbol
 _atom_site_label
 _atom_site_symmetry_multiplicity
 _atom_site_fract_x
 _atom_site_fract_y
 _atom_site_fract_z
 _atom_site_occupancy
  Tb  Tb0  1  0.599809  0.597330  0.597330  1
  Tb  Tb1  1  0.599809  0.597330  0.205530  1
  Tb  Tb2  1  0.599809  0.205530  0.597330  1
  Tb  Tb3  1  0.193734  0.602088  0.602088  1
  Y  Y4  1  0.183324  0.815316  0.815316  1
  Y  Y5  1  0.813810  0.185494  0.185494  1
  Y  Y6  1  0.813810  0.185494  0.815201  1
  Y  Y7  1  0.183324  0.815316  0.186042  1
  Y  Y8  1  0.813810  0.815201  0.185494  1
  Y  Y9  1  0.183324  0.186042  0.815316  1
  Y  Y10  1  0.058952  0.440197  0.440197  1
  Y  Y11  1  0.435463  0.062859  0.062859  1
  Y  Y12  1  0.435463  0.062859  0.438819  1
  Y  Y13  1  0.058952  0.440197  0.060655  1
  Y  Y14  1  0.435463  0.438819  0.062859  1
  Y  Y15  1  0.058952  0.060655  0.440197  1
  Mg  Mg16  1  0.539109  0.820297  0.820297  1
  Ni  Ni17  1  0.390994  0.393648  0.393648  1
  Ni  Ni18  1  0.390994  0.393648  0.821713  1
  Ni  Ni19  1  0.390994  0.821713  0.393648  1
  Ni  Ni20  1  0.823109  0.392298  0.392298  1
  Ag  Ag21  1  0.832330  0.833954  0.833954  1
  Ag  Ag22  1  0.832330  0.833954  0.499762  1
  Ag  Ag23  1  0.832330  0.499762  0.833954  1
