# generated using pymatgen
data_LuBeCrO4
_symmetry_space_group_name_H-M   'P 1'
_cell_length_a   4.70958801
_cell_length_b   6.10790701
_cell_length_c   10.54024801
_cell_angle_alpha   89.99956188
_cell_angle_beta   90.00048655
_cell_angle_gamma   89.99902717
_symmetry_Int_Tables_number   1
_chemical_formula_structural   LuBeCrO4
_chemical_formula_sum   'Lu4 Be4 Cr4 O16'
_cell_volume   303.19788182
_cell_formula_units_Z   4
loop_
 _symmetry_equiv_pos_site_id
 _symmetry_equiv_pos_as_xyz
  1  'x, y, z'
loop_
 _atom_site_type_symbol
 _atom_site_label
 _atom_site_symmetry_multiplicity
 _atom_site_fract_x
 _atom_site_fract_y
 _atom_site_fract_z
 _atom_site_occupancy
  Lu  Lu0  1  0.484162  0.749980  0.224310  1
  Lu  Lu1  1  0.015863  0.750009  0.724379  1
  Lu  Lu2  1  0.515926  0.250025  0.775642  1
  Lu  Lu3  1  0.984104  0.249977  0.275711  1
  Be  Be4  1  0.918077  0.749981  0.415656  1
  Be  Be5  1  0.581845  0.750026  0.915697  1
  Be  Be6  1  0.081828  0.250004  0.584255  1
  Be  Be7  1  0.418092  0.250004  0.084301  1
  Cr  Cr8  1  0.500080  0.499942  0.499935  1
  Cr  Cr9  1  0.999943  0.999969  0.000069  1
  Cr  Cr10  1  0.500072  0.000038  0.499951  1
  Cr  Cr11  1  0.999923  0.500077  0.000058  1
  O  O12  1  0.261204  0.749976  0.418809  1
  O  O13  1  0.238807  0.750013  0.918929  1
  O  O14  1  0.738837  0.249978  0.581097  1
  O  O15  1  0.761161  0.250022  0.081189  1
  O  O16  1  0.753782  0.750028  0.057324  1
  O  O17  1  0.746252  0.749965  0.557280  1
  O  O18  1  0.246260  0.250010  0.942705  1
  O  O19  1  0.253766  0.249983  0.442667  1
  O  O20  1  0.760640  0.965142  0.346862  1
  O  O21  1  0.739366  0.534812  0.846938  1
  O  O22  1  0.239369  0.465203  0.653068  1
  O  O23  1  0.260629  0.034863  0.153158  1
  O  O24  1  0.239373  0.034800  0.653076  1
  O  O25  1  0.260616  0.465135  0.153154  1
  O  O26  1  0.760642  0.534823  0.346847  1
  O  O27  1  0.739377  0.965218  0.846934  1
