# generated using pymatgen
data_Pr4Co2Pt4O19
_symmetry_space_group_name_H-M   'P 1'
_cell_length_a   7.76040708
_cell_length_b   7.76040761
_cell_length_c   7.76040659
_cell_angle_alpha   109.50573852
_cell_angle_beta   109.13067954
_cell_angle_gamma   109.77788672
_symmetry_Int_Tables_number   1
_chemical_formula_structural   Pr4Co2Pt4O19
_chemical_formula_sum   'Pr4 Co2 Pt4 O19'
_cell_volume   359.76399886
_cell_formula_units_Z   1
loop_
 _symmetry_equiv_pos_site_id
 _symmetry_equiv_pos_as_xyz
  1  'x, y, z'
loop_
 _atom_site_type_symbol
 _atom_site_label
 _atom_site_symmetry_multiplicity
 _atom_site_fract_x
 _atom_site_fract_y
 _atom_site_fract_z
 _atom_site_occupancy
  Pr  Pr0  1  0.673784  0.682271  0.678442  1
  Pr  Pr1  1  0.326216  0.004658  0.008487  1
  Pr  Pr2  1  0.996171  0.317729  0.991513  1
  Pr  Pr3  1  0.003829  0.995342  0.321558  1
  Co  Co4  1  0.344548  0.844548  0.500000  1
  Co  Co5  1  0.655452  0.155452  0.500000  1
  Pt  Pt6  1  0.842738  0.500000  0.342738  1
  Pt  Pt7  1  0.157262  0.500000  0.657262  1
  Pt  Pt8  1  0.500000  0.335304  0.835304  1
  Pt  Pt9  1  0.500000  0.664696  0.164696  1
  O  O10  1  0.661303  0.661303  0.000000  1
  O  O11  1  0.338697  0.338697  0.000000  1
  O  O12  1  0.644409  0.000000  0.644409  1
  O  O13  1  0.355591  0.000000  0.355591  1
  O  O14  1  0.000000  0.663093  0.663093  1
  O  O15  1  0.000000  0.336907  0.336907  1
  O  O16  1  0.000000  0.000000  0.000000  1
  O  O17  1  0.357865  0.620052  0.328554  1
  O  O18  1  0.642135  0.970689  0.262188  1
  O  O19  1  0.708502  0.379948  0.737812  1
  O  O20  1  0.611407  0.314574  0.365951  1
  O  O21  1  0.291498  0.029311  0.671446  1
  O  O22  1  0.948623  0.245455  0.634049  1
  O  O23  1  0.388593  0.754544  0.703168  1
  O  O24  1  0.051377  0.685426  0.296832  1
  O  O25  1  0.320670  0.357816  0.603508  1
  O  O26  1  0.754308  0.717164  0.396492  1
  O  O27  1  0.679330  0.282836  0.037146  1
  O  O28  1  0.245691  0.642184  0.962854  1
