# generated using pymatgen
data_Er10In7HgIr4
_symmetry_space_group_name_H-M   'P 1'
_cell_length_a   3.62150200
_cell_length_b   7.95319892
_cell_length_c   18.21179361
_cell_angle_alpha   89.80802790
_cell_angle_beta   90.00000000
_cell_angle_gamma   90.00000000
_symmetry_Int_Tables_number   1
_chemical_formula_structural   Er10In7HgIr4
_chemical_formula_sum   'Er10 In7 Hg1 Ir4'
_cell_volume   524.54271097
_cell_formula_units_Z   1
loop_
 _symmetry_equiv_pos_site_id
 _symmetry_equiv_pos_as_xyz
  1  'x, y, z'
loop_
 _atom_site_type_symbol
 _atom_site_label
 _atom_site_symmetry_multiplicity
 _atom_site_fract_x
 _atom_site_fract_y
 _atom_site_fract_z
 _atom_site_occupancy
  Er  Er0  1  0.000000  0.499333  0.500677  1
  Er  Er1  1  0.000000  0.999224  0.998600  1
  Er  Er2  1  0.000000  0.745142  0.277086  1
  Er  Er3  1  0.000000  0.253583  0.721653  1
  Er  Er4  1  0.000000  0.753254  0.780430  1
  Er  Er5  1  0.000000  0.244868  0.222513  1
  Er  Er6  1  0.000000  0.616715  0.088516  1
  Er  Er7  1  0.000000  0.393495  0.910852  1
  Er  Er8  1  0.000000  0.883327  0.589612  1
  Er  Er9  1  0.000000  0.114930  0.410934  1
  In  In10  1  0.500000  0.291918  0.066981  1
  In  In11  1  0.500000  0.791261  0.432487  1
  In  In12  1  0.500000  0.205984  0.566940  1
  In  In13  1  0.500000  0.571631  0.648845  1
  In  In14  1  0.500000  0.430023  0.351402  1
  In  In15  1  0.500000  0.930878  0.148045  1
  In  In16  1  0.500000  0.072528  0.851284  1
  Hg  Hg17  1  0.500000  0.712781  0.935791  1
  Ir  Ir18  1  0.500000  0.520626  0.195623  1
  Ir  Ir19  1  0.500000  0.471644  0.801053  1
  Ir  Ir20  1  0.500000  0.976207  0.696807  1
  Ir  Ir21  1  0.500000  0.020649  0.303869  1
