# generated using pymatgen
data_Li4B4IrRh3
_symmetry_space_group_name_H-M   'P 1'
_cell_length_a   6.96502405
_cell_length_b   6.06656889
_cell_length_c   5.53140801
_cell_angle_alpha   73.65400255
_cell_angle_beta   56.69906461
_cell_angle_gamma   49.73438210
_symmetry_Int_Tables_number   1
_chemical_formula_structural   Li4B4IrRh3
_chemical_formula_sum   'Li4 B4 Ir1 Rh3'
_cell_volume   148.06836523
_cell_formula_units_Z   1
loop_
 _symmetry_equiv_pos_site_id
 _symmetry_equiv_pos_as_xyz
  1  'x, y, z'
loop_
 _atom_site_type_symbol
 _atom_site_label
 _atom_site_symmetry_multiplicity
 _atom_site_fract_x
 _atom_site_fract_y
 _atom_site_fract_z
 _atom_site_occupancy
  Li  Li0  1  0.125291  0.625014  0.625989  1
  Li  Li1  1  0.621366  0.626986  0.626844  1
  Li  Li2  1  0.626986  0.621366  0.124804  1
  Li  Li3  1  0.625014  0.125291  0.623707  1
  B  B4  1  0.427163  0.070549  0.421469  1
  B  B5  1  0.177480  0.823586  0.177129  1
  B  B6  1  0.070549  0.427163  0.080819  1
  B  B7  1  0.823586  0.177480  0.821805  1
  Ir  Ir8  1  0.117182  0.117182  0.382818  1
  Rh  Rh9  1  0.383256  0.383256  0.116744  1
  Rh  Rh10  1  0.868273  0.868273  0.131727  1
  Rh  Rh11  1  0.133856  0.133856  0.866144  1
