# generated using pymatgen
data_Er16InAg3Ir3Pt
_symmetry_space_group_name_H-M   'P 1'
_cell_length_a   9.44675299
_cell_length_b   9.44625613
_cell_length_c   9.44652004
_cell_angle_alpha   60.62960640
_cell_angle_beta   60.63123091
_cell_angle_gamma   60.63064146
_symmetry_Int_Tables_number   1
_chemical_formula_structural   Er16InAg3Ir3Pt
_chemical_formula_sum   'Er16 In1 Ag3 Ir3 Pt1'
_cell_volume   604.55876963
_cell_formula_units_Z   1
loop_
 _symmetry_equiv_pos_site_id
 _symmetry_equiv_pos_as_xyz
  1  'x, y, z'
loop_
 _atom_site_type_symbol
 _atom_site_label
 _atom_site_symmetry_multiplicity
 _atom_site_fract_x
 _atom_site_fract_y
 _atom_site_fract_z
 _atom_site_occupancy
  Er  Er0  1  0.061874  0.061871  0.434482  1
  Er  Er1  1  0.646277  0.056439  0.646285  1
  Er  Er2  1  0.190915  0.809691  0.190915  1
  Er  Er3  1  0.435702  0.059565  0.435706  1
  Er  Er4  1  0.190917  0.190917  0.809689  1
  Er  Er5  1  0.650674  0.650664  0.650676  1
  Er  Er6  1  0.056435  0.646282  0.646282  1
  Er  Er7  1  0.434476  0.061873  0.061873  1
  Er  Er8  1  0.646272  0.646279  0.056453  1
  Er  Er9  1  0.193759  0.809724  0.809712  1
  Er  Er10  1  0.809716  0.193759  0.809721  1
  Er  Er11  1  0.809690  0.190920  0.190920  1
  Er  Er12  1  0.809718  0.809722  0.193757  1
  Er  Er13  1  0.059557  0.435711  0.435705  1
  Er  Er14  1  0.435693  0.435706  0.059559  1
  Er  Er15  1  0.061868  0.434486  0.061864  1
  In  In16  1  0.420994  0.420924  0.420899  1
  Ag  Ag17  1  0.748957  0.417364  0.417374  1
  Ag  Ag18  1  0.417371  0.417366  0.748956  1
  Ag  Ag19  1  0.417357  0.748956  0.417377  1
  Ir  Ir20  1  0.427226  0.858725  0.858731  1
  Ir  Ir21  1  0.858728  0.858728  0.427228  1
  Ir  Ir22  1  0.858729  0.427227  0.858734  1
  Pt  Pt23  1  0.857098  0.857098  0.857104  1
