# generated using pymatgen
data_Lu10Ga3IrPb2
_symmetry_space_group_name_H-M   'P 1'
_cell_length_a   8.48403824
_cell_length_b   8.48403735
_cell_length_c   8.55074300
_cell_angle_alpha   125.91126439
_cell_angle_beta   125.91127670
_cell_angle_gamma   79.49702761
_symmetry_Int_Tables_number   1
_chemical_formula_structural   Lu10Ga3IrPb2
_chemical_formula_sum   'Lu10 Ga3 Ir1 Pb2'
_cell_volume   391.27485861
_cell_formula_units_Z   1
loop_
 _symmetry_equiv_pos_site_id
 _symmetry_equiv_pos_as_xyz
  1  'x, y, z'
loop_
 _atom_site_type_symbol
 _atom_site_label
 _atom_site_symmetry_multiplicity
 _atom_site_fract_x
 _atom_site_fract_y
 _atom_site_fract_z
 _atom_site_occupancy
  Lu  Lu0  1  0.002222  0.006468  0.008690  1
  Lu  Lu1  1  0.493532  0.497778  0.991310  1
  Lu  Lu2  1  0.015957  0.506687  0.805110  1
  Lu  Lu3  1  0.710847  0.201576  0.194890  1
  Lu  Lu4  1  0.516359  0.697897  0.500000  1
  Lu  Lu5  1  0.194275  0.034246  0.500000  1
  Lu  Lu6  1  0.993313  0.484043  0.194890  1
  Lu  Lu7  1  0.298424  0.789153  0.805110  1
  Lu  Lu8  1  0.465754  0.305725  0.500000  1
  Lu  Lu9  1  0.802103  0.983641  0.500000  1
  Ga  Ga10  1  0.366979  0.860798  0.227776  1
  Ga  Ga11  1  0.639202  0.133021  0.772224  1
  Ga  Ga12  1  0.863536  0.636464  0.500000  1
  Ir  Ir13  1  0.126242  0.373758  0.500000  1
  Pb  Pb14  1  0.755628  0.744372  0.000000  1
  Pb  Pb15  1  0.255628  0.244372  0.000000  1
