# generated using pymatgen
data_TmLuSc2(CrB6)2
_symmetry_space_group_name_H-M   'P 1'
_cell_length_a   3.42963300
_cell_length_b   8.96178801
_cell_length_c   11.28961901
_cell_angle_alpha   90.00525016
_cell_angle_beta   90.00000000
_cell_angle_gamma   90.00000000
_symmetry_Int_Tables_number   1
_chemical_formula_structural   TmLuSc2(CrB6)2
_chemical_formula_sum   'Tm2 Lu2 Sc4 Cr4 B24'
_cell_volume   346.99370821
_cell_formula_units_Z   2
loop_
 _symmetry_equiv_pos_site_id
 _symmetry_equiv_pos_as_xyz
  1  'x, y, z'
loop_
 _atom_site_type_symbol
 _atom_site_label
 _atom_site_symmetry_multiplicity
 _atom_site_fract_x
 _atom_site_fract_y
 _atom_site_fract_z
 _atom_site_occupancy
  Tm  Tm0  1  0.000000  0.322929  0.414634  1
  Tm  Tm1  1  0.000000  0.677071  0.585366  1
  Lu  Lu2  1  0.000000  0.823018  0.085304  1
  Lu  Lu3  1  0.000000  0.176982  0.914696  1
  Sc  Sc4  1  0.000000  0.443151  0.130466  1
  Sc  Sc5  1  0.000000  0.556849  0.869534  1
  Sc  Sc6  1  0.000000  0.943058  0.369058  1
  Sc  Sc7  1  0.000000  0.056942  0.630942  1
  Cr  Cr8  1  0.000000  0.140885  0.181616  1
  Cr  Cr9  1  0.000000  0.859115  0.818384  1
  Cr  Cr10  1  0.000000  0.641603  0.318143  1
  Cr  Cr11  1  0.000000  0.358397  0.681857  1
  B  B12  1  0.500000  0.054210  0.066658  1
  B  B13  1  0.500000  0.945790  0.933342  1
  B  B14  1  0.500000  0.554426  0.432753  1
  B  B15  1  0.500000  0.445574  0.567247  1
  B  B16  1  0.500000  0.252544  0.081484  1
  B  B17  1  0.500000  0.747456  0.918516  1
  B  B18  1  0.500000  0.752849  0.417778  1
  B  B19  1  0.500000  0.247151  0.582222  1
  B  B20  1  0.500000  0.294499  0.235810  1
  B  B21  1  0.500000  0.705501  0.764190  1
  B  B22  1  0.500000  0.794722  0.263329  1
  B  B23  1  0.500000  0.205278  0.736671  1
  B  B24  1  0.500000  0.129866  0.316837  1
  B  B25  1  0.500000  0.870134  0.683163  1
  B  B26  1  0.500000  0.630289  0.182599  1
  B  B27  1  0.500000  0.369711  0.817401  1
  B  B28  1  0.500000  0.482260  0.286718  1
  B  B29  1  0.500000  0.517740  0.713282  1
  B  B30  1  0.500000  0.981853  0.212557  1
  B  B31  1  0.500000  0.018147  0.787443  1
  B  B32  1  0.500000  0.096708  0.473761  1
  B  B33  1  0.500000  0.903292  0.526239  1
  B  B34  1  0.500000  0.597210  0.026328  1
  B  B35  1  0.500000  0.402790  0.973672  1
