# generated using pymatgen
data_SrNd6CoI12
_symmetry_space_group_name_H-M   'P 1'
_cell_length_a   10.06886651
_cell_length_b   10.06886666
_cell_length_c   10.06886668
_cell_angle_alpha   106.62859356
_cell_angle_beta   106.62858638
_cell_angle_gamma   106.62860091
_symmetry_Int_Tables_number   1
_chemical_formula_structural   SrNd6CoI12
_chemical_formula_sum   'Sr1 Nd6 Co1 I12'
_cell_volume   858.60174946
_cell_formula_units_Z   1
loop_
 _symmetry_equiv_pos_site_id
 _symmetry_equiv_pos_as_xyz
  1  'x, y, z'
loop_
 _atom_site_type_symbol
 _atom_site_label
 _atom_site_symmetry_multiplicity
 _atom_site_fract_x
 _atom_site_fract_y
 _atom_site_fract_z
 _atom_site_occupancy
  Sr  Sr0  1  0.997660  0.997660  0.997660  1
  Nd  Nd1  1  0.517788  0.592817  0.793515  1
  Nd  Nd2  1  0.793515  0.517788  0.592817  1
  Nd  Nd3  1  0.592817  0.793515  0.517788  1
  Nd  Nd4  1  0.480099  0.404886  0.204402  1
  Nd  Nd5  1  0.204402  0.480099  0.404886  1
  Nd  Nd6  1  0.404886  0.204402  0.480099  1
  Co  Co7  1  0.499081  0.499081  0.499081  1
  I  I8  1  0.275333  0.820820  0.426131  1
  I  I9  1  0.426131  0.275333  0.820820  1
  I  I10  1  0.820820  0.426131  0.275333  1
  I  I11  1  0.722666  0.177404  0.571719  1
  I  I12  1  0.571719  0.722666  0.177404  1
  I  I13  1  0.177404  0.571719  0.722666  1
  I  I14  1  0.047773  0.128396  0.354972  1
  I  I15  1  0.354972  0.047773  0.128396  1
  I  I16  1  0.128396  0.354972  0.047773  1
  I  I17  1  0.949875  0.869166  0.640866  1
  I  I18  1  0.640866  0.949875  0.869166  1
  I  I19  1  0.869166  0.640866  0.949875  1
