# generated using pymatgen
data_Nd3NpI12
_symmetry_space_group_name_H-M   'P 1'
_cell_length_a   13.85197402
_cell_length_b   7.94582587
_cell_length_c   9.08600300
_cell_angle_alpha   65.00587249
_cell_angle_beta   89.85392263
_cell_angle_gamma   89.93767295
_symmetry_Int_Tables_number   1
_chemical_formula_structural   Nd3NpI12
_chemical_formula_sum   'Nd3 Np1 I12'
_cell_volume   906.39737944
_cell_formula_units_Z   1
loop_
 _symmetry_equiv_pos_site_id
 _symmetry_equiv_pos_as_xyz
  1  'x, y, z'
loop_
 _atom_site_type_symbol
 _atom_site_label
 _atom_site_symmetry_multiplicity
 _atom_site_fract_x
 _atom_site_fract_y
 _atom_site_fract_z
 _atom_site_occupancy
  Nd  Nd0  1  0.833633  0.020801  0.986561  1
  Nd  Nd1  1  0.664934  0.520269  0.988049  1
  Nd  Nd2  1  0.167372  0.979198  0.012112  1
  Np  Np3  1  0.333844  0.479182  0.013472  1
  I  I4  1  0.508092  0.256667  0.222698  1
  I  I5  1  0.010137  0.242894  0.777906  1
  I  I6  1  0.490162  0.743025  0.779731  1
  I  I7  1  0.991372  0.755831  0.219254  1
  I  I8  1  0.325974  0.260138  0.798095  1
  I  I9  1  0.822998  0.241356  0.202429  1
  I  I10  1  0.675870  0.742008  0.202914  1
  I  I11  1  0.178754  0.759346  0.796303  1
  I  I12  1  0.185285  0.187651  0.237788  1
  I  I13  1  0.685057  0.314726  0.760889  1
  I  I14  1  0.813641  0.814134  0.760718  1
  I  I15  1  0.312880  0.682770  0.241079  1
