# generated using pymatgen
data_Gd3CdIn3CuIr
_symmetry_space_group_name_H-M   'P 1'
_cell_length_a   8.01492800
_cell_length_b   8.01492604
_cell_length_c   3.73040900
_cell_angle_alpha   90.00000000
_cell_angle_beta   90.00000000
_cell_angle_gamma   120.00000807
_symmetry_Int_Tables_number   1
_chemical_formula_structural   Gd3CdIn3CuIr
_chemical_formula_sum   'Gd3 Cd1 In3 Cu1 Ir1'
_cell_volume   207.53253517
_cell_formula_units_Z   1
loop_
 _symmetry_equiv_pos_site_id
 _symmetry_equiv_pos_as_xyz
  1  'x, y, z'
loop_
 _atom_site_type_symbol
 _atom_site_label
 _atom_site_symmetry_multiplicity
 _atom_site_fract_x
 _atom_site_fract_y
 _atom_site_fract_z
 _atom_site_occupancy
  Gd  Gd0  1  0.582069  0.615373  0.000000  1
  Gd  Gd1  1  0.384627  0.966697  0.000000  1
  Gd  Gd2  1  0.033303  0.417931  0.000000  1
  Cd  Cd3  1  0.666667  0.333333  0.500000  1
  In  In4  1  0.993386  0.740171  0.500000  1
  In  In5  1  0.259829  0.253213  0.500000  1
  In  In6  1  0.746787  0.006614  0.500000  1
  Cu  Cu7  1  0.000000  0.000000  0.000000  1
  Ir  Ir8  1  0.333333  0.666667  0.500000  1
