# generated using pymatgen
data_Y3TmRh4F28
_symmetry_space_group_name_H-M   'P 1'
_cell_length_a   5.51044620
_cell_length_b   8.88107532
_cell_length_c   11.91705758
_cell_angle_alpha   62.53039642
_cell_angle_beta   90.00215118
_cell_angle_gamma   89.97353596
_symmetry_Int_Tables_number   1
_chemical_formula_structural   Y3TmRh4F28
_chemical_formula_sum   'Y3 Tm1 Rh4 F28'
_cell_volume   517.45201166
_cell_formula_units_Z   1
loop_
 _symmetry_equiv_pos_site_id
 _symmetry_equiv_pos_as_xyz
  1  'x, y, z'
loop_
 _atom_site_type_symbol
 _atom_site_label
 _atom_site_symmetry_multiplicity
 _atom_site_fract_x
 _atom_site_fract_y
 _atom_site_fract_z
 _atom_site_occupancy
  Y  Y0  1  0.738701  0.186585  0.735317  1
  Y  Y1  1  0.761161  0.183594  0.235695  1
  Y  Y2  1  0.238787  0.812985  0.764775  1
  Tm  Tm3  1  0.261549  0.813271  0.264611  1
  Rh  Rh4  1  0.758470  0.726141  0.045113  1
  Rh  Rh5  1  0.242238  0.272871  0.957362  1
  Rh  Rh6  1  0.258111  0.275797  0.455680  1
  Rh  Rh7  1  0.741747  0.726335  0.541872  1
  F  F8  1  0.940825  0.707887  0.413526  1
  F  F9  1  0.062480  0.294257  0.584649  1
  F  F10  1  0.438058  0.292807  0.085653  1
  F  F11  1  0.562612  0.706846  0.916528  1
  F  F12  1  0.466466  0.730128  0.137136  1
  F  F13  1  0.534778  0.271037  0.865546  1
  F  F14  1  0.966073  0.271639  0.364584  1
  F  F15  1  0.033375  0.728486  0.634309  1
  F  F16  1  0.954942  0.744638  0.175173  1
  F  F17  1  0.049827  0.256417  0.825754  1
  F  F18  1  0.450941  0.257833  0.324770  1
  F  F19  1  0.548599  0.742976  0.673530  1
  F  F20  1  0.768556  0.481868  0.140461  1
  F  F21  1  0.231458  0.517870  0.860539  1
  F  F22  1  0.268226  0.521308  0.359586  1
  F  F23  1  0.730773  0.481530  0.638806  1
  F  F24  1  0.942856  0.280561  0.043585  1
  F  F25  1  0.055688  0.718691  0.957803  1
  F  F26  1  0.442373  0.720636  0.453664  1
  F  F27  1  0.556962  0.282151  0.542297  1
  F  F28  1  0.740362  0.971333  0.449965  1
  F  F29  1  0.260156  0.031071  0.548565  1
  F  F30  1  0.240138  0.027834  0.051343  1
  F  F31  1  0.760315  0.970194  0.951662  1
  F  F32  1  0.583447  0.966476  0.230956  1
  F  F33  1  0.408915  0.031500  0.769842  1
  F  F34  1  0.090814  0.026031  0.269431  1
  F  F35  1  0.909223  0.968416  0.729915  1
