# generated using pymatgen
data_Th6PaAl23Tc8
_symmetry_space_group_name_H-M   'P 1'
_cell_length_a   8.99064100
_cell_length_b   8.99063895
_cell_length_c   9.70520700
_cell_angle_alpha   90.00000000
_cell_angle_beta   90.00000000
_cell_angle_gamma   119.99999651
_symmetry_Int_Tables_number   1
_chemical_formula_structural   Th6PaAl23Tc8
_chemical_formula_sum   'Th6 Pa1 Al23 Tc8'
_cell_volume   679.38611014
_cell_formula_units_Z   1
loop_
 _symmetry_equiv_pos_site_id
 _symmetry_equiv_pos_as_xyz
  1  'x, y, z'
loop_
 _atom_site_type_symbol
 _atom_site_label
 _atom_site_symmetry_multiplicity
 _atom_site_fract_x
 _atom_site_fract_y
 _atom_site_fract_z
 _atom_site_occupancy
  Th  Th0  1  0.804839  0.609677  0.754766  1
  Th  Th1  1  0.189299  0.810701  0.237317  1
  Th  Th2  1  0.621401  0.810701  0.237317  1
  Th  Th3  1  0.390323  0.195161  0.754766  1
  Th  Th4  1  0.804839  0.195161  0.754766  1
  Th  Th5  1  0.189299  0.378599  0.237317  1
  Pa  Pa6  1  0.333333  0.666667  0.487504  1
  Al  Al7  1  0.666667  0.333333  0.996958  1
  Al  Al8  1  0.666667  0.333333  0.508449  1
  Al  Al9  1  0.333333  0.666667  0.007576  1
  Al  Al10  1  0.153854  0.307709  0.581433  1
  Al  Al11  1  0.692291  0.846146  0.581433  1
  Al  Al12  1  0.153854  0.846146  0.581433  1
  Al  Al13  1  0.836220  0.163780  0.076769  1
  Al  Al14  1  0.839272  0.160728  0.421834  1
  Al  Al15  1  0.836220  0.672440  0.076769  1
  Al  Al16  1  0.327560  0.163780  0.076769  1
  Al  Al17  1  0.676737  0.838369  0.919975  1
  Al  Al18  1  0.161631  0.323263  0.919975  1
  Al  Al19  1  0.839272  0.678543  0.421834  1
  Al  Al20  1  0.000000  0.000000  0.252752  1
  Al  Al21  1  0.000000  0.000000  0.753537  1
  Al  Al22  1  0.563522  0.127044  0.250464  1
  Al  Al23  1  0.437128  0.562872  0.755182  1
  Al  Al24  1  0.125745  0.562872  0.755182  1
  Al  Al25  1  0.872956  0.436478  0.250464  1
  Al  Al26  1  0.563522  0.436478  0.250464  1
  Al  Al27  1  0.437128  0.874255  0.755182  1
  Al  Al28  1  0.161631  0.838369  0.919975  1
  Al  Al29  1  0.321457  0.160728  0.421834  1
  Tc  Tc30  1  0.000000  0.000000  0.500550  1
  Tc  Tc31  1  0.000000  0.000000  0.004342  1
  Tc  Tc32  1  0.493240  0.986480  0.498361  1
  Tc  Tc33  1  0.499657  0.500343  0.000010  1
  Tc  Tc34  1  0.000684  0.500343  0.000010  1
  Tc  Tc35  1  0.013520  0.506760  0.498361  1
  Tc  Tc36  1  0.493240  0.506760  0.498361  1
  Tc  Tc37  1  0.499657  0.999316  0.000010  1
