# generated using pymatgen
data_HoErLu3(ReO6)2
_symmetry_space_group_name_H-M   'P 1'
_cell_length_a   6.73623778
_cell_length_b   6.73623711
_cell_length_c   7.42346704
_cell_angle_alpha   73.97821620
_cell_angle_beta   73.97821968
_cell_angle_gamma   49.34617005
_symmetry_Int_Tables_number   1
_chemical_formula_structural   HoErLu3(ReO6)2
_chemical_formula_sum   'Ho1 Er1 Lu3 Re2 O12'
_cell_volume   243.48423546
_cell_formula_units_Z   1
loop_
 _symmetry_equiv_pos_site_id
 _symmetry_equiv_pos_as_xyz
  1  'x, y, z'
loop_
 _atom_site_type_symbol
 _atom_site_label
 _atom_site_symmetry_multiplicity
 _atom_site_fract_x
 _atom_site_fract_y
 _atom_site_fract_z
 _atom_site_occupancy
  Ho  Ho0  1  0.302516  0.302516  0.358926  1
  Er  Er1  1  0.697497  0.697497  0.641420  1
  Lu  Lu2  1  0.314365  0.314365  0.823270  1
  Lu  Lu3  1  0.685624  0.685624  0.176796  1
  Lu  Lu4  1  0.999905  0.999905  0.500178  1
  Re  Re5  1  0.214750  0.785503  0.999796  1
  Re  Re6  1  0.785503  0.214750  0.999796  1
  O  O7  1  0.500717  0.500717  0.180013  1
  O  O8  1  0.499701  0.499701  0.819362  1
  O  O9  1  0.000697  0.000697  0.210423  1
  O  O10  1  0.999355  0.999355  0.789518  1
  O  O11  1  0.914500  0.420960  0.914528  1
  O  O12  1  0.579486  0.085173  0.084768  1
  O  O13  1  0.085173  0.579486  0.084768  1
  O  O14  1  0.595809  0.099397  0.575983  1
  O  O15  1  0.899076  0.404967  0.424973  1
  O  O16  1  0.404967  0.899076  0.424973  1
  O  O17  1  0.099397  0.595809  0.575983  1
  O  O18  1  0.420960  0.914500  0.914528  1
