# generated using pymatgen
data_Nd4UGaCo4
_symmetry_space_group_name_H-M   'P 1'
_cell_length_a   5.67318446
_cell_length_b   5.67318381
_cell_length_c   7.26567400
_cell_angle_alpha   88.07926875
_cell_angle_beta   91.92073103
_cell_angle_gamma   121.05646291
_symmetry_Int_Tables_number   1
_chemical_formula_structural   Nd4UGaCo4
_chemical_formula_sum   'Nd4 U1 Ga1 Co4'
_cell_volume   200.17771878
_cell_formula_units_Z   1
loop_
 _symmetry_equiv_pos_site_id
 _symmetry_equiv_pos_as_xyz
  1  'x, y, z'
loop_
 _atom_site_type_symbol
 _atom_site_label
 _atom_site_symmetry_multiplicity
 _atom_site_fract_x
 _atom_site_fract_y
 _atom_site_fract_z
 _atom_site_occupancy
  Nd  Nd0  1  0.667500  0.332500  0.897235  1
  Nd  Nd1  1  0.332500  0.667500  0.102765  1
  Nd  Nd2  1  0.830365  0.169635  0.406960  1
  Nd  Nd3  1  0.169635  0.830365  0.593040  1
  U  U4  1  0.000000  0.000000  0.000000  1
  Ga  Ga5  1  0.500000  0.500000  0.500000  1
  Co  Co6  1  0.678217  0.839971  0.761807  1
  Co  Co7  1  0.839971  0.678217  0.238193  1
  Co  Co8  1  0.321783  0.160029  0.238193  1
  Co  Co9  1  0.160029  0.321783  0.761807  1
