# generated using pymatgen
data_Ac2B4IrRu3
_symmetry_space_group_name_H-M   'P 1'
_cell_length_a   7.05197668
_cell_length_b   6.16255342
_cell_length_c   5.67050800
_cell_angle_alpha   73.02776167
_cell_angle_beta   56.70084904
_cell_angle_gamma   50.96381248
_symmetry_Int_Tables_number   1
_chemical_formula_structural   Ac2B4IrRu3
_chemical_formula_sum   'Ac2 B4 Ir1 Ru3'
_cell_volume   159.43524240
_cell_formula_units_Z   1
loop_
 _symmetry_equiv_pos_site_id
 _symmetry_equiv_pos_as_xyz
  1  'x, y, z'
loop_
 _atom_site_type_symbol
 _atom_site_label
 _atom_site_symmetry_multiplicity
 _atom_site_fract_x
 _atom_site_fract_y
 _atom_site_fract_z
 _atom_site_occupancy
  Ac  Ac0  1  0.998091  0.998091  0.001909  1
  Ac  Ac1  1  0.249951  0.249951  0.250049  1
  B  B2  1  0.671948  0.327301  0.673206  1
  B  B3  1  0.327301  0.671948  0.327545  1
  B  B4  1  0.926151  0.576217  0.924521  1
  B  B5  1  0.576217  0.926151  0.573112  1
  Ir  Ir6  1  0.615794  0.615794  0.884206  1
  Ru  Ru7  1  0.634789  0.634789  0.365210  1
  Ru  Ru8  1  0.364753  0.364754  0.635246  1
  Ru  Ru9  1  0.885005  0.885004  0.614995  1
