# generated using pymatgen
data_Y3HoReOs7
_symmetry_space_group_name_H-M   'P 1'
_cell_length_a   5.30503866
_cell_length_b   5.30503831
_cell_length_c   8.84657202
_cell_angle_alpha   90.00633127
_cell_angle_beta   89.99366966
_cell_angle_gamma   118.37276890
_symmetry_Int_Tables_number   1
_chemical_formula_structural   Y3HoReOs7
_chemical_formula_sum   'Y3 Ho1 Re1 Os7'
_cell_volume   219.06491845
_cell_formula_units_Z   1
loop_
 _symmetry_equiv_pos_site_id
 _symmetry_equiv_pos_as_xyz
  1  'x, y, z'
loop_
 _atom_site_type_symbol
 _atom_site_label
 _atom_site_symmetry_multiplicity
 _atom_site_fract_x
 _atom_site_fract_y
 _atom_site_fract_z
 _atom_site_occupancy
  Y  Y0  1  0.330726  0.669274  0.435507  1
  Y  Y1  1  0.666000  0.334000  0.565997  1
  Y  Y2  1  0.665847  0.334153  0.934246  1
  Ho  Ho3  1  0.330415  0.669585  0.064153  1
  Re  Re4  1  0.834026  0.165974  0.249681  1
  Os  Os5  1  0.993451  0.006549  0.500052  1
  Os  Os6  1  0.993395  0.006605  0.000158  1
  Os  Os7  1  0.827686  0.649591  0.249524  1
  Os  Os8  1  0.350409  0.172314  0.249524  1
  Os  Os9  1  0.176349  0.823651  0.750443  1
  Os  Os10  1  0.171545  0.339848  0.750358  1
  Os  Os11  1  0.660152  0.828455  0.750358  1
