# generated using pymatgen
data_Tb4DyHoCoBr10
_symmetry_space_group_name_H-M   'P 1'
_cell_length_a   7.38201795
_cell_length_b   9.20705195
_cell_length_c   9.17238140
_cell_angle_alpha   106.96151350
_cell_angle_beta   96.44738988
_cell_angle_gamma   104.65508226
_symmetry_Int_Tables_number   1
_chemical_formula_structural   Tb4DyHoCoBr10
_chemical_formula_sum   'Tb4 Dy1 Ho1 Co1 Br10'
_cell_volume   565.11196107
_cell_formula_units_Z   1
loop_
 _symmetry_equiv_pos_site_id
 _symmetry_equiv_pos_as_xyz
  1  'x, y, z'
loop_
 _atom_site_type_symbol
 _atom_site_label
 _atom_site_symmetry_multiplicity
 _atom_site_fract_x
 _atom_site_fract_y
 _atom_site_fract_z
 _atom_site_occupancy
  Tb  Tb0  1  0.878423  0.952148  0.735033  1
  Tb  Tb1  1  0.121037  0.048629  0.265023  1
  Tb  Tb2  1  0.350003  0.127951  0.674816  1
  Tb  Tb3  1  0.649744  0.871942  0.324996  1
  Dy  Dy4  1  0.035783  0.708978  0.410162  1
  Ho  Ho5  1  0.965516  0.291193  0.590359  1
  Co  Co6  1  0.999876  0.000475  0.500101  1
  Br  Br7  1  0.456935  0.820058  0.585946  1
  Br  Br8  1  0.542950  0.179289  0.413948  1
  Br  Br9  1  0.914472  0.627789  0.672560  1
  Br  Br10  1  0.085617  0.372423  0.328347  1
  Br  Br11  1  0.242187  0.080867  0.955205  1
  Br  Br12  1  0.757183  0.918268  0.044410  1
  Br  Br13  1  0.337783  0.444961  0.769630  1
  Br  Br14  1  0.662892  0.554851  0.230044  1
  Br  Br15  1  0.774902  0.248116  0.840114  1
  Br  Br16  1  0.224700  0.752065  0.159307  1
