# generated using pymatgen
data_TbSm2Mg3Sn2Au
_symmetry_space_group_name_H-M   'P 1'
_cell_length_a   7.62368005
_cell_length_b   7.62367877
_cell_length_c   4.48262800
_cell_angle_alpha   90.00000000
_cell_angle_beta   90.00000000
_cell_angle_gamma   119.75061061
_symmetry_Int_Tables_number   1
_chemical_formula_structural   TbSm2Mg3Sn2Au
_chemical_formula_sum   'Tb1 Sm2 Mg3 Sn2 Au1'
_cell_volume   226.19265230
_cell_formula_units_Z   1
loop_
 _symmetry_equiv_pos_site_id
 _symmetry_equiv_pos_as_xyz
  1  'x, y, z'
loop_
 _atom_site_type_symbol
 _atom_site_label
 _atom_site_symmetry_multiplicity
 _atom_site_fract_x
 _atom_site_fract_y
 _atom_site_fract_z
 _atom_site_occupancy
  Tb  Tb0  1  0.404173  0.404173  0.000000  1
  Sm  Sm1  1  0.594327  0.999276  0.000000  1
  Sm  Sm2  1  0.999276  0.594327  0.000000  1
  Mg  Mg3  1  0.237406  0.000635  0.500000  1
  Mg  Mg4  1  0.000635  0.237406  0.500000  1
  Mg  Mg5  1  0.762448  0.762448  0.500000  1
  Sn  Sn6  1  0.334266  0.665245  0.500000  1
  Sn  Sn7  1  0.665245  0.334266  0.500000  1
  Au  Au8  1  0.002223  0.002223  0.000000  1
