# generated using pymatgen
data_Rb2Sn(AuSe2)2
_symmetry_space_group_name_H-M   'P 1'
_cell_length_a   7.85201837
_cell_length_b   9.21622845
_cell_length_c   10.09928615
_cell_angle_alpha   71.17488110
_cell_angle_beta   81.75673944
_cell_angle_gamma   67.32089560
_symmetry_Int_Tables_number   1
_chemical_formula_structural   Rb2Sn(AuSe2)2
_chemical_formula_sum   'Rb4 Sn2 Au4 Se8'
_cell_volume   638.11301516
_cell_formula_units_Z   2
loop_
 _symmetry_equiv_pos_site_id
 _symmetry_equiv_pos_as_xyz
  1  'x, y, z'
loop_
 _atom_site_type_symbol
 _atom_site_label
 _atom_site_symmetry_multiplicity
 _atom_site_fract_x
 _atom_site_fract_y
 _atom_site_fract_z
 _atom_site_occupancy
  Rb  Rb0  1  0.775424  0.815702  0.420028  1
  Rb  Rb1  1  0.224576  0.184298  0.579972  1
  Rb  Rb2  1  0.028476  0.248843  0.080025  1
  Rb  Rb3  1  0.971524  0.751157  0.919975  1
  Sn  Sn4  1  0.618011  0.292084  0.800700  1
  Sn  Sn5  1  0.381989  0.707916  0.199300  1
  Au  Au6  1  0.541065  0.701975  0.843172  1
  Au  Au7  1  0.256149  0.659355  0.570974  1
  Au  Au8  1  0.458935  0.298025  0.156828  1
  Au  Au9  1  0.743851  0.340645  0.429026  1
  Se  Se10  1  0.735132  0.575483  0.226151  1
  Se  Se11  1  0.763047  0.106414  0.635354  1
  Se  Se12  1  0.308202  0.903040  0.947477  1
  Se  Se13  1  0.215866  0.499762  0.254547  1
  Se  Se14  1  0.264868  0.424517  0.773849  1
  Se  Se15  1  0.691798  0.096960  0.052523  1
  Se  Se16  1  0.236953  0.893586  0.364646  1
  Se  Se17  1  0.784134  0.500238  0.745453  1
