# generated using pymatgen
data_Sr3Yb5(Sb2O)2
_symmetry_space_group_name_H-M   'P 1'
_cell_length_a   9.13491793
_cell_length_b   9.13491679
_cell_length_c   6.69179700
_cell_angle_alpha   90.00044498
_cell_angle_beta   89.99955600
_cell_angle_gamma   137.04268913
_symmetry_Int_Tables_number   1
_chemical_formula_structural   Sr3Yb5(Sb2O)2
_chemical_formula_sum   'Sr3 Yb5 Sb4 O2'
_cell_volume   380.52928006
_cell_formula_units_Z   1
loop_
 _symmetry_equiv_pos_site_id
 _symmetry_equiv_pos_as_xyz
  1  'x, y, z'
loop_
 _atom_site_type_symbol
 _atom_site_label
 _atom_site_symmetry_multiplicity
 _atom_site_fract_x
 _atom_site_fract_y
 _atom_site_fract_z
 _atom_site_occupancy
  Sr  Sr0  1  0.167211  0.832790  0.500236  1
  Sr  Sr1  1  0.831517  0.168484  0.499775  1
  Sr  Sr2  1  0.328004  0.671997  0.000314  1
  Yb  Yb3  1  0.651687  0.348314  0.999725  1
  Yb  Yb4  1  0.249618  0.247168  0.250721  1
  Yb  Yb5  1  0.752831  0.750381  0.250721  1
  Yb  Yb6  1  0.249449  0.247304  0.749254  1
  Yb  Yb7  1  0.752695  0.750550  0.749254  1
  Sb  Sb8  1  0.133496  0.866505  0.000037  1
  Sb  Sb9  1  0.633830  0.366170  0.499989  1
  Sb  Sb10  1  0.368543  0.631457  0.500095  1
  Sb  Sb11  1  0.864301  0.135700  0.999909  1
  O  O12  1  0.514330  0.485670  0.999966  1
  O  O13  1  0.002489  0.997511  0.499999  1
