# generated using pymatgen
data_La3Y(MoO6)2
_symmetry_space_group_name_H-M   'P 1'
_cell_length_a   5.59268700
_cell_length_b   10.30740329
_cell_length_c   10.30741598
_cell_angle_alpha   68.66979358
_cell_angle_beta   75.09987155
_cell_angle_gamma   75.09979885
_symmetry_Int_Tables_number   1
_chemical_formula_structural   La3Y(MoO6)2
_chemical_formula_sum   'La6 Y2 Mo4 O24'
_cell_volume   525.96176207
_cell_formula_units_Z   2
loop_
 _symmetry_equiv_pos_site_id
 _symmetry_equiv_pos_as_xyz
  1  'x, y, z'
loop_
 _atom_site_type_symbol
 _atom_site_label
 _atom_site_symmetry_multiplicity
 _atom_site_fract_x
 _atom_site_fract_y
 _atom_site_fract_z
 _atom_site_occupancy
  La  La0  1  0.618773  0.786572  0.553011  1
  La  La1  1  0.118782  0.553002  0.786579  1
  La  La2  1  0.381236  0.213428  0.446983  1
  La  La3  1  0.881226  0.446998  0.213420  1
  La  La4  1  0.750003  0.863204  0.136794  1
  La  La5  1  0.250008  0.136796  0.863196  1
  Y  Y6  1  0.749999  0.397495  0.602502  1
  Y  Y7  1  0.249996  0.602503  0.397498  1
  Mo  Mo8  1  0.064558  0.007007  0.297887  1
  Mo  Mo9  1  0.435439  0.702114  0.992992  1
  Mo  Mo10  1  0.935442  0.992992  0.702113  1
  Mo  Mo11  1  0.564561  0.297886  0.007010  1
  O  O12  1  0.925769  0.570064  0.605015  1
  O  O13  1  0.574223  0.394991  0.429932  1
  O  O14  1  0.074224  0.429930  0.394989  1
  O  O15  1  0.425765  0.605014  0.570067  1
  O  O16  1  0.939153  0.806383  0.337447  1
  O  O17  1  0.560845  0.662554  0.193617  1
  O  O18  1  0.060848  0.193618  0.662552  1
  O  O19  1  0.439157  0.337448  0.806383  1
  O  O20  1  0.369444  0.888928  0.329306  1
  O  O21  1  0.130555  0.670694  0.111073  1
  O  O22  1  0.630555  0.111073  0.670695  1
  O  O23  1  0.869447  0.329304  0.888930  1
  O  O24  1  0.633105  0.288983  0.174944  1
  O  O25  1  0.866892  0.825055  0.711024  1
  O  O26  1  0.366891  0.711017  0.825060  1
  O  O27  1  0.133104  0.174943  0.288980  1
  O  O28  1  0.520000  0.118686  0.044023  1
  O  O29  1  0.979996  0.955978  0.881316  1
  O  O30  1  0.767809  0.022909  0.426483  1
  O  O31  1  0.020004  0.044020  0.118684  1
  O  O32  1  0.267810  0.426481  0.022910  1
  O  O33  1  0.232193  0.977089  0.573523  1
  O  O34  1  0.732194  0.573520  0.977090  1
  O  O35  1  0.479998  0.881316  0.955978  1
