# generated using pymatgen
data_SnSb11
_symmetry_space_group_name_H-M   'P 1'
_cell_length_a   4.38456700
_cell_length_b   4.38456726
_cell_length_c   21.56605900
_cell_angle_alpha   90.00000000
_cell_angle_beta   90.00000000
_cell_angle_gamma   119.99999046
_symmetry_Int_Tables_number   1
_chemical_formula_structural   SnSb11
_chemical_formula_sum   'Sn1 Sb11'
_cell_volume   359.04998283
_cell_formula_units_Z   1
loop_
 _symmetry_equiv_pos_site_id
 _symmetry_equiv_pos_as_xyz
  1  'x, y, z'
loop_
 _atom_site_type_symbol
 _atom_site_label
 _atom_site_symmetry_multiplicity
 _atom_site_fract_x
 _atom_site_fract_y
 _atom_site_fract_z
 _atom_site_occupancy
  Sn  Sn0  1  0.000000  0.000000  0.000000  1
  Sb  Sb1  1  0.666667  0.333333  0.165348  1
  Sb  Sb2  1  0.333333  0.666667  0.834652  1
  Sb  Sb3  1  0.666667  0.333333  0.416447  1
  Sb  Sb4  1  0.333333  0.666667  0.583553  1
  Sb  Sb5  1  0.000000  0.000000  0.500000  1
  Sb  Sb6  1  0.666667  0.333333  0.917970  1
  Sb  Sb7  1  0.333333  0.666667  0.082030  1
  Sb  Sb8  1  0.000000  0.000000  0.750677  1
  Sb  Sb9  1  0.000000  0.000000  0.249323  1
  Sb  Sb10  1  0.666667  0.333333  0.667015  1
  Sb  Sb11  1  0.333333  0.666667  0.332985  1
