# generated using pymatgen
data_Nd2BeGaBO7
_symmetry_space_group_name_H-M   'P 1'
_cell_length_a   7.62162700
_cell_length_b   4.86875061
_cell_length_c   7.63222408
_cell_angle_alpha   89.63345262
_cell_angle_beta   90.00000000
_cell_angle_gamma   90.00000000
_symmetry_Int_Tables_number   1
_chemical_formula_structural   Nd2BeGaBO7
_chemical_formula_sum   'Nd4 Be2 Ga2 B2 O14'
_cell_volume   283.20925742
_cell_formula_units_Z   2
loop_
 _symmetry_equiv_pos_site_id
 _symmetry_equiv_pos_as_xyz
  1  'x, y, z'
loop_
 _atom_site_type_symbol
 _atom_site_label
 _atom_site_symmetry_multiplicity
 _atom_site_fract_x
 _atom_site_fract_y
 _atom_site_fract_z
 _atom_site_occupancy
  Nd  Nd0  1  0.663023  0.507998  0.578880  1
  Nd  Nd1  1  0.163023  0.492002  0.421120  1
  Nd  Nd2  1  0.336225  0.503975  0.905961  1
  Nd  Nd3  1  0.836225  0.496025  0.094039  1
  Be  Be4  1  0.867412  0.950630  0.382733  1
  Be  Be5  1  0.367412  0.049370  0.617267  1
  Ga  Ga6  1  0.497644  0.000772  0.246857  1
  Ga  Ga7  1  0.997644  0.999228  0.753143  1
  B  B8  1  0.133373  0.938732  0.116706  1
  B  B9  1  0.633373  0.061268  0.883294  1
  O  O10  1  0.577264  0.208642  0.055403  1
  O  O11  1  0.077264  0.791358  0.944597  1
  O  O12  1  0.424204  0.216020  0.429426  1
  O  O13  1  0.924204  0.783980  0.570574  1
  O  O14  1  0.681334  0.782199  0.318066  1
  O  O15  1  0.181334  0.217801  0.681934  1
  O  O16  1  0.308019  0.795133  0.164054  1
  O  O17  1  0.808019  0.204867  0.835946  1
  O  O18  1  0.859812  0.276261  0.386407  1
  O  O19  1  0.359812  0.723739  0.613593  1
  O  O20  1  0.141740  0.234368  0.104067  1
  O  O21  1  0.641740  0.765632  0.895933  1
  O  O22  1  0.509951  0.167725  0.753677  1
  O  O23  1  0.009951  0.832275  0.246323  1
