# generated using pymatgen
data_Dy2Mn6Ni6P7
_symmetry_space_group_name_H-M   'P 1'
_cell_length_a   9.11197100
_cell_length_b   9.11197093
_cell_length_c   3.67470200
_cell_angle_alpha   90.00000000
_cell_angle_beta   90.00000000
_cell_angle_gamma   120.00000387
_symmetry_Int_Tables_number   1
_chemical_formula_structural   Dy2Mn6Ni6P7
_chemical_formula_sum   'Dy2 Mn6 Ni6 P7'
_cell_volume   264.22712244
_cell_formula_units_Z   1
loop_
 _symmetry_equiv_pos_site_id
 _symmetry_equiv_pos_as_xyz
  1  'x, y, z'
loop_
 _atom_site_type_symbol
 _atom_site_label
 _atom_site_symmetry_multiplicity
 _atom_site_fract_x
 _atom_site_fract_y
 _atom_site_fract_z
 _atom_site_occupancy
  Dy  Dy0  1  0.333333  0.666667  0.000000  1
  Dy  Dy1  1  0.000000  0.000000  0.500000  1
  Mn  Mn2  1  0.545230  0.055803  0.000000  1
  Mn  Mn3  1  0.944197  0.489428  0.000000  1
  Mn  Mn4  1  0.510572  0.454770  0.000000  1
  Mn  Mn5  1  0.786934  0.235270  0.500000  1
  Mn  Mn6  1  0.764730  0.551664  0.500000  1
  Mn  Mn7  1  0.448336  0.213066  0.500000  1
  Ni  Ni8  1  0.040043  0.271000  0.000000  1
  Ni  Ni9  1  0.729000  0.769043  0.000000  1
  Ni  Ni10  1  0.230957  0.959957  0.000000  1
  Ni  Ni11  1  0.616081  0.895716  0.500000  1
  Ni  Ni12  1  0.104284  0.720364  0.500000  1
  Ni  Ni13  1  0.279636  0.383919  0.500000  1
  P  P14  1  0.778768  0.038728  0.000000  1
  P  P15  1  0.961272  0.740040  0.000000  1
  P  P16  1  0.259960  0.221232  0.000000  1
  P  P17  1  0.380159  0.931419  0.500000  1
  P  P18  1  0.068581  0.448742  0.500000  1
  P  P19  1  0.551258  0.619841  0.500000  1
  P  P20  1  0.666667  0.333333  0.000000  1
