# generated using pymatgen
data_Dy5Zr3Co9Ni7P12
_symmetry_space_group_name_H-M   'P 1'
_cell_length_a   12.34464700
_cell_length_b   12.34464870
_cell_length_c   3.78951900
_cell_angle_alpha   90.00000000
_cell_angle_beta   90.00000000
_cell_angle_gamma   120.00000348
_symmetry_Int_Tables_number   1
_chemical_formula_structural   Dy5Zr3Co9Ni7P12
_chemical_formula_sum   'Dy5 Zr3 Co9 Ni7 P12'
_cell_volume   500.11757469
_cell_formula_units_Z   1
loop_
 _symmetry_equiv_pos_site_id
 _symmetry_equiv_pos_as_xyz
  1  'x, y, z'
loop_
 _atom_site_type_symbol
 _atom_site_label
 _atom_site_symmetry_multiplicity
 _atom_site_fract_x
 _atom_site_fract_y
 _atom_site_fract_z
 _atom_site_occupancy
  Dy  Dy0  1  0.183133  0.183133  0.500000  1
  Dy  Dy1  1  0.816867  0.000000  0.500000  1
  Dy  Dy2  1  0.000000  0.816867  0.500000  1
  Dy  Dy3  1  0.333333  0.666667  0.000000  1
  Dy  Dy4  1  0.666667  0.333333  0.000000  1
  Zr  Zr5  1  0.560881  0.560881  0.000000  1
  Zr  Zr6  1  0.439119  0.000000  0.000000  1
  Zr  Zr7  1  0.000000  0.439119  0.000000  1
  Co  Co8  1  0.724404  0.724404  0.500000  1
  Co  Co9  1  0.275596  0.000000  0.500000  1
  Co  Co10  1  0.000000  0.275596  0.500000  1
  Co  Co11  1  0.183369  0.377100  0.000000  1
  Co  Co12  1  0.622900  0.806269  0.000000  1
  Co  Co13  1  0.193731  0.816631  0.000000  1
  Co  Co14  1  0.806269  0.622900  0.000000  1
  Co  Co15  1  0.816631  0.193731  0.000000  1
  Co  Co16  1  0.377100  0.183369  0.000000  1
  Ni  Ni17  1  0.358628  0.482980  0.500000  1
  Ni  Ni18  1  0.517020  0.875649  0.500000  1
  Ni  Ni19  1  0.124351  0.641372  0.500000  1
  Ni  Ni20  1  0.875649  0.517020  0.500000  1
  Ni  Ni21  1  0.641372  0.124351  0.500000  1
  Ni  Ni22  1  0.482980  0.358628  0.500000  1
  Ni  Ni23  1  0.000000  0.000000  0.000000  1
  P  P24  1  0.819903  0.819903  0.000000  1
  P  P25  1  0.180097  0.000000  0.000000  1
  P  P26  1  0.000000  0.180097  0.000000  1
  P  P27  1  0.170159  0.472754  0.500000  1
  P  P28  1  0.527246  0.697405  0.500000  1
  P  P29  1  0.302595  0.829841  0.500000  1
  P  P30  1  0.697405  0.527246  0.500000  1
  P  P31  1  0.829841  0.302595  0.500000  1
  P  P32  1  0.472754  0.170159  0.500000  1
  P  P33  1  0.351162  0.351162  0.000000  1
  P  P34  1  0.648838  0.000000  0.000000  1
  P  P35  1  0.000000  0.648838  0.000000  1
