# generated using pymatgen
data_Hf6Ti5Al3Si8Os7
_symmetry_space_group_name_H-M   'P 1'
_cell_length_a   8.63352637
_cell_length_b   8.63352594
_cell_length_c   8.63352504
_cell_angle_alpha   60.17462351
_cell_angle_beta   60.17462401
_cell_angle_gamma   60.17461966
_symmetry_Int_Tables_number   1
_chemical_formula_structural   Hf6Ti5Al3Si8Os7
_chemical_formula_sum   'Hf6 Ti5 Al3 Si8 Os7'
_cell_volume   456.83956578
_cell_formula_units_Z   1
loop_
 _symmetry_equiv_pos_site_id
 _symmetry_equiv_pos_as_xyz
  1  'x, y, z'
loop_
 _atom_site_type_symbol
 _atom_site_label
 _atom_site_symmetry_multiplicity
 _atom_site_fract_x
 _atom_site_fract_y
 _atom_site_fract_z
 _atom_site_occupancy
  Hf  Hf0  1  0.193662  0.807530  0.807530  1
  Hf  Hf1  1  0.810537  0.191605  0.191605  1
  Hf  Hf2  1  0.807530  0.193662  0.807530  1
  Hf  Hf3  1  0.807530  0.807530  0.193662  1
  Hf  Hf4  1  0.191605  0.810537  0.191605  1
  Hf  Hf5  1  0.191605  0.191605  0.810537  1
  Ti  Ti6  1  0.622352  0.622352  0.622352  1
  Ti  Ti7  1  0.624947  0.624947  0.129676  1
  Ti  Ti8  1  0.129676  0.624947  0.624947  1
  Ti  Ti9  1  0.624947  0.129676  0.624947  1
  Ti  Ti10  1  0.374347  0.374347  0.374347  1
  Al  Al11  1  0.380620  0.380620  0.858694  1
  Al  Al12  1  0.380620  0.858694  0.380620  1
  Al  Al13  1  0.858694  0.380620  0.380620  1
  Si  Si14  1  0.845449  0.845449  0.845449  1
  Si  Si15  1  0.844659  0.844659  0.465822  1
  Si  Si16  1  0.465822  0.844659  0.844659  1
  Si  Si17  1  0.844659  0.465822  0.844659  1
  Si  Si18  1  0.158775  0.158775  0.158775  1
  Si  Si19  1  0.155690  0.155690  0.531780  1
  Si  Si20  1  0.155690  0.531780  0.155690  1
  Si  Si21  1  0.531780  0.155690  0.155690  1
  Os  Os22  1  0.495582  0.495582  0.495582  1
  Os  Os23  1  0.000909  0.500860  0.500860  1
  Os  Os24  1  0.499762  0.000416  0.000416  1
  Os  Os25  1  0.500860  0.000909  0.500860  1
  Os  Os26  1  0.500860  0.500860  0.000909  1
  Os  Os27  1  0.000416  0.499762  0.000416  1
  Os  Os28  1  0.000416  0.000416  0.499762  1
