# generated using pymatgen
data_TbSm(Al3Pd)6
_symmetry_space_group_name_H-M   'P 1'
_cell_length_a   10.42763215
_cell_length_b   10.42763241
_cell_length_c   10.42763400
_cell_angle_alpha   42.21794378
_cell_angle_beta   42.21795034
_cell_angle_gamma   42.21794511
_symmetry_Int_Tables_number   1
_chemical_formula_structural   TbSm(Al3Pd)6
_chemical_formula_sum   'Tb1 Sm1 Al18 Pd6'
_cell_volume   463.30480750
_cell_formula_units_Z   1
loop_
 _symmetry_equiv_pos_site_id
 _symmetry_equiv_pos_as_xyz
  1  'x, y, z'
loop_
 _atom_site_type_symbol
 _atom_site_label
 _atom_site_symmetry_multiplicity
 _atom_site_fract_x
 _atom_site_fract_y
 _atom_site_fract_z
 _atom_site_occupancy
  Tb  Tb0  1  0.166858  0.166858  0.166858  1
  Sm  Sm1  1  0.833155  0.833155  0.833155  1
  Al  Al2  1  0.108169  0.433968  0.762502  1
  Al  Al3  1  0.433968  0.762502  0.108169  1
  Al  Al4  1  0.564531  0.892613  0.238208  1
  Al  Al5  1  0.950080  0.950080  0.950080  1
  Al  Al6  1  0.050041  0.050041  0.050041  1
  Al  Al7  1  0.297156  0.704305  0.498560  1
  Al  Al8  1  0.892613  0.238208  0.564531  1
  Al  Al9  1  0.384633  0.384633  0.384633  1
  Al  Al10  1  0.498560  0.297156  0.704305  1
  Al  Al11  1  0.238208  0.564531  0.892613  1
  Al  Al12  1  0.716274  0.716274  0.716274  1
  Al  Al13  1  0.615328  0.615328  0.615328  1
  Al  Al14  1  0.334353  0.000038  0.665602  1
  Al  Al15  1  0.704305  0.498560  0.297156  1
  Al  Al16  1  0.665602  0.334353  0.000038  1
  Al  Al17  1  0.283640  0.283640  0.283640  1
  Al  Al18  1  0.000038  0.665602  0.334353  1
  Al  Al19  1  0.762502  0.108169  0.433968  1
  Pd  Pd20  1  0.418054  0.077553  0.759740  1
  Pd  Pd21  1  0.581118  0.240578  0.922947  1
  Pd  Pd22  1  0.077553  0.759740  0.418054  1
  Pd  Pd23  1  0.759740  0.418054  0.077553  1
  Pd  Pd24  1  0.922947  0.581118  0.240578  1
  Pd  Pd25  1  0.240578  0.922947  0.581118  1
