# generated using pymatgen
data_Sm7Y(Si4Mo3)4
_symmetry_space_group_name_H-M   'P 1'
_cell_length_a   6.85988239
_cell_length_b   7.02457391
_cell_length_c   13.02848787
_cell_angle_alpha   89.93323246
_cell_angle_beta   89.98613043
_cell_angle_gamma   89.92848640
_symmetry_Int_Tables_number   1
_chemical_formula_structural   Sm7Y(Si4Mo3)4
_chemical_formula_sum   'Sm7 Y1 Si16 Mo12'
_cell_volume   627.81259369
_cell_formula_units_Z   1
loop_
 _symmetry_equiv_pos_site_id
 _symmetry_equiv_pos_as_xyz
  1  'x, y, z'
loop_
 _atom_site_type_symbol
 _atom_site_label
 _atom_site_symmetry_multiplicity
 _atom_site_fract_x
 _atom_site_fract_y
 _atom_site_fract_z
 _atom_site_occupancy
  Sm  Sm0  1  0.497198  0.334684  0.094194  1
  Sm  Sm1  1  0.997504  0.165205  0.405893  1
  Sm  Sm2  1  0.502935  0.665226  0.594283  1
  Sm  Sm3  1  0.001940  0.834012  0.906282  1
  Sm  Sm4  1  0.502474  0.665743  0.906408  1
  Sm  Sm5  1  0.002411  0.834707  0.594288  1
  Sm  Sm6  1  0.497149  0.334659  0.405001  1
  Y  Y7  1  0.996963  0.166271  0.094672  1
  Si  Si8  1  0.655776  0.045230  0.548707  1
  Si  Si9  1  0.156122  0.454398  0.952175  1
  Si  Si10  1  0.341646  0.956583  0.048895  1
  Si  Si11  1  0.843797  0.544813  0.451103  1
  Si  Si12  1  0.344448  0.954638  0.450703  1
  Si  Si13  1  0.844391  0.542429  0.048891  1
  Si  Si14  1  0.656709  0.044843  0.952336  1
  Si  Si15  1  0.156251  0.455515  0.548596  1
  Si  Si16  1  0.535797  0.360791  0.750565  1
  Si  Si17  1  0.036137  0.138476  0.750267  1
  Si  Si18  1  0.464515  0.639862  0.249453  1
  Si  Si19  1  0.964586  0.862861  0.248975  1
  Si  Si20  1  0.805239  0.622142  0.750498  1
  Si  Si21  1  0.304921  0.876466  0.750328  1
  Si  Si22  1  0.193593  0.375853  0.249181  1
  Si  Si23  1  0.696513  0.123912  0.249102  1
  Mo  Mo24  1  0.831862  0.334529  0.626405  1
  Mo  Mo25  1  0.330511  0.164308  0.874528  1
  Mo  Mo26  1  0.168164  0.665381  0.125925  1
  Mo  Mo27  1  0.669847  0.835762  0.373252  1
  Mo  Mo28  1  0.167936  0.665419  0.373013  1
  Mo  Mo29  1  0.669627  0.836198  0.125496  1
  Mo  Mo30  1  0.832224  0.333638  0.874586  1
  Mo  Mo31  1  0.331074  0.164578  0.626202  1
  Mo  Mo32  1  0.664967  0.002903  0.750505  1
  Mo  Mo33  1  0.165185  0.496907  0.750376  1
  Mo  Mo34  1  0.334579  0.998365  0.249329  1
  Mo  Mo35  1  0.835007  0.502691  0.249591  1
