# generated using pymatgen
data_Eu3Lu(Mo2O7)2
_symmetry_space_group_name_H-M   'P 1'
_cell_length_a   7.37931900
_cell_length_b   7.49235501
_cell_length_c   7.37931900
_cell_angle_alpha   60.49783086
_cell_angle_beta   60.00000446
_cell_angle_gamma   60.49782940
_symmetry_Int_Tables_number   1
_chemical_formula_structural   Eu3Lu(Mo2O7)2
_chemical_formula_sum   'Eu3 Lu1 Mo4 O14'
_cell_volume   290.64523697
_cell_formula_units_Z   1
loop_
 _symmetry_equiv_pos_site_id
 _symmetry_equiv_pos_as_xyz
  1  'x, y, z'
loop_
 _atom_site_type_symbol
 _atom_site_label
 _atom_site_symmetry_multiplicity
 _atom_site_fract_x
 _atom_site_fract_y
 _atom_site_fract_z
 _atom_site_occupancy
  Eu  Eu0  1  0.625000  0.125000  0.125000  1
  Eu  Eu1  1  0.125000  0.125000  0.625000  1
  Eu  Eu2  1  0.125000  0.125000  0.125000  1
  Lu  Lu3  1  0.125000  0.625000  0.125000  1
  Mo  Mo4  1  0.125000  0.625000  0.625000  1
  Mo  Mo5  1  0.625000  0.125000  0.625000  1
  Mo  Mo6  1  0.625000  0.625000  0.125000  1
  Mo  Mo7  1  0.625000  0.625000  0.625000  1
  O  O8  1  0.242689  0.271934  0.242689  1
  O  O9  1  0.007311  0.978066  0.007311  1
  O  O10  1  0.709667  0.710253  0.290040  1
  O  O11  1  0.300129  0.292078  0.703897  1
  O  O12  1  0.703897  0.292078  0.703897  1
  O  O13  1  0.290040  0.710253  0.290040  1
  O  O14  1  0.290040  0.710253  0.709667  1
  O  O15  1  0.703897  0.292078  0.300129  1
  O  O16  1  0.540333  0.539747  0.959960  1
  O  O17  1  0.949871  0.957922  0.546103  1
  O  O18  1  0.546103  0.957922  0.546103  1
  O  O19  1  0.959960  0.539747  0.959960  1
  O  O20  1  0.959960  0.539747  0.540333  1
  O  O21  1  0.546103  0.957922  0.949871  1
