# generated using pymatgen
data_Y8Be4Si11B
_symmetry_space_group_name_H-M   'P 1'
_cell_length_a   7.73232900
_cell_length_b   7.75984930
_cell_length_c   8.15442800
_cell_angle_alpha   89.99957007
_cell_angle_beta   90.00000000
_cell_angle_gamma   119.88275619
_symmetry_Int_Tables_number   1
_chemical_formula_structural   Y8Be4Si11B
_chemical_formula_sum   'Y8 Be4 Si11 B1'
_cell_volume   424.22828486
_cell_formula_units_Z   1
loop_
 _symmetry_equiv_pos_site_id
 _symmetry_equiv_pos_as_xyz
  1  'x, y, z'
loop_
 _atom_site_type_symbol
 _atom_site_label
 _atom_site_symmetry_multiplicity
 _atom_site_fract_x
 _atom_site_fract_y
 _atom_site_fract_z
 _atom_site_occupancy
  Y  Y0  1  0.001231  0.002461  0.248591  1
  Y  Y1  1  0.001225  0.002449  0.751404  1
  Y  Y2  1  0.003319  0.499362  0.247844  1
  Y  Y3  1  0.496044  0.499362  0.247844  1
  Y  Y4  1  0.501177  0.002356  0.752565  1
  Y  Y5  1  0.501161  0.002322  0.247482  1
  Y  Y6  1  0.496086  0.499330  0.752140  1
  Y  Y7  1  0.003243  0.499330  0.752140  1
  Be  Be8  1  0.319270  0.638540  0.999778  1
  Be  Be9  1  0.333688  0.667376  0.500249  1
  Be  Be10  1  0.664694  0.329388  0.000278  1
  Be  Be11  1  0.667202  0.334403  0.499722  1
  Si  Si12  1  0.653136  0.830038  0.000039  1
  Si  Si13  1  0.172977  0.345953  0.499974  1
  Si  Si14  1  0.331422  0.184903  0.999988  1
  Si  Si15  1  0.176902  0.830038  0.000039  1
  Si  Si16  1  0.654519  0.827200  0.499991  1
  Si  Si17  1  0.827180  0.654361  0.999952  1
  Si  Si18  1  0.345504  0.172468  0.500025  1
  Si  Si19  1  0.172681  0.827200  0.499991  1
  Si  Si20  1  0.826970  0.653940  0.500013  1
  Si  Si21  1  0.853481  0.184903  0.999988  1
  Si  Si22  1  0.826963  0.172468  0.500025  1
  B  B23  1  0.169925  0.339849  0.999937  1
