# generated using pymatgen
data_Dy3Fe7B2
_symmetry_space_group_name_H-M   'P 1'
_cell_length_a   5.12678200
_cell_length_b   5.12678161
_cell_length_c   14.55233700
_cell_angle_alpha   90.00000000
_cell_angle_beta   90.00000000
_cell_angle_gamma   120.00000252
_symmetry_Int_Tables_number   1
_chemical_formula_structural   Dy3Fe7B2
_chemical_formula_sum   'Dy6 Fe14 B4'
_cell_volume   331.24782298
_cell_formula_units_Z   2
loop_
 _symmetry_equiv_pos_site_id
 _symmetry_equiv_pos_as_xyz
  1  'x, y, z'
loop_
 _atom_site_type_symbol
 _atom_site_label
 _atom_site_symmetry_multiplicity
 _atom_site_fract_x
 _atom_site_fract_y
 _atom_site_fract_z
 _atom_site_occupancy
  Dy  Dy0  1  0.333333  0.666667  0.465791  1
  Dy  Dy1  1  0.666667  0.333333  0.965791  1
  Dy  Dy2  1  0.666667  0.333333  0.534209  1
  Dy  Dy3  1  0.333333  0.666667  0.034209  1
  Dy  Dy4  1  0.666667  0.333333  0.750000  1
  Dy  Dy5  1  0.333333  0.666667  0.250000  1
  Fe  Fe6  1  0.834452  0.668905  0.353307  1
  Fe  Fe7  1  0.331095  0.165548  0.353307  1
  Fe  Fe8  1  0.000000  0.000000  0.000000  1
  Fe  Fe9  1  0.000000  0.000000  0.500000  1
  Fe  Fe10  1  0.834452  0.165548  0.146693  1
  Fe  Fe11  1  0.668905  0.834452  0.646693  1
  Fe  Fe12  1  0.165548  0.331095  0.646693  1
  Fe  Fe13  1  0.834452  0.668905  0.146693  1
  Fe  Fe14  1  0.331095  0.165548  0.146693  1
  Fe  Fe15  1  0.668905  0.834452  0.853307  1
  Fe  Fe16  1  0.165548  0.331095  0.853307  1
  Fe  Fe17  1  0.165548  0.834452  0.646693  1
  Fe  Fe18  1  0.165548  0.834452  0.853307  1
  Fe  Fe19  1  0.834452  0.165548  0.353307  1
  B  B20  1  0.666667  0.333333  0.250000  1
  B  B21  1  0.333333  0.666667  0.750000  1
  B  B22  1  0.000000  0.000000  0.750000  1
  B  B23  1  0.000000  0.000000  0.250000  1
