# generated using pymatgen
data_HoTa3Nb2(B2Ru5)2
_symmetry_space_group_name_H-M   'P 1'
_cell_length_a   9.51372911
_cell_length_b   9.51372849
_cell_length_c   3.05044300
_cell_angle_alpha   90.00000000
_cell_angle_beta   90.00000000
_cell_angle_gamma   90.14937475
_symmetry_Int_Tables_number   1
_chemical_formula_structural   HoTa3Nb2(B2Ru5)2
_chemical_formula_sum   'Ho1 Ta3 Nb2 B4 Ru10'
_cell_volume   276.09781704
_cell_formula_units_Z   1
loop_
 _symmetry_equiv_pos_site_id
 _symmetry_equiv_pos_as_xyz
  1  'x, y, z'
loop_
 _atom_site_type_symbol
 _atom_site_label
 _atom_site_symmetry_multiplicity
 _atom_site_fract_x
 _atom_site_fract_y
 _atom_site_fract_z
 _atom_site_occupancy
  Ho  Ho0  1  0.824525  0.675475  0.000000  1
  Ta  Ta1  1  0.178213  0.321787  0.000000  1
  Ta  Ta2  1  0.501004  0.500714  0.000000  1
  Ta  Ta3  1  0.999286  0.998996  0.000000  1
  Nb  Nb4  1  0.324171  0.823643  0.000000  1
  Nb  Nb5  1  0.676357  0.175829  0.000000  1
  B  B6  1  0.618871  0.881129  0.000000  1
  B  B7  1  0.377484  0.122516  0.000000  1
  B  B8  1  0.122988  0.620248  0.000000  1
  B  B9  1  0.879752  0.377012  0.000000  1
  Ru  Ru10  1  0.559645  0.723802  0.500000  1
  Ru  Ru11  1  0.426064  0.283461  0.500000  1
  Ru  Ru12  1  0.080719  0.782589  0.500000  1
  Ru  Ru13  1  0.931565  0.216263  0.500000  1
  Ru  Ru14  1  0.283737  0.568435  0.500000  1
  Ru  Ru15  1  0.717411  0.419281  0.500000  1
  Ru  Ru16  1  0.216539  0.073936  0.500000  1
  Ru  Ru17  1  0.776198  0.940355  0.500000  1
  Ru  Ru18  1  0.496315  0.003685  0.500000  1
  Ru  Ru19  1  0.009154  0.490846  0.500000  1
