# generated using pymatgen
data_Ba6Ca2USbSe12
_symmetry_space_group_name_H-M   'P 1'
_cell_length_a   8.90071754
_cell_length_b   8.90071661
_cell_length_c   8.90071759
_cell_angle_alpha   91.92688633
_cell_angle_beta   91.92688333
_cell_angle_gamma   91.92688960
_symmetry_Int_Tables_number   1
_chemical_formula_structural   Ba6Ca2USbSe12
_chemical_formula_sum   'Ba6 Ca2 U1 Sb1 Se12'
_cell_volume   703.91575556
_cell_formula_units_Z   1
loop_
 _symmetry_equiv_pos_site_id
 _symmetry_equiv_pos_as_xyz
  1  'x, y, z'
loop_
 _atom_site_type_symbol
 _atom_site_label
 _atom_site_symmetry_multiplicity
 _atom_site_fract_x
 _atom_site_fract_y
 _atom_site_fract_z
 _atom_site_occupancy
  Ba  Ba0  1  0.865540  0.624177  0.256845  1
  Ba  Ba1  1  0.256845  0.865540  0.624177  1
  Ba  Ba2  1  0.624177  0.256845  0.865540  1
  Ba  Ba3  1  0.743155  0.134460  0.375823  1
  Ba  Ba4  1  0.375823  0.743155  0.134460  1
  Ba  Ba5  1  0.134460  0.375823  0.743155  1
  Ca  Ca6  1  0.256493  0.256493  0.256493  1
  Ca  Ca7  1  0.743507  0.743507  0.743507  1
  U  U8  1  0.000000  0.000000  0.000000  1
  Sb  Sb9  1  0.500000  0.500000  0.500000  1
  Se  Se10  1  0.193401  0.547438  0.408712  1
  Se  Se11  1  0.408712  0.193401  0.547438  1
  Se  Se12  1  0.547438  0.408712  0.193401  1
  Se  Se13  1  0.918640  0.044577  0.703565  1
  Se  Se14  1  0.703565  0.918640  0.044577  1
  Se  Se15  1  0.044577  0.703565  0.918640  1
  Se  Se16  1  0.806599  0.452562  0.591288  1
  Se  Se17  1  0.591288  0.806599  0.452562  1
  Se  Se18  1  0.452562  0.591288  0.806599  1
  Se  Se19  1  0.081360  0.955423  0.296435  1
  Se  Se20  1  0.296435  0.081360  0.955423  1
  Se  Se21  1  0.955423  0.296435  0.081360  1
