# generated using pymatgen
data_Pr8Be4Si11Pt
_symmetry_space_group_name_H-M   'P 1'
_cell_length_a   8.00720901
_cell_length_b   8.00720930
_cell_length_c   8.68173700
_cell_angle_alpha   90.00285505
_cell_angle_beta   89.99714495
_cell_angle_gamma   119.98119939
_symmetry_Int_Tables_number   1
_chemical_formula_structural   Pr8Be4Si11Pt
_chemical_formula_sum   'Pr8 Be4 Si11 Pt1'
_cell_volume   482.14963965
_cell_formula_units_Z   1
loop_
 _symmetry_equiv_pos_site_id
 _symmetry_equiv_pos_as_xyz
  1  'x, y, z'
loop_
 _atom_site_type_symbol
 _atom_site_label
 _atom_site_symmetry_multiplicity
 _atom_site_fract_x
 _atom_site_fract_y
 _atom_site_fract_z
 _atom_site_occupancy
  Pr  Pr0  1  0.499155  0.500845  0.750892  1
  Pr  Pr1  1  0.499315  0.500685  0.249121  1
  Pr  Pr2  1  0.999861  0.500256  0.749606  1
  Pr  Pr3  1  0.999637  0.500111  0.250343  1
  Pr  Pr4  1  0.499744  0.000139  0.749606  1
  Pr  Pr5  1  0.499889  0.000363  0.250343  1
  Pr  Pr6  1  0.000531  0.999469  0.748000  1
  Pr  Pr7  1  0.000576  0.999424  0.252075  1
  Be  Be8  1  0.667201  0.332799  0.998441  1
  Be  Be9  1  0.336566  0.663434  0.001434  1
  Be  Be10  1  0.334068  0.665932  0.498369  1
  Be  Be11  1  0.666754  0.333246  0.501703  1
  Si  Si12  1  0.172021  0.827979  0.999958  1
  Si  Si13  1  0.345474  0.176546  0.000056  1
  Si  Si14  1  0.172229  0.827771  0.500118  1
  Si  Si15  1  0.657330  0.831040  0.999994  1
  Si  Si16  1  0.827931  0.172069  0.499811  1
  Si  Si17  1  0.823454  0.654526  0.000056  1
  Si  Si18  1  0.655738  0.827728  0.500164  1
  Si  Si19  1  0.168960  0.342670  0.999994  1
  Si  Si20  1  0.344565  0.173029  0.499841  1
  Si  Si21  1  0.172272  0.344262  0.500164  1
  Si  Si22  1  0.826971  0.655435  0.499841  1
  Pt  Pt23  1  0.829757  0.170243  0.000068  1
