# generated using pymatgen
data_Ca12Dy8Si15Hg
_symmetry_space_group_name_H-M   'P 1'
_cell_length_a   7.49048039
_cell_length_b   7.81824005
_cell_length_c   15.28281115
_cell_angle_alpha   90.42566915
_cell_angle_beta   89.23115005
_cell_angle_gamma   90.28622967
_symmetry_Int_Tables_number   1
_chemical_formula_structural   Ca12Dy8Si15Hg
_chemical_formula_sum   'Ca12 Dy8 Si15 Hg1'
_cell_volume   894.88169460
_cell_formula_units_Z   1
loop_
 _symmetry_equiv_pos_site_id
 _symmetry_equiv_pos_as_xyz
  1  'x, y, z'
loop_
 _atom_site_type_symbol
 _atom_site_label
 _atom_site_symmetry_multiplicity
 _atom_site_fract_x
 _atom_site_fract_y
 _atom_site_fract_z
 _atom_site_occupancy
  Ca  Ca0  1  0.649580  0.980109  0.251070  1
  Ca  Ca1  1  0.152733  0.518054  0.250743  1
  Ca  Ca2  1  0.848979  0.485048  0.747028  1
  Ca  Ca3  1  0.347927  0.019190  0.747044  1
  Ca  Ca4  1  0.983393  0.821205  0.099663  1
  Ca  Ca5  1  0.472543  0.682734  0.404334  1
  Ca  Ca6  1  0.509288  0.317533  0.903024  1
  Ca  Ca7  1  0.026772  0.182943  0.594916  1
  Ca  Ca8  1  0.028088  0.176055  0.904000  1
  Ca  Ca9  1  0.527706  0.318129  0.595208  1
  Ca  Ca10  1  0.476017  0.677790  0.095945  1
  Ca  Ca11  1  0.972539  0.816568  0.404252  1
  Dy  Dy12  1  0.672956  0.830519  0.871746  1
  Dy  Dy13  1  0.183607  0.678188  0.620089  1
  Dy  Dy14  1  0.823284  0.318139  0.127024  1
  Dy  Dy15  1  0.317593  0.176230  0.379810  1
  Dy  Dy16  1  0.322936  0.178293  0.123325  1
  Dy  Dy17  1  0.816805  0.323091  0.379829  1
  Dy  Dy18  1  0.186955  0.676621  0.879064  1
  Dy  Dy19  1  0.684075  0.824518  0.619949  1
  Si  Si20  1  0.756814  0.604016  0.252192  1
  Si  Si21  1  0.256770  0.894687  0.251406  1
  Si  Si22  1  0.745000  0.108849  0.748279  1
  Si  Si23  1  0.241551  0.395500  0.748177  1
  Si  Si24  1  0.028535  0.115423  0.250926  1
  Si  Si25  1  0.529065  0.381832  0.253534  1
  Si  Si26  1  0.470517  0.617996  0.746676  1
  Si  Si27  1  0.973177  0.883330  0.748827  1
  Si  Si28  1  0.359708  0.965235  0.537522  1
  Si  Si29  1  0.648915  0.032144  0.034966  1
  Si  Si30  1  0.140480  0.465165  0.461672  1
  Si  Si31  1  0.152301  0.460807  0.040014  1
  Si  Si32  1  0.640800  0.035236  0.461964  1
  Si  Si33  1  0.358757  0.965324  0.964341  1
  Si  Si34  1  0.860338  0.535284  0.537857  1
  Hg  Hg35  1  0.833495  0.538211  0.963583  1
