# generated using pymatgen
data_Dy3(GeRu)2
_symmetry_space_group_name_H-M   'P 1'
_cell_length_a   5.55596100
_cell_length_b   7.74512000
_cell_length_c   13.55063200
_cell_angle_alpha   90.00000000
_cell_angle_beta   90.00000000
_cell_angle_gamma   90.00000000
_symmetry_Int_Tables_number   1
_chemical_formula_structural   Dy3(GeRu)2
_chemical_formula_sum   'Dy12 Ge8 Ru8'
_cell_volume   583.10516811
_cell_formula_units_Z   4
loop_
 _symmetry_equiv_pos_site_id
 _symmetry_equiv_pos_as_xyz
  1  'x, y, z'
loop_
 _atom_site_type_symbol
 _atom_site_label
 _atom_site_symmetry_multiplicity
 _atom_site_fract_x
 _atom_site_fract_y
 _atom_site_fract_z
 _atom_site_occupancy
  Dy  Dy0  1  0.150621  0.401971  0.599428  1
  Dy  Dy1  1  0.849379  0.598029  0.099428  1
  Dy  Dy2  1  0.150621  0.098029  0.400572  1
  Dy  Dy3  1  0.849379  0.901971  0.900572  1
  Dy  Dy4  1  0.849379  0.598029  0.400572  1
  Dy  Dy5  1  0.150621  0.401971  0.900572  1
  Dy  Dy6  1  0.849379  0.901971  0.599428  1
  Dy  Dy7  1  0.150621  0.098029  0.099428  1
  Dy  Dy8  1  0.629092  0.265720  0.750000  1
  Dy  Dy9  1  0.370908  0.734280  0.250000  1
  Dy  Dy10  1  0.629092  0.234280  0.250000  1
  Dy  Dy11  1  0.370908  0.765720  0.750000  1
  Ge  Ge12  1  0.125913  0.113960  0.750000  1
  Ge  Ge13  1  0.874087  0.886040  0.250000  1
  Ge  Ge14  1  0.125913  0.386040  0.250000  1
  Ge  Ge15  1  0.874087  0.613960  0.750000  1
  Ge  Ge16  1  0.624324  0.250000  0.500000  1
  Ge  Ge17  1  0.375676  0.750000  0.000000  1
  Ge  Ge18  1  0.375676  0.750000  0.500000  1
  Ge  Ge19  1  0.624324  0.250000  0.000000  1
  Ru  Ru20  1  0.351739  0.032977  0.591459  1
  Ru  Ru21  1  0.648261  0.967023  0.091459  1
  Ru  Ru22  1  0.351739  0.467023  0.408541  1
  Ru  Ru23  1  0.648261  0.532977  0.908541  1
  Ru  Ru24  1  0.648261  0.967023  0.408541  1
  Ru  Ru25  1  0.351739  0.032977  0.908541  1
  Ru  Ru26  1  0.648261  0.532977  0.591459  1
  Ru  Ru27  1  0.351739  0.467023  0.091459  1
