# generated using pymatgen
data_TbY15CdIn3Ni4
_symmetry_space_group_name_H-M   'P 1'
_cell_length_a   9.62868036
_cell_length_b   9.64197177
_cell_length_c   9.64137199
_cell_angle_alpha   59.97538871
_cell_angle_beta   59.95047477
_cell_angle_gamma   59.95395333
_symmetry_Int_Tables_number   1
_chemical_formula_structural   TbY15CdIn3Ni4
_chemical_formula_sum   'Tb1 Y15 Cd1 In3 Ni4'
_cell_volume   632.35604866
_cell_formula_units_Z   1
loop_
 _symmetry_equiv_pos_site_id
 _symmetry_equiv_pos_as_xyz
  1  'x, y, z'
loop_
 _atom_site_type_symbol
 _atom_site_label
 _atom_site_symmetry_multiplicity
 _atom_site_fract_x
 _atom_site_fract_y
 _atom_site_fract_z
 _atom_site_occupancy
  Tb  Tb0  1  0.595430  0.596248  0.596261  1
  Y  Y1  1  0.599042  0.598782  0.202912  1
  Y  Y2  1  0.599007  0.202933  0.598723  1
  Y  Y3  1  0.201759  0.598693  0.598665  1
  Y  Y4  1  0.060659  0.440209  0.440259  1
  Y  Y5  1  0.440242  0.061396  0.061404  1
  Y  Y6  1  0.439383  0.061767  0.438848  1
  Y  Y7  1  0.060725  0.441202  0.060128  1
  Y  Y8  1  0.439394  0.438803  0.061827  1
  Y  Y9  1  0.060679  0.060076  0.441251  1
  Y  Y10  1  0.188876  0.814122  0.814159  1
  Y  Y11  1  0.813473  0.187038  0.186959  1
  Y  Y12  1  0.813971  0.187056  0.812791  1
  Y  Y13  1  0.189283  0.812113  0.187010  1
  Y  Y14  1  0.813979  0.812785  0.187041  1
  Y  Y15  1  0.189332  0.187110  0.812027  1
  Cd  Cd16  1  0.504779  0.830966  0.830989  1
  In  In17  1  0.832080  0.833521  0.833541  1
  In  In18  1  0.829927  0.832980  0.503521  1
  In  In19  1  0.829921  0.503589  0.832970  1
  Ni  Ni20  1  0.392459  0.392815  0.392872  1
  Ni  Ni21  1  0.391137  0.391174  0.823380  1
  Ni  Ni22  1  0.391146  0.823321  0.391180  1
  Ni  Ni23  1  0.823320  0.391302  0.391280  1
