# generated using pymatgen
data_Ho4Hf2Pb5
_symmetry_space_group_name_H-M   'P 1'
_cell_length_a   6.26871151
_cell_length_b   9.39493031
_cell_length_c   11.52195016
_cell_angle_alpha   114.06025230
_cell_angle_beta   105.78530043
_cell_angle_gamma   90.00000024
_symmetry_Int_Tables_number   1
_chemical_formula_structural   Ho4Hf2Pb5
_chemical_formula_sum   'Ho8 Hf4 Pb10'
_cell_volume   591.48267632
_cell_formula_units_Z   2
loop_
 _symmetry_equiv_pos_site_id
 _symmetry_equiv_pos_as_xyz
  1  'x, y, z'
loop_
 _atom_site_type_symbol
 _atom_site_label
 _atom_site_symmetry_multiplicity
 _atom_site_fract_x
 _atom_site_fract_y
 _atom_site_fract_z
 _atom_site_occupancy
  Ho  Ho0  1  0.439438  0.670700  0.878876  1
  Ho  Ho1  1  0.560562  0.329300  0.121124  1
  Ho  Ho2  1  0.939438  0.208176  0.878876  1
  Ho  Ho3  1  0.060562  0.791824  0.121124  1
  Ho  Ho4  1  0.146669  0.257783  0.293337  1
  Ho  Ho5  1  0.853331  0.742217  0.706663  1
  Ho  Ho6  1  0.646669  0.035555  0.293337  1
  Ho  Ho7  1  0.353331  0.964445  0.706663  1
  Hf  Hf8  1  0.555197  0.305197  0.610394  1
  Hf  Hf9  1  0.444803  0.694803  0.389606  1
  Hf  Hf10  1  0.944803  0.694803  0.389606  1
  Hf  Hf11  1  0.055197  0.305197  0.610394  1
  Pb  Pb12  1  0.290247  0.589985  0.580495  1
  Pb  Pb13  1  0.709753  0.410015  0.419505  1
  Pb  Pb14  1  0.790247  0.990510  0.580495  1
  Pb  Pb15  1  0.209753  0.009490  0.419505  1
  Pb  Pb16  1  0.250000  0.000000  0.000000  1
  Pb  Pb17  1  0.750000  0.000000  0.000000  1
  Pb  Pb18  1  0.077417  0.474615  0.154835  1
  Pb  Pb19  1  0.922583  0.525385  0.845165  1
  Pb  Pb20  1  0.577417  0.680220  0.154835  1
  Pb  Pb21  1  0.422583  0.319780  0.845165  1
