# generated using pymatgen
data_LiPrSm2(Co4P3)2
_symmetry_space_group_name_H-M   'P 1'
_cell_length_a   3.76888400
_cell_length_b   10.68304600
_cell_length_c   12.35224400
_cell_angle_alpha   90.00000000
_cell_angle_beta   90.00000000
_cell_angle_gamma   90.00000000
_symmetry_Int_Tables_number   1
_chemical_formula_structural   LiPrSm2(Co4P3)2
_chemical_formula_sum   'Li2 Pr2 Sm4 Co16 P12'
_cell_volume   497.34039062
_cell_formula_units_Z   2
loop_
 _symmetry_equiv_pos_site_id
 _symmetry_equiv_pos_as_xyz
  1  'x, y, z'
loop_
 _atom_site_type_symbol
 _atom_site_label
 _atom_site_symmetry_multiplicity
 _atom_site_fract_x
 _atom_site_fract_y
 _atom_site_fract_z
 _atom_site_occupancy
  Li  Li0  1  0.500000  0.500000  0.150848  1
  Li  Li1  1  0.000000  0.000000  0.849152  1
  Pr  Pr2  1  0.000000  0.500000  0.523303  1
  Pr  Pr3  1  0.500000  0.000000  0.476697  1
  Sm  Sm4  1  0.500000  0.818745  0.205584  1
  Sm  Sm5  1  0.500000  0.181255  0.205584  1
  Sm  Sm6  1  0.000000  0.681255  0.794416  1
  Sm  Sm7  1  0.000000  0.318745  0.794416  1
  Co  Co8  1  0.500000  0.500000  0.706914  1
  Co  Co9  1  0.000000  0.000000  0.293086  1
  Co  Co10  1  0.000000  0.500000  0.987542  1
  Co  Co11  1  0.500000  0.000000  0.012458  1
  Co  Co12  1  0.500000  0.332958  0.997203  1
  Co  Co13  1  0.500000  0.667042  0.997203  1
  Co  Co14  1  0.000000  0.167042  0.002797  1
  Co  Co15  1  0.000000  0.832958  0.002797  1
  Co  Co16  1  0.500000  0.296621  0.430215  1
  Co  Co17  1  0.500000  0.703379  0.430215  1
  Co  Co18  1  0.000000  0.203379  0.569785  1
  Co  Co19  1  0.000000  0.796621  0.569785  1
  Co  Co20  1  0.500000  0.879900  0.708020  1
  Co  Co21  1  0.500000  0.120100  0.708020  1
  Co  Co22  1  0.000000  0.620100  0.291980  1
  Co  Co23  1  0.000000  0.379900  0.291980  1
  P  P24  1  0.500000  0.500000  0.887323  1
  P  P25  1  0.000000  0.000000  0.112677  1
  P  P26  1  0.500000  0.500000  0.341332  1
  P  P27  1  0.000000  0.000000  0.658668  1
  P  P28  1  0.500000  0.304655  0.615303  1
  P  P29  1  0.500000  0.695345  0.615303  1
  P  P30  1  0.000000  0.195345  0.384697  1
  P  P31  1  0.000000  0.804655  0.384697  1
  P  P32  1  0.500000  0.844178  0.896101  1
  P  P33  1  0.500000  0.155822  0.896101  1
  P  P34  1  0.000000  0.655822  0.103899  1
  P  P35  1  0.000000  0.344178  0.103899  1
