# generated using pymatgen
data_Th6Ti3Al21Tc8
_symmetry_space_group_name_H-M   'P 1'
_cell_length_a   8.87673913
_cell_length_b   8.87673703
_cell_length_c   9.66912300
_cell_angle_alpha   90.00977226
_cell_angle_beta   89.99022128
_cell_angle_gamma   119.98773052
_symmetry_Int_Tables_number   1
_chemical_formula_structural   Th6Ti3Al21Tc8
_chemical_formula_sum   'Th6 Ti3 Al21 Tc8'
_cell_volume   659.90010912
_cell_formula_units_Z   1
loop_
 _symmetry_equiv_pos_site_id
 _symmetry_equiv_pos_as_xyz
  1  'x, y, z'
loop_
 _atom_site_type_symbol
 _atom_site_label
 _atom_site_symmetry_multiplicity
 _atom_site_fract_x
 _atom_site_fract_y
 _atom_site_fract_z
 _atom_site_occupancy
  Th  Th0  1  0.805463  0.194537  0.750638  1
  Th  Th1  1  0.195002  0.804998  0.250868  1
  Th  Th2  1  0.389200  0.194677  0.750506  1
  Th  Th3  1  0.609805  0.804845  0.250937  1
  Th  Th4  1  0.805323  0.610800  0.750506  1
  Th  Th5  1  0.195155  0.390195  0.250937  1
  Ti  Ti6  1  0.666654  0.333346  0.011460  1
  Ti  Ti7  1  0.333330  0.666670  0.987628  1
  Ti  Ti8  1  0.333261  0.666739  0.504835  1
  Al  Al9  1  0.666631  0.333369  0.506984  1
  Al  Al10  1  0.838586  0.161414  0.422080  1
  Al  Al11  1  0.159056  0.840944  0.576818  1
  Al  Al12  1  0.322761  0.161376  0.422020  1
  Al  Al13  1  0.159185  0.840815  0.923294  1
  Al  Al14  1  0.681861  0.840902  0.576940  1
  Al  Al15  1  0.840877  0.159123  0.077392  1
  Al  Al16  1  0.838624  0.677239  0.422020  1
  Al  Al17  1  0.681644  0.840830  0.923281  1
  Al  Al18  1  0.159098  0.318139  0.576940  1
  Al  Al19  1  0.318237  0.159117  0.077386  1
  Al  Al20  1  0.159170  0.318356  0.923281  1
  Al  Al21  1  0.840883  0.681763  0.077386  1
  Al  Al22  1  0.436555  0.563445  0.748320  1
  Al  Al23  1  0.564073  0.435927  0.250640  1
  Al  Al24  1  0.126932  0.563425  0.748396  1
  Al  Al25  1  0.871840  0.435952  0.250661  1
  Al  Al26  1  0.436575  0.873068  0.748396  1
  Al  Al27  1  0.564048  0.128160  0.250661  1
  Al  Al28  1  0.000024  0.999976  0.748430  1
  Al  Al29  1  0.999966  0.000034  0.248842  1
  Tc  Tc30  1  0.499539  0.500461  0.999572  1
  Tc  Tc31  1  0.000986  0.500513  0.999581  1
  Tc  Tc32  1  0.498720  0.501280  0.498545  1
  Tc  Tc33  1  0.499487  0.999014  0.999581  1
  Tc  Tc34  1  0.002964  0.501493  0.498592  1
  Tc  Tc35  1  0.498507  0.997036  0.498592  1
  Tc  Tc36  1  0.999991  0.000009  0.998775  1
  Tc  Tc37  1  0.999984  0.000016  0.498266  1
