# generated using pymatgen
data_Ti7Si2B4Mo3
_symmetry_space_group_name_H-M   'P 1'
_cell_length_a   7.16050040
_cell_length_b   7.13923404
_cell_length_c   7.15276672
_cell_angle_alpha   129.69098223
_cell_angle_beta   129.77084686
_cell_angle_gamma   73.80638841
_symmetry_Int_Tables_number   1
_chemical_formula_structural   Ti7Si2B4Mo3
_chemical_formula_sum   'Ti7 Si2 B4 Mo3'
_cell_volume   211.00187936
_cell_formula_units_Z   1
loop_
 _symmetry_equiv_pos_site_id
 _symmetry_equiv_pos_as_xyz
  1  'x, y, z'
loop_
 _atom_site_type_symbol
 _atom_site_label
 _atom_site_symmetry_multiplicity
 _atom_site_fract_x
 _atom_site_fract_y
 _atom_site_fract_z
 _atom_site_occupancy
  Ti  Ti0  1  0.806192  0.961452  0.500000  1
  Ti  Ti1  1  0.310041  0.808875  0.852532  1
  Ti  Ti2  1  0.192271  0.040233  0.500000  1
  Ti  Ti3  1  0.540388  0.689787  0.500000  1
  Ti  Ti4  1  0.041296  0.542536  0.848681  1
  Ti  Ti5  1  0.692615  0.193855  0.151319  1
  Ti  Ti6  1  0.957509  0.456343  0.147468  1
  Si  Si7  1  0.748765  0.748059  0.997113  1
  Si  Si8  1  0.251652  0.250945  0.002887  1
  B  B9  1  0.390589  0.890592  0.281903  1
  B  B10  1  0.891996  0.610692  0.500000  1
  B  B11  1  0.608687  0.108689  0.718097  1
  B  B12  1  0.110547  0.390322  0.500000  1
  Mo  Mo13  1  0.999918  0.999921  0.999294  1
  Mo  Mo14  1  0.500624  0.500627  0.000706  1
  Mo  Mo15  1  0.456910  0.307072  0.500000  1
