# generated using pymatgen
data_Y3GaSi2Ir5Rh
_symmetry_space_group_name_H-M   'P 1'
_cell_length_a   5.57999200
_cell_length_b   5.56755904
_cell_length_c   15.46872676
_cell_angle_alpha   90.04735749
_cell_angle_beta   90.00000000
_cell_angle_gamma   120.07391006
_symmetry_Int_Tables_number   1
_chemical_formula_structural   Y3GaSi2Ir5Rh
_chemical_formula_sum   'Y6 Ga2 Si4 Ir10 Rh2'
_cell_volume   415.87180647
_cell_formula_units_Z   2
loop_
 _symmetry_equiv_pos_site_id
 _symmetry_equiv_pos_as_xyz
  1  'x, y, z'
loop_
 _atom_site_type_symbol
 _atom_site_label
 _atom_site_symmetry_multiplicity
 _atom_site_fract_x
 _atom_site_fract_y
 _atom_site_fract_z
 _atom_site_occupancy
  Y  Y0  1  0.333304  0.666608  0.539743  1
  Y  Y1  1  0.666696  0.333392  0.460257  1
  Y  Y2  1  0.665880  0.331758  0.039625  1
  Y  Y3  1  0.334120  0.668242  0.960375  1
  Y  Y4  1  0.333339  0.666679  0.749709  1
  Y  Y5  1  0.666661  0.333321  0.250291  1
  Ga  Ga6  1  0.000000  0.000000  0.000000  1
  Ga  Ga7  1  0.000000  0.000000  0.500000  1
  Si  Si8  1  0.999924  0.999847  0.249680  1
  Si  Si9  1  0.000076  0.000153  0.750320  1
  Si  Si10  1  0.333388  0.666777  0.249486  1
  Si  Si11  1  0.666612  0.333223  0.750514  1
  Ir  Ir12  1  0.664061  0.832166  0.133024  1
  Ir  Ir13  1  0.831924  0.663847  0.633794  1
  Ir  Ir14  1  0.335939  0.167834  0.866976  1
  Ir  Ir15  1  0.168076  0.336153  0.366206  1
  Ir  Ir16  1  0.168104  0.832166  0.133024  1
  Ir  Ir17  1  0.336274  0.168125  0.633064  1
  Ir  Ir18  1  0.831896  0.167834  0.866976  1
  Ir  Ir19  1  0.663726  0.831875  0.366936  1
  Ir  Ir20  1  0.831852  0.168125  0.633064  1
  Ir  Ir21  1  0.168148  0.831875  0.366936  1
  Rh  Rh22  1  0.167906  0.335812  0.133408  1
  Rh  Rh23  1  0.832094  0.664188  0.866592  1
