# generated using pymatgen
data_HoLu2Sn3IrPt2
_symmetry_space_group_name_H-M   'P 1'
_cell_length_a   7.59013639
_cell_length_b   7.57770832
_cell_length_c   3.80721700
_cell_angle_alpha   90.00000000
_cell_angle_beta   90.00000000
_cell_angle_gamma   119.94585166
_symmetry_Int_Tables_number   1
_chemical_formula_structural   HoLu2Sn3IrPt2
_chemical_formula_sum   'Ho1 Lu2 Sn3 Ir1 Pt2'
_cell_volume   189.74154593
_cell_formula_units_Z   1
loop_
 _symmetry_equiv_pos_site_id
 _symmetry_equiv_pos_as_xyz
  1  'x, y, z'
loop_
 _atom_site_type_symbol
 _atom_site_label
 _atom_site_symmetry_multiplicity
 _atom_site_fract_x
 _atom_site_fract_y
 _atom_site_fract_z
 _atom_site_occupancy
  Ho  Ho0  1  0.000000  0.399256  0.500000  1
  Lu  Lu1  1  0.601509  0.601522  0.500000  1
  Lu  Lu2  1  0.398491  0.000013  0.500000  1
  Sn  Sn3  1  0.000000  0.738260  0.000000  1
  Sn  Sn4  1  0.262647  0.261498  0.000000  1
  Sn  Sn5  1  0.737353  0.998851  0.000000  1
  Ir  Ir6  1  0.000000  0.998826  0.500000  1
  Pt  Pt7  1  0.336047  0.668912  0.000000  1
  Pt  Pt8  1  0.663953  0.332863  0.000000  1
