# generated using pymatgen
data_Fe3CoP4
_symmetry_space_group_name_H-M   'P 1'
_cell_length_a   3.14861400
_cell_length_b   5.08984068
_cell_length_c   5.69417792
_cell_angle_alpha   90.45946686
_cell_angle_beta   90.00000000
_cell_angle_gamma   90.00000000
_symmetry_Int_Tables_number   1
_chemical_formula_structural   Fe3CoP4
_chemical_formula_sum   'Fe3 Co1 P4'
_cell_volume   91.25164021
_cell_formula_units_Z   1
loop_
 _symmetry_equiv_pos_site_id
 _symmetry_equiv_pos_as_xyz
  1  'x, y, z'
loop_
 _atom_site_type_symbol
 _atom_site_label
 _atom_site_symmetry_multiplicity
 _atom_site_fract_x
 _atom_site_fract_y
 _atom_site_fract_z
 _atom_site_occupancy
  Fe  Fe0  1  0.250000  0.500898  0.700000  1
  Fe  Fe1  1  0.750000  0.500721  0.298023  1
  Fe  Fe2  1  0.250000  0.001242  0.798375  1
  Co  Co3  1  0.750000  0.000619  0.202420  1
  P  P4  1  0.250000  0.690303  0.069729  1
  P  P5  1  0.750000  0.308470  0.926703  1
  P  P6  1  0.250000  0.189432  0.428725  1
  P  P7  1  0.750000  0.808315  0.576025  1
