# generated using pymatgen
data_Hf18Ta2Mn3Ni2W3
_symmetry_space_group_name_H-M   'P 1'
_cell_length_a   8.64383100
_cell_length_b   8.64383105
_cell_length_c   8.35998400
_cell_angle_alpha   90.00000000
_cell_angle_beta   90.00000000
_cell_angle_gamma   120.00000364
_symmetry_Int_Tables_number   1
_chemical_formula_structural   Hf18Ta2Mn3Ni2W3
_chemical_formula_sum   'Hf18 Ta2 Mn3 Ni2 W3'
_cell_volume   540.93937991
_cell_formula_units_Z   1
loop_
 _symmetry_equiv_pos_site_id
 _symmetry_equiv_pos_as_xyz
  1  'x, y, z'
loop_
 _atom_site_type_symbol
 _atom_site_label
 _atom_site_symmetry_multiplicity
 _atom_site_fract_x
 _atom_site_fract_y
 _atom_site_fract_z
 _atom_site_occupancy
  Hf  Hf0  1  0.199242  0.800758  0.440485  1
  Hf  Hf1  1  0.199242  0.398487  0.440485  1
  Hf  Hf2  1  0.601513  0.800758  0.440485  1
  Hf  Hf3  1  0.800774  0.199226  0.555024  1
  Hf  Hf4  1  0.800774  0.601547  0.555024  1
  Hf  Hf5  1  0.398453  0.199226  0.555024  1
  Hf  Hf6  1  0.800774  0.199226  0.944976  1
  Hf  Hf7  1  0.800774  0.601547  0.944976  1
  Hf  Hf8  1  0.398453  0.199226  0.944976  1
  Hf  Hf9  1  0.199242  0.800758  0.059515  1
  Hf  Hf10  1  0.199242  0.398487  0.059515  1
  Hf  Hf11  1  0.601513  0.800758  0.059515  1
  Hf  Hf12  1  0.543364  0.456636  0.250000  1
  Hf  Hf13  1  0.543364  0.086726  0.250000  1
  Hf  Hf14  1  0.913274  0.456636  0.250000  1
  Hf  Hf15  1  0.457640  0.542360  0.750000  1
  Hf  Hf16  1  0.457640  0.915280  0.750000  1
  Hf  Hf17  1  0.084720  0.542360  0.750000  1
  Ta  Ta18  1  0.000000  0.000000  0.476421  1
  Ta  Ta19  1  0.000000  0.000000  0.023579  1
  Mn  Mn20  1  0.883362  0.116638  0.250000  1
  Mn  Mn21  1  0.883362  0.766723  0.250000  1
  Mn  Mn22  1  0.233277  0.116638  0.250000  1
  Ni  Ni23  1  0.333333  0.666667  0.250000  1
  Ni  Ni24  1  0.666667  0.333333  0.750000  1
  W  W25  1  0.111787  0.888213  0.750000  1
  W  W26  1  0.111787  0.223574  0.750000  1
  W  W27  1  0.776426  0.888213  0.750000  1
