# generated using pymatgen
data_LuSc9(In2Au)4
_symmetry_space_group_name_H-M   'P 1'
_cell_length_a   3.48560600
_cell_length_b   7.86636907
_cell_length_c   17.74243500
_cell_angle_alpha   89.88064295
_cell_angle_beta   90.00000000
_cell_angle_gamma   90.00000000
_symmetry_Int_Tables_number   1
_chemical_formula_structural   LuSc9(In2Au)4
_chemical_formula_sum   'Lu1 Sc9 In8 Au4'
_cell_volume   486.47989143
_cell_formula_units_Z   1
loop_
 _symmetry_equiv_pos_site_id
 _symmetry_equiv_pos_as_xyz
  1  'x, y, z'
loop_
 _atom_site_type_symbol
 _atom_site_label
 _atom_site_symmetry_multiplicity
 _atom_site_fract_x
 _atom_site_fract_y
 _atom_site_fract_z
 _atom_site_occupancy
  Lu  Lu0  1  0.000000  0.741579  0.284168  1
  Sc  Sc1  1  0.000000  0.125501  0.423441  1
  Sc  Sc2  1  0.000000  0.876492  0.580460  1
  Sc  Sc3  1  0.000000  0.375630  0.920626  1
  Sc  Sc4  1  0.000000  0.623730  0.076900  1
  Sc  Sc5  1  0.000000  0.239712  0.214798  1
  Sc  Sc6  1  0.000000  0.757892  0.783290  1
  Sc  Sc7  1  0.000000  0.258531  0.717105  1
  Sc  Sc8  1  0.000000  0.998988  0.998427  1
  Sc  Sc9  1  0.000000  0.500259  0.500730  1
  In  In10  1  0.500000  0.417262  0.354579  1
  In  In11  1  0.500000  0.578455  0.646522  1
  In  In12  1  0.500000  0.078703  0.853426  1
  In  In13  1  0.500000  0.923384  0.144209  1
  In  In14  1  0.500000  0.290612  0.062786  1
  In  In15  1  0.500000  0.706982  0.934509  1
  In  In16  1  0.500000  0.208501  0.565474  1
  In  In17  1  0.500000  0.795902  0.439546  1
  Au  Au18  1  0.500000  0.040396  0.305183  1
  Au  Au19  1  0.500000  0.967009  0.696723  1
  Au  Au20  1  0.500000  0.466247  0.803833  1
  Au  Au21  1  0.500000  0.528234  0.193264  1
