# generated using pymatgen
data_Nb6CuPt3N2
_symmetry_space_group_name_H-M   'P 1'
_cell_length_a   7.04855044
_cell_length_b   7.04124004
_cell_length_c   7.03868000
_cell_angle_alpha   90.00000000
_cell_angle_beta   90.00000000
_cell_angle_gamma   89.63696275
_symmetry_Int_Tables_number   1
_chemical_formula_structural   Nb6CuPt3N2
_chemical_formula_sum   'Nb12 Cu2 Pt6 N4'
_cell_volume   349.32644573
_cell_formula_units_Z   2
loop_
 _symmetry_equiv_pos_site_id
 _symmetry_equiv_pos_as_xyz
  1  'x, y, z'
loop_
 _atom_site_type_symbol
 _atom_site_label
 _atom_site_symmetry_multiplicity
 _atom_site_fract_x
 _atom_site_fract_y
 _atom_site_fract_z
 _atom_site_occupancy
  Nb  Nb0  1  0.626299  0.703406  0.956221  1
  Nb  Nb1  1  0.454530  0.877706  0.294109  1
  Nb  Nb2  1  0.705488  0.954732  0.623962  1
  Nb  Nb3  1  0.545242  0.374125  0.204246  1
  Nb  Nb4  1  0.376786  0.207058  0.545827  1
  Nb  Nb5  1  0.204514  0.545654  0.373653  1
  Nb  Nb6  1  0.873701  0.296594  0.456221  1
  Nb  Nb7  1  0.045470  0.122294  0.794109  1
  Nb  Nb8  1  0.295486  0.454346  0.873653  1
  Nb  Nb9  1  0.123214  0.792942  0.045827  1
  Nb  Nb10  1  0.794512  0.045268  0.123962  1
  Nb  Nb11  1  0.954758  0.625875  0.704246  1
  Cu  Cu12  1  0.189304  0.184320  0.187966  1
  Cu  Cu13  1  0.310696  0.815680  0.687966  1
  Pt  Pt14  1  0.425715  0.059599  0.935479  1
  Pt  Pt15  1  0.814575  0.688023  0.313646  1
  Pt  Pt16  1  0.685425  0.311977  0.813646  1
  Pt  Pt17  1  0.555340  0.574018  0.567084  1
  Pt  Pt18  1  0.074285  0.940401  0.435479  1
  Pt  Pt19  1  0.944660  0.425982  0.067084  1
  N  N20  1  0.375673  0.624229  0.123335  1
  N  N21  1  0.874717  0.874652  0.874474  1
  N  N22  1  0.124327  0.375771  0.623335  1
  N  N23  1  0.625283  0.125348  0.374474  1
