# generated using pymatgen
data_Y3Cd3Cu2Hg
_symmetry_space_group_name_H-M   'P 1'
_cell_length_a   7.76255200
_cell_length_b   7.76255180
_cell_length_c   3.86378300
_cell_angle_alpha   90.00000000
_cell_angle_beta   90.00000000
_cell_angle_gamma   120.00000085
_symmetry_Int_Tables_number   1
_chemical_formula_structural   Y3Cd3Cu2Hg
_chemical_formula_sum   'Y3 Cd3 Cu2 Hg1'
_cell_volume   201.62871813
_cell_formula_units_Z   1
loop_
 _symmetry_equiv_pos_site_id
 _symmetry_equiv_pos_as_xyz
  1  'x, y, z'
loop_
 _atom_site_type_symbol
 _atom_site_label
 _atom_site_symmetry_multiplicity
 _atom_site_fract_x
 _atom_site_fract_y
 _atom_site_fract_z
 _atom_site_occupancy
  Y  Y0  1  0.416635  0.019684  0.499999  1
  Y  Y1  1  0.980316  0.396951  0.499999  1
  Y  Y2  1  0.603049  0.583365  0.499999  1
  Cd  Cd3  1  0.753008  0.005614  0.000000  1
  Cd  Cd4  1  0.252607  0.246992  0.000000  1
  Cd  Cd5  1  0.994386  0.747394  0.000000  1
  Cu  Cu6  1  0.666667  0.333333  0.000000  1
  Cu  Cu7  1  0.000000  0.000000  0.499999  1
  Hg  Hg8  1  0.333333  0.666666  0.000000  1
