# generated using pymatgen
data_Tm5MoOsC7
_symmetry_space_group_name_H-M   'P 1'
_cell_length_a   8.18566520
_cell_length_b   8.18566606
_cell_length_c   3.42691100
_cell_angle_alpha   90.00000000
_cell_angle_beta   90.00000000
_cell_angle_gamma   121.75348958
_symmetry_Int_Tables_number   1
_chemical_formula_structural   Tm5MoOsC7
_chemical_formula_sum   'Tm5 Mo1 Os1 C7'
_cell_volume   195.25101924
_cell_formula_units_Z   1
loop_
 _symmetry_equiv_pos_site_id
 _symmetry_equiv_pos_as_xyz
  1  'x, y, z'
loop_
 _atom_site_type_symbol
 _atom_site_label
 _atom_site_symmetry_multiplicity
 _atom_site_fract_x
 _atom_site_fract_y
 _atom_site_fract_z
 _atom_site_occupancy
  Tm  Tm0  1  0.501695  0.498305  0.000000  1
  Tm  Tm1  1  0.076060  0.336451  0.500000  1
  Tm  Tm2  1  0.920456  0.661761  0.500000  1
  Tm  Tm3  1  0.663549  0.923940  0.500000  1
  Tm  Tm4  1  0.338239  0.079544  0.500000  1
  Mo  Mo5  1  0.285822  0.714178  0.000000  1
  Os  Os6  1  0.711804  0.288196  0.000000  1
  C  C7  1  0.629173  0.370827  0.500000  1
  C  C8  1  0.378174  0.621826  0.500000  1
  C  C9  1  0.999484  0.000516  0.000000  1
  C  C10  1  0.169699  0.171040  0.000000  1
  C  C11  1  0.828960  0.830301  0.000000  1
  C  C12  1  0.997616  0.500732  0.000000  1
  C  C13  1  0.499268  0.002384  0.000000  1
