# generated using pymatgen
data_Ho10GaPb5S2
_symmetry_space_group_name_H-M   'P 1'
_cell_length_a   9.01220942
_cell_length_b   9.01220984
_cell_length_c   6.69519600
_cell_angle_alpha   90.00000000
_cell_angle_beta   90.00000000
_cell_angle_gamma   119.91597919
_symmetry_Int_Tables_number   1
_chemical_formula_structural   Ho10GaPb5S2
_chemical_formula_sum   'Ho10 Ga1 Pb5 S2'
_cell_volume   471.32835813
_cell_formula_units_Z   1
loop_
 _symmetry_equiv_pos_site_id
 _symmetry_equiv_pos_as_xyz
  1  'x, y, z'
loop_
 _atom_site_type_symbol
 _atom_site_label
 _atom_site_symmetry_multiplicity
 _atom_site_fract_x
 _atom_site_fract_y
 _atom_site_fract_z
 _atom_site_occupancy
  Ho  Ho0  1  0.752072  0.752072  0.750000  1
  Ho  Ho1  1  0.248344  0.012510  0.750000  1
  Ho  Ho2  1  0.012510  0.248344  0.750000  1
  Ho  Ho3  1  0.241545  0.241545  0.250000  1
  Ho  Ho4  1  0.757018  0.001328  0.250000  1
  Ho  Ho5  1  0.001328  0.757018  0.250000  1
  Ho  Ho6  1  0.658354  0.335451  0.996094  1
  Ho  Ho7  1  0.335451  0.658354  0.996094  1
  Ho  Ho8  1  0.335451  0.658354  0.503906  1
  Ho  Ho9  1  0.658354  0.335451  0.503906  1
  Ga  Ga10  1  0.398593  0.398593  0.750000  1
  Pb  Pb11  1  0.604856  0.002019  0.750000  1
  Pb  Pb12  1  0.002019  0.604856  0.750000  1
  Pb  Pb13  1  0.601778  0.601778  0.250000  1
  Pb  Pb14  1  0.397643  0.997943  0.250000  1
  Pb  Pb15  1  0.997943  0.397643  0.250000  1
  S  S16  1  0.998371  0.998371  0.000194  1
  S  S17  1  0.998371  0.998371  0.499806  1
