# generated using pymatgen
data_YbHo3MnRu7
_symmetry_space_group_name_H-M   'P 1'
_cell_length_a   5.31036841
_cell_length_b   5.22303271
_cell_length_c   8.87859639
_cell_angle_alpha   89.81629507
_cell_angle_beta   89.96920517
_cell_angle_gamma   120.47366172
_symmetry_Int_Tables_number   1
_chemical_formula_structural   YbHo3MnRu7
_chemical_formula_sum   'Yb1 Ho3 Mn1 Ru7'
_cell_volume   212.23941232
_cell_formula_units_Z   1
loop_
 _symmetry_equiv_pos_site_id
 _symmetry_equiv_pos_as_xyz
  1  'x, y, z'
loop_
 _atom_site_type_symbol
 _atom_site_label
 _atom_site_symmetry_multiplicity
 _atom_site_fract_x
 _atom_site_fract_y
 _atom_site_fract_z
 _atom_site_occupancy
  Yb  Yb0  1  0.667801  0.335344  0.563601  1
  Ho  Ho1  1  0.331858  0.663916  0.436184  1
  Ho  Ho2  1  0.331604  0.663574  0.067099  1
  Ho  Ho3  1  0.668227  0.335973  0.931854  1
  Mn  Mn4  1  0.166202  0.332330  0.750087  1
  Ru  Ru5  1  0.998583  0.998256  0.503775  1
  Ru  Ru6  1  0.001022  0.002912  0.998564  1
  Ru  Ru7  1  0.175992  0.827774  0.750099  1
  Ru  Ru8  1  0.651904  0.827945  0.750379  1
  Ru  Ru9  1  0.833179  0.666458  0.249630  1
  Ru  Ru10  1  0.825987  0.172704  0.249449  1
  Ru  Ru11  1  0.347640  0.172814  0.249280  1
