# generated using pymatgen
data_LiLa4Al3Pd4
_symmetry_space_group_name_H-M   'P 1'
_cell_length_a   7.19309996
_cell_length_b   4.59387200
_cell_length_c   8.01337600
_cell_angle_alpha   90.00000000
_cell_angle_beta   90.46994680
_cell_angle_gamma   90.00000000
_symmetry_Int_Tables_number   1
_chemical_formula_structural   LiLa4Al3Pd4
_chemical_formula_sum   'Li1 La4 Al3 Pd4'
_cell_volume   264.78653582
_cell_formula_units_Z   1
loop_
 _symmetry_equiv_pos_site_id
 _symmetry_equiv_pos_as_xyz
  1  'x, y, z'
loop_
 _atom_site_type_symbol
 _atom_site_label
 _atom_site_symmetry_multiplicity
 _atom_site_fract_x
 _atom_site_fract_y
 _atom_site_fract_z
 _atom_site_occupancy
  Li  Li0  1  0.877803  0.750000  0.068274  1
  La  La1  1  0.033876  0.250000  0.317127  1
  La  La2  1  0.532531  0.250000  0.182238  1
  La  La3  1  0.966639  0.750000  0.685030  1
  La  La4  1  0.460647  0.750000  0.815459  1
  Al  Al5  1  0.640213  0.250000  0.564353  1
  Al  Al6  1  0.140050  0.250000  0.934613  1
  Al  Al7  1  0.347943  0.750000  0.432587  1
  Pd  Pd8  1  0.279540  0.250000  0.608677  1
  Pd  Pd9  1  0.773073  0.250000  0.875432  1
  Pd  Pd10  1  0.708677  0.750000  0.403901  1
  Pd  Pd11  1  0.239008  0.750000  0.112310  1
