# generated using pymatgen
data_PrGaCu4
_symmetry_space_group_name_H-M   'P 1'
_cell_length_a   5.15852726
_cell_length_b   5.15852763
_cell_length_c   4.17708000
_cell_angle_alpha   90.00000000
_cell_angle_beta   90.00000000
_cell_angle_gamma   118.97461279
_symmetry_Int_Tables_number   1
_chemical_formula_structural   PrGaCu4
_chemical_formula_sum   'Pr1 Ga1 Cu4'
_cell_volume   97.24116516
_cell_formula_units_Z   1
loop_
 _symmetry_equiv_pos_site_id
 _symmetry_equiv_pos_as_xyz
  1  'x, y, z'
loop_
 _atom_site_type_symbol
 _atom_site_label
 _atom_site_symmetry_multiplicity
 _atom_site_fract_x
 _atom_site_fract_y
 _atom_site_fract_z
 _atom_site_occupancy
  Pr  Pr0  1  0.500000  0.500000  0.000000  1
  Ga  Ga1  1  0.000000  0.000000  0.500000  1
  Cu  Cu2  1  0.166865  0.833135  0.000000  1
  Cu  Cu3  1  0.833135  0.166865  0.000000  1
  Cu  Cu4  1  0.000000  0.500000  0.500000  1
  Cu  Cu5  1  0.500000  0.000000  0.500000  1
