# generated using pymatgen
data_PrFe2GeP
_symmetry_space_group_name_H-M   'P 1'
_cell_length_a   5.78677869
_cell_length_b   5.78677904
_cell_length_c   5.78677936
_cell_angle_alpha   139.78450079
_cell_angle_beta   139.78452203
_cell_angle_gamma   58.18062716
_symmetry_Int_Tables_number   1
_chemical_formula_structural   PrFe2GeP
_chemical_formula_sum   'Pr1 Fe2 Ge1 P1'
_cell_volume   80.05486473
_cell_formula_units_Z   1
loop_
 _symmetry_equiv_pos_site_id
 _symmetry_equiv_pos_as_xyz
  1  'x, y, z'
loop_
 _atom_site_type_symbol
 _atom_site_label
 _atom_site_symmetry_multiplicity
 _atom_site_fract_x
 _atom_site_fract_y
 _atom_site_fract_z
 _atom_site_occupancy
  Pr  Pr0  1  0.003271  0.003271  0.000000  1
  Fe  Fe1  1  0.742324  0.242324  0.500000  1
  Fe  Fe2  1  0.242324  0.742324  0.500000  1
  Ge  Ge3  1  0.366385  0.366385  0.000000  1
  P  P4  1  0.645695  0.645695  0.000000  1
