# generated using pymatgen
data_Dy6Al24Ru7Pt
_symmetry_space_group_name_H-M   'P 1'
_cell_length_a   8.81591163
_cell_length_b   8.81591163
_cell_length_c   9.55147713
_cell_angle_alpha   90.17072068
_cell_angle_beta   89.82927871
_cell_angle_gamma   119.82045133
_symmetry_Int_Tables_number   1
_chemical_formula_structural   Dy6Al24Ru7Pt
_chemical_formula_sum   'Dy6 Al24 Ru7 Pt1'
_cell_volume   644.04462707
_cell_formula_units_Z   1
loop_
 _symmetry_equiv_pos_site_id
 _symmetry_equiv_pos_as_xyz
  1  'x, y, z'
loop_
 _atom_site_type_symbol
 _atom_site_label
 _atom_site_symmetry_multiplicity
 _atom_site_fract_x
 _atom_site_fract_y
 _atom_site_fract_z
 _atom_site_occupancy
  Dy  Dy0  1  0.194415  0.805585  0.249856  1
  Dy  Dy1  1  0.192054  0.386603  0.249819  1
  Dy  Dy2  1  0.613397  0.807946  0.249819  1
  Dy  Dy3  1  0.805585  0.194415  0.750144  1
  Dy  Dy4  1  0.807946  0.613397  0.750181  1
  Dy  Dy5  1  0.386603  0.192054  0.750181  1
  Al  Al6  1  0.561941  0.438059  0.247863  1
  Al  Al7  1  0.560756  0.122046  0.251168  1
  Al  Al8  1  0.877954  0.439244  0.251168  1
  Al  Al9  1  0.438059  0.561941  0.752137  1
  Al  Al10  1  0.439244  0.877954  0.748832  1
  Al  Al11  1  0.122046  0.560756  0.748832  1
  Al  Al12  1  0.323661  0.157941  0.422274  1
  Al  Al13  1  0.837529  0.162471  0.422373  1
  Al  Al14  1  0.842059  0.676339  0.422274  1
  Al  Al15  1  0.676339  0.842059  0.577726  1
  Al  Al16  1  0.162471  0.837529  0.577627  1
  Al  Al17  1  0.157941  0.323661  0.577726  1
  Al  Al18  1  0.675868  0.837488  0.921773  1
  Al  Al19  1  0.162623  0.837377  0.922132  1
  Al  Al20  1  0.162512  0.324132  0.921773  1
  Al  Al21  1  0.324132  0.162512  0.078227  1
  Al  Al22  1  0.837377  0.162623  0.077868  1
  Al  Al23  1  0.837488  0.675868  0.078227  1
  Al  Al24  1  0.669070  0.330930  0.519103  1
  Al  Al25  1  0.330930  0.669070  0.480897  1
  Al  Al26  1  0.333104  0.666896  0.016685  1
  Al  Al27  1  0.666896  0.333104  0.983315  1
  Al  Al28  1  0.999706  0.000294  0.249968  1
  Al  Al29  1  0.000294  0.999706  0.750032  1
  Ru  Ru30  1  0.000000  0.000000  0.500000  1
  Ru  Ru31  1  0.000000  0.000000  0.000000  1
  Ru  Ru32  1  0.500000  0.000000  0.500000  1
  Ru  Ru33  1  0.000000  0.500000  0.500000  1
  Ru  Ru34  1  0.500000  0.500000  0.000000  1
  Ru  Ru35  1  0.500000  0.000000  0.000000  1
  Ru  Ru36  1  0.000000  0.500000  0.000000  1
  Pt  Pt37  1  0.500000  0.500000  0.500000  1
