# generated using pymatgen
data_VNi20(SnB3)2
_symmetry_space_group_name_H-M   'P 1'
_cell_length_a   7.48664186
_cell_length_b   7.48664140
_cell_length_c   7.48664100
_cell_angle_alpha   59.99999736
_cell_angle_beta   59.99999938
_cell_angle_gamma   60.00000011
_symmetry_Int_Tables_number   1
_chemical_formula_structural   VNi20(SnB3)2
_chemical_formula_sum   'V1 Ni20 Sn2 B6'
_cell_volume   296.71950102
_cell_formula_units_Z   1
loop_
 _symmetry_equiv_pos_site_id
 _symmetry_equiv_pos_as_xyz
  1  'x, y, z'
loop_
 _atom_site_type_symbol
 _atom_site_label
 _atom_site_symmetry_multiplicity
 _atom_site_fract_x
 _atom_site_fract_y
 _atom_site_fract_z
 _atom_site_occupancy
  V  V0  1  0.000000  0.000000  0.000000  1
  Ni  Ni1  1  0.663367  0.000000  0.000000  1
  Ni  Ni2  1  0.156152  0.614616  0.614616  1
  Ni  Ni3  1  0.614616  0.614616  0.614616  1
  Ni  Ni4  1  0.614616  0.614616  0.156152  1
  Ni  Ni5  1  0.385384  0.843848  0.385384  1
  Ni  Ni6  1  0.663367  0.336633  0.000000  1
  Ni  Ni7  1  0.000000  0.336633  0.663367  1
  Ni  Ni8  1  0.000000  0.000000  0.336633  1
  Ni  Ni9  1  0.336633  0.000000  0.000000  1
  Ni  Ni10  1  0.000000  0.000000  0.663367  1
  Ni  Ni11  1  0.000000  0.336633  0.000000  1
  Ni  Ni12  1  0.663367  0.000000  0.336633  1
  Ni  Ni13  1  0.000000  0.663367  0.000000  1
  Ni  Ni14  1  0.336633  0.000000  0.663367  1
  Ni  Ni15  1  0.000000  0.663367  0.336633  1
  Ni  Ni16  1  0.336633  0.663367  0.000000  1
  Ni  Ni17  1  0.843848  0.385384  0.385384  1
  Ni  Ni18  1  0.385384  0.385384  0.843848  1
  Ni  Ni19  1  0.614616  0.156152  0.614616  1
  Ni  Ni20  1  0.385384  0.385384  0.385384  1
  Sn  Sn21  1  0.750000  0.750000  0.750000  1
  Sn  Sn22  1  0.250000  0.250000  0.250000  1
  B  B23  1  0.728573  0.728573  0.271427  1
  B  B24  1  0.728573  0.271427  0.728573  1
  B  B25  1  0.271427  0.728573  0.271427  1
  B  B26  1  0.728573  0.271427  0.271427  1
  B  B27  1  0.271427  0.728573  0.728573  1
  B  B28  1  0.271427  0.271427  0.728573  1
