# generated using pymatgen
data_KNd(U2Se5)2
_symmetry_space_group_name_H-M   'P 1'
_cell_length_a   7.79252200
_cell_length_b   8.65760038
_cell_length_c   12.24072621
_cell_angle_alpha   89.75881638
_cell_angle_beta   90.00000000
_cell_angle_gamma   90.00000000
_symmetry_Int_Tables_number   1
_chemical_formula_structural   KNd(U2Se5)2
_chemical_formula_sum   'K2 Nd2 U8 Se20'
_cell_volume   825.80766385
_cell_formula_units_Z   2
loop_
 _symmetry_equiv_pos_site_id
 _symmetry_equiv_pos_as_xyz
  1  'x, y, z'
loop_
 _atom_site_type_symbol
 _atom_site_label
 _atom_site_symmetry_multiplicity
 _atom_site_fract_x
 _atom_site_fract_y
 _atom_site_fract_z
 _atom_site_occupancy
  K  K0  1  0.049702  0.491504  0.317968  1
  K  K1  1  0.549702  0.508496  0.182032  1
  Nd  Nd2  1  0.945602  0.503093  0.660518  1
  Nd  Nd3  1  0.445602  0.496907  0.839482  1
  U  U4  1  0.025963  0.998807  0.317133  1
  U  U5  1  0.525963  0.001193  0.182867  1
  U  U6  1  0.982332  0.997292  0.681871  1
  U  U7  1  0.482332  0.002708  0.818129  1
  U  U8  1  0.071206  0.757635  0.005825  1
  U  U9  1  0.571206  0.242365  0.494175  1
  U  U10  1  0.925220  0.251749  0.987860  1
  U  U11  1  0.425220  0.748251  0.512140  1
  Se  Se12  1  0.666396  0.949939  0.406983  1
  Se  Se13  1  0.166396  0.050061  0.093017  1
  Se  Se14  1  0.335612  0.042003  0.599853  1
  Se  Se15  1  0.835612  0.957997  0.900147  1
  Se  Se16  1  0.454786  0.784455  0.994515  1
  Se  Se17  1  0.954786  0.215545  0.505485  1
  Se  Se18  1  0.542593  0.221579  0.993336  1
  Se  Se19  1  0.042593  0.778421  0.506664  1
  Se  Se20  1  0.834689  0.785315  0.182043  1
  Se  Se21  1  0.334689  0.214685  0.317957  1
  Se  Se22  1  0.160951  0.235610  0.806527  1
  Se  Se23  1  0.660951  0.764390  0.693473  1
  Se  Se24  1  0.308193  0.776786  0.285526  1
  Se  Se25  1  0.808193  0.223214  0.214474  1
  Se  Se26  1  0.687873  0.248564  0.719223  1
  Se  Se27  1  0.187873  0.751436  0.780777  1
  Se  Se28  1  0.188785  0.460998  0.052172  1
  Se  Se29  1  0.688785  0.539002  0.447828  1
  Se  Se30  1  0.820096  0.541113  0.903093  1
  Se  Se31  1  0.320096  0.458887  0.596907  1
