# generated using pymatgen
data_HfNbSiRh5
_symmetry_space_group_name_H-M   'P 1'
_cell_length_a   4.01791500
_cell_length_b   5.54545218
_cell_length_c   10.77944765
_cell_angle_alpha   89.71420428
_cell_angle_beta   90.00000000
_cell_angle_gamma   90.00000000
_symmetry_Int_Tables_number   1
_chemical_formula_structural   HfNbSiRh5
_chemical_formula_sum   'Hf2 Nb2 Si2 Rh10'
_cell_volume   240.17556145
_cell_formula_units_Z   2
loop_
 _symmetry_equiv_pos_site_id
 _symmetry_equiv_pos_as_xyz
  1  'x, y, z'
loop_
 _atom_site_type_symbol
 _atom_site_label
 _atom_site_symmetry_multiplicity
 _atom_site_fract_x
 _atom_site_fract_y
 _atom_site_fract_z
 _atom_site_occupancy
  Hf  Hf0  1  0.500000  0.675581  0.859111  1
  Hf  Hf1  1  0.500000  0.324419  0.140889  1
  Nb  Nb2  1  0.500000  0.175723  0.642903  1
  Nb  Nb3  1  0.500000  0.824277  0.357097  1
  Si  Si4  1  0.000000  0.500000  0.500000  1
  Si  Si5  1  0.000000  0.000000  0.000000  1
  Rh  Rh6  1  0.500000  0.179430  0.893900  1
  Rh  Rh7  1  0.500000  0.820570  0.106100  1
  Rh  Rh8  1  0.500000  0.687033  0.599876  1
  Rh  Rh9  1  0.500000  0.312967  0.400124  1
  Rh  Rh10  1  0.000000  0.425388  0.736496  1
  Rh  Rh11  1  0.000000  0.574612  0.263504  1
  Rh  Rh12  1  0.000000  0.000000  0.500000  1
  Rh  Rh13  1  0.000000  0.500000  0.000000  1
  Rh  Rh14  1  0.000000  0.067874  0.244793  1
  Rh  Rh15  1  0.000000  0.932126  0.755207  1
