# generated using pymatgen
data_Li4Er3TmSn3Sb
_symmetry_space_group_name_H-M   'P 1'
_cell_length_a   9.34018496
_cell_length_b   9.34009539
_cell_length_c   7.13336915
_cell_angle_alpha   90.07541919
_cell_angle_beta   89.92510876
_cell_angle_gamma   119.96349061
_symmetry_Int_Tables_number   1
_chemical_formula_structural   Li4Er3TmSn3Sb
_chemical_formula_sum   'Li8 Er6 Tm2 Sn6 Sb2'
_cell_volume   539.12724247
_cell_formula_units_Z   2
loop_
 _symmetry_equiv_pos_site_id
 _symmetry_equiv_pos_as_xyz
  1  'x, y, z'
loop_
 _atom_site_type_symbol
 _atom_site_label
 _atom_site_symmetry_multiplicity
 _atom_site_fract_x
 _atom_site_fract_y
 _atom_site_fract_z
 _atom_site_occupancy
  Li  Li0  1  0.832584  0.666798  0.713646  1
  Li  Li1  1  0.833821  0.166287  0.714280  1
  Li  Li2  1  0.333803  0.665964  0.820191  1
  Li  Li3  1  0.666562  0.333511  0.320690  1
  Li  Li4  1  0.666321  0.833234  0.213960  1
  Li  Li5  1  0.166725  0.333747  0.213881  1
  Li  Li6  1  0.166711  0.833229  0.214045  1
  Li  Li7  1  0.333197  0.167384  0.713619  1
  Er  Er8  1  0.999149  0.000889  0.002469  1
  Er  Er9  1  0.999231  0.000818  0.499031  1
  Er  Er10  1  0.510043  0.489949  0.008497  1
  Er  Er11  1  0.022529  0.510098  0.503795  1
  Er  Er12  1  0.489847  0.977452  0.503886  1
  Er  Er13  1  0.511986  0.020548  0.009903  1
  Tm  Tm14  1  0.979426  0.487888  0.010023  1
  Tm  Tm15  1  0.487875  0.512113  0.504927  1
  Sn  Sn16  1  0.333022  0.666832  0.240545  1
  Sn  Sn17  1  0.833309  0.167268  0.267664  1
  Sn  Sn18  1  0.166302  0.333902  0.768579  1
  Sn  Sn19  1  0.334060  0.166610  0.268242  1
  Sn  Sn20  1  0.833451  0.665930  0.268028  1
  Sn  Sn21  1  0.666175  0.833490  0.768321  1
  Sb  Sb22  1  0.166804  0.832812  0.767671  1
  Sb  Sb23  1  0.667067  0.333245  0.742106  1
