# generated using pymatgen
data_Zr6Ti16Ir4Os3
_symmetry_space_group_name_H-M   'P 1'
_cell_length_a   8.97295700
_cell_length_b   8.96534020
_cell_length_c   8.96534024
_cell_angle_alpha   60.05620844
_cell_angle_beta   59.97189849
_cell_angle_gamma   59.97189768
_symmetry_Int_Tables_number   1
_chemical_formula_structural   Zr6Ti16Ir4Os3
_chemical_formula_sum   'Zr6 Ti16 Ir4 Os3'
_cell_volume   509.98044834
_cell_formula_units_Z   1
loop_
 _symmetry_equiv_pos_site_id
 _symmetry_equiv_pos_as_xyz
  1  'x, y, z'
loop_
 _atom_site_type_symbol
 _atom_site_label
 _atom_site_symmetry_multiplicity
 _atom_site_fract_x
 _atom_site_fract_y
 _atom_site_fract_z
 _atom_site_occupancy
  Zr  Zr0  1  0.686060  0.686060  0.313940  1
  Zr  Zr1  1  0.313940  0.686060  0.313940  1
  Zr  Zr2  1  0.686440  0.313560  0.313560  1
  Zr  Zr3  1  0.313940  0.313940  0.686060  1
  Zr  Zr4  1  0.686060  0.313940  0.686060  1
  Zr  Zr5  1  0.313560  0.686440  0.686440  1
  Ti  Ti6  1  0.883306  0.881358  0.352030  1
  Ti  Ti7  1  0.883306  0.352030  0.881358  1
  Ti  Ti8  1  0.352030  0.883306  0.883306  1
  Ti  Ti9  1  0.881358  0.883306  0.883306  1
  Ti  Ti10  1  0.116694  0.118642  0.647970  1
  Ti  Ti11  1  0.116694  0.647970  0.118642  1
  Ti  Ti12  1  0.647970  0.116694  0.116694  1
  Ti  Ti13  1  0.118642  0.116694  0.116694  1
  Ti  Ti14  1  0.668765  0.670119  0.992349  1
  Ti  Ti15  1  0.668765  0.992349  0.670119  1
  Ti  Ti16  1  0.992349  0.668765  0.668765  1
  Ti  Ti17  1  0.670119  0.668765  0.668765  1
  Ti  Ti18  1  0.331235  0.329881  0.007651  1
  Ti  Ti19  1  0.331235  0.007651  0.329881  1
  Ti  Ti20  1  0.007651  0.331235  0.331235  1
  Ti  Ti21  1  0.329881  0.331235  0.331235  1
  Ir  Ir22  1  0.000000  0.000000  0.500000  1
  Ir  Ir23  1  0.500000  0.000000  0.500000  1
  Ir  Ir24  1  0.500000  0.500000  0.000000  1
  Ir  Ir25  1  0.000000  0.500000  0.000000  1
  Os  Os26  1  0.000000  0.000000  0.000000  1
  Os  Os27  1  0.000000  0.500000  0.500000  1
  Os  Os28  1  0.500000  0.000000  0.000000  1
