# generated using pymatgen
data_CeHo2Tm5(AlRu)8
_symmetry_space_group_name_H-M   'P 1'
_cell_length_a   4.07418700
_cell_length_b   6.97641738
_cell_length_c   15.88012601
_cell_angle_alpha   90.44218600
_cell_angle_beta   90.00000000
_cell_angle_gamma   90.00000000
_symmetry_Int_Tables_number   1
_chemical_formula_structural   CeHo2Tm5(AlRu)8
_chemical_formula_sum   'Ce1 Ho2 Tm5 Al8 Ru8'
_cell_volume   451.35101587
_cell_formula_units_Z   1
loop_
 _symmetry_equiv_pos_site_id
 _symmetry_equiv_pos_as_xyz
  1  'x, y, z'
loop_
 _atom_site_type_symbol
 _atom_site_label
 _atom_site_symmetry_multiplicity
 _atom_site_fract_x
 _atom_site_fract_y
 _atom_site_fract_z
 _atom_site_occupancy
  Ce  Ce0  1  0.250000  0.536979  0.719308  1
  Ho  Ho1  1  0.250000  0.159175  0.560775  1
  Ho  Ho2  1  0.250000  0.658825  0.938352  1
  Tm  Tm3  1  0.750000  0.962785  0.218784  1
  Tm  Tm4  1  0.750000  0.840896  0.436024  1
  Tm  Tm5  1  0.750000  0.462475  0.281458  1
  Tm  Tm6  1  0.750000  0.341325  0.064807  1
  Tm  Tm7  1  0.250000  0.039195  0.781851  1
  Al  Al8  1  0.750000  0.504719  0.561955  1
  Al  Al9  1  0.750000  0.361240  0.852486  1
  Al  Al10  1  0.750000  0.998417  0.935227  1
  Al  Al11  1  0.750000  0.873608  0.650103  1
  Al  Al12  1  0.250000  0.500353  0.433385  1
  Al  Al13  1  0.250000  0.996985  0.066740  1
  Al  Al14  1  0.250000  0.632633  0.151772  1
  Al  Al15  1  0.250000  0.132444  0.348226  1
  Ru  Ru16  1  0.750000  0.741391  0.808011  1
  Ru  Ru17  1  0.250000  0.232476  0.938192  1
  Ru  Ru18  1  0.750000  0.261976  0.435631  1
  Ru  Ru19  1  0.250000  0.753870  0.312339  1
  Ru  Ru20  1  0.750000  0.761498  0.064185  1
  Ru  Ru21  1  0.750000  0.258016  0.686876  1
  Ru  Ru22  1  0.250000  0.252211  0.187504  1
  Ru  Ru23  1  0.250000  0.736508  0.566009  1
