# generated using pymatgen
data_La7Ni2Rh
_symmetry_space_group_name_H-M   'P 1'
_cell_length_a   10.14226934
_cell_length_b   10.09082972
_cell_length_c   6.50479073
_cell_angle_alpha   89.35925869
_cell_angle_beta   91.27506185
_cell_angle_gamma   120.16877296
_symmetry_Int_Tables_number   1
_chemical_formula_structural   La7Ni2Rh
_chemical_formula_sum   'La14 Ni4 Rh2'
_cell_volume   575.40989067
_cell_formula_units_Z   2
loop_
 _symmetry_equiv_pos_site_id
 _symmetry_equiv_pos_as_xyz
  1  'x, y, z'
loop_
 _atom_site_type_symbol
 _atom_site_label
 _atom_site_symmetry_multiplicity
 _atom_site_fract_x
 _atom_site_fract_y
 _atom_site_fract_z
 _atom_site_occupancy
  La  La0  1  0.462574  0.537404  0.314271  1
  La  La1  1  0.333684  0.664963  0.782171  1
  La  La2  1  0.872451  0.126198  0.497001  1
  La  La3  1  0.746253  0.873802  0.997001  1
  La  La4  1  0.871881  0.748788  0.501167  1
  La  La5  1  0.076690  0.535857  0.315352  1
  La  La6  1  0.122798  0.873463  0.004619  1
  La  La7  1  0.540974  0.076786  0.810539  1
  La  La8  1  0.925171  0.462596  0.814271  1
  La  La9  1  0.668722  0.335037  0.282171  1
  La  La10  1  0.464187  0.923214  0.310539  1
  La  La11  1  0.249335  0.126537  0.504619  1
  La  La12  1  0.540834  0.464143  0.815352  1
  La  La13  1  0.123093  0.251212  0.001167  1
  Ni  Ni14  1  0.814470  0.625874  0.048042  1
  Ni  Ni15  1  0.188596  0.374126  0.548042  1
  Ni  Ni16  1  0.815626  0.192547  0.051181  1
  Ni  Ni17  1  0.623079  0.807453  0.551181  1
  Rh  Rh18  1  0.373883  0.188183  0.046658  1
  Rh  Rh19  1  0.185700  0.811817  0.546658  1
