# generated using pymatgen
data_Zr2Pa(Co3P2)3
_symmetry_space_group_name_H-M   'P 1'
_cell_length_a   3.67845400
_cell_length_b   10.38717900
_cell_length_c   12.01679000
_cell_angle_alpha   90.00000000
_cell_angle_beta   90.00000000
_cell_angle_gamma   90.00000000
_symmetry_Int_Tables_number   1
_chemical_formula_structural   Zr2Pa(Co3P2)3
_chemical_formula_sum   'Zr4 Pa2 Co18 P12'
_cell_volume   459.14664678
_cell_formula_units_Z   2
loop_
 _symmetry_equiv_pos_site_id
 _symmetry_equiv_pos_as_xyz
  1  'x, y, z'
loop_
 _atom_site_type_symbol
 _atom_site_label
 _atom_site_symmetry_multiplicity
 _atom_site_fract_x
 _atom_site_fract_y
 _atom_site_fract_z
 _atom_site_occupancy
  Zr  Zr0  1  0.500000  0.817101  0.205083  1
  Zr  Zr1  1  0.500000  0.182899  0.205083  1
  Zr  Zr2  1  0.000000  0.682899  0.794917  1
  Zr  Zr3  1  0.000000  0.317101  0.794917  1
  Pa  Pa4  1  0.000000  0.500000  0.531021  1
  Pa  Pa5  1  0.500000  0.000000  0.468979  1
  Co  Co6  1  0.500000  0.500000  0.159168  1
  Co  Co7  1  0.000000  0.000000  0.840832  1
  Co  Co8  1  0.500000  0.500000  0.699534  1
  Co  Co9  1  0.000000  0.000000  0.300466  1
  Co  Co10  1  0.000000  0.500000  0.984742  1
  Co  Co11  1  0.500000  0.000000  0.015258  1
  Co  Co12  1  0.500000  0.333203  0.993299  1
  Co  Co13  1  0.500000  0.666797  0.993299  1
  Co  Co14  1  0.000000  0.166797  0.006701  1
  Co  Co15  1  0.000000  0.833203  0.006701  1
  Co  Co16  1  0.500000  0.301249  0.430908  1
  Co  Co17  1  0.500000  0.698751  0.430908  1
  Co  Co18  1  0.000000  0.198751  0.569092  1
  Co  Co19  1  0.000000  0.801249  0.569092  1
  Co  Co20  1  0.500000  0.877970  0.712089  1
  Co  Co21  1  0.500000  0.122030  0.712089  1
  Co  Co22  1  0.000000  0.622030  0.287911  1
  Co  Co23  1  0.000000  0.377970  0.287911  1
  P  P24  1  0.500000  0.500000  0.877622  1
  P  P25  1  0.000000  0.000000  0.122378  1
  P  P26  1  0.500000  0.500000  0.343847  1
  P  P27  1  0.000000  0.000000  0.656153  1
  P  P28  1  0.500000  0.308857  0.620061  1
  P  P29  1  0.500000  0.691143  0.620061  1
  P  P30  1  0.000000  0.191143  0.379939  1
  P  P31  1  0.000000  0.808857  0.379939  1
  P  P32  1  0.500000  0.845228  0.892800  1
  P  P33  1  0.500000  0.154772  0.892800  1
  P  P34  1  0.000000  0.654772  0.107200  1
  P  P35  1  0.000000  0.345228  0.107200  1
