# generated using pymatgen
data_ErTh2(AlCu)3
_symmetry_space_group_name_H-M   'P 1'
_cell_length_a   7.04331983
_cell_length_b   6.99879039
_cell_length_c   4.20211500
_cell_angle_alpha   90.00000000
_cell_angle_beta   90.00000000
_cell_angle_gamma   119.79108411
_symmetry_Int_Tables_number   1
_chemical_formula_structural   ErTh2(AlCu)3
_chemical_formula_sum   'Er1 Th2 Al3 Cu3'
_cell_volume   179.76675690
_cell_formula_units_Z   1
loop_
 _symmetry_equiv_pos_site_id
 _symmetry_equiv_pos_as_xyz
  1  'x, y, z'
loop_
 _atom_site_type_symbol
 _atom_site_label
 _atom_site_symmetry_multiplicity
 _atom_site_fract_x
 _atom_site_fract_y
 _atom_site_fract_z
 _atom_site_occupancy
  Er  Er0  1  0.000000  0.583341  0.500000  1
  Th  Th1  1  0.421100  0.419349  0.500000  1
  Th  Th2  1  0.578900  0.998249  0.500000  1
  Al  Al3  1  0.767736  0.765742  0.000000  1
  Al  Al4  1  0.232264  0.998007  0.000000  1
  Al  Al5  1  0.000000  0.238026  0.000000  1
  Cu  Cu6  1  0.000000  0.994020  0.500000  1
  Cu  Cu7  1  0.676331  0.339798  0.000000  1
  Cu  Cu8  1  0.323669  0.663468  0.000000  1
