# generated using pymatgen
data_Ti4MnAlOs2
_symmetry_space_group_name_H-M   'P 1'
_cell_length_a   6.20686000
_cell_length_b   4.35363700
_cell_length_c   8.70171400
_cell_angle_alpha   90.00000000
_cell_angle_beta   89.99965606
_cell_angle_gamma   90.00000000
_symmetry_Int_Tables_number   1
_chemical_formula_structural   Ti4MnAlOs2
_chemical_formula_sum   'Ti8 Mn2 Al2 Os4'
_cell_volume   235.14132996
_cell_formula_units_Z   2
loop_
 _symmetry_equiv_pos_site_id
 _symmetry_equiv_pos_as_xyz
  1  'x, y, z'
loop_
 _atom_site_type_symbol
 _atom_site_label
 _atom_site_symmetry_multiplicity
 _atom_site_fract_x
 _atom_site_fract_y
 _atom_site_fract_z
 _atom_site_occupancy
  Ti  Ti0  1  0.010254  0.749999  0.113722  1
  Ti  Ti1  1  0.489758  0.749999  0.113716  1
  Ti  Ti2  1  0.989767  0.250000  0.386164  1
  Ti  Ti3  1  0.510255  0.250000  0.386171  1
  Ti  Ti4  1  0.504895  0.749999  0.632714  1
  Ti  Ti5  1  0.995085  0.749999  0.632700  1
  Ti  Ti6  1  0.495000  0.250000  0.867378  1
  Ti  Ti7  1  0.004998  0.250000  0.867380  1
  Mn  Mn8  1  0.749981  0.250000  0.626548  1
  Mn  Mn9  1  0.249982  0.749999  0.873634  1
  Al  Al10  1  0.750039  0.250000  0.124564  1
  Al  Al11  1  0.249989  0.749999  0.375348  1
  Os  Os12  1  0.249976  0.250000  0.128941  1
  Os  Os13  1  0.750036  0.749999  0.371002  1
  Os  Os14  1  0.249980  0.250000  0.620090  1
  Os  Os15  1  0.750009  0.749999  0.879926  1
