# generated using pymatgen
data_Li2EuHoSi2Sb
_symmetry_space_group_name_H-M   'P 1'
_cell_length_a   9.75459720
_cell_length_b   9.75459707
_cell_length_c   6.78692200
_cell_angle_alpha   90.00000000
_cell_angle_beta   90.00000000
_cell_angle_gamma   153.44484474
_symmetry_Int_Tables_number   1
_chemical_formula_structural   Li2EuHoSi2Sb
_chemical_formula_sum   'Li4 Eu2 Ho2 Si4 Sb2'
_cell_volume   288.70644536
_cell_formula_units_Z   2
loop_
 _symmetry_equiv_pos_site_id
 _symmetry_equiv_pos_as_xyz
  1  'x, y, z'
loop_
 _atom_site_type_symbol
 _atom_site_label
 _atom_site_symmetry_multiplicity
 _atom_site_fract_x
 _atom_site_fract_y
 _atom_site_fract_z
 _atom_site_occupancy
  Li  Li0  1  0.184624  0.815376  0.055328  1
  Li  Li1  1  0.184624  0.815376  0.444672  1
  Li  Li2  1  0.815376  0.184624  0.944672  1
  Li  Li3  1  0.815376  0.184624  0.555328  1
  Eu  Eu4  1  0.347538  0.652462  0.250000  1
  Eu  Eu5  1  0.652462  0.347538  0.750000  1
  Ho  Ho6  1  0.543775  0.456225  0.250000  1
  Ho  Ho7  1  0.456225  0.543775  0.750000  1
  Si  Si8  1  0.056366  0.943634  0.926481  1
  Si  Si9  1  0.943634  0.056366  0.073519  1
  Si  Si10  1  0.943634  0.056366  0.426481  1
  Si  Si11  1  0.056366  0.943634  0.573519  1
  Sb  Sb12  1  0.714029  0.285971  0.250000  1
  Sb  Sb13  1  0.285971  0.714029  0.750000  1
