# generated using pymatgen
data_La3Hf2P12Ru19
_symmetry_space_group_name_H-M   'P 1'
_cell_length_a   12.56672100
_cell_length_b   12.56672157
_cell_length_c   3.99963300
_cell_angle_alpha   90.00000000
_cell_angle_beta   90.00000000
_cell_angle_gamma   120.00000113
_symmetry_Int_Tables_number   1
_chemical_formula_structural   La3Hf2P12Ru19
_chemical_formula_sum   'La3 Hf2 P12 Ru19'
_cell_volume   547.00933255
_cell_formula_units_Z   1
loop_
 _symmetry_equiv_pos_site_id
 _symmetry_equiv_pos_as_xyz
  1  'x, y, z'
loop_
 _atom_site_type_symbol
 _atom_site_label
 _atom_site_symmetry_multiplicity
 _atom_site_fract_x
 _atom_site_fract_y
 _atom_site_fract_z
 _atom_site_occupancy
  La  La0  1  0.000000  0.184885  0.500000  1
  La  La1  1  0.815115  0.815115  0.500000  1
  La  La2  1  0.184885  0.000000  0.500000  1
  Hf  Hf3  1  0.666667  0.333333  0.000000  1
  Hf  Hf4  1  0.333333  0.666667  0.000000  1
  P  P5  1  0.000000  0.808645  0.000000  1
  P  P6  1  0.191355  0.191355  0.000000  1
  P  P7  1  0.808645  0.000000  0.000000  1
  P  P8  1  0.697556  0.179049  0.500000  1
  P  P9  1  0.820951  0.518506  0.500000  1
  P  P10  1  0.481494  0.302444  0.500000  1
  P  P11  1  0.179049  0.697556  0.500000  1
  P  P12  1  0.518506  0.820951  0.500000  1
  P  P13  1  0.302444  0.481494  0.500000  1
  P  P14  1  0.000000  0.373424  0.000000  1
  P  P15  1  0.626576  0.626576  0.000000  1
  P  P16  1  0.373424  0.000000  0.000000  1
  Ru  Ru17  1  0.000000  0.552691  0.000000  1
  Ru  Ru18  1  0.447309  0.447309  0.000000  1
  Ru  Ru19  1  0.552691  0.000000  0.000000  1
  Ru  Ru20  1  0.000000  0.709785  0.500000  1
  Ru  Ru21  1  0.290215  0.290215  0.500000  1
  Ru  Ru22  1  0.709785  0.000000  0.500000  1
  Ru  Ru23  1  0.800955  0.187196  0.000000  1
  Ru  Ru24  1  0.812804  0.613758  0.000000  1
  Ru  Ru25  1  0.386242  0.199045  0.000000  1
  Ru  Ru26  1  0.187196  0.800955  0.000000  1
  Ru  Ru27  1  0.613758  0.812804  0.000000  1
  Ru  Ru28  1  0.199045  0.386242  0.000000  1
  Ru  Ru29  1  0.871750  0.370769  0.500000  1
  Ru  Ru30  1  0.629231  0.500981  0.500000  1
  Ru  Ru31  1  0.499019  0.128250  0.500000  1
  Ru  Ru32  1  0.370769  0.871750  0.500000  1
  Ru  Ru33  1  0.500981  0.629231  0.500000  1
  Ru  Ru34  1  0.128250  0.499019  0.500000  1
  Ru  Ru35  1  0.000000  0.000000  0.000000  1
