# generated using pymatgen
data_LaHoB5
_symmetry_space_group_name_H-M   'P 1'
_cell_length_a   7.24007100
_cell_length_b   7.22832696
_cell_length_c   7.23558762
_cell_angle_alpha   76.75662580
_cell_angle_beta   90.00000000
_cell_angle_gamma   90.00000000
_symmetry_Int_Tables_number   1
_chemical_formula_structural   LaHoB5
_chemical_formula_sum   'La4 Ho4 B20'
_cell_volume   368.59405960
_cell_formula_units_Z   4
loop_
 _symmetry_equiv_pos_site_id
 _symmetry_equiv_pos_as_xyz
  1  'x, y, z'
loop_
 _atom_site_type_symbol
 _atom_site_label
 _atom_site_symmetry_multiplicity
 _atom_site_fract_x
 _atom_site_fract_y
 _atom_site_fract_z
 _atom_site_occupancy
  La  La0  1  0.687460  0.782618  0.621361  1
  La  La1  1  0.187460  0.217382  0.878639  1
  La  La2  1  0.312540  0.217382  0.378639  1
  La  La3  1  0.812540  0.782618  0.121361  1
  Ho  Ho4  1  0.316240  0.746025  0.254917  1
  Ho  Ho5  1  0.816240  0.253975  0.245083  1
  Ho  Ho6  1  0.683760  0.253975  0.745083  1
  Ho  Ho7  1  0.183760  0.746025  0.754917  1
  B  B8  1  0.505522  0.315204  0.039195  1
  B  B9  1  0.005522  0.684796  0.460805  1
  B  B10  1  0.494478  0.684796  0.960805  1
  B  B11  1  0.994478  0.315204  0.539195  1
  B  B12  1  0.482039  0.924423  0.928983  1
  B  B13  1  0.982039  0.075577  0.571017  1
  B  B14  1  0.517961  0.075577  0.071017  1
  B  B15  1  0.017961  0.924423  0.428983  1
  B  B16  1  0.327715  0.494940  0.040857  1
  B  B17  1  0.827715  0.505060  0.459143  1
  B  B18  1  0.672285  0.505060  0.959143  1
  B  B19  1  0.172285  0.494940  0.540857  1
  B  B20  1  0.909080  0.498888  0.909606  1
  B  B21  1  0.409080  0.501112  0.590394  1
  B  B22  1  0.090920  0.501112  0.090394  1
  B  B23  1  0.590920  0.498888  0.409606  1
  B  B24  1  0.960539  0.496566  0.672792  1
  B  B25  1  0.460539  0.503434  0.827208  1
  B  B26  1  0.039461  0.503434  0.327208  1
  B  B27  1  0.539461  0.496566  0.172792  1
