# generated using pymatgen
data_Dy20In3Ni2Pd3
_symmetry_space_group_name_H-M   'P 1'
_cell_length_a   9.65601200
_cell_length_b   9.65602626
_cell_length_c   9.48927100
_cell_angle_alpha   90.00000000
_cell_angle_beta   90.00000000
_cell_angle_gamma   119.99495645
_symmetry_Int_Tables_number   1
_chemical_formula_structural   Dy20In3Ni2Pd3
_chemical_formula_sum   'Dy20 In3 Ni2 Pd3'
_cell_volume   766.26993438
_cell_formula_units_Z   1
loop_
 _symmetry_equiv_pos_site_id
 _symmetry_equiv_pos_as_xyz
  1  'x, y, z'
loop_
 _atom_site_type_symbol
 _atom_site_label
 _atom_site_symmetry_multiplicity
 _atom_site_fract_x
 _atom_site_fract_y
 _atom_site_fract_z
 _atom_site_occupancy
  Dy  Dy0  1  0.000040  0.000017  0.441619  1
  Dy  Dy1  1  0.000040  0.000017  0.058381  1
  Dy  Dy2  1  0.543344  0.456447  0.250000  1
  Dy  Dy3  1  0.543437  0.086895  0.250000  1
  Dy  Dy4  1  0.913098  0.456606  0.250000  1
  Dy  Dy5  1  0.457565  0.542282  0.750000  1
  Dy  Dy6  1  0.457927  0.915475  0.750000  1
  Dy  Dy7  1  0.084841  0.542244  0.750000  1
  Dy  Dy8  1  0.209994  0.790353  0.434810  1
  Dy  Dy9  1  0.209714  0.419403  0.434616  1
  Dy  Dy10  1  0.580617  0.790379  0.434658  1
  Dy  Dy11  1  0.791435  0.208333  0.558586  1
  Dy  Dy12  1  0.791609  0.583283  0.558632  1
  Dy  Dy13  1  0.416726  0.208229  0.558688  1
  Dy  Dy14  1  0.791435  0.208333  0.941414  1
  Dy  Dy15  1  0.791609  0.583283  0.941368  1
  Dy  Dy16  1  0.416726  0.208229  0.941312  1
  Dy  Dy17  1  0.209994  0.790353  0.065190  1
  Dy  Dy18  1  0.209714  0.419403  0.065384  1
  Dy  Dy19  1  0.580617  0.790379  0.065342  1
  In  In20  1  0.108388  0.891665  0.750000  1
  In  In21  1  0.108482  0.216701  0.750000  1
  In  In22  1  0.783031  0.891445  0.750000  1
  Ni  Ni23  1  0.333532  0.666670  0.250000  1
  Ni  Ni24  1  0.666186  0.333043  0.750000  1
  Pd  Pd25  1  0.865453  0.134334  0.250000  1
  Pd  Pd26  1  0.865550  0.731377  0.250000  1
  Pd  Pd27  1  0.268900  0.134822  0.250000  1
