# generated using pymatgen
data_Ce2(ThOs)3
_symmetry_space_group_name_H-M   'P 1'
_cell_length_a   6.26001800
_cell_length_b   8.48341310
_cell_length_c   8.48341300
_cell_angle_alpha   120.00000349
_cell_angle_beta   90.00000000
_cell_angle_gamma   90.00000000
_symmetry_Int_Tables_number   1
_chemical_formula_structural   Ce2(ThOs)3
_chemical_formula_sum   'Ce4 Th6 Os6'
_cell_volume   390.16420610
_cell_formula_units_Z   2
loop_
 _symmetry_equiv_pos_site_id
 _symmetry_equiv_pos_as_xyz
  1  'x, y, z'
loop_
 _atom_site_type_symbol
 _atom_site_label
 _atom_site_symmetry_multiplicity
 _atom_site_fract_x
 _atom_site_fract_y
 _atom_site_fract_z
 _atom_site_occupancy
  Ce  Ce0  1  0.000000  0.666667  0.333333  1
  Ce  Ce1  1  0.000000  0.333333  0.666667  1
  Ce  Ce2  1  0.500000  0.333333  0.666667  1
  Ce  Ce3  1  0.500000  0.666667  0.333333  1
  Th  Th4  1  0.750000  0.749763  0.749763  1
  Th  Th5  1  0.250000  0.250237  0.250237  1
  Th  Th6  1  0.750000  0.000000  0.250237  1
  Th  Th7  1  0.250000  0.000000  0.749763  1
  Th  Th8  1  0.750000  0.250237  0.000000  1
  Th  Th9  1  0.250000  0.749763  0.000000  1
  Os  Os10  1  0.750000  0.389110  0.389110  1
  Os  Os11  1  0.250000  0.610890  0.610890  1
  Os  Os12  1  0.750000  0.000000  0.610890  1
  Os  Os13  1  0.250000  0.000000  0.389110  1
  Os  Os14  1  0.750000  0.610890  0.000000  1
  Os  Os15  1  0.250000  0.389110  0.000000  1
