# generated using pymatgen
data_Ho2Tm4Al24Ir5Os3
_symmetry_space_group_name_H-M   'P 1'
_cell_length_a   8.81879223
_cell_length_b   8.78687660
_cell_length_c   9.52270337
_cell_angle_alpha   89.99709620
_cell_angle_beta   89.80604977
_cell_angle_gamma   119.94191369
_symmetry_Int_Tables_number   1
_chemical_formula_structural   Ho2Tm4Al24Ir5Os3
_chemical_formula_sum   'Ho2 Tm4 Al24 Ir5 Os3'
_cell_volume   639.41830429
_cell_formula_units_Z   1
loop_
 _symmetry_equiv_pos_site_id
 _symmetry_equiv_pos_as_xyz
  1  'x, y, z'
loop_
 _atom_site_type_symbol
 _atom_site_label
 _atom_site_symmetry_multiplicity
 _atom_site_fract_x
 _atom_site_fract_y
 _atom_site_fract_z
 _atom_site_occupancy
  Ho  Ho0  1  0.189882  0.805247  0.250716  1
  Ho  Ho1  1  0.810118  0.194753  0.749284  1
  Tm  Tm2  1  0.191569  0.389600  0.251291  1
  Tm  Tm3  1  0.808431  0.610400  0.748709  1
  Tm  Tm4  1  0.612602  0.807025  0.250324  1
  Tm  Tm5  1  0.387398  0.192975  0.749676  1
  Al  Al6  1  0.333560  0.666773  0.030297  1
  Al  Al7  1  0.666440  0.333227  0.969703  1
  Al  Al8  1  0.667888  0.333749  0.528763  1
  Al  Al9  1  0.332112  0.666251  0.471237  1
  Al  Al10  1  0.163320  0.327435  0.575778  1
  Al  Al11  1  0.836680  0.672565  0.424222  1
  Al  Al12  1  0.673125  0.836024  0.576259  1
  Al  Al13  1  0.834961  0.672767  0.075632  1
  Al  Al14  1  0.326875  0.163976  0.423741  1
  Al  Al15  1  0.165039  0.327233  0.924368  1
  Al  Al16  1  0.162814  0.834880  0.576544  1
  Al  Al17  1  0.326584  0.163931  0.076692  1
  Al  Al18  1  0.837186  0.165120  0.423456  1
  Al  Al19  1  0.673416  0.836069  0.923308  1
  Al  Al20  1  0.835429  0.163113  0.076634  1
  Al  Al21  1  0.164571  0.836887  0.923366  1
  Al  Al22  1  0.561619  0.125232  0.249617  1
  Al  Al23  1  0.438381  0.874768  0.750383  1
  Al  Al24  1  0.873836  0.437694  0.250604  1
  Al  Al25  1  0.126164  0.562306  0.749396  1
  Al  Al26  1  0.561118  0.438331  0.249628  1
  Al  Al27  1  0.438882  0.561669  0.750372  1
  Al  Al28  1  0.997587  0.001671  0.250048  1
  Al  Al29  1  0.002413  0.998329  0.749952  1
  Ir  Ir30  1  0.500000  0.000000  0.000000  1
  Ir  Ir31  1  0.000000  0.500000  0.000000  1
  Ir  Ir32  1  0.500000  0.000000  0.500000  1
  Ir  Ir33  1  0.500000  0.500000  0.000000  1
  Ir  Ir34  1  0.500000  0.500000  0.500000  1
  Os  Os35  1  0.000000  0.500000  0.500000  1
  Os  Os36  1  0.000000  0.000000  0.000000  1
  Os  Os37  1  0.000000  0.000000  0.500000  1
