# generated using pymatgen
data_Na8GeAs4
_symmetry_space_group_name_H-M   'P 1'
_cell_length_a   9.81766400
_cell_length_b   9.81766515
_cell_length_c   9.81766400
_cell_angle_alpha   120.00000287
_cell_angle_beta   90.00000000
_cell_angle_gamma   120.00000287
_symmetry_Int_Tables_number   1
_chemical_formula_structural   Na8GeAs4
_chemical_formula_sum   'Na16 Ge2 As8'
_cell_volume   669.12847134
_cell_formula_units_Z   2
loop_
 _symmetry_equiv_pos_site_id
 _symmetry_equiv_pos_as_xyz
  1  'x, y, z'
loop_
 _atom_site_type_symbol
 _atom_site_label
 _atom_site_symmetry_multiplicity
 _atom_site_fract_x
 _atom_site_fract_y
 _atom_site_fract_z
 _atom_site_occupancy
  Na  Na0  1  0.000000  0.000000  0.000000  1
  Na  Na1  1  0.000000  0.500000  0.000000  1
  Na  Na2  1  0.500000  0.500000  0.000000  1
  Na  Na3  1  0.850075  0.249999  0.149924  1
  Na  Na4  1  0.399923  0.249999  0.149924  1
  Na  Na5  1  0.399924  0.799847  0.149924  1
  Na  Na6  1  0.149924  0.299847  0.399923  1
  Na  Na7  1  0.149924  0.749999  0.399924  1
  Na  Na8  1  0.600075  0.749999  0.399924  1
  Na  Na9  1  0.000000  0.000000  0.500000  1
  Na  Na10  1  0.399924  0.249999  0.600075  1
  Na  Na11  1  0.850075  0.700152  0.600076  1
  Na  Na12  1  0.850075  0.249999  0.600076  1
  Na  Na13  1  0.600076  0.200151  0.850075  1
  Na  Na14  1  0.149924  0.749999  0.850075  1
  Na  Na15  1  0.600076  0.749999  0.850075  1
  Ge  Ge16  1  0.874999  0.749999  0.125000  1
  Ge  Ge17  1  0.125000  0.249999  0.874999  1
  As  As18  1  0.230137  0.460275  0.190413  1
  As  As19  1  0.190413  0.960275  0.230137  1
  As  As20  1  0.769861  0.960275  0.230137  1
  As  As21  1  0.769861  0.539724  0.230137  1
  As  As22  1  0.230137  0.460275  0.769861  1
  As  As23  1  0.230137  0.039724  0.769861  1
  As  As24  1  0.809586  0.039724  0.769862  1
  As  As25  1  0.769862  0.539724  0.809586  1
