# generated using pymatgen
data_Y4Er3Th(CdNi)2
_symmetry_space_group_name_H-M   'P 1'
_cell_length_a   9.61952754
_cell_length_b   9.61922728
_cell_length_c   9.63804100
_cell_angle_alpha   59.93256976
_cell_angle_beta   59.93338577
_cell_angle_gamma   60.03355377
_symmetry_Int_Tables_number   1
_chemical_formula_structural   Y4Er3Th(CdNi)2
_chemical_formula_sum   'Y8 Er6 Th2 Cd4 Ni4'
_cell_volume   630.13961517
_cell_formula_units_Z   2
loop_
 _symmetry_equiv_pos_site_id
 _symmetry_equiv_pos_as_xyz
  1  'x, y, z'
loop_
 _atom_site_type_symbol
 _atom_site_label
 _atom_site_symmetry_multiplicity
 _atom_site_fract_x
 _atom_site_fract_y
 _atom_site_fract_z
 _atom_site_occupancy
  Y  Y0  1  0.437834  0.437823  0.062157  1
  Y  Y1  1  0.062424  0.062365  0.437606  1
  Y  Y2  1  0.186948  0.813907  0.815311  1
  Y  Y3  1  0.813904  0.186961  0.183847  1
  Y  Y4  1  0.813908  0.186959  0.815295  1
  Y  Y5  1  0.186952  0.813899  0.183841  1
  Y  Y6  1  0.813598  0.813592  0.186400  1
  Y  Y7  1  0.186537  0.186531  0.813460  1
  Er  Er8  1  0.598044  0.200859  0.600580  1
  Er  Er9  1  0.200876  0.598003  0.600596  1
  Er  Er10  1  0.062552  0.439494  0.437216  1
  Er  Er11  1  0.439504  0.062602  0.060678  1
  Er  Er12  1  0.439517  0.062559  0.437221  1
  Er  Er13  1  0.062595  0.439494  0.060709  1
  Th  Th14  1  0.593754  0.593823  0.600222  1
  Th  Th15  1  0.593775  0.593830  0.212173  1
  Cd  Cd16  1  0.832560  0.832554  0.829921  1
  Cd  Cd17  1  0.832550  0.832547  0.504985  1
  Cd  Cd18  1  0.833349  0.505288  0.830680  1
  Cd  Cd19  1  0.505301  0.833344  0.830674  1
  Ni  Ni20  1  0.392888  0.392874  0.393287  1
  Ni  Ni21  1  0.392851  0.392849  0.820960  1
  Ni  Ni22  1  0.398350  0.819462  0.391098  1
  Ni  Ni23  1  0.819428  0.398378  0.391086  1
