# generated using pymatgen
data_Tb9Th(SiPb3)2
_symmetry_space_group_name_H-M   'P 1'
_cell_length_a   9.41458000
_cell_length_b   9.41970991
_cell_length_c   6.57364800
_cell_angle_alpha   90.00000000
_cell_angle_beta   90.00000000
_cell_angle_gamma   119.98197960
_symmetry_Int_Tables_number   1
_chemical_formula_structural   Tb9Th(SiPb3)2
_chemical_formula_sum   'Tb9 Th1 Si2 Pb6'
_cell_volume   504.95699022
_cell_formula_units_Z   1
loop_
 _symmetry_equiv_pos_site_id
 _symmetry_equiv_pos_as_xyz
  1  'x, y, z'
loop_
 _atom_site_type_symbol
 _atom_site_label
 _atom_site_symmetry_multiplicity
 _atom_site_fract_x
 _atom_site_fract_y
 _atom_site_fract_z
 _atom_site_occupancy
  Tb  Tb0  1  0.750019  0.000000  0.750000  1
  Tb  Tb1  1  0.000165  0.248300  0.250000  1
  Tb  Tb2  1  0.999293  0.750363  0.750000  1
  Tb  Tb3  1  0.751865  0.751700  0.250000  1
  Tb  Tb4  1  0.248930  0.249637  0.750000  1
  Tb  Tb5  1  0.333359  0.666317  0.999412  1
  Tb  Tb6  1  0.667043  0.333683  0.999412  1
  Tb  Tb7  1  0.667043  0.333683  0.500588  1
  Tb  Tb8  1  0.333359  0.666317  0.500588  1
  Th  Th9  1  0.250302  0.000000  0.250000  1
  Si  Si10  1  0.998128  0.000000  0.995908  1
  Si  Si11  1  0.998128  0.000000  0.504092  1
  Pb  Pb12  1  0.610850  0.000000  0.250000  1
  Pb  Pb13  1  0.391679  0.000000  0.750000  1
  Pb  Pb14  1  0.997275  0.602051  0.250000  1
  Pb  Pb15  1  0.000197  0.393058  0.750000  1
  Pb  Pb16  1  0.395224  0.397949  0.250000  1
  Pb  Pb17  1  0.607139  0.606942  0.750000  1
