# generated using pymatgen
data_Hf2Zr4NbAl6Mo3N2
_symmetry_space_group_name_H-M   'P 1'
_cell_length_a   7.96050800
_cell_length_b   7.94067416
_cell_length_c   5.36697400
_cell_angle_alpha   90.00000000
_cell_angle_beta   90.00000000
_cell_angle_gamma   120.08255104
_symmetry_Int_Tables_number   1
_chemical_formula_structural   Hf2Zr4NbAl6Mo3N2
_chemical_formula_sum   'Hf2 Zr4 Nb1 Al6 Mo3 N2'
_cell_volume   293.55968789
_cell_formula_units_Z   1
loop_
 _symmetry_equiv_pos_site_id
 _symmetry_equiv_pos_as_xyz
  1  'x, y, z'
loop_
 _atom_site_type_symbol
 _atom_site_label
 _atom_site_symmetry_multiplicity
 _atom_site_fract_x
 _atom_site_fract_y
 _atom_site_fract_z
 _atom_site_occupancy
  Hf  Hf0  1  0.999214  0.769905  0.750327  1
  Hf  Hf1  1  0.229847  0.229601  0.750418  1
  Zr  Zr2  1  0.234095  0.000302  0.249617  1
  Zr  Zr3  1  0.000481  0.231565  0.249706  1
  Zr  Zr4  1  0.769205  0.768145  0.249624  1
  Zr  Zr5  1  0.767463  0.000418  0.750220  1
  Nb  Nb6  1  0.665912  0.334139  0.999678  1
  Al  Al7  1  0.584162  0.995704  0.254908  1
  Al  Al8  1  0.003615  0.587048  0.255163  1
  Al  Al9  1  0.412409  0.417225  0.255014  1
  Al  Al10  1  0.412016  0.995848  0.745196  1
  Al  Al11  1  0.003349  0.416750  0.745082  1
  Al  Al12  1  0.582392  0.587279  0.745024  1
  Mo  Mo13  1  0.331682  0.665786  0.999296  1
  Mo  Mo14  1  0.665820  0.334210  0.499819  1
  Mo  Mo15  1  0.331854  0.666027  0.500726  1
  N  N16  1  0.003199  0.000044  0.997070  1
  N  N17  1  0.003288  0.000001  0.503111  1
