# generated using pymatgen
data_Tb3Y3GaTcNi
_symmetry_space_group_name_H-M   'P 1'
_cell_length_a   8.40063917
_cell_length_b   8.40063946
_cell_length_c   8.40063960
_cell_angle_alpha   104.32451689
_cell_angle_beta   110.89402279
_cell_angle_gamma   113.32497244
_symmetry_Int_Tables_number   1
_chemical_formula_structural   Tb3Y3GaTcNi
_chemical_formula_sum   'Tb6 Y6 Ga2 Tc2 Ni2'
_cell_volume   453.41409007
_cell_formula_units_Z   2
loop_
 _symmetry_equiv_pos_site_id
 _symmetry_equiv_pos_as_xyz
  1  'x, y, z'
loop_
 _atom_site_type_symbol
 _atom_site_label
 _atom_site_symmetry_multiplicity
 _atom_site_fract_x
 _atom_site_fract_y
 _atom_site_fract_z
 _atom_site_occupancy
  Tb  Tb0  1  0.184782  0.852286  0.667503  1
  Tb  Tb1  1  0.184782  0.517279  0.332497  1
  Tb  Tb2  1  0.601128  0.780672  0.820455  1
  Tb  Tb3  1  0.960217  0.780672  0.179545  1
  Tb  Tb4  1  0.039863  0.219826  0.820036  1
  Tb  Tb5  1  0.399789  0.219826  0.179964  1
  Y  Y6  1  0.689638  0.256367  0.946634  1
  Y  Y7  1  0.309734  0.743004  0.053366  1
  Y  Y8  1  0.689638  0.743004  0.433271  1
  Y  Y9  1  0.309734  0.256367  0.566729  1
  Y  Y10  1  0.814145  0.146448  0.332302  1
  Y  Y11  1  0.814145  0.481843  0.667698  1
  Ga  Ga12  1  0.499977  0.499977  0.000000  1
  Ga  Ga13  1  0.500475  0.000475  0.500000  1
  Tc  Tc14  1  0.821370  0.500660  0.320710  1
  Tc  Tc15  1  0.179951  0.500660  0.679290  1
  Ni  Ni16  1  0.000315  0.116844  0.116528  1
  Ni  Ni17  1  0.000315  0.883787  0.883472  1
