# generated using pymatgen
data_Er3LuSi4RuRh3
_symmetry_space_group_name_H-M   'P 1'
_cell_length_a   4.24861000
_cell_length_b   6.85736357
_cell_length_c   7.27253180
_cell_angle_alpha   90.22134371
_cell_angle_beta   90.00000000
_cell_angle_gamma   90.00000000
_symmetry_Int_Tables_number   1
_chemical_formula_structural   Er3LuSi4RuRh3
_chemical_formula_sum   'Er3 Lu1 Si4 Ru1 Rh3'
_cell_volume   211.87827640
_cell_formula_units_Z   1
loop_
 _symmetry_equiv_pos_site_id
 _symmetry_equiv_pos_as_xyz
  1  'x, y, z'
loop_
 _atom_site_type_symbol
 _atom_site_label
 _atom_site_symmetry_multiplicity
 _atom_site_fract_x
 _atom_site_fract_y
 _atom_site_fract_z
 _atom_site_occupancy
  Er  Er0  1  0.750000  0.001320  0.813435  1
  Er  Er1  1  0.250000  0.495252  0.308558  1
  Er  Er2  1  0.750000  0.505831  0.689378  1
  Lu  Lu3  1  0.250000  0.996385  0.189773  1
  Si  Si4  1  0.750000  0.200209  0.393849  1
  Si  Si5  1  0.250000  0.295439  0.893927  1
  Si  Si6  1  0.750000  0.705268  0.112476  1
  Si  Si7  1  0.250000  0.797855  0.598921  1
  Ru  Ru8  1  0.750000  0.846218  0.432606  1
  Rh  Rh9  1  0.250000  0.156491  0.565889  1
  Rh  Rh10  1  0.750000  0.342418  0.069703  1
  Rh  Rh11  1  0.250000  0.657314  0.931484  1
