# generated using pymatgen
data_Yb5Sm3(Si3Pt)4
_symmetry_space_group_name_H-M   'P 1'
_cell_length_a   8.25284800
_cell_length_b   8.25284811
_cell_length_c   8.24079000
_cell_angle_alpha   90.00000000
_cell_angle_beta   90.00000000
_cell_angle_gamma   120.17885821
_symmetry_Int_Tables_number   1
_chemical_formula_structural   Yb5Sm3(Si3Pt)4
_chemical_formula_sum   'Yb5 Sm3 Si12 Pt4'
_cell_volume   485.20093178
_cell_formula_units_Z   1
loop_
 _symmetry_equiv_pos_site_id
 _symmetry_equiv_pos_as_xyz
  1  'x, y, z'
loop_
 _atom_site_type_symbol
 _atom_site_label
 _atom_site_symmetry_multiplicity
 _atom_site_fract_x
 _atom_site_fract_y
 _atom_site_fract_z
 _atom_site_occupancy
  Yb  Yb0  1  0.501632  0.003007  0.250000  1
  Yb  Yb1  1  0.498232  0.997114  0.750000  1
  Yb  Yb2  1  0.996993  0.498368  0.250000  1
  Yb  Yb3  1  0.002886  0.501768  0.750000  1
  Yb  Yb4  1  0.501527  0.498473  0.250000  1
  Sm  Sm5  1  0.498565  0.501435  0.750000  1
  Sm  Sm6  1  0.999856  0.000144  0.250000  1
  Sm  Sm7  1  0.000088  0.999912  0.750000  1
  Si  Si8  1  0.165064  0.330410  0.000403  1
  Si  Si9  1  0.834996  0.669598  0.998365  1
  Si  Si10  1  0.669590  0.834936  0.000403  1
  Si  Si11  1  0.834996  0.669598  0.501635  1
  Si  Si12  1  0.330402  0.165004  0.998365  1
  Si  Si13  1  0.165064  0.330410  0.499597  1
  Si  Si14  1  0.165525  0.834475  0.000460  1
  Si  Si15  1  0.330402  0.165004  0.501635  1
  Si  Si16  1  0.834492  0.165508  0.997462  1
  Si  Si17  1  0.669590  0.834936  0.499597  1
  Si  Si18  1  0.834492  0.165508  0.502538  1
  Si  Si19  1  0.165525  0.834475  0.499540  1
  Pt  Pt20  1  0.333193  0.666807  0.002775  1
  Pt  Pt21  1  0.666848  0.333152  0.997501  1
  Pt  Pt22  1  0.666848  0.333152  0.502499  1
  Pt  Pt23  1  0.333193  0.666807  0.497225  1
