# generated using pymatgen
data_NaLa4Co4Hg
_symmetry_space_group_name_H-M   'P 1'
_cell_length_a   4.03129300
_cell_length_b   4.03129399
_cell_length_c   18.98035900
_cell_angle_alpha   90.00000000
_cell_angle_beta   90.00000000
_cell_angle_gamma   120.00000010
_symmetry_Int_Tables_number   1
_chemical_formula_structural   NaLa4Co4Hg
_chemical_formula_sum   'Na1 La4 Co4 Hg1'
_cell_volume   267.13075344
_cell_formula_units_Z   1
loop_
 _symmetry_equiv_pos_site_id
 _symmetry_equiv_pos_as_xyz
  1  'x, y, z'
loop_
 _atom_site_type_symbol
 _atom_site_label
 _atom_site_symmetry_multiplicity
 _atom_site_fract_x
 _atom_site_fract_y
 _atom_site_fract_z
 _atom_site_occupancy
  Na  Na0  1  0.333333  0.666667  0.250000  1
  La  La1  1  0.000000  0.000000  0.074302  1
  La  La2  1  0.000000  0.000000  0.877087  1
  La  La3  1  0.000000  0.000000  0.622913  1
  La  La4  1  0.000000  0.000000  0.425698  1
  Co  Co5  1  0.333333  0.666667  0.522506  1
  Co  Co6  1  0.666667  0.333333  0.520334  1
  Co  Co7  1  0.666667  0.333333  0.979666  1
  Co  Co8  1  0.333333  0.666667  0.977494  1
  Hg  Hg9  1  0.666667  0.333333  0.750000  1
