# generated using pymatgen
data_AlV5Os4
_symmetry_space_group_name_H-M   'P 1'
_cell_length_a   4.24014609
_cell_length_b   7.88030688
_cell_length_c   4.24538100
_cell_angle_alpha   90.00000000
_cell_angle_beta   90.00000000
_cell_angle_gamma   74.35864651
_symmetry_Int_Tables_number   1
_chemical_formula_structural   AlV5Os4
_chemical_formula_sum   'Al1 V5 Os4'
_cell_volume   136.60059094
_cell_formula_units_Z   1
loop_
 _symmetry_equiv_pos_site_id
 _symmetry_equiv_pos_as_xyz
  1  'x, y, z'
loop_
 _atom_site_type_symbol
 _atom_site_label
 _atom_site_symmetry_multiplicity
 _atom_site_fract_x
 _atom_site_fract_y
 _atom_site_fract_z
 _atom_site_occupancy
  Al  Al0  1  0.083398  0.799947  0.500001  1
  V  V1  1  0.380740  0.204352  0.000000  1
  V  V2  1  0.785855  0.395680  0.000000  1
  V  V3  1  0.583285  0.800035  0.000000  1
  V  V4  1  0.883276  0.199724  0.500001  1
  V  V5  1  0.283365  0.400268  0.500001  1
  Os  Os6  1  0.981429  0.003720  0.000000  1
  Os  Os7  1  0.185176  0.596288  0.000000  1
  Os  Os8  1  0.480759  0.005487  0.500001  1
  Os  Os9  1  0.685894  0.594498  0.500001  1
