# generated using pymatgen
data_Yb10Cu3PtAu2
_symmetry_space_group_name_H-M   'P 1'
_cell_length_a   8.88194988
_cell_length_b   8.88194951
_cell_length_c   8.88288500
_cell_angle_alpha   128.98368335
_cell_angle_beta   128.98367309
_cell_angle_gamma   75.02897454
_symmetry_Int_Tables_number   1
_chemical_formula_structural   Yb10Cu3PtAu2
_chemical_formula_sum   'Yb10 Cu3 Pt1 Au2'
_cell_volume   412.32630308
_cell_formula_units_Z   1
loop_
 _symmetry_equiv_pos_site_id
 _symmetry_equiv_pos_as_xyz
  1  'x, y, z'
loop_
 _atom_site_type_symbol
 _atom_site_label
 _atom_site_symmetry_multiplicity
 _atom_site_fract_x
 _atom_site_fract_y
 _atom_site_fract_z
 _atom_site_occupancy
  Yb  Yb0  1  0.496993  0.501344  0.998337  1
  Yb  Yb1  1  0.001344  0.996993  0.998337  1
  Yb  Yb2  1  0.529847  0.029847  0.841325  1
  Yb  Yb3  1  0.186675  0.686675  0.151945  1
  Yb  Yb4  1  0.031751  0.192400  0.504082  1
  Yb  Yb5  1  0.692400  0.531751  0.504082  1
  Yb  Yb6  1  0.465272  0.965272  0.151945  1
  Yb  Yb7  1  0.811476  0.311476  0.841325  1
  Yb  Yb8  1  0.972333  0.811683  0.504082  1
  Yb  Yb9  1  0.311683  0.472333  0.504082  1
  Cu  Cu10  1  0.878200  0.378200  0.256401  1
  Cu  Cu11  1  0.616542  0.883015  0.499556  1
  Cu  Cu12  1  0.383015  0.116542  0.499556  1
  Pt  Pt13  1  0.121580  0.621580  0.743161  1
  Au  Au14  1  0.250445  0.250445  0.000888  1
  Au  Au15  1  0.750445  0.750445  0.000888  1
