# generated using pymatgen
data_NdY7Mg2(SiB4)4
_symmetry_space_group_name_H-M   'P 1'
_cell_length_a   7.19929608
_cell_length_b   7.19929608
_cell_length_c   7.91964615
_cell_angle_alpha   90.01575070
_cell_angle_beta   90.01575070
_cell_angle_gamma   89.99309092
_symmetry_Int_Tables_number   1
_chemical_formula_structural   NdY7Mg2(SiB4)4
_chemical_formula_sum   'Nd1 Y7 Mg2 Si4 B16'
_cell_volume   410.47414936
_cell_formula_units_Z   1
loop_
 _symmetry_equiv_pos_site_id
 _symmetry_equiv_pos_as_xyz
  1  'x, y, z'
loop_
 _atom_site_type_symbol
 _atom_site_label
 _atom_site_symmetry_multiplicity
 _atom_site_fract_x
 _atom_site_fract_y
 _atom_site_fract_z
 _atom_site_occupancy
  Nd  Nd0  1  0.682939  0.182939  0.238799  1
  Y  Y1  1  0.316952  0.816952  0.767191  1
  Y  Y2  1  0.316911  0.816911  0.232546  1
  Y  Y3  1  0.817572  0.682757  0.232551  1
  Y  Y4  1  0.817369  0.682860  0.767823  1
  Y  Y5  1  0.682709  0.182709  0.767198  1
  Y  Y6  1  0.182860  0.317369  0.767823  1
  Y  Y7  1  0.182757  0.317572  0.232551  1
  Mg  Mg8  1  0.001519  0.998968  0.501844  1
  Mg  Mg9  1  0.498968  0.501519  0.501844  1
  Si  Si10  1  0.116457  0.616457  0.500640  1
  Si  Si11  1  0.887639  0.387639  0.503871  1
  Si  Si12  1  0.382012  0.112838  0.503122  1
  Si  Si13  1  0.612838  0.882012  0.503122  1
  B  B14  1  0.174174  0.039032  0.998623  1
  B  B15  1  0.827207  0.959600  0.998683  1
  B  B16  1  0.961472  0.173057  0.998947  1
  B  B17  1  0.325812  0.540037  0.998849  1
  B  B18  1  0.040037  0.825812  0.998849  1
  B  B19  1  0.673057  0.461472  0.998947  1
  B  B20  1  0.539032  0.674174  0.998623  1
  B  B21  1  0.459600  0.327207  0.998683  1
  B  B22  1  0.088910  0.588910  0.999157  1
  B  B23  1  0.910984  0.410984  0.999434  1
  B  B24  1  0.410442  0.089223  0.997731  1
  B  B25  1  0.589223  0.910442  0.997731  1
  B  B26  1  0.001948  0.998943  0.158878  1
  B  B27  1  0.000148  0.999512  0.838531  1
  B  B28  1  0.499512  0.500148  0.838531  1
  B  B29  1  0.498943  0.501948  0.158878  1
