# generated using pymatgen
data_Ca2Sm2RuRh3O14
_symmetry_space_group_name_H-M   'P 1'
_cell_length_a   7.27754400
_cell_length_b   7.27754284
_cell_length_c   7.36745525
_cell_angle_alpha   59.99073890
_cell_angle_beta   59.99074334
_cell_angle_gamma   59.61641520
_symmetry_Int_Tables_number   1
_chemical_formula_structural   Ca2Sm2RuRh3O14
_chemical_formula_sum   'Ca2 Sm2 Ru1 Rh3 O14'
_cell_volume   275.06595930
_cell_formula_units_Z   1
loop_
 _symmetry_equiv_pos_site_id
 _symmetry_equiv_pos_as_xyz
  1  'x, y, z'
loop_
 _atom_site_type_symbol
 _atom_site_label
 _atom_site_symmetry_multiplicity
 _atom_site_fract_x
 _atom_site_fract_y
 _atom_site_fract_z
 _atom_site_occupancy
  Ca  Ca0  1  0.625000  0.125000  0.625000  1
  Ca  Ca1  1  0.125000  0.625000  0.625000  1
  Sm  Sm2  1  0.625000  0.625000  0.125000  1
  Sm  Sm3  1  0.625000  0.625000  0.625000  1
  Ru  Ru4  1  0.125000  0.125000  0.625000  1
  Rh  Rh5  1  0.625000  0.125000  0.125000  1
  Rh  Rh6  1  0.125000  0.625000  0.125000  1
  Rh  Rh7  1  0.125000  0.125000  0.125000  1
  O  O8  1  0.194000  0.194000  0.801971  1
  O  O9  1  0.203502  0.793986  0.207031  1
  O  O10  1  0.456014  0.046498  0.042969  1
  O  O11  1  0.202206  0.802785  0.798581  1
  O  O12  1  0.047794  0.447215  0.451419  1
  O  O13  1  0.791514  0.791514  0.212464  1
  O  O14  1  0.458486  0.458486  0.037536  1
  O  O15  1  0.500408  0.500408  0.499490  1
  O  O16  1  0.056000  0.056000  0.448029  1
  O  O17  1  0.447215  0.047794  0.451419  1
  O  O18  1  0.046498  0.456014  0.042969  1
  O  O19  1  0.749592  0.749592  0.750510  1
  O  O20  1  0.802785  0.202206  0.798581  1
  O  O21  1  0.793986  0.203502  0.207031  1
