# generated using pymatgen
data_Mn3Al4Cu(AsO5)4
_symmetry_space_group_name_H-M   'P 1'
_cell_length_a   10.71768163
_cell_length_b   5.68141630
_cell_length_c   7.54229869
_cell_angle_alpha   81.62756300
_cell_angle_beta   89.29967832
_cell_angle_gamma   89.79366774
_symmetry_Int_Tables_number   1
_chemical_formula_structural   Mn3Al4Cu(AsO5)4
_chemical_formula_sum   'Mn3 Al4 Cu1 As4 O20'
_cell_volume   454.33341275
_cell_formula_units_Z   1
loop_
 _symmetry_equiv_pos_site_id
 _symmetry_equiv_pos_as_xyz
  1  'x, y, z'
loop_
 _atom_site_type_symbol
 _atom_site_label
 _atom_site_symmetry_multiplicity
 _atom_site_fract_x
 _atom_site_fract_y
 _atom_site_fract_z
 _atom_site_occupancy
  Mn  Mn0  1  0.645274  0.615905  0.474450  1
  Mn  Mn1  1  0.857164  0.115314  0.470495  1
  Mn  Mn2  1  0.353793  0.381506  0.522850  1
  Al  Al3  1  0.318960  0.936521  0.856896  1
  Al  Al4  1  0.675195  0.067692  0.142615  1
  Al  Al5  1  0.179731  0.439328  0.856919  1
  Al  Al6  1  0.821228  0.566369  0.138842  1
  Cu  Cu7  1  0.143872  0.907064  0.536294  1
  As  As8  1  0.393837  0.923985  0.270072  1
  As  As9  1  0.904938  0.572121  0.728777  1
  As  As10  1  0.103346  0.425528  0.271124  1
  As  As11  1  0.599733  0.068616  0.731891  1
  O  O12  1  0.809094  0.623726  0.901808  1
  O  O13  1  0.542342  0.331097  0.621822  1
  O  O14  1  0.768324  0.278500  0.230326  1
  O  O15  1  0.515171  0.114293  0.201053  1
  O  O16  1  0.276241  0.229964  0.773091  1
  O  O17  1  0.185628  0.555901  0.422501  1
  O  O18  1  0.457217  0.663603  0.374260  1
  O  O19  1  0.044787  0.153438  0.375625  1
  O  O20  1  0.819503  0.442857  0.577007  1
  O  O21  1  0.478688  0.880564  0.803125  1
  O  O22  1  0.690501  0.122020  0.905802  1
  O  O23  1  0.196438  0.382654  0.092847  1
  O  O24  1  0.306372  0.053042  0.425867  1
  O  O25  1  0.979273  0.603058  0.197260  1
  O  O26  1  0.303516  0.876861  0.094180  1
  O  O27  1  0.689281  0.936773  0.581934  1
  O  O28  1  0.224034  0.732637  0.763451  1
  O  O29  1  0.728352  0.779285  0.228174  1
  O  O30  1  0.966095  0.839117  0.622878  1
  O  O31  1  0.022073  0.380661  0.805766  1
