# generated using pymatgen
data_Lu6MgZn22Si
_symmetry_space_group_name_H-M   'P 1'
_cell_length_a   9.01440362
_cell_length_b   9.01440256
_cell_length_c   9.01440400
_cell_angle_alpha   60.00000207
_cell_angle_beta   60.00000594
_cell_angle_gamma   60.00000221
_symmetry_Int_Tables_number   1
_chemical_formula_structural   Lu6MgZn22Si
_chemical_formula_sum   'Lu6 Mg1 Zn22 Si1'
_cell_volume   517.95973753
_cell_formula_units_Z   1
loop_
 _symmetry_equiv_pos_site_id
 _symmetry_equiv_pos_as_xyz
  1  'x, y, z'
loop_
 _atom_site_type_symbol
 _atom_site_label
 _atom_site_symmetry_multiplicity
 _atom_site_fract_x
 _atom_site_fract_y
 _atom_site_fract_z
 _atom_site_occupancy
  Lu  Lu0  1  0.714750  0.285250  0.285250  1
  Lu  Lu1  1  0.285250  0.714750  0.714750  1
  Lu  Lu2  1  0.285250  0.714750  0.285250  1
  Lu  Lu3  1  0.714750  0.285250  0.714750  1
  Lu  Lu4  1  0.285250  0.285250  0.714750  1
  Lu  Lu5  1  0.714750  0.714750  0.285250  1
  Mg  Mg6  1  0.000000  0.000000  0.000000  1
  Zn  Zn7  1  0.127406  0.127406  0.127406  1
  Zn  Zn8  1  0.872594  0.872594  0.872594  1
  Zn  Zn9  1  0.127406  0.127406  0.617784  1
  Zn  Zn10  1  0.127406  0.617784  0.127406  1
  Zn  Zn11  1  0.872594  0.872594  0.382216  1
  Zn  Zn12  1  0.872594  0.382216  0.872594  1
  Zn  Zn13  1  0.617784  0.127406  0.127406  1
  Zn  Zn14  1  0.382216  0.872594  0.872594  1
  Zn  Zn15  1  0.500000  0.000000  0.000000  1
  Zn  Zn16  1  0.000000  0.500000  0.500000  1
  Zn  Zn17  1  0.000000  0.500000  0.000000  1
  Zn  Zn18  1  0.500000  0.000000  0.500000  1
  Zn  Zn19  1  0.000000  0.000000  0.500000  1
  Zn  Zn20  1  0.500000  0.500000  0.000000  1
  Zn  Zn21  1  0.334464  0.334464  0.334464  1
  Zn  Zn22  1  0.665536  0.665536  0.665536  1
  Zn  Zn23  1  0.334464  0.334464  0.996608  1
  Zn  Zn24  1  0.334464  0.996608  0.334464  1
  Zn  Zn25  1  0.665536  0.665536  0.003392  1
  Zn  Zn26  1  0.665536  0.003392  0.665536  1
  Zn  Zn27  1  0.996608  0.334464  0.334464  1
  Zn  Zn28  1  0.003392  0.665536  0.665536  1
  Si  Si29  1  0.500000  0.500000  0.500000  1
