# generated using pymatgen
data_Ho9ScCd3Ru
_symmetry_space_group_name_H-M   'P 1'
_cell_length_a   9.47405200
_cell_length_b   9.47405039
_cell_length_c   9.72474600
_cell_angle_alpha   90.00000000
_cell_angle_beta   90.00000000
_cell_angle_gamma   119.99999167
_symmetry_Int_Tables_number   1
_chemical_formula_structural   Ho9ScCd3Ru
_chemical_formula_sum   'Ho18 Sc2 Cd6 Ru2'
_cell_volume   755.92792527
_cell_formula_units_Z   2
loop_
 _symmetry_equiv_pos_site_id
 _symmetry_equiv_pos_as_xyz
  1  'x, y, z'
loop_
 _atom_site_type_symbol
 _atom_site_label
 _atom_site_symmetry_multiplicity
 _atom_site_fract_x
 _atom_site_fract_y
 _atom_site_fract_z
 _atom_site_occupancy
  Ho  Ho0  1  0.208790  0.791210  0.441770  1
  Ho  Ho1  1  0.208790  0.417583  0.441770  1
  Ho  Ho2  1  0.582417  0.791210  0.441770  1
  Ho  Ho3  1  0.791210  0.208790  0.558230  1
  Ho  Ho4  1  0.791210  0.582417  0.558230  1
  Ho  Ho5  1  0.417583  0.208790  0.558230  1
  Ho  Ho6  1  0.791210  0.208790  0.941770  1
  Ho  Ho7  1  0.791210  0.582417  0.941770  1
  Ho  Ho8  1  0.417583  0.208790  0.941770  1
  Ho  Ho9  1  0.208790  0.791210  0.058230  1
  Ho  Ho10  1  0.208790  0.417583  0.058230  1
  Ho  Ho11  1  0.582417  0.791210  0.058230  1
  Ho  Ho12  1  0.540773  0.459227  0.250000  1
  Ho  Ho13  1  0.540773  0.081547  0.250000  1
  Ho  Ho14  1  0.918453  0.459227  0.250000  1
  Ho  Ho15  1  0.459227  0.540773  0.750000  1
  Ho  Ho16  1  0.459227  0.918453  0.750000  1
  Ho  Ho17  1  0.081547  0.540773  0.750000  1
  Sc  Sc18  1  0.000000  0.000000  0.500000  1
  Sc  Sc19  1  0.000000  0.000000  0.000000  1
  Cd  Cd20  1  0.888176  0.111824  0.250000  1
  Cd  Cd21  1  0.888176  0.776354  0.250000  1
  Cd  Cd22  1  0.223646  0.111824  0.250000  1
  Cd  Cd23  1  0.111824  0.888176  0.750000  1
  Cd  Cd24  1  0.111824  0.223646  0.750000  1
  Cd  Cd25  1  0.776354  0.888176  0.750000  1
  Ru  Ru26  1  0.333333  0.666667  0.250000  1
  Ru  Ru27  1  0.666667  0.333333  0.750000  1
