# generated using pymatgen
data_Er13Tm3Tl4RuRh3
_symmetry_space_group_name_H-M   'P 1'
_cell_length_a   9.60143556
_cell_length_b   9.60151367
_cell_length_c   9.61731211
_cell_angle_alpha   59.87367501
_cell_angle_beta   59.92228995
_cell_angle_gamma   59.87344772
_symmetry_Int_Tables_number   1
_chemical_formula_structural   Er13Tm3Tl4RuRh3
_chemical_formula_sum   'Er13 Tm3 Tl4 Ru1 Rh3'
_cell_volume   625.35585689
_cell_formula_units_Z   1
loop_
 _symmetry_equiv_pos_site_id
 _symmetry_equiv_pos_as_xyz
  1  'x, y, z'
loop_
 _atom_site_type_symbol
 _atom_site_label
 _atom_site_symmetry_multiplicity
 _atom_site_fract_x
 _atom_site_fract_y
 _atom_site_fract_z
 _atom_site_occupancy
  Er  Er0  1  0.058281  0.057604  0.439972  1
  Er  Er1  1  0.442572  0.059580  0.437027  1
  Er  Er2  1  0.060353  0.440522  0.058783  1
  Er  Er3  1  0.046892  0.649350  0.648975  1
  Er  Er4  1  0.440393  0.440089  0.058534  1
  Er  Er5  1  0.649788  0.046353  0.650218  1
  Er  Er6  1  0.187677  0.811494  0.191581  1
  Er  Er7  1  0.189230  0.189513  0.810856  1
  Er  Er8  1  0.810964  0.810859  0.191911  1
  Er  Er9  1  0.438633  0.061311  0.060131  1
  Er  Er10  1  0.810683  0.188156  0.192759  1
  Er  Er11  1  0.060511  0.441804  0.435916  1
  Er  Er12  1  0.811079  0.190644  0.810182  1
  Tm  Tm13  1  0.191236  0.810513  0.809584  1
  Tm  Tm14  1  0.649244  0.650830  0.049165  1
  Tm  Tm15  1  0.653115  0.652526  0.649375  1
  Tl  Tl16  1  0.413034  0.414286  0.414982  1
  Tl  Tl17  1  0.758259  0.414331  0.414125  1
  Tl  Tl18  1  0.414831  0.757776  0.413824  1
  Tl  Tl19  1  0.415351  0.414867  0.756388  1
  Ru  Ru20  1  0.857937  0.858088  0.425569  1
  Rh  Rh21  1  0.859486  0.856834  0.859439  1
  Rh  Rh22  1  0.425147  0.856538  0.859595  1
  Rh  Rh23  1  0.855308  0.426132  0.861114  1
