# generated using pymatgen
data_TbDy5Pa2(ReB6)4
_symmetry_space_group_name_H-M   'P 1'
_cell_length_a   3.70813800
_cell_length_b   9.18501710
_cell_length_c   11.54709005
_cell_angle_alpha   90.35551778
_cell_angle_beta   90.00000000
_cell_angle_gamma   90.00000000
_symmetry_Int_Tables_number   1
_chemical_formula_structural   TbDy5Pa2(ReB6)4
_chemical_formula_sum   'Tb1 Dy5 Pa2 Re4 B24'
_cell_volume   393.27835932
_cell_formula_units_Z   1
loop_
 _symmetry_equiv_pos_site_id
 _symmetry_equiv_pos_as_xyz
  1  'x, y, z'
loop_
 _atom_site_type_symbol
 _atom_site_label
 _atom_site_symmetry_multiplicity
 _atom_site_fract_x
 _atom_site_fract_y
 _atom_site_fract_z
 _atom_site_occupancy
  Tb  Tb0  1  0.000000  0.824201  0.085735  1
  Dy  Dy1  1  0.000000  0.175811  0.914303  1
  Dy  Dy2  1  0.000000  0.944706  0.372893  1
  Dy  Dy3  1  0.000000  0.055329  0.627138  1
  Dy  Dy4  1  0.000000  0.443678  0.126590  1
  Dy  Dy5  1  0.000000  0.556207  0.873362  1
  Pa  Pa6  1  0.000000  0.322049  0.412945  1
  Pa  Pa7  1  0.000000  0.677945  0.587060  1
  Re  Re8  1  0.000000  0.635234  0.325058  1
  Re  Re9  1  0.000000  0.364714  0.675017  1
  Re  Re10  1  0.000000  0.140492  0.181838  1
  Re  Re11  1  0.000000  0.859690  0.818105  1
  B  B12  1  0.500000  0.553001  0.433005  1
  B  B13  1  0.500000  0.446990  0.567001  1
  B  B14  1  0.500000  0.053408  0.067478  1
  B  B15  1  0.500000  0.946811  0.932413  1
  B  B16  1  0.500000  0.747480  0.419712  1
  B  B17  1  0.500000  0.252520  0.580308  1
  B  B18  1  0.500000  0.247459  0.080317  1
  B  B19  1  0.500000  0.752530  0.919476  1
  B  B20  1  0.500000  0.791030  0.266473  1
  B  B21  1  0.500000  0.208888  0.733663  1
  B  B22  1  0.500000  0.292079  0.233651  1
  B  B23  1  0.500000  0.707916  0.766324  1
  B  B24  1  0.500000  0.631471  0.185971  1
  B  B25  1  0.500000  0.368387  0.814124  1
  B  B26  1  0.500000  0.132714  0.313855  1
  B  B27  1  0.500000  0.867305  0.686155  1
  B  B28  1  0.500000  0.982815  0.212544  1
  B  B29  1  0.500000  0.017408  0.787531  1
  B  B30  1  0.500000  0.482988  0.286951  1
  B  B31  1  0.500000  0.516988  0.713060  1
  B  B32  1  0.500000  0.605975  0.029717  1
  B  B33  1  0.500000  0.393778  0.970217  1
  B  B34  1  0.500000  0.113182  0.468678  1
  B  B35  1  0.500000  0.886823  0.531332  1
