# generated using pymatgen
data_Mg4Si2Pd3Pt7
_symmetry_space_group_name_H-M   'P 1'
_cell_length_a   4.04429700
_cell_length_b   5.57235135
_cell_length_c   10.71433550
_cell_angle_alpha   89.84038167
_cell_angle_beta   90.00000000
_cell_angle_gamma   90.00000000
_symmetry_Int_Tables_number   1
_chemical_formula_structural   Mg4Si2Pd3Pt7
_chemical_formula_sum   'Mg4 Si2 Pd3 Pt7'
_cell_volume   241.45994055
_cell_formula_units_Z   1
loop_
 _symmetry_equiv_pos_site_id
 _symmetry_equiv_pos_as_xyz
  1  'x, y, z'
loop_
 _atom_site_type_symbol
 _atom_site_label
 _atom_site_symmetry_multiplicity
 _atom_site_fract_x
 _atom_site_fract_y
 _atom_site_fract_z
 _atom_site_occupancy
  Mg  Mg0  1  0.500000  0.158611  0.142786  1
  Mg  Mg1  1  0.500000  0.840148  0.857295  1
  Mg  Mg2  1  0.500000  0.340491  0.642494  1
  Mg  Mg3  1  0.500000  0.659415  0.356191  1
  Si  Si4  1  0.000000  0.004528  0.502184  1
  Si  Si5  1  0.000000  0.500646  0.000647  1
  Pd  Pd6  1  0.000000  0.917250  0.265591  1
  Pd  Pd7  1  0.000000  0.000470  0.000080  1
  Pd  Pd8  1  0.000000  0.502201  0.499100  1
  Pt  Pt9  1  0.500000  0.176227  0.398501  1
  Pt  Pt10  1  0.500000  0.821852  0.601518  1
  Pt  Pt11  1  0.500000  0.321868  0.898232  1
  Pt  Pt12  1  0.500000  0.676756  0.101035  1
  Pt  Pt13  1  0.000000  0.417220  0.234049  1
  Pt  Pt14  1  0.000000  0.580972  0.765514  1
  Pt  Pt15  1  0.000000  0.081344  0.734783  1
