# generated using pymatgen
data_Tb4Er8Co4BiIr
_symmetry_space_group_name_H-M   'P 1'
_cell_length_a   8.29860731
_cell_length_b   8.29860583
_cell_length_c   8.29860608
_cell_angle_alpha   110.68100111
_cell_angle_beta   110.97018522
_cell_angle_gamma   106.79529591
_symmetry_Int_Tables_number   1
_chemical_formula_structural   Tb4Er8Co4BiIr
_chemical_formula_sum   'Tb4 Er8 Co4 Bi1 Ir1'
_cell_volume   439.22177122
_cell_formula_units_Z   1
loop_
 _symmetry_equiv_pos_site_id
 _symmetry_equiv_pos_as_xyz
  1  'x, y, z'
loop_
 _atom_site_type_symbol
 _atom_site_label
 _atom_site_symmetry_multiplicity
 _atom_site_fract_x
 _atom_site_fract_y
 _atom_site_fract_z
 _atom_site_occupancy
  Tb  Tb0  1  0.285217  0.183438  0.468654  1
  Tb  Tb1  1  0.714783  0.816562  0.531346  1
  Tb  Tb2  1  0.285217  0.816562  0.101778  1
  Tb  Tb3  1  0.714783  0.183438  0.898222  1
  Er  Er4  1  0.622092  0.312208  0.309882  1
  Er  Er5  1  0.377908  0.687792  0.690118  1
  Er  Er6  1  0.002327  0.312208  0.690118  1
  Er  Er7  1  0.997673  0.687792  0.309882  1
  Er  Er8  1  0.212079  0.408799  0.196720  1
  Er  Er9  1  0.787921  0.591201  0.803280  1
  Er  Er10  1  0.212079  0.015359  0.803280  1
  Er  Er11  1  0.787921  0.984641  0.196720  1
  Co  Co12  1  0.000000  0.376742  0.376742  1
  Co  Co13  1  0.000000  0.623258  0.623258  1
  Co  Co14  1  0.388332  0.888332  0.500000  1
  Co  Co15  1  0.611668  0.111668  0.500000  1
  Bi  Bi16  1  0.500000  0.500000  0.000000  1
  Ir  Ir17  1  0.000000  0.000000  0.000000  1
