# generated using pymatgen
data_TbPr2CoSn6
_symmetry_space_group_name_H-M   'P 1'
_cell_length_a   8.57226440
_cell_length_b   8.57226516
_cell_length_c   13.41019100
_cell_angle_alpha   90.00000000
_cell_angle_beta   90.00000000
_cell_angle_gamma   148.67445210
_symmetry_Int_Tables_number   1
_chemical_formula_structural   TbPr2CoSn6
_chemical_formula_sum   'Tb2 Pr4 Co2 Sn12'
_cell_volume   512.32551387
_cell_formula_units_Z   2
loop_
 _symmetry_equiv_pos_site_id
 _symmetry_equiv_pos_as_xyz
  1  'x, y, z'
loop_
 _atom_site_type_symbol
 _atom_site_label
 _atom_site_symmetry_multiplicity
 _atom_site_fract_x
 _atom_site_fract_y
 _atom_site_fract_z
 _atom_site_occupancy
  Tb  Tb0  1  0.898812  0.101188  0.750000  1
  Tb  Tb1  1  0.101188  0.898812  0.250000  1
  Pr  Pr2  1  0.900227  0.099773  0.092259  1
  Pr  Pr3  1  0.099773  0.900227  0.592259  1
  Pr  Pr4  1  0.099773  0.900227  0.907741  1
  Pr  Pr5  1  0.900227  0.099773  0.407741  1
  Co  Co6  1  0.296962  0.703038  0.250000  1
  Co  Co7  1  0.703038  0.296962  0.750000  1
  Sn  Sn8  1  0.754811  0.245189  0.572192  1
  Sn  Sn9  1  0.427802  0.572198  0.579887  1
  Sn  Sn10  1  0.572198  0.427802  0.420113  1
  Sn  Sn11  1  0.733285  0.266715  0.250000  1
  Sn  Sn12  1  0.266715  0.733285  0.750000  1
  Sn  Sn13  1  0.245189  0.754811  0.072192  1
  Sn  Sn14  1  0.245189  0.754811  0.427808  1
  Sn  Sn15  1  0.572198  0.427802  0.079887  1
  Sn  Sn16  1  0.453300  0.546700  0.250000  1
  Sn  Sn17  1  0.546700  0.453300  0.750000  1
  Sn  Sn18  1  0.754811  0.245189  0.927808  1
  Sn  Sn19  1  0.427802  0.572198  0.920113  1
