# generated using pymatgen
data_Er8Hf11Si16Pt
_symmetry_space_group_name_H-M   'P 1'
_cell_length_a   7.25382254
_cell_length_b   7.25382210
_cell_length_c   13.16431161
_cell_angle_alpha   90.28331477
_cell_angle_beta   89.71668134
_cell_angle_gamma   89.84262690
_symmetry_Int_Tables_number   1
_chemical_formula_structural   Er8Hf11Si16Pt
_chemical_formula_sum   'Er8 Hf11 Si16 Pt1'
_cell_volume   692.65933884
_cell_formula_units_Z   1
loop_
 _symmetry_equiv_pos_site_id
 _symmetry_equiv_pos_as_xyz
  1  'x, y, z'
loop_
 _atom_site_type_symbol
 _atom_site_label
 _atom_site_symmetry_multiplicity
 _atom_site_fract_x
 _atom_site_fract_y
 _atom_site_fract_z
 _atom_site_occupancy
  Er  Er0  1  0.345120  0.005060  0.464810  1
  Er  Er1  1  0.493853  0.848052  0.717322  1
  Er  Er2  1  0.502948  0.152936  0.210453  1
  Er  Er3  1  0.848052  0.493853  0.282678  1
  Er  Er4  1  0.152936  0.502948  0.789547  1
  Er  Er5  1  0.650960  0.000801  0.967654  1
  Er  Er6  1  0.005060  0.345120  0.535190  1
  Er  Er7  1  0.000801  0.650960  0.032346  1
  Hf  Hf8  1  0.178241  0.821698  0.248028  1
  Hf  Hf9  1  0.821698  0.178241  0.751972  1
  Hf  Hf10  1  0.675287  0.675287  0.500000  1
  Hf  Hf11  1  0.143502  0.005265  0.877413  1
  Hf  Hf12  1  0.497492  0.643509  0.120054  1
  Hf  Hf13  1  0.501645  0.355317  0.627489  1
  Hf  Hf14  1  0.643509  0.497492  0.879946  1
  Hf  Hf15  1  0.355317  0.501645  0.372511  1
  Hf  Hf16  1  0.854449  0.996768  0.373427  1
  Hf  Hf17  1  0.005265  0.143502  0.122587  1
  Hf  Hf18  1  0.996768  0.854449  0.626573  1
  Si  Si19  1  0.202988  0.143194  0.684438  1
  Si  Si20  1  0.365185  0.720938  0.927313  1
  Si  Si21  1  0.640424  0.292647  0.431269  1
  Si  Si22  1  0.720938  0.365185  0.072687  1
  Si  Si23  1  0.292647  0.640424  0.568731  1
  Si  Si24  1  0.795657  0.857242  0.179819  1
  Si  Si25  1  0.143194  0.202988  0.315562  1
  Si  Si26  1  0.857242  0.795657  0.820181  1
  Si  Si27  1  0.292261  0.940002  0.063324  1
  Si  Si28  1  0.550413  0.795647  0.313033  1
  Si  Si29  1  0.442410  0.207985  0.817236  1
  Si  Si30  1  0.795647  0.550413  0.686967  1
  Si  Si31  1  0.207985  0.442410  0.182764  1
  Si  Si32  1  0.702281  0.050241  0.565168  1
  Si  Si33  1  0.940002  0.292261  0.936676  1
  Si  Si34  1  0.050241  0.702281  0.434832  1
  Pt  Pt35  1  0.327584  0.327584  0.000000  1
