# generated using pymatgen
data_ErSc6Co4Sn23Ir2
_symmetry_space_group_name_H-M   'P 1'
_cell_length_a   9.63750565
_cell_length_b   9.63750568
_cell_length_c   9.86605492
_cell_angle_alpha   90.39874667
_cell_angle_beta   89.60125663
_cell_angle_gamma   120.12412688
_symmetry_Int_Tables_number   1
_chemical_formula_structural   ErSc6Co4Sn23Ir2
_chemical_formula_sum   'Er1 Sc6 Co4 Sn23 Ir2'
_cell_volume   792.58322876
_cell_formula_units_Z   1
loop_
 _symmetry_equiv_pos_site_id
 _symmetry_equiv_pos_as_xyz
  1  'x, y, z'
loop_
 _atom_site_type_symbol
 _atom_site_label
 _atom_site_symmetry_multiplicity
 _atom_site_fract_x
 _atom_site_fract_y
 _atom_site_fract_z
 _atom_site_occupancy
  Er  Er0  1  0.000000  0.000000  0.000000  1
  Sc  Sc1  1  0.482099  0.517901  0.309081  1
  Sc  Sc2  1  0.517901  0.482099  0.690919  1
  Sc  Sc3  1  0.483812  0.965621  0.307207  1
  Sc  Sc4  1  0.516188  0.034379  0.692793  1
  Sc  Sc5  1  0.034379  0.516188  0.307207  1
  Sc  Sc6  1  0.965621  0.483812  0.692793  1
  Co  Co7  1  0.828867  0.661610  0.199218  1
  Co  Co8  1  0.171133  0.338390  0.800782  1
  Co  Co9  1  0.338390  0.171133  0.199218  1
  Co  Co10  1  0.661610  0.828867  0.800782  1
  Sn  Sn11  1  0.120495  0.879505  0.275574  1
  Sn  Sn12  1  0.879505  0.120495  0.724426  1
  Sn  Sn13  1  0.128050  0.245117  0.281180  1
  Sn  Sn14  1  0.871950  0.754883  0.718820  1
  Sn  Sn15  1  0.754883  0.871950  0.281180  1
  Sn  Sn16  1  0.245117  0.128050  0.718820  1
  Sn  Sn17  1  0.776777  0.223223  0.461149  1
  Sn  Sn18  1  0.223223  0.776777  0.538851  1
  Sn  Sn19  1  0.779025  0.557369  0.452084  1
  Sn  Sn20  1  0.220975  0.442631  0.547916  1
  Sn  Sn21  1  0.442631  0.220975  0.452084  1
  Sn  Sn22  1  0.557369  0.779025  0.547916  1
  Sn  Sn23  1  0.352777  0.004983  0.006436  1
  Sn  Sn24  1  0.647223  0.995017  0.993564  1
  Sn  Sn25  1  0.004983  0.352777  0.993564  1
  Sn  Sn26  1  0.995017  0.647223  0.006436  1
  Sn  Sn27  1  0.652549  0.652549  0.000000  1
  Sn  Sn28  1  0.347451  0.347451  0.000000  1
  Sn  Sn29  1  0.333531  0.666469  0.137336  1
  Sn  Sn30  1  0.666469  0.333531  0.862664  1
  Sn  Sn31  1  0.336452  0.663548  0.824074  1
  Sn  Sn32  1  0.663548  0.336452  0.175926  1
  Sn  Sn33  1  0.000000  0.000000  0.500000  1
  Ir  Ir34  1  0.830745  0.169255  0.198682  1
  Ir  Ir35  1  0.169255  0.830745  0.801318  1
