# generated using pymatgen
data_Dy6Al24Fe5Au3
_symmetry_space_group_name_H-M   'P 1'
_cell_length_a   8.79377124
_cell_length_b   8.84430386
_cell_length_c   9.41779645
_cell_angle_alpha   89.98591892
_cell_angle_beta   89.98448380
_cell_angle_gamma   119.77843726
_symmetry_Int_Tables_number   1
_chemical_formula_structural   Dy6Al24Fe5Au3
_chemical_formula_sum   'Dy6 Al24 Fe5 Au3'
_cell_volume   635.74650464
_cell_formula_units_Z   1
loop_
 _symmetry_equiv_pos_site_id
 _symmetry_equiv_pos_as_xyz
  1  'x, y, z'
loop_
 _atom_site_type_symbol
 _atom_site_label
 _atom_site_symmetry_multiplicity
 _atom_site_fract_x
 _atom_site_fract_y
 _atom_site_fract_z
 _atom_site_occupancy
  Dy  Dy0  1  0.193321  0.807545  0.249801  1
  Dy  Dy1  1  0.191644  0.384846  0.250856  1
  Dy  Dy2  1  0.614434  0.808804  0.244723  1
  Dy  Dy3  1  0.806679  0.192455  0.750199  1
  Dy  Dy4  1  0.808356  0.615154  0.749144  1
  Dy  Dy5  1  0.385566  0.191196  0.755277  1
  Al  Al6  1  0.567427  0.430327  0.249655  1
  Al  Al7  1  0.557528  0.114285  0.249484  1
  Al  Al8  1  0.876064  0.436450  0.236731  1
  Al  Al9  1  0.432573  0.569673  0.750345  1
  Al  Al10  1  0.442472  0.885715  0.750516  1
  Al  Al11  1  0.123936  0.563550  0.763269  1
  Al  Al12  1  0.317699  0.145863  0.422219  1
  Al  Al13  1  0.828326  0.147567  0.419596  1
  Al  Al14  1  0.844679  0.689990  0.419128  1
  Al  Al15  1  0.682301  0.854137  0.577781  1
  Al  Al16  1  0.171674  0.852433  0.580404  1
  Al  Al17  1  0.155321  0.310010  0.580872  1
  Al  Al18  1  0.680393  0.853563  0.924190  1
  Al  Al19  1  0.162489  0.839895  0.924517  1
  Al  Al20  1  0.145569  0.317937  0.927960  1
  Al  Al21  1  0.319607  0.146437  0.075810  1
  Al  Al22  1  0.837511  0.160105  0.075483  1
  Al  Al23  1  0.854431  0.682063  0.072040  1
  Al  Al24  1  0.656547  0.313336  0.526136  1
  Al  Al25  1  0.343453  0.686664  0.473864  1
  Al  Al26  1  0.324966  0.675017  0.024291  1
  Al  Al27  1  0.675034  0.324983  0.975709  1
  Al  Al28  1  0.000720  0.003180  0.248848  1
  Al  Al29  1  0.999280  0.996820  0.751152  1
  Fe  Fe30  1  0.000000  0.000000  0.500000  1
  Fe  Fe31  1  0.000000  0.000000  0.000000  1
  Fe  Fe32  1  0.500000  0.000000  0.500000  1
  Fe  Fe33  1  0.500000  0.000000  0.000000  1
  Fe  Fe34  1  0.000000  0.500000  0.000000  1
  Au  Au35  1  0.500000  0.500000  0.500000  1
  Au  Au36  1  0.000000  0.500000  0.500000  1
  Au  Au37  1  0.500000  0.500000  0.000000  1
