# generated using pymatgen
data_Dy5In4RhAu
_symmetry_space_group_name_H-M   'P 1'
_cell_length_a   3.61509500
_cell_length_b   8.20747200
_cell_length_c   18.38754579
_cell_angle_alpha   89.91811756
_cell_angle_beta   90.00000000
_cell_angle_gamma   90.00000000
_symmetry_Int_Tables_number   1
_chemical_formula_structural   Dy5In4RhAu
_chemical_formula_sum   'Dy10 In8 Rh2 Au2'
_cell_volume   545.57247103
_cell_formula_units_Z   2
loop_
 _symmetry_equiv_pos_site_id
 _symmetry_equiv_pos_as_xyz
  1  'x, y, z'
loop_
 _atom_site_type_symbol
 _atom_site_label
 _atom_site_symmetry_multiplicity
 _atom_site_fract_x
 _atom_site_fract_y
 _atom_site_fract_z
 _atom_site_occupancy
  Dy  Dy0  1  0.000000  0.500000  0.500000  1
  Dy  Dy1  1  0.000000  0.000000  0.000000  1
  Dy  Dy2  1  0.000000  0.723787  0.277048  1
  Dy  Dy3  1  0.000000  0.276213  0.722952  1
  Dy  Dy4  1  0.000000  0.739498  0.781661  1
  Dy  Dy5  1  0.000000  0.260502  0.218339  1
  Dy  Dy6  1  0.000000  0.615749  0.085712  1
  Dy  Dy7  1  0.000000  0.384251  0.914288  1
  Dy  Dy8  1  0.000000  0.879410  0.580114  1
  Dy  Dy9  1  0.000000  0.120590  0.419886  1
  In  In10  1  0.500000  0.708189  0.932028  1
  In  In11  1  0.500000  0.291811  0.067972  1
  In  In12  1  0.500000  0.789672  0.432405  1
  In  In13  1  0.500000  0.210328  0.567595  1
  In  In14  1  0.500000  0.575088  0.648836  1
  In  In15  1  0.500000  0.424912  0.351164  1
  In  In16  1  0.500000  0.921338  0.148346  1
  In  In17  1  0.500000  0.078662  0.851654  1
  Rh  Rh18  1  0.500000  0.522831  0.194919  1
  Rh  Rh19  1  0.500000  0.477169  0.805081  1
  Au  Au20  1  0.500000  0.976032  0.697786  1
  Au  Au21  1  0.500000  0.023968  0.302214  1
