# generated using pymatgen
data_Dy19Er(Bi2Ru)4
_symmetry_space_group_name_H-M   'P 1'
_cell_length_a   7.97972323
_cell_length_b   9.02573927
_cell_length_c   12.46261040
_cell_angle_alpha   89.97920139
_cell_angle_beta   90.02040039
_cell_angle_gamma   89.98114026
_symmetry_Int_Tables_number   1
_chemical_formula_structural   Dy19Er(Bi2Ru)4
_chemical_formula_sum   'Dy19 Er1 Bi8 Ru4'
_cell_volume   897.59319515
_cell_formula_units_Z   1
loop_
 _symmetry_equiv_pos_site_id
 _symmetry_equiv_pos_as_xyz
  1  'x, y, z'
loop_
 _atom_site_type_symbol
 _atom_site_label
 _atom_site_symmetry_multiplicity
 _atom_site_fract_x
 _atom_site_fract_y
 _atom_site_fract_z
 _atom_site_occupancy
  Dy  Dy0  1  0.842332  0.750072  0.793119  1
  Dy  Dy1  1  0.157610  0.249961  0.206791  1
  Dy  Dy2  1  0.342642  0.249852  0.706682  1
  Dy  Dy3  1  0.657596  0.750046  0.293343  1
  Dy  Dy4  1  0.375766  0.750151  0.691903  1
  Dy  Dy5  1  0.624639  0.249768  0.308170  1
  Dy  Dy6  1  0.875430  0.249944  0.807895  1
  Dy  Dy7  1  0.124553  0.750035  0.192068  1
  Dy  Dy8  1  0.946195  0.750222  0.504364  1
  Dy  Dy9  1  0.053232  0.249870  0.495698  1
  Dy  Dy10  1  0.446533  0.249984  0.995697  1
  Dy  Dy11  1  0.553576  0.749992  0.004259  1
  Dy  Dy12  1  0.324946  0.958716  0.435942  1
  Dy  Dy13  1  0.175578  0.958588  0.935719  1
  Dy  Dy14  1  0.324265  0.541446  0.435703  1
  Dy  Dy15  1  0.824404  0.041403  0.064256  1
  Dy  Dy16  1  0.675484  0.458509  0.564231  1
  Dy  Dy17  1  0.824378  0.458615  0.064237  1
  Dy  Dy18  1  0.175562  0.541394  0.935728  1
  Er  Er19  1  0.674367  0.041399  0.564138  1
  Bi  Bi20  1  0.569140  0.493166  0.827323  1
  Bi  Bi21  1  0.430845  0.506816  0.172685  1
  Bi  Bi22  1  0.069200  0.506825  0.672654  1
  Bi  Bi23  1  0.430821  0.993200  0.172678  1
  Bi  Bi24  1  0.930812  0.493119  0.327349  1
  Bi  Bi25  1  0.569254  0.006839  0.827204  1
  Bi  Bi26  1  0.930885  0.006857  0.327372  1
  Bi  Bi27  1  0.068804  0.993224  0.672499  1
  Ru  Ru28  1  0.573503  0.750487  0.511161  1
  Ru  Ru29  1  0.427681  0.249459  0.489094  1
  Ru  Ru30  1  0.073227  0.250052  0.988915  1
  Ru  Ru31  1  0.926740  0.749990  0.011121  1
