# generated using pymatgen
data_ErAg6CO11
_symmetry_space_group_name_H-M   'P 1'
_cell_length_a   7.09460169
_cell_length_b   7.09460173
_cell_length_c   7.09460224
_cell_angle_alpha   60.64809990
_cell_angle_beta   60.64809423
_cell_angle_gamma   60.64809018
_symmetry_Int_Tables_number   1
_chemical_formula_structural   ErAg6CO11
_chemical_formula_sum   'Er1 Ag6 C1 O11'
_cell_volume   256.19928817
_cell_formula_units_Z   1
loop_
 _symmetry_equiv_pos_site_id
 _symmetry_equiv_pos_as_xyz
  1  'x, y, z'
loop_
 _atom_site_type_symbol
 _atom_site_label
 _atom_site_symmetry_multiplicity
 _atom_site_fract_x
 _atom_site_fract_y
 _atom_site_fract_z
 _atom_site_occupancy
  Er  Er0  1  0.999283  0.999283  0.999283  1
  Ag  Ag1  1  0.499439  0.000513  0.000513  1
  Ag  Ag2  1  0.500355  0.500355  0.000819  1
  Ag  Ag3  1  0.500355  0.000819  0.500355  1
  Ag  Ag4  1  0.000513  0.000513  0.499439  1
  Ag  Ag5  1  0.000819  0.500355  0.500355  1
  Ag  Ag6  1  0.000513  0.499439  0.000513  1
  C  C7  1  0.499671  0.499671  0.499671  1
  O  O8  1  0.589193  0.141038  0.141038  1
  O  O9  1  0.141038  0.589193  0.141038  1
  O  O10  1  0.136606  0.136606  0.136606  1
  O  O11  1  0.141038  0.141038  0.589193  1
  O  O12  1  0.603531  0.603531  0.291828  1
  O  O13  1  0.603531  0.291828  0.603531  1
  O  O14  1  0.291828  0.603531  0.603531  1
  O  O15  1  0.860249  0.860249  0.408243  1
  O  O16  1  0.860249  0.408243  0.860249  1
  O  O17  1  0.863545  0.863545  0.863545  1
  O  O18  1  0.408243  0.860249  0.860249  1
