# generated using pymatgen
data_TaMn4Sn3Ru8
_symmetry_space_group_name_H-M   'P 1'
_cell_length_a   6.24662100
_cell_length_b   4.40203900
_cell_length_c   8.81250900
_cell_angle_alpha   90.00000000
_cell_angle_beta   90.00008487
_cell_angle_gamma   90.00000000
_symmetry_Int_Tables_number   1
_chemical_formula_structural   TaMn4Sn3Ru8
_chemical_formula_sum   'Ta1 Mn4 Sn3 Ru8'
_cell_volume   242.32522034
_cell_formula_units_Z   1
loop_
 _symmetry_equiv_pos_site_id
 _symmetry_equiv_pos_as_xyz
  1  'x, y, z'
loop_
 _atom_site_type_symbol
 _atom_site_label
 _atom_site_symmetry_multiplicity
 _atom_site_fract_x
 _atom_site_fract_y
 _atom_site_fract_z
 _atom_site_occupancy
  Ta  Ta0  1  0.250007  0.749999  0.875060  1
  Mn  Mn1  1  0.250002  0.249999  0.124435  1
  Mn  Mn2  1  0.749991  0.749999  0.375055  1
  Mn  Mn3  1  0.250001  0.249999  0.625530  1
  Mn  Mn4  1  0.750007  0.749999  0.875029  1
  Sn  Sn5  1  0.749995  0.249999  0.125216  1
  Sn  Sn6  1  0.249996  0.749999  0.375024  1
  Sn  Sn7  1  0.750004  0.249999  0.624773  1
  Ru  Ru8  1  0.006414  0.749999  0.118754  1
  Ru  Ru9  1  0.493584  0.749999  0.118760  1
  Ru  Ru10  1  0.000174  0.249999  0.374940  1
  Ru  Ru11  1  0.499808  0.249999  0.374951  1
  Ru  Ru12  1  0.493619  0.749999  0.631271  1
  Ru  Ru13  1  0.006391  0.749999  0.631272  1
  Ru  Ru14  1  0.491744  0.249999  0.874963  1
  Ru  Ru15  1  0.008266  0.249999  0.874963  1
