# generated using pymatgen
data_Hf8Ti9Re3Si16
_symmetry_space_group_name_H-M   'P 1'
_cell_length_a   6.51414300
_cell_length_b   6.69084126
_cell_length_c   12.93764200
_cell_angle_alpha   90.00000000
_cell_angle_beta   90.00000000
_cell_angle_gamma   89.98588482
_symmetry_Int_Tables_number   1
_chemical_formula_structural   Hf8Ti9Re3Si16
_chemical_formula_sum   'Hf8 Ti9 Re3 Si16'
_cell_volume   563.88836151
_cell_formula_units_Z   1
loop_
 _symmetry_equiv_pos_site_id
 _symmetry_equiv_pos_as_xyz
  1  'x, y, z'
loop_
 _atom_site_type_symbol
 _atom_site_label
 _atom_site_symmetry_multiplicity
 _atom_site_fract_x
 _atom_site_fract_y
 _atom_site_fract_z
 _atom_site_occupancy
  Hf  Hf0  1  0.993072  0.171525  0.090376  1
  Hf  Hf1  1  0.004423  0.827777  0.907867  1
  Hf  Hf2  1  0.502904  0.672250  0.908705  1
  Hf  Hf3  1  0.004423  0.827777  0.592133  1
  Hf  Hf4  1  0.495213  0.328640  0.089888  1
  Hf  Hf5  1  0.993072  0.171525  0.409624  1
  Hf  Hf6  1  0.495213  0.328640  0.410112  1
  Hf  Hf7  1  0.502904  0.672250  0.591295  1
  Ti  Ti8  1  0.161529  0.493487  0.750000  1
  Ti  Ti9  1  0.332787  0.168505  0.624616  1
  Ti  Ti10  1  0.666387  0.834914  0.375090  1
  Ti  Ti11  1  0.167602  0.665192  0.374049  1
  Ti  Ti12  1  0.666387  0.834914  0.124910  1
  Ti  Ti13  1  0.834953  0.332902  0.624112  1
  Ti  Ti14  1  0.332787  0.168505  0.875384  1
  Ti  Ti15  1  0.834953  0.332902  0.875888  1
  Ti  Ti16  1  0.167602  0.665192  0.125951  1
  Re  Re17  1  0.841237  0.504622  0.250000  1
  Re  Re18  1  0.339497  0.992415  0.250000  1
  Re  Re19  1  0.660713  0.003882  0.750000  1
  Si  Si20  1  0.032575  0.115598  0.750000  1
  Si  Si21  1  0.966681  0.884936  0.250000  1
  Si  Si22  1  0.468945  0.613423  0.250000  1
  Si  Si23  1  0.535855  0.383221  0.750000  1
  Si  Si24  1  0.298335  0.858741  0.750000  1
  Si  Si25  1  0.701259  0.144170  0.250000  1
  Si  Si26  1  0.202852  0.354283  0.250000  1
  Si  Si27  1  0.798131  0.641172  0.750000  1
  Si  Si28  1  0.170424  0.461144  0.538421  1
  Si  Si29  1  0.829157  0.541503  0.460367  1
  Si  Si30  1  0.328763  0.959819  0.461289  1
  Si  Si31  1  0.829157  0.541503  0.039633  1
  Si  Si32  1  0.670511  0.040854  0.539838  1
  Si  Si33  1  0.170424  0.461144  0.961579  1
  Si  Si34  1  0.670511  0.040854  0.960162  1
  Si  Si35  1  0.328763  0.959819  0.038711  1
