# generated using pymatgen
data_PrCd(CuO2)4
_symmetry_space_group_name_H-M   'P 1'
_cell_length_a   6.33824149
_cell_length_b   6.33824222
_cell_length_c   6.33824196
_cell_angle_alpha   125.26769971
_cell_angle_beta   125.26770807
_cell_angle_gamma   81.09509182
_symmetry_Int_Tables_number   1
_chemical_formula_structural   PrCd(CuO2)4
_chemical_formula_sum   'Pr1 Cd1 Cu4 O8'
_cell_volume   163.53320225
_cell_formula_units_Z   1
loop_
 _symmetry_equiv_pos_site_id
 _symmetry_equiv_pos_as_xyz
  1  'x, y, z'
loop_
 _atom_site_type_symbol
 _atom_site_label
 _atom_site_symmetry_multiplicity
 _atom_site_fract_x
 _atom_site_fract_y
 _atom_site_fract_z
 _atom_site_occupancy
  Pr  Pr0  1  0.750000  0.250000  0.500000  1
  Cd  Cd1  1  0.000000  0.000000  0.000000  1
  Cu  Cu2  1  0.374695  0.627988  0.251664  1
  Cu  Cu3  1  0.372012  0.623676  0.746707  1
  Cu  Cu4  1  0.876969  0.625305  0.253293  1
  Cu  Cu5  1  0.376324  0.123031  0.748336  1
  O  O6  1  0.173032  0.599350  0.870077  1
  O  O7  1  0.729273  0.302955  0.129923  1
  O  O8  1  0.339940  0.975822  0.916838  1
  O  O9  1  0.697045  0.826968  0.426318  1
  O  O10  1  0.058984  0.423102  0.083162  1
  O  O11  1  0.400650  0.270727  0.573682  1
  O  O12  1  0.024178  0.941016  0.364119  1
  O  O13  1  0.576898  0.660060  0.635881  1
