# generated using pymatgen
data_Sr2Ga3FeBr16
_symmetry_space_group_name_H-M   'P 1'
_cell_length_a   7.53509603
_cell_length_b   8.12947600
_cell_length_c   13.66082240
_cell_angle_alpha   85.42350132
_cell_angle_beta   89.94712060
_cell_angle_gamma   89.83887262
_symmetry_Int_Tables_number   1
_chemical_formula_structural   Sr2Ga3FeBr16
_chemical_formula_sum   'Sr2 Ga3 Fe1 Br16'
_cell_volume   834.14103878
_cell_formula_units_Z   1
loop_
 _symmetry_equiv_pos_site_id
 _symmetry_equiv_pos_as_xyz
  1  'x, y, z'
loop_
 _atom_site_type_symbol
 _atom_site_label
 _atom_site_symmetry_multiplicity
 _atom_site_fract_x
 _atom_site_fract_y
 _atom_site_fract_z
 _atom_site_occupancy
  Sr  Sr0  1  0.152737  0.499178  0.250670  1
  Sr  Sr1  1  0.849109  0.498208  0.750129  1
  Ga  Ga2  1  0.260982  0.676103  0.579491  1
  Ga  Ga3  1  0.739085  0.676122  0.079582  1
  Ga  Ga4  1  0.739221  0.323769  0.420778  1
  Fe  Fe5  1  0.260417  0.322575  0.920116  1
  Br  Br6  1  0.530621  0.744686  0.655511  1
  Br  Br7  1  0.304998  0.742797  0.408966  1
  Br  Br8  1  0.820997  0.397444  0.115937  1
  Br  Br9  1  0.179445  0.600860  0.884640  1
  Br  Br10  1  0.470017  0.254309  0.344713  1
  Br  Br11  1  0.300913  0.259885  0.090733  1
  Br  Br12  1  0.694317  0.257145  0.591385  1
  Br  Br13  1  0.468673  0.745738  0.154945  1
  Br  Br14  1  0.178132  0.397557  0.615002  1
  Br  Br15  1  0.530836  0.259942  0.843859  1
  Br  Br16  1  0.821936  0.602139  0.384555  1
  Br  Br17  1  0.977397  0.830899  0.139279  1
  Br  Br18  1  0.696607  0.742466  0.908859  1
  Br  Br19  1  0.023158  0.168788  0.860142  1
  Br  Br20  1  0.977892  0.168470  0.360917  1
  Br  Br21  1  0.022510  0.830921  0.639791  1
