# generated using pymatgen
data_YTm2Pa3(Ni3Bi4)2
_symmetry_space_group_name_H-M   'P 1'
_cell_length_a   8.34895018
_cell_length_b   8.37612137
_cell_length_c   8.35146646
_cell_angle_alpha   109.43176538
_cell_angle_beta   109.26660538
_cell_angle_gamma   109.60398694
_symmetry_Int_Tables_number   1
_chemical_formula_structural   YTm2Pa3(Ni3Bi4)2
_chemical_formula_sum   'Y1 Tm2 Pa3 Ni6 Bi8'
_cell_volume   450.20259226
_cell_formula_units_Z   1
loop_
 _symmetry_equiv_pos_site_id
 _symmetry_equiv_pos_as_xyz
  1  'x, y, z'
loop_
 _atom_site_type_symbol
 _atom_site_label
 _atom_site_symmetry_multiplicity
 _atom_site_fract_x
 _atom_site_fract_y
 _atom_site_fract_z
 _atom_site_occupancy
  Y  Y0  1  0.750977  0.374909  0.626151  1
  Tm  Tm1  1  0.626407  0.749568  0.376678  1
  Tm  Tm2  1  0.251530  0.124930  0.876299  1
  Pa  Pa3  1  0.125900  0.878315  0.250188  1
  Pa  Pa4  1  0.371161  0.622219  0.747455  1
  Pa  Pa5  1  0.872870  0.250120  0.122479  1
  Ni  Ni6  1  0.634270  0.365847  0.240617  1
  Ni  Ni7  1  0.879980  0.133258  0.772596  1
  Ni  Ni8  1  0.366131  0.247673  0.619014  1
  Ni  Ni9  1  0.131306  0.752834  0.878915  1
  Ni  Ni10  1  0.238409  0.617606  0.372204  1
  Ni  Ni11  1  0.754723  0.882505  0.120835  1
  Bi  Bi12  1  0.339263  0.336836  0.332364  1
  Bi  Bi13  1  0.169543  0.501819  0.000498  1
  Bi  Bi14  1  0.994506  0.161596  0.502921  1
  Bi  Bi15  1  0.834574  0.831074  0.830291  1
  Bi  Bi16  1  0.499766  0.999696  0.167507  1
  Bi  Bi17  1  0.661400  0.500467  0.998285  1
  Bi  Bi18  1  0.499104  0.999354  0.662802  1
  Bi  Bi19  1  0.998179  0.669370  0.501901  1
