# generated using pymatgen
data_AcLa7(B2Rh5)4
_symmetry_space_group_name_H-M   'P 1'
_cell_length_a   5.55985000
_cell_length_b   5.55985084
_cell_length_c   21.25412200
_cell_angle_alpha   90.00030916
_cell_angle_beta   89.99969084
_cell_angle_gamma   119.99888837
_symmetry_Int_Tables_number   1
_chemical_formula_structural   AcLa7(B2Rh5)4
_chemical_formula_sum   'Ac1 La7 B8 Rh20'
_cell_volume   568.99032333
_cell_formula_units_Z   1
loop_
 _symmetry_equiv_pos_site_id
 _symmetry_equiv_pos_as_xyz
  1  'x, y, z'
loop_
 _atom_site_type_symbol
 _atom_site_label
 _atom_site_symmetry_multiplicity
 _atom_site_fract_x
 _atom_site_fract_y
 _atom_site_fract_z
 _atom_site_occupancy
  Ac  Ac0  1  0.666738  0.333239  0.825449  1
  La  La1  1  0.666699  0.333362  0.520733  1
  La  La2  1  0.333347  0.666662  0.478661  1
  La  La3  1  0.333332  0.666715  0.021402  1
  La  La4  1  0.666715  0.333357  0.980337  1
  La  La5  1  0.666741  0.333258  0.672118  1
  La  La6  1  0.333244  0.666739  0.326105  1
  La  La7  1  0.333247  0.666750  0.173901  1
  B  B8  1  0.000069  0.999929  0.677475  1
  B  B9  1  0.999931  0.000063  0.322332  1
  B  B10  1  0.999927  0.000063  0.177815  1
  B  B11  1  0.000065  0.999911  0.822714  1
  B  B12  1  0.666591  0.333411  0.325370  1
  B  B13  1  0.333416  0.666601  0.674421  1
  B  B14  1  0.333401  0.666588  0.825736  1
  B  B15  1  0.666584  0.333401  0.174703  1
  Rh  Rh16  1  0.999989  0.999992  0.500044  1
  Rh  Rh17  1  0.999998  0.000005  0.000251  1
  Rh  Rh18  1  0.167569  0.334900  0.749445  1
  Rh  Rh19  1  0.167559  0.832433  0.749441  1
  Rh  Rh20  1  0.665101  0.832426  0.749441  1
  Rh  Rh21  1  0.832471  0.665164  0.250013  1
  Rh  Rh22  1  0.832473  0.167503  0.250013  1
  Rh  Rh23  1  0.334816  0.167518  0.250008  1
  Rh  Rh24  1  0.163235  0.326255  0.609737  1
  Rh  Rh25  1  0.163237  0.836768  0.609733  1
  Rh  Rh26  1  0.673742  0.836759  0.609737  1
  Rh  Rh27  1  0.836736  0.673707  0.390259  1
  Rh  Rh28  1  0.836737  0.163246  0.390263  1
  Rh  Rh29  1  0.326308  0.163262  0.390259  1
  Rh  Rh30  1  0.836779  0.673819  0.109832  1
  Rh  Rh31  1  0.836813  0.163224  0.109828  1
  Rh  Rh32  1  0.326172  0.163198  0.109832  1
  Rh  Rh33  1  0.163304  0.326375  0.890861  1
  Rh  Rh34  1  0.163299  0.836702  0.890871  1
  Rh  Rh35  1  0.673622  0.836693  0.890862  1
