# generated using pymatgen
data_Tb5Y3Hg4
_symmetry_space_group_name_H-M   'P 1'
_cell_length_a   5.11863700
_cell_length_b   7.11456610
_cell_length_c   9.32129900
_cell_angle_alpha   90.08697432
_cell_angle_beta   90.00000000
_cell_angle_gamma   90.00000000
_symmetry_Int_Tables_number   1
_chemical_formula_structural   Tb5Y3Hg4
_chemical_formula_sum   'Tb5 Y3 Hg4'
_cell_volume   339.45224812
_cell_formula_units_Z   1
loop_
 _symmetry_equiv_pos_site_id
 _symmetry_equiv_pos_as_xyz
  1  'x, y, z'
loop_
 _atom_site_type_symbol
 _atom_site_label
 _atom_site_symmetry_multiplicity
 _atom_site_fract_x
 _atom_site_fract_y
 _atom_site_fract_z
 _atom_site_occupancy
  Tb  Tb0  1  0.250000  0.166882  0.575421  1
  Tb  Tb1  1  0.750000  0.482938  0.692090  1
  Tb  Tb2  1  0.750000  0.983356  0.808265  1
  Tb  Tb3  1  0.250000  0.668136  0.924042  1
  Tb  Tb4  1  0.750000  0.332515  0.075672  1
  Y  Y5  1  0.250000  0.017240  0.192466  1
  Y  Y6  1  0.250000  0.517376  0.307137  1
  Y  Y7  1  0.750000  0.832032  0.424773  1
  Hg  Hg8  1  0.250000  0.736725  0.601560  1
  Hg  Hg9  1  0.250000  0.237061  0.898375  1
  Hg  Hg10  1  0.750000  0.763228  0.102366  1
  Hg  Hg11  1  0.750000  0.262511  0.397832  1
