# generated using pymatgen
data_K8TmNp3F20
_symmetry_space_group_name_H-M   'P 1'
_cell_length_a   6.71006618
_cell_length_b   7.59655200
_cell_length_c   11.10175229
_cell_angle_alpha   90.00000000
_cell_angle_beta   90.67477845
_cell_angle_gamma   90.00000000
_symmetry_Int_Tables_number   1
_chemical_formula_structural   K8TmNp3F20
_chemical_formula_sum   'K8 Tm1 Np3 F20'
_cell_volume   565.85444544
_cell_formula_units_Z   1
loop_
 _symmetry_equiv_pos_site_id
 _symmetry_equiv_pos_as_xyz
  1  'x, y, z'
loop_
 _atom_site_type_symbol
 _atom_site_label
 _atom_site_symmetry_multiplicity
 _atom_site_fract_x
 _atom_site_fract_y
 _atom_site_fract_z
 _atom_site_occupancy
  K  K0  1  0.527247  0.500267  0.830988  1
  K  K1  1  0.472166  0.506670  0.167692  1
  K  K2  1  0.027334  0.504614  0.675673  1
  K  K3  1  0.472166  0.993330  0.167692  1
  K  K4  1  0.971112  0.500346  0.326080  1
  K  K5  1  0.527247  0.999733  0.830988  1
  K  K6  1  0.971112  0.999654  0.326080  1
  K  K7  1  0.027334  0.995386  0.675673  1
  Tm  Tm8  1  0.939202  0.750000  0.999802  1
  Np  Np9  1  0.561018  0.750000  0.502689  1
  Np  Np10  1  0.437995  0.250000  0.497235  1
  Np  Np11  1  0.058983  0.250000  0.997803  1
  F  F12  1  0.837758  0.750000  0.812025  1
  F  F13  1  0.165491  0.250000  0.197813  1
  F  F14  1  0.331365  0.250000  0.698492  1
  F  F15  1  0.665663  0.750000  0.302792  1
  F  F16  1  0.360844  0.750000  0.672408  1
  F  F17  1  0.639242  0.250000  0.329357  1
  F  F18  1  0.858842  0.250000  0.827432  1
  F  F19  1  0.129998  0.750000  0.158817  1
  F  F20  1  0.907840  0.750000  0.511076  1
  F  F21  1  0.091452  0.250000  0.490328  1
  F  F22  1  0.404262  0.250000  0.989543  1
  F  F23  1  0.616318  0.750000  0.011766  1
  F  F24  1  0.645351  0.029951  0.588070  1
  F  F25  1  0.353748  0.969013  0.411866  1
  F  F26  1  0.141863  0.955357  0.922525  1
  F  F27  1  0.353748  0.530987  0.411866  1
  F  F28  1  0.858045  0.017517  0.077417  1
  F  F29  1  0.645351  0.470049  0.588070  1
  F  F30  1  0.858045  0.482483  0.077417  1
  F  F31  1  0.141863  0.544643  0.922525  1
