# generated using pymatgen
data_Cs12Na8Hf(ZrSb4)3
_symmetry_space_group_name_H-M   'P 1'
_cell_length_a   11.81448962
_cell_length_b   11.81449002
_cell_length_c   17.60274800
_cell_angle_alpha   89.99617404
_cell_angle_beta   89.99617676
_cell_angle_gamma   142.96246704
_symmetry_Int_Tables_number   1
_chemical_formula_structural   Cs12Na8Hf(ZrSb4)3
_chemical_formula_sum   'Cs12 Na8 Hf1 Zr3 Sb12'
_cell_volume   1479.96250318
_cell_formula_units_Z   1
loop_
 _symmetry_equiv_pos_site_id
 _symmetry_equiv_pos_as_xyz
  1  'x, y, z'
loop_
 _atom_site_type_symbol
 _atom_site_label
 _atom_site_symmetry_multiplicity
 _atom_site_fract_x
 _atom_site_fract_y
 _atom_site_fract_z
 _atom_site_occupancy
  Cs  Cs0  1  0.606720  0.946396  0.825570  1
  Cs  Cs1  1  0.282668  0.282501  0.317386  1
  Cs  Cs2  1  0.217448  0.217399  0.817294  1
  Cs  Cs3  1  0.717499  0.717332  0.682614  1
  Cs  Cs4  1  0.446226  0.106939  0.673915  1
  Cs  Cs5  1  0.893061  0.553774  0.326085  1
  Cs  Cs6  1  0.053604  0.393280  0.174430  1
  Cs  Cs7  1  0.393163  0.053565  0.174532  1
  Cs  Cs8  1  0.553704  0.893333  0.325970  1
  Cs  Cs9  1  0.106667  0.446296  0.674030  1
  Cs  Cs10  1  0.946435  0.606837  0.825468  1
  Cs  Cs11  1  0.782601  0.782552  0.182706  1
  Na  Na12  1  0.080685  0.919315  0.000000  1
  Na  Na13  1  0.580919  0.419081  0.500000  1
  Na  Na14  1  0.919324  0.080676  0.000000  1
  Na  Na15  1  0.754080  0.245920  0.000000  1
  Na  Na16  1  0.745747  0.254253  0.500000  1
  Na  Na17  1  0.245927  0.754073  0.000000  1
  Na  Na18  1  0.253714  0.746286  0.500000  1
  Na  Na19  1  0.419554  0.580446  0.500000  1
  Hf  Hf20  1  0.085494  0.914506  0.500000  1
  Zr  Zr21  1  0.414105  0.585895  0.000000  1
  Zr  Zr22  1  0.914519  0.085481  0.500000  1
  Zr  Zr23  1  0.585920  0.414080  0.000000  1
  Sb  Sb24  1  0.061793  0.376467  0.405711  1
  Sb  Sb25  1  0.876683  0.561718  0.094516  1
  Sb  Sb26  1  0.438282  0.123317  0.905484  1
  Sb  Sb27  1  0.623533  0.938207  0.594289  1
  Sb  Sb28  1  0.939254  0.625746  0.593920  1
  Sb  Sb29  1  0.123358  0.438293  0.905450  1
  Sb  Sb30  1  0.561707  0.876642  0.094550  1
  Sb  Sb31  1  0.374254  0.060746  0.406080  1
  Sb  Sb32  1  0.205029  0.203694  0.587495  1
  Sb  Sb33  1  0.704626  0.704615  0.912451  1
  Sb  Sb34  1  0.295385  0.295374  0.087549  1
  Sb  Sb35  1  0.796306  0.794971  0.412505  1
