# generated using pymatgen
data_Er8AlPd24
_symmetry_space_group_name_H-M   'P 1'
_cell_length_a   8.31960723
_cell_length_b   8.31960710
_cell_length_c   8.31960736
_cell_angle_alpha   90.02433450
_cell_angle_beta   89.97566441
_cell_angle_gamma   89.97566259
_symmetry_Int_Tables_number   1
_chemical_formula_structural   Er8AlPd24
_chemical_formula_sum   'Er8 Al1 Pd24'
_cell_volume   575.84865058
_cell_formula_units_Z   1
loop_
 _symmetry_equiv_pos_site_id
 _symmetry_equiv_pos_as_xyz
  1  'x, y, z'
loop_
 _atom_site_type_symbol
 _atom_site_label
 _atom_site_symmetry_multiplicity
 _atom_site_fract_x
 _atom_site_fract_y
 _atom_site_fract_z
 _atom_site_occupancy
  Er  Er0  1  0.747627  0.252373  0.252373  1
  Er  Er1  1  0.251485  0.251654  0.251654  1
  Er  Er2  1  0.748269  0.748177  0.748177  1
  Er  Er3  1  0.748346  0.748515  0.251654  1
  Er  Er4  1  0.748346  0.251654  0.748515  1
  Er  Er5  1  0.251823  0.251731  0.748177  1
  Er  Er6  1  0.251823  0.748177  0.251731  1
  Er  Er7  1  0.251810  0.748190  0.748190  1
  Al  Al8  1  0.999931  0.000069  0.000069  1
  Pd  Pd9  1  0.259639  0.499950  0.999894  1
  Pd  Pd10  1  0.740562  0.499987  0.000178  1
  Pd  Pd11  1  0.999822  0.259438  0.499987  1
  Pd  Pd12  1  0.500013  0.259438  0.000178  1
  Pd  Pd13  1  0.000106  0.740361  0.499950  1
  Pd  Pd14  1  0.500050  0.740361  0.999894  1
  Pd  Pd15  1  0.500013  0.000178  0.259438  1
  Pd  Pd16  1  0.259639  0.999894  0.499950  1
  Pd  Pd17  1  0.500050  0.999894  0.740361  1
  Pd  Pd18  1  0.740562  0.000178  0.499987  1
  Pd  Pd19  1  0.999822  0.499987  0.259438  1
  Pd  Pd20  1  0.000106  0.499950  0.740361  1
  Pd  Pd21  1  0.252465  0.499937  0.499937  1
  Pd  Pd22  1  0.747482  0.500248  0.500248  1
  Pd  Pd23  1  0.499752  0.252518  0.500248  1
  Pd  Pd24  1  0.500063  0.747535  0.499937  1
  Pd  Pd25  1  0.499752  0.500248  0.252518  1
  Pd  Pd26  1  0.500063  0.499937  0.747535  1
  Pd  Pd27  1  0.288834  0.999898  0.999898  1
  Pd  Pd28  1  0.711523  0.999992  0.999992  1
  Pd  Pd29  1  0.000008  0.288477  0.999992  1
  Pd  Pd30  1  0.000102  0.711166  0.999898  1
  Pd  Pd31  1  0.000008  0.999992  0.288477  1
  Pd  Pd32  1  0.000102  0.999898  0.711166  1
