# generated using pymatgen
data_YbPa3(Nb3Ge4)2
_symmetry_space_group_name_H-M   'P 1'
_cell_length_a   7.06910800
_cell_length_b   7.18464110
_cell_length_c   13.60376205
_cell_angle_alpha   90.08102404
_cell_angle_beta   90.00000000
_cell_angle_gamma   90.00000000
_symmetry_Int_Tables_number   1
_chemical_formula_structural   YbPa3(Nb3Ge4)2
_chemical_formula_sum   'Yb2 Pa6 Nb12 Ge16'
_cell_volume   690.92083309
_cell_formula_units_Z   2
loop_
 _symmetry_equiv_pos_site_id
 _symmetry_equiv_pos_as_xyz
  1  'x, y, z'
loop_
 _atom_site_type_symbol
 _atom_site_label
 _atom_site_symmetry_multiplicity
 _atom_site_fract_x
 _atom_site_fract_y
 _atom_site_fract_z
 _atom_site_occupancy
  Yb  Yb0  1  0.493449  0.327511  0.406061  1
  Yb  Yb1  1  0.993449  0.172489  0.093939  1
  Pa  Pa2  1  0.495634  0.328832  0.093291  1
  Pa  Pa3  1  0.995634  0.171168  0.406709  1
  Pa  Pa4  1  0.506763  0.674702  0.593222  1
  Pa  Pa5  1  0.006763  0.825298  0.906778  1
  Pa  Pa6  1  0.509573  0.671382  0.908389  1
  Pa  Pa7  1  0.009573  0.828618  0.591611  1
  Nb  Nb8  1  0.668644  0.000665  0.750340  1
  Nb  Nb9  1  0.168644  0.499335  0.749660  1
  Nb  Nb10  1  0.333072  0.992647  0.248176  1
  Nb  Nb11  1  0.833072  0.507353  0.251824  1
  Nb  Nb12  1  0.841797  0.333818  0.624739  1
  Nb  Nb13  1  0.341797  0.166182  0.875261  1
  Nb  Nb14  1  0.162077  0.665908  0.125547  1
  Nb  Nb15  1  0.662077  0.834092  0.374453  1
  Nb  Nb16  1  0.152101  0.671643  0.375461  1
  Nb  Nb17  1  0.652101  0.828357  0.124539  1
  Nb  Nb18  1  0.836268  0.337757  0.873385  1
  Nb  Nb19  1  0.336268  0.162243  0.626615  1
  Ge  Ge20  1  0.808496  0.638229  0.749039  1
  Ge  Ge21  1  0.308496  0.861771  0.750961  1
  Ge  Ge22  1  0.192936  0.361078  0.249345  1
  Ge  Ge23  1  0.692936  0.138922  0.250655  1
  Ge  Ge24  1  0.538590  0.373792  0.748639  1
  Ge  Ge25  1  0.038590  0.126208  0.751361  1
  Ge  Ge26  1  0.460234  0.623044  0.252484  1
  Ge  Ge27  1  0.960234  0.876956  0.247516  1
  Ge  Ge28  1  0.673476  0.044546  0.543549  1
  Ge  Ge29  1  0.173476  0.455454  0.956451  1
  Ge  Ge30  1  0.321117  0.958613  0.043683  1
  Ge  Ge31  1  0.821117  0.541387  0.456317  1
  Ge  Ge32  1  0.329333  0.959474  0.455309  1
  Ge  Ge33  1  0.829333  0.540526  0.044691  1
  Ge  Ge34  1  0.676440  0.045485  0.957743  1
  Ge  Ge35  1  0.176440  0.454515  0.542257  1
