# generated using pymatgen
data_Dy3TmTi4F28
_symmetry_space_group_name_H-M   'P 1'
_cell_length_a   5.49409811
_cell_length_b   8.79393616
_cell_length_c   11.76416200
_cell_angle_alpha   63.43850945
_cell_angle_beta   90.01150275
_cell_angle_gamma   90.00346910
_symmetry_Int_Tables_number   1
_chemical_formula_structural   Dy3TmTi4F28
_chemical_formula_sum   'Dy3 Tm1 Ti4 F28'
_cell_volume   508.39256847
_cell_formula_units_Z   1
loop_
 _symmetry_equiv_pos_site_id
 _symmetry_equiv_pos_as_xyz
  1  'x, y, z'
loop_
 _atom_site_type_symbol
 _atom_site_label
 _atom_site_symmetry_multiplicity
 _atom_site_fract_x
 _atom_site_fract_y
 _atom_site_fract_z
 _atom_site_occupancy
  Dy  Dy0  1  0.258219  0.187838  0.732722  1
  Dy  Dy1  1  0.241685  0.190113  0.232301  1
  Dy  Dy2  1  0.741612  0.808777  0.268043  1
  Tm  Tm3  1  0.758730  0.808501  0.768035  1
  Ti  Ti4  1  0.754521  0.275200  0.954672  1
  Ti  Ti5  1  0.254920  0.726338  0.546469  1
  Ti  Ti6  1  0.245647  0.726352  0.042916  1
  Ti  Ti7  1  0.746046  0.272598  0.456104  1
  F  F8  1  0.452498  0.706655  0.923173  1
  F  F9  1  0.950463  0.293629  0.576112  1
  F  F10  1  0.550114  0.294804  0.075203  1
  F  F11  1  0.049676  0.706409  0.426259  1
  F  F12  1  0.461193  0.283584  0.544347  1
  F  F13  1  0.960679  0.717163  0.953351  1
  F  F14  1  0.538283  0.716159  0.457170  1
  F  F15  1  0.039285  0.284968  0.043137  1
  F  F16  1  0.767294  0.515115  0.859631  1
  F  F17  1  0.268180  0.487468  0.640966  1
  F  F18  1  0.230623  0.487742  0.138379  1
  F  F19  1  0.731626  0.512301  0.360876  1
  F  F20  1  0.757328  0.038590  0.048477  1
  F  F21  1  0.257312  0.962983  0.451946  1
  F  F22  1  0.242652  0.963420  0.949886  1
  F  F23  1  0.743044  0.036332  0.549361  1
  F  F24  1  0.982125  0.732055  0.642993  1
  F  F25  1  0.481623  0.268890  0.859206  1
  F  F26  1  0.019763  0.269297  0.360234  1
  F  F27  1  0.518335  0.731229  0.138981  1
  F  F28  1  0.045584  0.747055  0.167955  1
  F  F29  1  0.546637  0.253239  0.330549  1
  F  F30  1  0.954107  0.254301  0.829858  1
  F  F31  1  0.458258  0.748348  0.670501  1
  F  F32  1  0.418801  0.970876  0.231087  1
  F  F33  1  0.918795  0.028289  0.269010  1
  F  F34  1  0.580276  0.023359  0.768321  1
  F  F35  1  0.074066  0.970020  0.731769  1
