# generated using pymatgen
data_Y4AlCuRu6
_symmetry_space_group_name_H-M   'P 1'
_cell_length_a   5.36431600
_cell_length_b   5.38877563
_cell_length_c   8.61120208
_cell_angle_alpha   90.04944415
_cell_angle_beta   90.00000000
_cell_angle_gamma   119.84997672
_symmetry_Int_Tables_number   1
_chemical_formula_structural   Y4AlCuRu6
_chemical_formula_sum   'Y4 Al1 Cu1 Ru6'
_cell_volume   215.90028080
_cell_formula_units_Z   1
loop_
 _symmetry_equiv_pos_site_id
 _symmetry_equiv_pos_as_xyz
  1  'x, y, z'
loop_
 _atom_site_type_symbol
 _atom_site_label
 _atom_site_symmetry_multiplicity
 _atom_site_fract_x
 _atom_site_fract_y
 _atom_site_fract_z
 _atom_site_occupancy
  Y  Y0  1  0.330938  0.661878  0.438391  1
  Y  Y1  1  0.664724  0.329448  0.563642  1
  Y  Y2  1  0.668066  0.336131  0.930326  1
  Y  Y3  1  0.336003  0.672007  0.071226  1
  Al  Al4  1  0.994523  0.989046  0.002369  1
  Cu  Cu5  1  0.168587  0.337174  0.751200  1
  Ru  Ru6  1  0.178190  0.839416  0.751682  1
  Ru  Ru7  1  0.344299  0.172847  0.245804  1
  Ru  Ru8  1  0.829644  0.659288  0.254263  1
  Ru  Ru9  1  0.661225  0.839416  0.751682  1
  Ru  Ru10  1  0.828548  0.172847  0.245804  1
  Ru  Ru11  1  0.995252  0.990504  0.493611  1
