# generated using pymatgen
data_Yb3(BiPd)2
_symmetry_space_group_name_H-M   'P 1'
_cell_length_a   5.95628900
_cell_length_b   17.30136700
_cell_length_c   14.24218000
_cell_angle_alpha   90.00000000
_cell_angle_beta   90.00000000
_cell_angle_gamma   90.00000000
_symmetry_Int_Tables_number   1
_chemical_formula_structural   Yb3(BiPd)2
_chemical_formula_sum   'Yb24 Bi16 Pd16'
_cell_volume   1467.68430656
_cell_formula_units_Z   8
loop_
 _symmetry_equiv_pos_site_id
 _symmetry_equiv_pos_as_xyz
  1  'x, y, z'
loop_
 _atom_site_type_symbol
 _atom_site_label
 _atom_site_symmetry_multiplicity
 _atom_site_fract_x
 _atom_site_fract_y
 _atom_site_fract_z
 _atom_site_occupancy
  Yb  Yb0  1  0.832224  0.176407  0.093437  1
  Yb  Yb1  1  0.167776  0.676407  0.093437  1
  Yb  Yb2  1  0.499610  0.425167  0.094591  1
  Yb  Yb3  1  0.500389  0.925167  0.094591  1
  Yb  Yb4  1  0.287320  0.239249  0.250000  1
  Yb  Yb5  1  0.947415  0.497278  0.250000  1
  Yb  Yb6  1  0.712680  0.739249  0.250000  1
  Yb  Yb7  1  0.052584  0.997278  0.250000  1
  Yb  Yb8  1  0.499610  0.425167  0.405409  1
  Yb  Yb9  1  0.500389  0.925167  0.405409  1
  Yb  Yb10  1  0.832224  0.176407  0.406562  1
  Yb  Yb11  1  0.167776  0.676407  0.406562  1
  Yb  Yb12  1  0.832224  0.323593  0.593438  1
  Yb  Yb13  1  0.167776  0.823593  0.593438  1
  Yb  Yb14  1  0.499610  0.074833  0.594591  1
  Yb  Yb15  1  0.500389  0.574833  0.594591  1
  Yb  Yb16  1  0.947415  0.002722  0.750000  1
  Yb  Yb17  1  0.287320  0.260751  0.750000  1
  Yb  Yb18  1  0.052584  0.502722  0.750000  1
  Yb  Yb19  1  0.712680  0.760751  0.750000  1
  Yb  Yb20  1  0.499610  0.074833  0.905409  1
  Yb  Yb21  1  0.500389  0.574833  0.905409  1
  Yb  Yb22  1  0.832224  0.323593  0.906563  1
  Yb  Yb23  1  0.167776  0.823593  0.906563  1
  Bi  Bi24  1  0.000000  0.000000  0.000000  1
  Bi  Bi25  1  0.360603  0.250000  0.000000  1
  Bi  Bi26  1  0.000000  0.500000  0.000000  1
  Bi  Bi27  1  0.639398  0.750000  0.000000  1
  Bi  Bi28  1  0.559056  0.069300  0.250000  1
  Bi  Bi29  1  0.780285  0.319183  0.250000  1
  Bi  Bi30  1  0.440943  0.569300  0.250000  1
  Bi  Bi31  1  0.219714  0.819183  0.250000  1
  Bi  Bi32  1  0.000000  0.000000  0.500000  1
  Bi  Bi33  1  0.360603  0.250000  0.500000  1
  Bi  Bi34  1  0.000000  0.500000  0.500000  1
  Bi  Bi35  1  0.639398  0.750000  0.500000  1
  Bi  Bi36  1  0.780285  0.180817  0.750000  1
  Bi  Bi37  1  0.559056  0.430700  0.750000  1
  Bi  Bi38  1  0.219714  0.680817  0.750000  1
  Bi  Bi39  1  0.440943  0.930699  0.750000  1
  Pd  Pd40  1  0.039448  0.348617  0.090522  1
  Pd  Pd41  1  0.960553  0.848617  0.090522  1
  Pd  Pd42  1  0.289401  0.103744  0.096240  1
  Pd  Pd43  1  0.710600  0.603744  0.096240  1
  Pd  Pd44  1  0.289401  0.103744  0.403760  1
  Pd  Pd45  1  0.710600  0.603744  0.403760  1
  Pd  Pd46  1  0.039448  0.348617  0.409478  1
  Pd  Pd47  1  0.960553  0.848617  0.409478  1
  Pd  Pd48  1  0.039448  0.151383  0.590522  1
  Pd  Pd49  1  0.960553  0.651383  0.590522  1
  Pd  Pd50  1  0.289401  0.396256  0.596240  1
  Pd  Pd51  1  0.710600  0.896256  0.596240  1
  Pd  Pd52  1  0.289401  0.396256  0.903760  1
  Pd  Pd53  1  0.710600  0.896256  0.903760  1
  Pd  Pd54  1  0.039448  0.151383  0.909478  1
  Pd  Pd55  1  0.960553  0.651383  0.909478  1
