# generated using pymatgen
data_La2Y6GePd24
_symmetry_space_group_name_H-M   'P 1'
_cell_length_a   8.42290706
_cell_length_b   8.42290706
_cell_length_c   8.42290706
_cell_angle_alpha   90.08875020
_cell_angle_beta   89.91124980
_cell_angle_gamma   89.91124980
_symmetry_Int_Tables_number   1
_chemical_formula_structural   La2Y6GePd24
_chemical_formula_sum   'La2 Y6 Ge1 Pd24'
_cell_volume   597.56404810
_cell_formula_units_Z   1
loop_
 _symmetry_equiv_pos_site_id
 _symmetry_equiv_pos_as_xyz
  1  'x, y, z'
loop_
 _atom_site_type_symbol
 _atom_site_label
 _atom_site_symmetry_multiplicity
 _atom_site_fract_x
 _atom_site_fract_y
 _atom_site_fract_z
 _atom_site_occupancy
  La  La0  1  0.254288  0.745712  0.745712  1
  La  La1  1  0.745712  0.254288  0.254288  1
  Y  Y2  1  0.253642  0.253107  0.253107  1
  Y  Y3  1  0.746358  0.746893  0.746893  1
  Y  Y4  1  0.746893  0.746358  0.253107  1
  Y  Y5  1  0.746893  0.253107  0.746358  1
  Y  Y6  1  0.253107  0.253642  0.746893  1
  Y  Y7  1  0.253107  0.746893  0.253642  1
  Ge  Ge8  1  0.000000  0.000000  0.000000  1
  Pd  Pd9  1  0.260191  0.498970  0.002832  1
  Pd  Pd10  1  0.739809  0.501030  0.997168  1
  Pd  Pd11  1  0.002832  0.260191  0.501030  1
  Pd  Pd12  1  0.498970  0.260191  0.997168  1
  Pd  Pd13  1  0.997168  0.739809  0.498970  1
  Pd  Pd14  1  0.501030  0.739809  0.002832  1
  Pd  Pd15  1  0.498970  0.997168  0.260191  1
  Pd  Pd16  1  0.260191  0.002832  0.498970  1
  Pd  Pd17  1  0.501030  0.002832  0.739809  1
  Pd  Pd18  1  0.739809  0.997168  0.501030  1
  Pd  Pd19  1  0.002832  0.501030  0.260191  1
  Pd  Pd20  1  0.997168  0.498970  0.739809  1
  Pd  Pd21  1  0.253454  0.497860  0.497860  1
  Pd  Pd22  1  0.746546  0.502140  0.502140  1
  Pd  Pd23  1  0.497860  0.253454  0.502140  1
  Pd  Pd24  1  0.502140  0.746546  0.497860  1
  Pd  Pd25  1  0.497860  0.502140  0.253454  1
  Pd  Pd26  1  0.502140  0.497860  0.746546  1
  Pd  Pd27  1  0.290063  0.002494  0.002494  1
  Pd  Pd28  1  0.709937  0.997506  0.997506  1
  Pd  Pd29  1  0.002494  0.290063  0.997506  1
  Pd  Pd30  1  0.997506  0.709937  0.002494  1
  Pd  Pd31  1  0.002494  0.997506  0.290063  1
  Pd  Pd32  1  0.997506  0.002494  0.709937  1
