# generated using pymatgen
data_Sm5LuPu2O14
_symmetry_space_group_name_H-M   'P 1'
_cell_length_a   6.63774205
_cell_length_b   6.64104769
_cell_length_c   7.81191400
_cell_angle_alpha   106.90692394
_cell_angle_beta   89.80095851
_cell_angle_gamma   98.79549507
_symmetry_Int_Tables_number   1
_chemical_formula_structural   Sm5LuPu2O14
_chemical_formula_sum   'Sm5 Lu1 Pu2 O14'
_cell_volume   325.29684074
_cell_formula_units_Z   1
loop_
 _symmetry_equiv_pos_site_id
 _symmetry_equiv_pos_as_xyz
  1  'x, y, z'
loop_
 _atom_site_type_symbol
 _atom_site_label
 _atom_site_symmetry_multiplicity
 _atom_site_fract_x
 _atom_site_fract_y
 _atom_site_fract_z
 _atom_site_occupancy
  Sm  Sm0  1  0.541765  0.995685  0.745983  1
  Sm  Sm1  1  0.274443  0.542883  0.882052  1
  Sm  Sm2  1  0.723426  0.460352  0.120849  1
  Sm  Sm3  1  0.737976  0.473898  0.601001  1
  Sm  Sm4  1  0.257098  0.518989  0.388273  1
  Lu  Lu5  1  0.459410  0.004840  0.253657  1
  Pu  Pu6  1  0.000405  0.999560  0.497458  1
  Pu  Pu7  1  0.001420  0.001579  0.003100  1
  O  O8  1  0.443881  0.657931  0.171245  1
  O  O9  1  0.559260  0.357685  0.834041  1
  O  O10  1  0.302101  0.925546  0.956396  1
  O  O11  1  0.701394  0.073634  0.057209  1
  O  O12  1  0.294705  0.926644  0.508255  1
  O  O13  1  0.704669  0.070622  0.475560  1
  O  O14  1  0.538004  0.349670  0.338980  1
  O  O15  1  0.451786  0.636255  0.651739  1
  O  O16  1  0.933655  0.688449  0.977409  1
  O  O17  1  0.071004  0.317800  0.032298  1
  O  O18  1  0.063550  0.353993  0.620349  1
  O  O19  1  0.929107  0.640041  0.382784  1
  O  O20  1  0.875528  0.906882  0.723720  1
  O  O21  1  0.135412  0.097061  0.277642  1
