# generated using pymatgen
data_Ho5Co19(SiP)6
_symmetry_space_group_name_H-M   'P 1'
_cell_length_a   12.08731700
_cell_length_b   12.08731897
_cell_length_c   3.68558300
_cell_angle_alpha   90.00000000
_cell_angle_beta   90.00000000
_cell_angle_gamma   120.00000281
_symmetry_Int_Tables_number   1
_chemical_formula_structural   Ho5Co19(SiP)6
_chemical_formula_sum   'Ho5 Co19 Si6 P6'
_cell_volume   466.33360245
_cell_formula_units_Z   1
loop_
 _symmetry_equiv_pos_site_id
 _symmetry_equiv_pos_as_xyz
  1  'x, y, z'
loop_
 _atom_site_type_symbol
 _atom_site_label
 _atom_site_symmetry_multiplicity
 _atom_site_fract_x
 _atom_site_fract_y
 _atom_site_fract_z
 _atom_site_occupancy
  Ho  Ho0  1  0.666667  0.333333  0.000000  1
  Ho  Ho1  1  0.333333  0.666667  0.000000  1
  Ho  Ho2  1  0.815441  0.815441  0.500000  1
  Ho  Ho3  1  0.184559  0.000000  0.500000  1
  Ho  Ho4  1  0.000000  0.184559  0.500000  1
  Co  Co5  1  0.878396  0.355372  0.500000  1
  Co  Co6  1  0.644628  0.523025  0.500000  1
  Co  Co7  1  0.476975  0.121604  0.500000  1
  Co  Co8  1  0.355372  0.878396  0.500000  1
  Co  Co9  1  0.523025  0.644628  0.500000  1
  Co  Co10  1  0.121604  0.476975  0.500000  1
  Co  Co11  1  0.446944  0.446944  0.000000  1
  Co  Co12  1  0.553056  0.000000  0.000000  1
  Co  Co13  1  0.000000  0.553056  0.000000  1
  Co  Co14  1  0.805730  0.178911  0.000000  1
  Co  Co15  1  0.821089  0.626819  0.000000  1
  Co  Co16  1  0.373181  0.194270  0.000000  1
  Co  Co17  1  0.178911  0.805730  0.000000  1
  Co  Co18  1  0.626819  0.821089  0.000000  1
  Co  Co19  1  0.194270  0.373181  0.000000  1
  Co  Co20  1  0.277635  0.277635  0.500000  1
  Co  Co21  1  0.722365  0.000000  0.500000  1
  Co  Co22  1  0.000000  0.722365  0.500000  1
  Co  Co23  1  0.000000  0.000000  0.000000  1
  Si  Si24  1  0.681481  0.159552  0.500000  1
  Si  Si25  1  0.840448  0.521929  0.500000  1
  Si  Si26  1  0.478071  0.318519  0.500000  1
  Si  Si27  1  0.159552  0.681481  0.500000  1
  Si  Si28  1  0.521929  0.840448  0.500000  1
  Si  Si29  1  0.318519  0.478071  0.500000  1
  P  P30  1  0.180815  0.180815  0.000000  1
  P  P31  1  0.819185  0.000000  0.000000  1
  P  P32  1  0.000000  0.819185  0.000000  1
  P  P33  1  0.631178  0.631178  0.000000  1
  P  P34  1  0.368822  0.000000  0.000000  1
  P  P35  1  0.000000  0.368822  0.000000  1
