# generated using pymatgen
data_Al8Fe3CuIr4
_symmetry_space_group_name_H-M   'P 1'
_cell_length_a   5.94445700
_cell_length_b   4.18566300
_cell_length_c   8.34797300
_cell_angle_alpha   90.00000000
_cell_angle_beta   90.00003987
_cell_angle_gamma   90.00000000
_symmetry_Int_Tables_number   1
_chemical_formula_structural   Al8Fe3CuIr4
_chemical_formula_sum   'Al8 Fe3 Cu1 Ir4'
_cell_volume   207.71003777
_cell_formula_units_Z   1
loop_
 _symmetry_equiv_pos_site_id
 _symmetry_equiv_pos_as_xyz
  1  'x, y, z'
loop_
 _atom_site_type_symbol
 _atom_site_label
 _atom_site_symmetry_multiplicity
 _atom_site_fract_x
 _atom_site_fract_y
 _atom_site_fract_z
 _atom_site_occupancy
  Al  Al0  1  0.012095  0.750001  0.124986  1
  Al  Al1  1  0.487901  0.750001  0.124987  1
  Al  Al2  1  0.005955  0.250001  0.380750  1
  Al  Al3  1  0.494041  0.250001  0.380752  1
  Al  Al4  1  0.497938  0.750001  0.625035  1
  Al  Al5  1  0.002067  0.750001  0.625037  1
  Al  Al6  1  0.494014  0.250001  0.869233  1
  Al  Al7  1  0.005993  0.250001  0.869237  1
  Fe  Fe8  1  0.249997  0.750001  0.372393  1
  Fe  Fe9  1  0.750004  0.250001  0.624979  1
  Fe  Fe10  1  0.250003  0.750001  0.877648  1
  Cu  Cu11  1  0.749993  0.250001  0.124974  1
  Ir  Ir12  1  0.249999  0.250001  0.124998  1
  Ir  Ir13  1  0.749998  0.750001  0.370783  1
  Ir  Ir14  1  0.250001  0.250001  0.624971  1
  Ir  Ir15  1  0.750003  0.750001  0.879236  1
