# generated using pymatgen
data_Tb4Y6(GaBi)3
_symmetry_space_group_name_H-M   'P 1'
_cell_length_a   8.88219300
_cell_length_b   8.91057392
_cell_length_c   6.57586100
_cell_angle_alpha   90.00000000
_cell_angle_beta   90.00000000
_cell_angle_gamma   119.89470524
_symmetry_Int_Tables_number   1
_chemical_formula_structural   Tb4Y6(GaBi)3
_chemical_formula_sum   'Tb4 Y6 Ga3 Bi3'
_cell_volume   451.19986091
_cell_formula_units_Z   1
loop_
 _symmetry_equiv_pos_site_id
 _symmetry_equiv_pos_as_xyz
  1  'x, y, z'
loop_
 _atom_site_type_symbol
 _atom_site_label
 _atom_site_symmetry_multiplicity
 _atom_site_fract_x
 _atom_site_fract_y
 _atom_site_fract_z
 _atom_site_occupancy
  Tb  Tb0  1  0.324236  0.667811  0.004810  1
  Tb  Tb1  1  0.656426  0.332189  0.495190  1
  Tb  Tb2  1  0.656426  0.332189  0.004810  1
  Tb  Tb3  1  0.324236  0.667811  0.495190  1
  Y  Y4  1  0.233460  0.000000  0.250000  1
  Y  Y5  1  0.243162  0.227178  0.750000  1
  Y  Y6  1  0.015984  0.772822  0.750000  1
  Y  Y7  1  0.017000  0.250446  0.250000  1
  Y  Y8  1  0.766555  0.749554  0.250000  1
  Y  Y9  1  0.754301  0.000000  0.750000  1
  Ga  Ga10  1  0.998499  0.601987  0.250000  1
  Ga  Ga11  1  0.396512  0.398013  0.250000  1
  Ga  Ga12  1  0.400031  0.000000  0.750000  1
  Bi  Bi13  1  0.611914  0.000000  0.250000  1
  Bi  Bi14  1  0.604965  0.608671  0.750000  1
  Bi  Bi15  1  0.996293  0.391329  0.750000  1
