# generated using pymatgen
data_Tb4Ga5Tc3
_symmetry_space_group_name_H-M   'P 1'
_cell_length_a   5.49092629
_cell_length_b   5.56572751
_cell_length_c   8.73174200
_cell_angle_alpha   90.00000000
_cell_angle_beta   90.00000000
_cell_angle_gamma   120.45167394
_symmetry_Int_Tables_number   1
_chemical_formula_structural   Tb4Ga5Tc3
_chemical_formula_sum   'Tb4 Ga5 Tc3'
_cell_volume   230.04055117
_cell_formula_units_Z   1
loop_
 _symmetry_equiv_pos_site_id
 _symmetry_equiv_pos_as_xyz
  1  'x, y, z'
loop_
 _atom_site_type_symbol
 _atom_site_label
 _atom_site_symmetry_multiplicity
 _atom_site_fract_x
 _atom_site_fract_y
 _atom_site_fract_z
 _atom_site_occupancy
  Tb  Tb0  1  0.334820  0.667411  0.443356  1
  Tb  Tb1  1  0.662749  0.331374  0.552190  1
  Tb  Tb2  1  0.662749  0.331374  0.947810  1
  Tb  Tb3  1  0.334820  0.667411  0.056644  1
  Ga  Ga4  1  0.835791  0.163182  0.250000  1
  Ga  Ga5  1  0.835791  0.672610  0.250000  1
  Ga  Ga6  1  0.324834  0.162417  0.250000  1
  Ga  Ga7  1  0.188255  0.841267  0.750000  1
  Ga  Ga8  1  0.188255  0.346987  0.750000  1
  Tc  Tc9  1  0.975884  0.987942  0.510629  1
  Tc  Tc10  1  0.975884  0.987942  0.989371  1
  Tc  Tc11  1  0.680168  0.840083  0.750000  1
