# generated using pymatgen
data_Dy2Ho3Er7Ni4
_symmetry_space_group_name_H-M   'P 1'
_cell_length_a   6.31806702
_cell_length_b   6.80070000
_cell_length_c   9.49474502
_cell_angle_alpha   90.00016885
_cell_angle_beta   89.99303578
_cell_angle_gamma   90.00373847
_symmetry_Int_Tables_number   1
_chemical_formula_structural   Dy2Ho3Er7Ni4
_chemical_formula_sum   'Dy2 Ho3 Er7 Ni4'
_cell_volume   407.96334836
_cell_formula_units_Z   1
loop_
 _symmetry_equiv_pos_site_id
 _symmetry_equiv_pos_as_xyz
  1  'x, y, z'
loop_
 _atom_site_type_symbol
 _atom_site_label
 _atom_site_symmetry_multiplicity
 _atom_site_fract_x
 _atom_site_fract_y
 _atom_site_fract_z
 _atom_site_occupancy
  Dy  Dy0  1  0.860102  0.532904  0.250016  1
  Dy  Dy1  1  0.639840  0.032831  0.250075  1
  Ho  Ho2  1  0.178808  0.178092  0.065931  1
  Ho  Ho3  1  0.140167  0.466917  0.749966  1
  Ho  Ho4  1  0.359806  0.966852  0.749937  1
  Er  Er5  1  0.321296  0.678101  0.065885  1
  Er  Er6  1  0.178791  0.178095  0.434176  1
  Er  Er7  1  0.678806  0.321955  0.566413  1
  Er  Er8  1  0.821128  0.821957  0.933549  1
  Er  Er9  1  0.678756  0.321979  0.933515  1
  Er  Er10  1  0.821212  0.821963  0.566418  1
  Er  Er11  1  0.321220  0.678079  0.434068  1
  Ni  Ni12  1  0.055074  0.891130  0.250091  1
  Ni  Ni13  1  0.445045  0.391396  0.250084  1
  Ni  Ni14  1  0.945668  0.108875  0.749899  1
  Ni  Ni15  1  0.554283  0.608876  0.749977  1
