# generated using pymatgen
data_Zr2NbRh5
_symmetry_space_group_name_H-M   'P 1'
_cell_length_a   5.61095601
_cell_length_b   5.61095549
_cell_length_c   8.64903900
_cell_angle_alpha   90.00000000
_cell_angle_beta   90.00000000
_cell_angle_gamma   102.38687987
_symmetry_Int_Tables_number   1
_chemical_formula_structural   Zr2NbRh5
_chemical_formula_sum   'Zr4 Nb2 Rh10'
_cell_volume   265.95750920
_cell_formula_units_Z   2
loop_
 _symmetry_equiv_pos_site_id
 _symmetry_equiv_pos_as_xyz
  1  'x, y, z'
loop_
 _atom_site_type_symbol
 _atom_site_label
 _atom_site_symmetry_multiplicity
 _atom_site_fract_x
 _atom_site_fract_y
 _atom_site_fract_z
 _atom_site_occupancy
  Zr  Zr0  1  0.789888  0.210112  0.500000  1
  Zr  Zr1  1  0.210112  0.789888  0.000000  1
  Zr  Zr2  1  0.210112  0.789888  0.500000  1
  Zr  Zr3  1  0.789888  0.210112  0.000000  1
  Nb  Nb4  1  0.578045  0.578045  0.750000  1
  Nb  Nb5  1  0.421955  0.421955  0.250000  1
  Rh  Rh6  1  0.703302  0.703302  0.031064  1
  Rh  Rh7  1  0.703302  0.703302  0.468936  1
  Rh  Rh8  1  0.296698  0.296698  0.968936  1
  Rh  Rh9  1  0.296698  0.296698  0.531064  1
  Rh  Rh10  1  0.486121  0.013139  0.750000  1
  Rh  Rh11  1  0.513879  0.986861  0.250000  1
  Rh  Rh12  1  0.018752  0.018752  0.250000  1
  Rh  Rh13  1  0.981248  0.981248  0.750000  1
  Rh  Rh14  1  0.013139  0.486121  0.750000  1
  Rh  Rh15  1  0.986861  0.513879  0.250000  1
