# generated using pymatgen
data_SrSi(PO3)6
_symmetry_space_group_name_H-M   'P 1'
_cell_length_a   6.66379300
_cell_length_b   6.66379373
_cell_length_c   10.19480700
_cell_angle_alpha   90.00000000
_cell_angle_beta   90.00000000
_cell_angle_gamma   120.00001127
_symmetry_Int_Tables_number   1
_chemical_formula_structural   SrSi(PO3)6
_chemical_formula_sum   'Sr1 Si1 P6 O18'
_cell_volume   392.06008912
_cell_formula_units_Z   1
loop_
 _symmetry_equiv_pos_site_id
 _symmetry_equiv_pos_as_xyz
  1  'x, y, z'
loop_
 _atom_site_type_symbol
 _atom_site_label
 _atom_site_symmetry_multiplicity
 _atom_site_fract_x
 _atom_site_fract_y
 _atom_site_fract_z
 _atom_site_occupancy
  Sr  Sr0  1  0.000000  0.000000  0.500000  1
  Si  Si1  1  0.000000  0.000000  0.000000  1
  P  P2  1  0.738270  0.125425  0.792627  1
  P  P3  1  0.874575  0.261730  0.207373  1
  P  P4  1  0.738270  0.612845  0.207373  1
  P  P5  1  0.874575  0.612845  0.792627  1
  P  P6  1  0.387155  0.261730  0.792627  1
  P  P7  1  0.387155  0.125425  0.207373  1
  O  O8  1  0.908937  0.512843  0.174784  1
  O  O9  1  0.908937  0.396094  0.825216  1
  O  O10  1  0.487157  0.091063  0.825216  1
  O  O11  1  0.603906  0.091063  0.174784  1
  O  O12  1  0.754493  0.065193  0.655292  1
  O  O13  1  0.776605  0.992499  0.901592  1
  O  O14  1  0.487157  0.396094  0.174784  1
  O  O15  1  0.754493  0.689301  0.344708  1
  O  O16  1  0.776605  0.784106  0.098408  1
  O  O17  1  0.603906  0.512843  0.825216  1
  O  O18  1  0.934807  0.245507  0.344708  1
  O  O19  1  0.007501  0.223395  0.098408  1
  O  O20  1  0.215894  0.223395  0.901592  1
  O  O21  1  0.310699  0.245507  0.655292  1
  O  O22  1  0.007501  0.784106  0.901592  1
  O  O23  1  0.934807  0.689301  0.655292  1
  O  O24  1  0.215894  0.992499  0.098408  1
  O  O25  1  0.310699  0.065193  0.344708  1
