# generated using pymatgen
data_ErHf4Sc7Ga20
_symmetry_space_group_name_H-M   'P 1'
_cell_length_a   5.76782129
_cell_length_b   9.20466896
_cell_length_c   11.08773635
_cell_angle_alpha   89.81664051
_cell_angle_beta   90.05296164
_cell_angle_gamma   90.10971247
_symmetry_Int_Tables_number   1
_chemical_formula_structural   ErHf4Sc7Ga20
_chemical_formula_sum   'Er1 Hf4 Sc7 Ga20'
_cell_volume   588.65340025
_cell_formula_units_Z   1
loop_
 _symmetry_equiv_pos_site_id
 _symmetry_equiv_pos_as_xyz
  1  'x, y, z'
loop_
 _atom_site_type_symbol
 _atom_site_label
 _atom_site_symmetry_multiplicity
 _atom_site_fract_x
 _atom_site_fract_y
 _atom_site_fract_z
 _atom_site_occupancy
  Er  Er0  1  0.613621  0.502334  0.852649  1
  Hf  Hf1  1  0.857202  0.750497  0.070111  1
  Hf  Hf2  1  0.642231  0.748687  0.569055  1
  Hf  Hf3  1  0.141071  0.251986  0.930516  1
  Hf  Hf4  1  0.357272  0.249467  0.430339  1
  Sc  Sc5  1  0.886838  0.503519  0.352895  1
  Sc  Sc6  1  0.613871  0.998225  0.853995  1
  Sc  Sc7  1  0.113866  0.003246  0.645013  1
  Sc  Sc8  1  0.386232  0.496661  0.148582  1
  Sc  Sc9  1  0.114070  0.496409  0.646545  1
  Sc  Sc10  1  0.385794  0.003295  0.147683  1
  Sc  Sc11  1  0.887103  0.995432  0.353465  1
  Ga  Ga12  1  0.873367  0.050426  0.093630  1
  Ga  Ga13  1  0.628548  0.446922  0.588814  1
  Ga  Ga14  1  0.123837  0.554136  0.908842  1
  Ga  Ga15  1  0.372945  0.948512  0.406916  1
  Ga  Ga16  1  0.127895  0.951303  0.907384  1
  Ga  Ga17  1  0.371896  0.551156  0.406767  1
  Ga  Ga18  1  0.872492  0.448335  0.094750  1
  Ga  Ga19  1  0.627444  0.049976  0.592837  1
  Ga  Ga20  1  0.155695  0.750197  0.255595  1
  Ga  Ga21  1  0.343006  0.754321  0.754166  1
  Ga  Ga22  1  0.849046  0.245744  0.741697  1
  Ga  Ga23  1  0.655665  0.249139  0.245565  1
  Ga  Ga24  1  0.392677  0.751810  0.005427  1
  Ga  Ga25  1  0.105437  0.749593  0.503926  1
  Ga  Ga26  1  0.601888  0.246000  0.000803  1
  Ga  Ga27  1  0.894999  0.248908  0.494596  1
  Ga  Ga28  1  0.620055  0.750204  0.292731  1
  Ga  Ga29  1  0.884128  0.755655  0.790815  1
  Ga  Ga30  1  0.379847  0.248501  0.706390  1
  Ga  Ga31  1  0.119960  0.249403  0.207500  1
