# generated using pymatgen
data_Ho4Al18Ni4OsPd
_symmetry_space_group_name_H-M   'P 1'
_cell_length_a   7.47667234
_cell_length_b   7.47667133
_cell_length_c   9.32363542
_cell_angle_alpha   90.24248080
_cell_angle_beta   90.24247810
_cell_angle_gamma   119.55219860
_symmetry_Int_Tables_number   1
_chemical_formula_structural   Ho4Al18Ni4OsPd
_chemical_formula_sum   'Ho4 Al18 Ni4 Os1 Pd1'
_cell_volume   453.37676262
_cell_formula_units_Z   1
loop_
 _symmetry_equiv_pos_site_id
 _symmetry_equiv_pos_as_xyz
  1  'x, y, z'
loop_
 _atom_site_type_symbol
 _atom_site_label
 _atom_site_symmetry_multiplicity
 _atom_site_fract_x
 _atom_site_fract_y
 _atom_site_fract_z
 _atom_site_occupancy
  Ho  Ho0  1  0.992844  0.669845  0.248487  1
  Ho  Ho1  1  0.003947  0.326944  0.751174  1
  Ho  Ho2  1  0.673056  0.996053  0.248826  1
  Ho  Ho3  1  0.330155  0.007156  0.751513  1
  Al  Al4  1  0.128403  0.128842  0.244725  1
  Al  Al5  1  0.871158  0.871597  0.755275  1
  Al  Al6  1  0.002759  0.335011  0.073088  1
  Al  Al7  1  0.004986  0.664683  0.927035  1
  Al  Al8  1  0.002057  0.661700  0.575497  1
  Al  Al9  1  0.338300  0.997943  0.424503  1
  Al  Al10  1  0.000108  0.341845  0.424801  1
  Al  Al11  1  0.658155  0.999892  0.575199  1
  Al  Al12  1  0.664989  0.997241  0.926912  1
  Al  Al13  1  0.335317  0.995014  0.072965  1
  Al  Al14  1  0.337012  0.338952  0.554463  1
  Al  Al15  1  0.661048  0.662989  0.445537  1
  Al  Al16  1  0.668896  0.667997  0.048052  1
  Al  Al17  1  0.332004  0.331104  0.951948  1
  Al  Al18  1  0.338739  0.556092  0.249426  1
  Al  Al19  1  0.660313  0.450564  0.748401  1
  Al  Al20  1  0.549436  0.339687  0.251599  1
  Al  Al21  1  0.443908  0.661261  0.750574  1
  Ni  Ni22  1  0.330460  0.669540  0.000000  1
  Ni  Ni23  1  0.328090  0.671910  0.500000  1
  Ni  Ni24  1  0.670887  0.329113  0.500000  1
  Ni  Ni25  1  0.002126  0.997874  0.000000  1
  Os  Os26  1  0.672810  0.327190  0.000000  1
  Pd  Pd27  1  0.998039  0.001961  0.500000  1
