# generated using pymatgen
data_Tb7Sm3(SiHg)4
_symmetry_space_group_name_H-M   'P 1'
_cell_length_a   9.02969600
_cell_length_b   8.65584183
_cell_length_c   7.59065000
_cell_angle_alpha   89.94460291
_cell_angle_beta   89.99907359
_cell_angle_gamma   129.25110794
_symmetry_Int_Tables_number   1
_chemical_formula_structural   Tb7Sm3(SiHg)4
_chemical_formula_sum   'Tb7 Sm3 Si4 Hg4'
_cell_volume   459.42584155
_cell_formula_units_Z   1
loop_
 _symmetry_equiv_pos_site_id
 _symmetry_equiv_pos_as_xyz
  1  'x, y, z'
loop_
 _atom_site_type_symbol
 _atom_site_label
 _atom_site_symmetry_multiplicity
 _atom_site_fract_x
 _atom_site_fract_y
 _atom_site_fract_z
 _atom_site_occupancy
  Tb  Tb0  1  0.791556  0.546028  0.177486  1
  Tb  Tb1  1  0.565276  0.827572  0.176335  1
  Tb  Tb2  1  0.208013  0.455812  0.821349  1
  Tb  Tb3  1  0.708508  0.955145  0.679093  1
  Tb  Tb4  1  0.290178  0.046135  0.321759  1
  Tb  Tb5  1  0.000427  0.000805  0.999695  1
  Tb  Tb6  1  0.499760  0.500832  0.500031  1
  Sm  Sm7  1  0.066014  0.333461  0.321699  1
  Sm  Sm8  1  0.935820  0.667884  0.677983  1
  Sm  Sm9  1  0.433987  0.167612  0.821980  1
  Si  Si10  1  0.382229  0.386212  0.119234  1
  Si  Si11  1  0.618183  0.616040  0.880756  1
  Si  Si12  1  0.117135  0.115900  0.619298  1
  Si  Si13  1  0.880375  0.884638  0.379766  1
  Hg  Hg14  1  0.805655  0.242641  0.985448  1
  Hg  Hg15  1  0.193762  0.751481  0.024262  1
  Hg  Hg16  1  0.688995  0.250453  0.479139  1
  Hg  Hg17  1  0.314128  0.751349  0.514688  1
