# generated using pymatgen
data_Ho6Al24FePd4Ru3
_symmetry_space_group_name_H-M   'P 1'
_cell_length_a   8.82529060
_cell_length_b   8.82528982
_cell_length_c   9.46278103
_cell_angle_alpha   90.21613680
_cell_angle_beta   89.78386269
_cell_angle_gamma   119.74461485
_symmetry_Int_Tables_number   1
_chemical_formula_structural   Ho6Al24FePd4Ru3
_chemical_formula_sum   'Ho6 Al24 Fe1 Pd4 Ru3'
_cell_volume   639.90450273
_cell_formula_units_Z   1
loop_
 _symmetry_equiv_pos_site_id
 _symmetry_equiv_pos_as_xyz
  1  'x, y, z'
loop_
 _atom_site_type_symbol
 _atom_site_label
 _atom_site_symmetry_multiplicity
 _atom_site_fract_x
 _atom_site_fract_y
 _atom_site_fract_z
 _atom_site_occupancy
  Ho  Ho0  1  0.188779  0.382396  0.252435  1
  Ho  Ho1  1  0.811221  0.617604  0.747565  1
  Ho  Ho2  1  0.617604  0.811221  0.252435  1
  Ho  Ho3  1  0.382396  0.188779  0.747565  1
  Ho  Ho4  1  0.191712  0.808288  0.251209  1
  Ho  Ho5  1  0.808288  0.191712  0.748791  1
  Al  Al6  1  0.333717  0.666283  0.031523  1
  Al  Al7  1  0.666283  0.333717  0.968477  1
  Al  Al8  1  0.669513  0.330487  0.526354  1
  Al  Al9  1  0.330487  0.669513  0.473646  1
  Al  Al10  1  0.154579  0.319698  0.574582  1
  Al  Al11  1  0.845421  0.680302  0.425418  1
  Al  Al12  1  0.680302  0.845421  0.574582  1
  Al  Al13  1  0.838349  0.677945  0.079897  1
  Al  Al14  1  0.319698  0.154579  0.425418  1
  Al  Al15  1  0.161651  0.322055  0.920103  1
  Al  Al16  1  0.161301  0.838699  0.574140  1
  Al  Al17  1  0.322055  0.161651  0.079897  1
  Al  Al18  1  0.838699  0.161301  0.425860  1
  Al  Al19  1  0.677945  0.838349  0.920103  1
  Al  Al20  1  0.838393  0.161607  0.080826  1
  Al  Al21  1  0.161607  0.838393  0.919174  1
  Al  Al22  1  0.562209  0.125418  0.253740  1
  Al  Al23  1  0.437791  0.874582  0.746260  1
  Al  Al24  1  0.874582  0.437791  0.253740  1
  Al  Al25  1  0.125418  0.562209  0.746260  1
  Al  Al26  1  0.563139  0.436861  0.249918  1
  Al  Al27  1  0.436861  0.563139  0.750082  1
  Al  Al28  1  0.999268  0.000732  0.256299  1
  Al  Al29  1  0.000732  0.999268  0.743701  1
  Fe  Fe30  1  0.000000  0.000000  0.500000  1
  Pd  Pd31  1  0.500000  0.000000  0.000000  1
  Pd  Pd32  1  0.000000  0.500000  0.000000  1
  Pd  Pd33  1  0.500000  0.500000  0.000000  1
  Pd  Pd34  1  0.500000  0.500000  0.500000  1
  Ru  Ru35  1  0.500000  0.000000  0.500000  1
  Ru  Ru36  1  0.000000  0.500000  0.500000  1
  Ru  Ru37  1  0.000000  0.000000  0.000000  1
