# generated using pymatgen
data_Zn22Rh3
_symmetry_space_group_name_H-M   'P 1'
_cell_length_a   7.78562732
_cell_length_b   7.78562801
_cell_length_c   7.84295581
_cell_angle_alpha   72.28871103
_cell_angle_beta   72.28870886
_cell_angle_gamma   57.95697626
_symmetry_Int_Tables_number   1
_chemical_formula_structural   Zn22Rh3
_chemical_formula_sum   'Zn22 Rh3'
_cell_volume   377.82753832
_cell_formula_units_Z   1
loop_
 _symmetry_equiv_pos_site_id
 _symmetry_equiv_pos_as_xyz
  1  'x, y, z'
loop_
 _atom_site_type_symbol
 _atom_site_label
 _atom_site_symmetry_multiplicity
 _atom_site_fract_x
 _atom_site_fract_y
 _atom_site_fract_z
 _atom_site_occupancy
  Zn  Zn0  1  0.343246  0.738171  0.314111  1
  Zn  Zn1  1  0.656754  0.261829  0.685889  1
  Zn  Zn2  1  0.261829  0.656754  0.685889  1
  Zn  Zn3  1  0.738171  0.343246  0.314111  1
  Zn  Zn4  1  0.679089  0.320911  0.000000  1
  Zn  Zn5  1  0.320911  0.679089  0.000000  1
  Zn  Zn6  1  0.830827  0.830827  0.783633  1
  Zn  Zn7  1  0.169173  0.169173  0.216367  1
  Zn  Zn8  1  0.975245  0.975245  0.173598  1
  Zn  Zn9  1  0.024755  0.024755  0.826402  1
  Zn  Zn10  1  0.352622  0.352622  0.276165  1
  Zn  Zn11  1  0.647378  0.647378  0.723835  1
  Zn  Zn12  1  0.686254  0.686254  0.378132  1
  Zn  Zn13  1  0.313746  0.313746  0.621868  1
  Zn  Zn14  1  0.658484  0.025342  0.461042  1
  Zn  Zn15  1  0.341516  0.974658  0.538958  1
  Zn  Zn16  1  0.974658  0.341516  0.538958  1
  Zn  Zn17  1  0.025342  0.658484  0.461042  1
  Zn  Zn18  1  0.620557  0.997067  0.102616  1
  Zn  Zn19  1  0.379443  0.002933  0.897384  1
  Zn  Zn20  1  0.002933  0.379443  0.897384  1
  Zn  Zn21  1  0.997067  0.620557  0.102616  1
  Rh  Rh22  1  0.657907  0.657907  0.053941  1
  Rh  Rh23  1  0.342093  0.342093  0.946059  1
  Rh  Rh24  1  0.000000  0.000000  0.500000  1
