# generated using pymatgen
data_Er2TmCu4Si3Ge
_symmetry_space_group_name_H-M   'P 1'
_cell_length_a   7.81349366
_cell_length_b   7.81273769
_cell_length_c   7.81273692
_cell_angle_alpha   149.47198242
_cell_angle_beta   130.55060107
_cell_angle_gamma   59.23529962
_symmetry_Int_Tables_number   1
_chemical_formula_structural   Er2TmCu4Si3Ge
_chemical_formula_sum   'Er2 Tm1 Cu4 Si3 Ge1'
_cell_volume   182.61829060
_cell_formula_units_Z   1
loop_
 _symmetry_equiv_pos_site_id
 _symmetry_equiv_pos_as_xyz
  1  'x, y, z'
loop_
 _atom_site_type_symbol
 _atom_site_label
 _atom_site_symmetry_multiplicity
 _atom_site_fract_x
 _atom_site_fract_y
 _atom_site_fract_z
 _atom_site_occupancy
  Er  Er0  1  0.130737  0.129199  0.001539  1
  Er  Er1  1  0.497859  0.999913  0.497946  1
  Tm  Tm2  1  0.872241  0.870693  0.001548  1
  Cu  Cu3  1  0.518013  0.327392  0.190621  1
  Cu  Cu4  1  0.862993  0.672755  0.190238  1
  Cu  Cu5  1  0.139585  0.331068  0.808517  1
  Cu  Cu6  1  0.477892  0.669070  0.808821  1
  Si  Si7  1  0.189029  0.499822  0.689207  1
  Si  Si8  1  0.283883  0.783954  0.499929  1
  Si  Si9  1  0.716273  0.216296  0.499977  1
  Ge  Ge10  1  0.811496  0.499839  0.311657  1
