# generated using pymatgen
data_Dy5Ho(CoSn6)2
_symmetry_space_group_name_H-M   'P 1'
_cell_length_a   8.50127404
_cell_length_b   8.50127566
_cell_length_c   13.12127484
_cell_angle_alpha   89.97921097
_cell_angle_beta   90.02078835
_cell_angle_gamma   148.91150801
_symmetry_Int_Tables_number   1
_chemical_formula_structural   Dy5Ho(CoSn6)2
_chemical_formula_sum   'Dy5 Ho1 Co2 Sn12'
_cell_volume   489.66361155
_cell_formula_units_Z   1
loop_
 _symmetry_equiv_pos_site_id
 _symmetry_equiv_pos_as_xyz
  1  'x, y, z'
loop_
 _atom_site_type_symbol
 _atom_site_label
 _atom_site_symmetry_multiplicity
 _atom_site_fract_x
 _atom_site_fract_y
 _atom_site_fract_z
 _atom_site_occupancy
  Dy  Dy0  1  0.898742  0.101258  0.093351  1
  Dy  Dy1  1  0.101217  0.898783  0.593515  1
  Dy  Dy2  1  0.900075  0.099925  0.750625  1
  Dy  Dy3  1  0.100862  0.899138  0.906924  1
  Dy  Dy4  1  0.100011  0.899989  0.249608  1
  Ho  Ho5  1  0.898724  0.101276  0.406139  1
  Co  Co6  1  0.300434  0.699566  0.250468  1
  Co  Co7  1  0.699674  0.300326  0.749368  1
  Sn  Sn8  1  0.756644  0.243356  0.571589  1
  Sn  Sn9  1  0.428337  0.571663  0.575794  1
  Sn  Sn10  1  0.572154  0.427846  0.423802  1
  Sn  Sn11  1  0.734381  0.265619  0.249849  1
  Sn  Sn12  1  0.265600  0.734400  0.750137  1
  Sn  Sn13  1  0.244197  0.755803  0.071789  1
  Sn  Sn14  1  0.244111  0.755889  0.428459  1
  Sn  Sn15  1  0.571741  0.428259  0.075813  1
  Sn  Sn16  1  0.454089  0.545911  0.250073  1
  Sn  Sn17  1  0.545941  0.454059  0.750287  1
  Sn  Sn18  1  0.755578  0.244422  0.928104  1
  Sn  Sn19  1  0.427489  0.572511  0.924308  1
