# generated using pymatgen
data_TbTmReB6
_symmetry_space_group_name_H-M   'P 1'
_cell_length_a   3.66632000
_cell_length_b   9.14478300
_cell_length_c   11.54214000
_cell_angle_alpha   90.00000000
_cell_angle_beta   90.00000000
_cell_angle_gamma   90.00000000
_symmetry_Int_Tables_number   1
_chemical_formula_structural   TbTmReB6
_chemical_formula_sum   'Tb4 Tm4 Re4 B24'
_cell_volume   386.98141661
_cell_formula_units_Z   4
loop_
 _symmetry_equiv_pos_site_id
 _symmetry_equiv_pos_as_xyz
  1  'x, y, z'
loop_
 _atom_site_type_symbol
 _atom_site_label
 _atom_site_symmetry_multiplicity
 _atom_site_fract_x
 _atom_site_fract_y
 _atom_site_fract_z
 _atom_site_occupancy
  Tb  Tb0  1  0.000000  0.323331  0.413899  1
  Tb  Tb1  1  0.000000  0.676669  0.586101  1
  Tb  Tb2  1  0.000000  0.823331  0.086101  1
  Tb  Tb3  1  0.000000  0.176669  0.913899  1
  Tm  Tm4  1  0.000000  0.943676  0.370440  1
  Tm  Tm5  1  0.000000  0.056324  0.629560  1
  Tm  Tm6  1  0.000000  0.443676  0.129560  1
  Tm  Tm7  1  0.000000  0.556324  0.870440  1
  Re  Re8  1  0.000000  0.639359  0.320221  1
  Re  Re9  1  0.000000  0.360641  0.679779  1
  Re  Re10  1  0.000000  0.139359  0.179779  1
  Re  Re11  1  0.000000  0.860641  0.820221  1
  B  B12  1  0.500000  0.553834  0.432395  1
  B  B13  1  0.500000  0.446166  0.567605  1
  B  B14  1  0.500000  0.053834  0.067605  1
  B  B15  1  0.500000  0.946166  0.932395  1
  B  B16  1  0.500000  0.750173  0.418243  1
  B  B17  1  0.500000  0.249827  0.581757  1
  B  B18  1  0.500000  0.250173  0.081757  1
  B  B19  1  0.500000  0.749827  0.918243  1
  B  B20  1  0.500000  0.792856  0.265848  1
  B  B21  1  0.500000  0.207144  0.734152  1
  B  B22  1  0.500000  0.292856  0.234152  1
  B  B23  1  0.500000  0.707144  0.765848  1
  B  B24  1  0.500000  0.630408  0.185460  1
  B  B25  1  0.500000  0.369592  0.814540  1
  B  B26  1  0.500000  0.130408  0.314540  1
  B  B27  1  0.500000  0.869592  0.685460  1
  B  B28  1  0.500000  0.982359  0.212600  1
  B  B29  1  0.500000  0.017641  0.787400  1
  B  B30  1  0.500000  0.482359  0.287400  1
  B  B31  1  0.500000  0.517641  0.712600  1
  B  B32  1  0.500000  0.598705  0.027478  1
  B  B33  1  0.500000  0.401295  0.972522  1
  B  B34  1  0.500000  0.098705  0.472522  1
  B  B35  1  0.500000  0.901295  0.527478  1
