# generated using pymatgen
data_Yb3Y(B4Ru)4
_symmetry_space_group_name_H-M   'P 1'
_cell_length_a   3.53987801
_cell_length_b   5.94084530
_cell_length_c   11.50460155
_cell_angle_alpha   90.03561692
_cell_angle_beta   89.99971120
_cell_angle_gamma   89.99164809
_symmetry_Int_Tables_number   1
_chemical_formula_structural   Yb3Y(B4Ru)4
_chemical_formula_sum   'Yb3 Y1 B16 Ru4'
_cell_volume   241.94019870
_cell_formula_units_Z   1
loop_
 _symmetry_equiv_pos_site_id
 _symmetry_equiv_pos_as_xyz
  1  'x, y, z'
loop_
 _atom_site_type_symbol
 _atom_site_label
 _atom_site_symmetry_multiplicity
 _atom_site_fract_x
 _atom_site_fract_y
 _atom_site_fract_z
 _atom_site_occupancy
  Yb  Yb0  1  0.000018  0.629629  0.349357  1
  Yb  Yb1  1  0.999983  0.370960  0.649371  1
  Yb  Yb2  1  0.000007  0.130847  0.150941  1
  Y  Y3  1  0.999989  0.870798  0.849608  1
  B  B4  1  0.500003  0.786773  0.185855  1
  B  B5  1  0.500001  0.212536  0.814616  1
  B  B6  1  0.500020  0.287000  0.315314  1
  B  B7  1  0.499988  0.711752  0.684322  1
  B  B8  1  0.500004  0.864347  0.031525  1
  B  B9  1  0.499987  0.135972  0.969440  1
  B  B10  1  0.500002  0.364865  0.468687  1
  B  B11  1  0.499997  0.634949  0.531179  1
  B  B12  1  0.500018  0.887197  0.453042  1
  B  B13  1  0.499992  0.113291  0.547094  1
  B  B14  1  0.499993  0.386763  0.047800  1
  B  B15  1  0.500000  0.610822  0.953196  1
  B  B16  1  0.500002  0.976966  0.308131  1
  B  B17  1  0.500005  0.023122  0.691536  1
  B  B18  1  0.500006  0.476139  0.192271  1
  B  B19  1  0.499993  0.523421  0.807484  1
  Ru  Ru20  1  0.999998  0.638224  0.089192  1
  Ru  Ru21  1  0.999997  0.362825  0.909853  1
  Ru  Ru22  1  0.000011  0.136000  0.411915  1
  Ru  Ru23  1  0.999989  0.864803  0.588271  1
