# generated using pymatgen
data_Tm6Zn23C
_symmetry_space_group_name_H-M   'P 1'
_cell_length_a   8.93824231
_cell_length_b   8.93824191
_cell_length_c   8.93824200
_cell_angle_alpha   59.99999967
_cell_angle_beta   60.00000116
_cell_angle_gamma   60.00000142
_symmetry_Int_Tables_number   1
_chemical_formula_structural   Tm6Zn23C
_chemical_formula_sum   'Tm6 Zn23 C1'
_cell_volume   504.94182711
_cell_formula_units_Z   1
loop_
 _symmetry_equiv_pos_site_id
 _symmetry_equiv_pos_as_xyz
  1  'x, y, z'
loop_
 _atom_site_type_symbol
 _atom_site_label
 _atom_site_symmetry_multiplicity
 _atom_site_fract_x
 _atom_site_fract_y
 _atom_site_fract_z
 _atom_site_occupancy
  Tm  Tm0  1  0.693010  0.306990  0.306990  1
  Tm  Tm1  1  0.693010  0.306990  0.693010  1
  Tm  Tm2  1  0.693010  0.693010  0.306990  1
  Tm  Tm3  1  0.306990  0.693010  0.693010  1
  Tm  Tm4  1  0.306990  0.693010  0.306990  1
  Tm  Tm5  1  0.306990  0.306990  0.693010  1
  Zn  Zn6  1  0.633538  0.122155  0.122155  1
  Zn  Zn7  1  0.122155  0.633538  0.122155  1
  Zn  Zn8  1  0.122155  0.122155  0.633538  1
  Zn  Zn9  1  0.122155  0.122155  0.122155  1
  Zn  Zn10  1  0.366462  0.877845  0.877845  1
  Zn  Zn11  1  0.877845  0.366462  0.877845  1
  Zn  Zn12  1  0.877845  0.877845  0.366462  1
  Zn  Zn13  1  0.877845  0.877845  0.877845  1
  Zn  Zn14  1  0.500000  0.000000  0.000000  1
  Zn  Zn15  1  0.500000  0.000000  0.500000  1
  Zn  Zn16  1  0.500000  0.500000  0.000000  1
  Zn  Zn17  1  0.000000  0.500000  0.500000  1
  Zn  Zn18  1  0.000000  0.500000  0.000000  1
  Zn  Zn19  1  0.000000  0.000000  0.500000  1
  Zn  Zn20  1  0.000000  0.000000  0.000000  1
  Zn  Zn21  1  0.015737  0.328088  0.328088  1
  Zn  Zn22  1  0.328088  0.015737  0.328088  1
  Zn  Zn23  1  0.328088  0.328088  0.015737  1
  Zn  Zn24  1  0.328088  0.328088  0.328088  1
  Zn  Zn25  1  0.984263  0.671912  0.671912  1
  Zn  Zn26  1  0.671912  0.984263  0.671912  1
  Zn  Zn27  1  0.671912  0.671912  0.984263  1
  Zn  Zn28  1  0.671912  0.671912  0.671912  1
  C  C29  1  0.500000  0.500000  0.500000  1
