# generated using pymatgen
data_Th3Al2GaTcPd2
_symmetry_space_group_name_H-M   'P 1'
_cell_length_a   7.27307558
_cell_length_b   7.23905802
_cell_length_c   4.17717600
_cell_angle_alpha   90.00000000
_cell_angle_beta   90.00000000
_cell_angle_gamma   119.64784673
_symmetry_Int_Tables_number   1
_chemical_formula_structural   Th3Al2GaTcPd2
_chemical_formula_sum   'Th3 Al2 Ga1 Tc1 Pd2'
_cell_volume   191.13655737
_cell_formula_units_Z   1
loop_
 _symmetry_equiv_pos_site_id
 _symmetry_equiv_pos_as_xyz
  1  'x, y, z'
loop_
 _atom_site_type_symbol
 _atom_site_label
 _atom_site_symmetry_multiplicity
 _atom_site_fract_x
 _atom_site_fract_y
 _atom_site_fract_z
 _atom_site_occupancy
  Th  Th0  1  0.429762  0.419844  0.500000  1
  Th  Th1  1  0.583546  0.007991  0.500000  1
  Th  Th2  1  0.988885  0.573573  0.500000  1
  Al  Al3  1  0.237713  0.006042  0.000000  1
  Al  Al4  1  0.995848  0.231412  0.000000  1
  Ga  Ga5  1  0.764009  0.759784  0.000000  1
  Tc  Tc6  1  0.665066  0.328681  0.000000  1
  Pd  Pd7  1  0.327603  0.665539  0.000000  1
  Pd  Pd8  1  0.007569  0.007133  0.500000  1
