# generated using pymatgen
data_Tb2YGaSi2Ag3
_symmetry_space_group_name_H-M   'P 1'
_cell_length_a   7.15508700
_cell_length_b   7.14929373
_cell_length_c   4.20421500
_cell_angle_alpha   90.00000000
_cell_angle_beta   90.00000000
_cell_angle_gamma   120.02680442
_symmetry_Int_Tables_number   1
_chemical_formula_structural   Tb2YGaSi2Ag3
_chemical_formula_sum   'Tb2 Y1 Ga1 Si2 Ag3'
_cell_volume   186.19852758
_cell_formula_units_Z   1
loop_
 _symmetry_equiv_pos_site_id
 _symmetry_equiv_pos_as_xyz
  1  'x, y, z'
loop_
 _atom_site_type_symbol
 _atom_site_label
 _atom_site_symmetry_multiplicity
 _atom_site_fract_x
 _atom_site_fract_y
 _atom_site_fract_z
 _atom_site_occupancy
  Tb  Tb0  1  0.999944  0.420883  0.500000  1
  Tb  Tb1  1  0.579061  0.579117  0.500000  1
  Y  Y2  1  0.420935  0.000000  0.500000  1
  Ga  Ga3  1  0.000022  0.000000  0.500000  1
  Si  Si4  1  0.333392  0.666764  0.000000  1
  Si  Si5  1  0.666629  0.333236  0.000000  1
  Ag  Ag6  1  0.000065  0.747010  0.000000  1
  Ag  Ag7  1  0.253055  0.252990  0.000000  1
  Ag  Ag8  1  0.746899  0.000000  0.000000  1
