# generated using pymatgen
data_Lu4B16Ir3Rh
_symmetry_space_group_name_H-M   'P 1'
_cell_length_a   3.53643700
_cell_length_b   5.92141140
_cell_length_c   11.48328478
_cell_angle_alpha   89.95768306
_cell_angle_beta   90.00000000
_cell_angle_gamma   90.00000000
_symmetry_Int_Tables_number   1
_chemical_formula_structural   Lu4B16Ir3Rh
_chemical_formula_sum   'Lu4 B16 Ir3 Rh1'
_cell_volume   240.46793747
_cell_formula_units_Z   1
loop_
 _symmetry_equiv_pos_site_id
 _symmetry_equiv_pos_as_xyz
  1  'x, y, z'
loop_
 _atom_site_type_symbol
 _atom_site_label
 _atom_site_symmetry_multiplicity
 _atom_site_fract_x
 _atom_site_fract_y
 _atom_site_fract_z
 _atom_site_occupancy
  Lu  Lu0  1  0.500000  0.367965  0.148028  1
  Lu  Lu1  1  0.500000  0.631511  0.852506  1
  Lu  Lu2  1  0.500000  0.132612  0.648702  1
  Lu  Lu3  1  0.500000  0.867690  0.350733  1
  B  B4  1  0.000000  0.113209  0.047007  1
  B  B5  1  0.000000  0.886756  0.952255  1
  B  B6  1  0.000000  0.387006  0.547510  1
  B  B7  1  0.000000  0.613066  0.452429  1
  B  B8  1  0.000000  0.135266  0.470393  1
  B  B9  1  0.000000  0.864886  0.529049  1
  B  B10  1  0.000000  0.365078  0.970348  1
  B  B11  1  0.000000  0.635126  0.029589  1
  B  B12  1  0.000000  0.022275  0.193731  1
  B  B13  1  0.000000  0.978272  0.805976  1
  B  B14  1  0.000000  0.477002  0.693872  1
  B  B15  1  0.000000  0.523276  0.305888  1
  B  B16  1  0.000000  0.206819  0.311456  1
  B  B17  1  0.000000  0.793296  0.688530  1
  B  B18  1  0.000000  0.292894  0.812063  1
  B  B19  1  0.000000  0.707292  0.187985  1
  Ir  Ir20  1  0.500000  0.355241  0.403210  1
  Ir  Ir21  1  0.500000  0.645767  0.597698  1
  Ir  Ir22  1  0.500000  0.142092  0.903828  1
  Rh  Rh23  1  0.500000  0.855603  0.097215  1
