# generated using pymatgen
data_Co3Sn16Au
_symmetry_space_group_name_H-M   'P 1'
_cell_length_a   12.59171338
_cell_length_b   12.59171322
_cell_length_c   12.59709293
_cell_angle_alpha   150.81370896
_cell_angle_beta   150.81370735
_cell_angle_gamma   41.68403707
_symmetry_Int_Tables_number   1
_chemical_formula_structural   Co3Sn16Au
_chemical_formula_sum   'Co3 Sn16 Au1'
_cell_volume   473.96738583
_cell_formula_units_Z   1
loop_
 _symmetry_equiv_pos_site_id
 _symmetry_equiv_pos_as_xyz
  1  'x, y, z'
loop_
 _atom_site_type_symbol
 _atom_site_label
 _atom_site_symmetry_multiplicity
 _atom_site_fract_x
 _atom_site_fract_y
 _atom_site_fract_z
 _atom_site_occupancy
  Co  Co0  1  0.750000  0.750000  0.000000  1
  Co  Co1  1  0.250000  0.250000  0.000000  1
  Co  Co2  1  0.000000  0.500000  0.500000  1
  Sn  Sn3  1  0.985417  0.485100  0.851672  1
  Sn  Sn4  1  0.366253  0.866572  0.851672  1
  Sn  Sn5  1  0.014900  0.514583  0.148328  1
  Sn  Sn6  1  0.248609  0.594178  0.971570  1
  Sn  Sn7  1  0.094480  0.119862  0.344839  1
  Sn  Sn8  1  0.865307  0.013629  0.500064  1
  Sn  Sn9  1  0.513565  0.365243  0.499936  1
  Sn  Sn10  1  0.134757  0.986435  0.500064  1
  Sn  Sn11  1  0.486371  0.634693  0.499936  1
  Sn  Sn12  1  0.750360  0.724978  0.344839  1
  Sn  Sn13  1  0.380138  0.405520  0.655161  1
  Sn  Sn14  1  0.775022  0.749640  0.655161  1
  Sn  Sn15  1  0.633428  0.133747  0.148328  1
  Sn  Sn16  1  0.905822  0.251391  0.028430  1
  Sn  Sn17  1  0.222960  0.877392  0.971570  1
  Sn  Sn18  1  0.622608  0.277040  0.028430  1
  Au  Au19  1  0.500000  0.000000  0.500000  1
