# generated using pymatgen
data_Y3Lu17Cd3Ru2Au3
_symmetry_space_group_name_H-M   'P 1'
_cell_length_a   9.39244200
_cell_length_b   9.39244081
_cell_length_c   9.45135700
_cell_angle_alpha   90.00000000
_cell_angle_beta   90.00000000
_cell_angle_gamma   120.00000420
_symmetry_Int_Tables_number   1
_chemical_formula_structural   Y3Lu17Cd3Ru2Au3
_chemical_formula_sum   'Y3 Lu17 Cd3 Ru2 Au3'
_cell_volume   722.07410372
_cell_formula_units_Z   1
loop_
 _symmetry_equiv_pos_site_id
 _symmetry_equiv_pos_as_xyz
  1  'x, y, z'
loop_
 _atom_site_type_symbol
 _atom_site_label
 _atom_site_symmetry_multiplicity
 _atom_site_fract_x
 _atom_site_fract_y
 _atom_site_fract_z
 _atom_site_occupancy
  Y  Y0  1  0.459192  0.540808  0.750000  1
  Y  Y1  1  0.459192  0.918386  0.750000  1
  Y  Y2  1  0.081614  0.540808  0.750000  1
  Lu  Lu3  1  0.000000  0.000000  0.461267  1
  Lu  Lu4  1  0.000000  0.000000  0.038733  1
  Lu  Lu5  1  0.209367  0.790633  0.439761  1
  Lu  Lu6  1  0.209367  0.418734  0.439761  1
  Lu  Lu7  1  0.581266  0.790633  0.439761  1
  Lu  Lu8  1  0.791427  0.208573  0.556094  1
  Lu  Lu9  1  0.791427  0.582852  0.556094  1
  Lu  Lu10  1  0.417148  0.208573  0.556094  1
  Lu  Lu11  1  0.791427  0.208573  0.943906  1
  Lu  Lu12  1  0.791427  0.582852  0.943906  1
  Lu  Lu13  1  0.417148  0.208573  0.943906  1
  Lu  Lu14  1  0.209367  0.790633  0.060239  1
  Lu  Lu15  1  0.209367  0.418734  0.060239  1
  Lu  Lu16  1  0.581266  0.790633  0.060239  1
  Lu  Lu17  1  0.539348  0.460652  0.250000  1
  Lu  Lu18  1  0.539348  0.078694  0.250000  1
  Lu  Lu19  1  0.921306  0.460652  0.250000  1
  Cd  Cd20  1  0.109769  0.890231  0.750000  1
  Cd  Cd21  1  0.109769  0.219537  0.750000  1
  Cd  Cd22  1  0.780463  0.890231  0.750000  1
  Ru  Ru23  1  0.333333  0.666667  0.250000  1
  Ru  Ru24  1  0.666667  0.333333  0.750000  1
  Au  Au25  1  0.870193  0.129807  0.250000  1
  Au  Au26  1  0.870193  0.740386  0.250000  1
  Au  Au27  1  0.259614  0.129807  0.250000  1
