# generated using pymatgen
data_Nd3Zn3IrPd2
_symmetry_space_group_name_H-M   'P 1'
_cell_length_a   7.42774300
_cell_length_b   7.42774214
_cell_length_c   3.98388900
_cell_angle_alpha   90.00000000
_cell_angle_beta   90.00000000
_cell_angle_gamma   119.99999048
_symmetry_Int_Tables_number   1
_chemical_formula_structural   Nd3Zn3IrPd2
_chemical_formula_sum   'Nd3 Zn3 Ir1 Pd2'
_cell_volume   190.34943402
_cell_formula_units_Z   1
loop_
 _symmetry_equiv_pos_site_id
 _symmetry_equiv_pos_as_xyz
  1  'x, y, z'
loop_
 _atom_site_type_symbol
 _atom_site_label
 _atom_site_symmetry_multiplicity
 _atom_site_fract_x
 _atom_site_fract_y
 _atom_site_fract_z
 _atom_site_occupancy
  Nd  Nd0  1  0.415208  0.406172  0.000000  1
  Nd  Nd1  1  0.593828  0.009035  0.000000  1
  Nd  Nd2  1  0.990965  0.584792  0.000000  1
  Zn  Zn3  1  0.755256  0.753048  0.500000  1
  Zn  Zn4  1  0.246952  0.002208  0.500000  1
  Zn  Zn5  1  0.997792  0.244744  0.500000  1
  Ir  Ir6  1  0.666667  0.333333  0.500000  1
  Pd  Pd7  1  0.000000  0.000000  0.000000  1
  Pd  Pd8  1  0.333333  0.666667  0.500000  1
