# generated using pymatgen
data_Dy9Ho(In2Au)4
_symmetry_space_group_name_H-M   'P 1'
_cell_length_a   3.67105100
_cell_length_b   8.22362800
_cell_length_c   18.46409700
_cell_angle_alpha   90.00257982
_cell_angle_beta   90.00000000
_cell_angle_gamma   90.00000000
_symmetry_Int_Tables_number   1
_chemical_formula_structural   Dy9Ho(In2Au)4
_chemical_formula_sum   'Dy9 Ho1 In8 Au4'
_cell_volume   557.41923038
_cell_formula_units_Z   1
loop_
 _symmetry_equiv_pos_site_id
 _symmetry_equiv_pos_as_xyz
  1  'x, y, z'
loop_
 _atom_site_type_symbol
 _atom_site_label
 _atom_site_symmetry_multiplicity
 _atom_site_fract_x
 _atom_site_fract_y
 _atom_site_fract_z
 _atom_site_occupancy
  Dy  Dy0  1  0.000000  0.499916  0.500007  1
  Dy  Dy1  1  0.000000  0.000015  0.000005  1
  Dy  Dy2  1  0.000000  0.737052  0.281447  1
  Dy  Dy3  1  0.000000  0.263043  0.718573  1
  Dy  Dy4  1  0.000000  0.763021  0.781443  1
  Dy  Dy5  1  0.000000  0.236924  0.218589  1
  Dy  Dy6  1  0.000000  0.618316  0.079709  1
  Dy  Dy7  1  0.000000  0.381668  0.920284  1
  Dy  Dy8  1  0.000000  0.881634  0.579678  1
  Ho  Ho9  1  0.000000  0.118276  0.420084  1
  In  In10  1  0.500000  0.712782  0.932437  1
  In  In11  1  0.500000  0.287210  0.067580  1
  In  In12  1  0.500000  0.787489  0.432445  1
  In  In13  1  0.500000  0.212765  0.567446  1
  In  In14  1  0.500000  0.580496  0.646819  1
  In  In15  1  0.500000  0.419238  0.353240  1
  In  In16  1  0.500000  0.919576  0.146850  1
  In  In17  1  0.500000  0.080453  0.853180  1
  Au  Au18  1  0.500000  0.525845  0.196508  1
  Au  Au19  1  0.500000  0.474120  0.803484  1
  Au  Au20  1  0.500000  0.974121  0.696488  1
  Au  Au21  1  0.500000  0.026041  0.303704  1
