# generated using pymatgen
data_Hf7Zr7Cu20
_symmetry_space_group_name_H-M   'P 1'
_cell_length_a   7.86148828
_cell_length_b   7.86148857
_cell_length_c   9.30769147
_cell_angle_alpha   90.02134104
_cell_angle_beta   90.02134040
_cell_angle_gamma   107.50778564
_symmetry_Int_Tables_number   1
_chemical_formula_structural   Hf7Zr7Cu20
_chemical_formula_sum   'Hf7 Zr7 Cu20'
_cell_volume   548.59562708
_cell_formula_units_Z   1
loop_
 _symmetry_equiv_pos_site_id
 _symmetry_equiv_pos_as_xyz
  1  'x, y, z'
loop_
 _atom_site_type_symbol
 _atom_site_label
 _atom_site_symmetry_multiplicity
 _atom_site_fract_x
 _atom_site_fract_y
 _atom_site_fract_z
 _atom_site_occupancy
  Hf  Hf0  1  0.689306  0.310694  0.500000  1
  Hf  Hf1  1  0.189250  0.810750  0.000000  1
  Hf  Hf2  1  0.515850  0.017131  0.750661  1
  Hf  Hf3  1  0.982869  0.484150  0.249339  1
  Hf  Hf4  1  0.016378  0.516682  0.748736  1
  Hf  Hf5  1  0.483317  0.983621  0.251264  1
  Hf  Hf6  1  0.000517  0.999483  0.500000  1
  Zr  Zr7  1  0.809960  0.810389  0.804661  1
  Zr  Zr8  1  0.189611  0.190040  0.195339  1
  Zr  Zr9  1  0.309044  0.309491  0.694410  1
  Zr  Zr10  1  0.690509  0.690956  0.305590  1
  Zr  Zr11  1  0.500591  0.499409  0.000000  1
  Zr  Zr12  1  0.311249  0.688751  0.500000  1
  Zr  Zr13  1  0.811209  0.188791  0.000000  1
  Cu  Cu14  1  0.373731  0.667747  0.795423  1
  Cu  Cu15  1  0.332253  0.626269  0.204577  1
  Cu  Cu16  1  0.874724  0.166149  0.703346  1
  Cu  Cu17  1  0.833851  0.125276  0.296654  1
  Cu  Cu18  1  0.165752  0.875465  0.705670  1
  Cu  Cu19  1  0.124535  0.834248  0.294330  1
  Cu  Cu20  1  0.667415  0.374540  0.793117  1
  Cu  Cu21  1  0.625460  0.332585  0.206883  1
  Cu  Cu22  1  0.650690  0.944058  0.508768  1
  Cu  Cu23  1  0.055942  0.349310  0.491232  1
  Cu  Cu24  1  0.148551  0.444232  0.991799  1
  Cu  Cu25  1  0.555768  0.851449  0.008201  1
  Cu  Cu26  1  0.941351  0.648923  0.507184  1
  Cu  Cu27  1  0.351077  0.058649  0.492816  1
  Cu  Cu28  1  0.441299  0.146395  0.993440  1
  Cu  Cu29  1  0.853605  0.558701  0.006560  1
  Cu  Cu30  1  0.606060  0.603771  0.600931  1
  Cu  Cu31  1  0.396229  0.393940  0.399069  1
  Cu  Cu32  1  0.106886  0.104840  0.899978  1
  Cu  Cu33  1  0.895160  0.893114  0.100022  1
