# generated using pymatgen
data_Dy14Er6Co3Bi8Os
_symmetry_space_group_name_H-M   'P 1'
_cell_length_a   7.96775917
_cell_length_b   8.89588738
_cell_length_c   12.41095950
_cell_angle_alpha   89.97180525
_cell_angle_beta   90.27037824
_cell_angle_gamma   90.01853180
_symmetry_Int_Tables_number   1
_chemical_formula_structural   Dy14Er6Co3Bi8Os
_chemical_formula_sum   'Dy14 Er6 Co3 Bi8 Os1'
_cell_volume   879.68244060
_cell_formula_units_Z   1
loop_
 _symmetry_equiv_pos_site_id
 _symmetry_equiv_pos_as_xyz
  1  'x, y, z'
loop_
 _atom_site_type_symbol
 _atom_site_label
 _atom_site_symmetry_multiplicity
 _atom_site_fract_x
 _atom_site_fract_y
 _atom_site_fract_z
 _atom_site_occupancy
  Dy  Dy0  1  0.846490  0.750102  0.800674  1
  Dy  Dy1  1  0.153103  0.249875  0.198022  1
  Dy  Dy2  1  0.347388  0.249951  0.698576  1
  Dy  Dy3  1  0.654876  0.750062  0.295038  1
  Dy  Dy4  1  0.376325  0.750009  0.693096  1
  Dy  Dy5  1  0.620130  0.249996  0.311459  1
  Dy  Dy6  1  0.879477  0.249766  0.811885  1
  Dy  Dy7  1  0.120235  0.750227  0.186674  1
  Dy  Dy8  1  0.946019  0.750014  0.504025  1
  Dy  Dy9  1  0.049527  0.250006  0.496818  1
  Dy  Dy10  1  0.452038  0.249838  0.997047  1
  Dy  Dy11  1  0.547831  0.750169  0.002703  1
  Dy  Dy12  1  0.824188  0.464310  0.063292  1
  Dy  Dy13  1  0.175700  0.533707  0.936672  1
  Er  Er14  1  0.675228  0.040768  0.564808  1
  Er  Er15  1  0.325131  0.965775  0.436325  1
  Er  Er16  1  0.174645  0.966232  0.936817  1
  Er  Er17  1  0.325122  0.534172  0.436351  1
  Er  Er18  1  0.825248  0.035713  0.063093  1
  Er  Er19  1  0.675201  0.459274  0.564808  1
  Co  Co20  1  0.435418  0.250015  0.491242  1
  Co  Co21  1  0.060043  0.249496  0.992099  1
  Co  Co22  1  0.939066  0.750517  0.007333  1
  Bi  Bi23  1  0.570100  0.492217  0.826987  1
  Bi  Bi24  1  0.429640  0.507065  0.173478  1
  Bi  Bi25  1  0.069397  0.507205  0.674511  1
  Bi  Bi26  1  0.429930  0.992975  0.173390  1
  Bi  Bi27  1  0.932357  0.492518  0.325841  1
  Bi  Bi28  1  0.569800  0.007753  0.827086  1
  Bi  Bi29  1  0.932335  0.007498  0.325732  1
  Bi  Bi30  1  0.069445  0.992790  0.674617  1
  Os  Os31  1  0.568568  0.749984  0.509500  1
