# generated using pymatgen
data_Lu6Co18As11P
_symmetry_space_group_name_H-M   'P 1'
_cell_length_a   10.80194100
_cell_length_b   3.75988700
_cell_length_c   12.52603500
_cell_angle_alpha   90.00000000
_cell_angle_beta   90.00000000
_cell_angle_gamma   90.00000000
_symmetry_Int_Tables_number   1
_chemical_formula_structural   Lu6Co18As11P
_chemical_formula_sum   'Lu6 Co18 As11 P1'
_cell_volume   508.73335677
_cell_formula_units_Z   1
loop_
 _symmetry_equiv_pos_site_id
 _symmetry_equiv_pos_as_xyz
  1  'x, y, z'
loop_
 _atom_site_type_symbol
 _atom_site_label
 _atom_site_symmetry_multiplicity
 _atom_site_fract_x
 _atom_site_fract_y
 _atom_site_fract_z
 _atom_site_occupancy
  Lu  Lu0  1  0.067212  0.750001  0.206160  1
  Lu  Lu1  1  0.432788  0.750001  0.206160  1
  Lu  Lu2  1  0.250000  0.750001  0.475796  1
  Lu  Lu3  1  0.750000  0.250001  0.523648  1
  Lu  Lu4  1  0.575281  0.250001  0.795964  1
  Lu  Lu5  1  0.924719  0.250001  0.795964  1
  Co  Co6  1  0.080961  0.250001  0.004843  1
  Co  Co7  1  0.419039  0.250001  0.004843  1
  Co  Co8  1  0.250000  0.750001  0.013179  1
  Co  Co9  1  0.750000  0.750001  0.158015  1
  Co  Co10  1  0.628654  0.250001  0.293223  1
  Co  Co11  1  0.871347  0.250001  0.293223  1
  Co  Co12  1  0.250000  0.250001  0.298336  1
  Co  Co13  1  0.550006  0.750001  0.432444  1
  Co  Co14  1  0.949994  0.750001  0.432444  1
  Co  Co15  1  0.048208  0.250001  0.569381  1
  Co  Co16  1  0.451792  0.250001  0.569381  1
  Co  Co17  1  0.750000  0.750001  0.710856  1
  Co  Co18  1  0.128288  0.750001  0.705888  1
  Co  Co19  1  0.371712  0.750001  0.705888  1
  Co  Co20  1  0.250000  0.250001  0.843455  1
  Co  Co21  1  0.750000  0.250001  0.977426  1
  Co  Co22  1  0.587799  0.750001  0.990610  1
  Co  Co23  1  0.912202  0.750001  0.990610  1
  As  As24  1  0.599075  0.250001  0.109099  1
  As  As25  1  0.900925  0.250001  0.109099  1
  As  As26  1  0.250000  0.250001  0.119512  1
  As  As27  1  0.750000  0.750001  0.348328  1
  As  As28  1  0.063668  0.250001  0.383567  1
  As  As29  1  0.436332  0.250001  0.383567  1
  As  As30  1  0.565939  0.750001  0.618612  1
  As  As31  1  0.934060  0.750001  0.618612  1
  As  As32  1  0.250000  0.250001  0.652400  1
  As  As33  1  0.094933  0.750001  0.888549  1
  As  As34  1  0.405067  0.750001  0.888549  1
  P  P35  1  0.750000  0.750001  0.882376  1
