# generated using pymatgen
data_Ca7Yb5(AlN2)8
_symmetry_space_group_name_H-M   'P 1'
_cell_length_a   5.80145620
_cell_length_b   9.54487531
_cell_length_c   9.58824939
_cell_angle_alpha   68.37237142
_cell_angle_beta   90.02326244
_cell_angle_gamma   89.99075177
_symmetry_Int_Tables_number   1
_chemical_formula_structural   Ca7Yb5(AlN2)8
_chemical_formula_sum   'Ca7 Yb5 Al8 N16'
_cell_volume   493.56246340
_cell_formula_units_Z   1
loop_
 _symmetry_equiv_pos_site_id
 _symmetry_equiv_pos_as_xyz
  1  'x, y, z'
loop_
 _atom_site_type_symbol
 _atom_site_label
 _atom_site_symmetry_multiplicity
 _atom_site_fract_x
 _atom_site_fract_y
 _atom_site_fract_z
 _atom_site_occupancy
  Ca  Ca0  1  0.905353  0.814368  0.051404  1
  Ca  Ca1  1  0.617738  0.101822  0.818424  1
  Ca  Ca2  1  0.119638  0.399152  0.182924  1
  Ca  Ca3  1  0.094575  0.185208  0.949797  1
  Ca  Ca4  1  0.380783  0.898510  0.182684  1
  Ca  Ca5  1  0.880863  0.601556  0.816375  1
  Ca  Ca6  1  0.847670  0.171521  0.465551  1
  Yb  Yb7  1  0.654531  0.671611  0.465792  1
  Yb  Yb8  1  0.403911  0.682072  0.947210  1
  Yb  Yb9  1  0.155369  0.828143  0.534110  1
  Yb  Yb10  1  0.595860  0.318341  0.052298  1
  Yb  Yb11  1  0.346235  0.328617  0.534289  1
  Al  Al12  1  0.144361  0.010651  0.741426  1
  Al  Al13  1  0.111720  0.608586  0.381736  1
  Al  Al14  1  0.855553  0.988517  0.258927  1
  Al  Al15  1  0.611488  0.891524  0.619383  1
  Al  Al16  1  0.642234  0.489300  0.258738  1
  Al  Al17  1  0.888440  0.391861  0.618612  1
  Al  Al18  1  0.357204  0.511165  0.741095  1
  Al  Al19  1  0.388974  0.108147  0.380339  1
  N  N20  1  0.737223  0.064311  0.061582  1
  N  N21  1  0.899492  0.448172  0.398480  1
  N  N22  1  0.486603  0.702333  0.700262  1
  N  N23  1  0.400837  0.053928  0.600506  1
  N  N24  1  0.597804  0.944835  0.399428  1
  N  N25  1  0.510506  0.298523  0.299036  1
  N  N26  1  0.906199  0.891897  0.701071  1
  N  N27  1  0.262422  0.935387  0.938737  1
  N  N28  1  0.014140  0.202517  0.698836  1
  N  N29  1  0.243088  0.438364  0.939829  1
  N  N30  1  0.756721  0.561769  0.059994  1
  N  N31  1  0.099362  0.553597  0.601574  1
  N  N32  1  0.096797  0.105845  0.297202  1
  N  N33  1  0.404923  0.606169  0.300568  1
  N  N34  1  0.594944  0.394230  0.699681  1
  N  N35  1  0.986437  0.797450  0.302097  1
