# generated using pymatgen
data_Nb16VGa3Te16
_symmetry_space_group_name_H-M   'P 1'
_cell_length_a   4.91324600
_cell_length_b   11.08932002
_cell_length_c   19.29811603
_cell_angle_alpha   90.00598429
_cell_angle_beta   90.00000000
_cell_angle_gamma   90.00000000
_symmetry_Int_Tables_number   1
_chemical_formula_structural   Nb16VGa3Te16
_chemical_formula_sum   'Nb16 V1 Ga3 Te16'
_cell_volume   1051.44930089
_cell_formula_units_Z   1
loop_
 _symmetry_equiv_pos_site_id
 _symmetry_equiv_pos_as_xyz
  1  'x, y, z'
loop_
 _atom_site_type_symbol
 _atom_site_label
 _atom_site_symmetry_multiplicity
 _atom_site_fract_x
 _atom_site_fract_y
 _atom_site_fract_z
 _atom_site_occupancy
  Nb  Nb0  1  0.500466  0.564558  0.381451  1
  Nb  Nb1  1  0.500466  0.435442  0.618549  1
  Nb  Nb2  1  0.499955  0.064723  0.118992  1
  Nb  Nb3  1  0.499955  0.935277  0.881008  1
  Nb  Nb4  1  0.500387  0.706839  0.536954  1
  Nb  Nb5  1  0.500387  0.293161  0.463046  1
  Nb  Nb6  1  0.499950  0.207657  0.962938  1
  Nb  Nb7  1  0.499950  0.792343  0.037062  1
  Nb  Nb8  1  0.999477  0.691929  0.442027  1
  Nb  Nb9  1  0.999477  0.308071  0.557973  1
  Nb  Nb10  1  0.000040  0.192651  0.058146  1
  Nb  Nb11  1  0.000040  0.807349  0.941854  1
  Nb  Nb12  1  0.999670  0.399597  0.390043  1
  Nb  Nb13  1  0.999670  0.600403  0.609957  1
  Nb  Nb14  1  0.000057  0.899324  0.110382  1
  Nb  Nb15  1  0.000057  0.100676  0.889618  1
  V  V16  1  0.250023  0.500000  0.500000  1
  Ga  Ga17  1  0.750053  0.000000  0.000000  1
  Ga  Ga18  1  0.750069  0.500000  0.500000  1
  Ga  Ga19  1  0.249945  0.000000  0.000000  1
  Te  Te20  1  0.000912  0.844165  0.561562  1
  Te  Te21  1  0.000912  0.155835  0.438438  1
  Te  Te22  1  0.999987  0.343781  0.938508  1
  Te  Te23  1  0.999987  0.656219  0.061492  1
  Te  Te24  1  0.499148  0.333173  0.316866  1
  Te  Te25  1  0.499148  0.666827  0.683134  1
  Te  Te26  1  0.499957  0.833285  0.182983  1
  Te  Te27  1  0.499957  0.166715  0.817017  1
  Te  Te28  1  0.499051  0.819602  0.403648  1
  Te  Te29  1  0.499051  0.180398  0.596352  1
  Te  Te30  1  0.500022  0.319174  0.096216  1
  Te  Te31  1  0.500022  0.680826  0.903784  1
  Te  Te32  1  0.000853  0.607053  0.302403  1
  Te  Te33  1  0.000853  0.392947  0.697597  1
  Te  Te34  1  0.000023  0.106979  0.197438  1
  Te  Te35  1  0.000023  0.893021  0.802562  1
