# generated using pymatgen
data_Ho6C2Br7
_symmetry_space_group_name_H-M   'P 1'
_cell_length_a   10.49846804
_cell_length_b   10.49846742
_cell_length_c   12.29733450
_cell_angle_alpha   57.55375634
_cell_angle_beta   57.55375820
_cell_angle_gamma   20.83271892
_symmetry_Int_Tables_number   1
_chemical_formula_structural   Ho6C2Br7
_chemical_formula_sum   'Ho6 C2 Br7'
_cell_volume   403.99544748
_cell_formula_units_Z   1
loop_
 _symmetry_equiv_pos_site_id
 _symmetry_equiv_pos_as_xyz
  1  'x, y, z'
loop_
 _atom_site_type_symbol
 _atom_site_label
 _atom_site_symmetry_multiplicity
 _atom_site_fract_x
 _atom_site_fract_y
 _atom_site_fract_z
 _atom_site_occupancy
  Ho  Ho0  1  0.235386  0.235386  0.817322  1
  Ho  Ho1  1  0.311499  0.311499  0.370070  1
  Ho  Ho2  1  0.130518  0.130518  0.449458  1
  Ho  Ho3  1  0.869482  0.869482  0.550542  1
  Ho  Ho4  1  0.688501  0.688501  0.629930  1
  Ho  Ho5  1  0.764614  0.764614  0.182678  1
  C  C6  1  0.281393  0.281393  0.598235  1
  C  C7  1  0.718607  0.718607  0.401765  1
  Br  Br8  1  0.161524  0.161524  0.180937  1
  Br  Br9  1  0.838476  0.838476  0.819063  1
  Br  Br10  1  0.059605  0.059605  0.717541  1
  Br  Br11  1  0.940395  0.940395  0.282459  1
  Br  Br12  1  0.500000  0.500000  0.500000  1
  Br  Br13  1  0.384080  0.384080  0.078428  1
  Br  Br14  1  0.615920  0.615920  0.921572  1
