# generated using pymatgen
data_AcDy(GeAu)2
_symmetry_space_group_name_H-M   'P 1'
_cell_length_a   4.53055800
_cell_length_b   4.53055909
_cell_length_c   7.97251800
_cell_angle_alpha   90.00000000
_cell_angle_beta   90.00000000
_cell_angle_gamma   120.00000666
_symmetry_Int_Tables_number   1
_chemical_formula_structural   AcDy(GeAu)2
_chemical_formula_sum   'Ac1 Dy1 Ge2 Au2'
_cell_volume   141.71949772
_cell_formula_units_Z   1
loop_
 _symmetry_equiv_pos_site_id
 _symmetry_equiv_pos_as_xyz
  1  'x, y, z'
loop_
 _atom_site_type_symbol
 _atom_site_label
 _atom_site_symmetry_multiplicity
 _atom_site_fract_x
 _atom_site_fract_y
 _atom_site_fract_z
 _atom_site_occupancy
  Ac  Ac0  1  0.000000  0.000000  0.847700  1
  Dy  Dy1  1  0.000000  0.000000  0.343413  1
  Ge  Ge2  1  0.666667  0.333333  0.084059  1
  Ge  Ge3  1  0.333333  0.666667  0.543250  1
  Au  Au4  1  0.666667  0.333333  0.580592  1
  Au  Au5  1  0.333333  0.666667  0.152986  1
