# generated using pymatgen
data_La8SmPa3S20
_symmetry_space_group_name_H-M   'P 1'
_cell_length_a   7.52837572
_cell_length_b   8.13936400
_cell_length_c   11.89746400
_cell_angle_alpha   90.00000000
_cell_angle_beta   90.14077420
_cell_angle_gamma   90.00000000
_symmetry_Int_Tables_number   1
_chemical_formula_structural   La8SmPa3S20
_chemical_formula_sum   'La8 Sm1 Pa3 S20'
_cell_volume   729.02906816
_cell_formula_units_Z   1
loop_
 _symmetry_equiv_pos_site_id
 _symmetry_equiv_pos_as_xyz
  1  'x, y, z'
loop_
 _atom_site_type_symbol
 _atom_site_label
 _atom_site_symmetry_multiplicity
 _atom_site_fract_x
 _atom_site_fract_y
 _atom_site_fract_z
 _atom_site_occupancy
  La  La0  1  0.531188  0.503101  0.324347  1
  La  La1  1  0.969388  0.998390  0.823276  1
  La  La2  1  0.469719  0.000837  0.674845  1
  La  La3  1  0.028998  0.500217  0.178283  1
  La  La4  1  0.469719  0.499163  0.674845  1
  La  La5  1  0.028998  0.999783  0.178283  1
  La  La6  1  0.531188  0.996899  0.324347  1
  La  La7  1  0.969388  0.501610  0.823276  1
  Sm  Sm8  1  0.074041  0.750000  0.492309  1
  Pa  Pa9  1  0.426168  0.750000  0.990003  1
  Pa  Pa10  1  0.933591  0.250000  0.506117  1
  Pa  Pa11  1  0.571043  0.250000  0.009116  1
  S  S12  1  0.832250  0.966430  0.594242  1
  S  S13  1  0.663987  0.542517  0.090090  1
  S  S14  1  0.166062  0.451869  0.406797  1
  S  S15  1  0.334510  0.043458  0.908624  1
  S  S16  1  0.166062  0.048131  0.406797  1
  S  S17  1  0.334510  0.456542  0.908624  1
  S  S18  1  0.832250  0.533570  0.594242  1
  S  S19  1  0.663987  0.957483  0.090090  1
  S  S20  1  0.831138  0.750000  0.308625  1
  S  S21  1  0.663433  0.750000  0.814173  1
  S  S22  1  0.163922  0.250000  0.686415  1
  S  S23  1  0.337593  0.250000  0.185120  1
  S  S24  1  0.458419  0.750000  0.497973  1
  S  S25  1  0.047218  0.750000  0.998875  1
  S  S26  1  0.549823  0.250000  0.501141  1
  S  S27  1  0.951774  0.250000  0.002429  1
  S  S28  1  0.194160  0.750000  0.719441  1
  S  S29  1  0.310316  0.750000  0.211891  1
  S  S30  1  0.807608  0.250000  0.285936  1
  S  S31  1  0.687549  0.250000  0.789430  1
