# generated using pymatgen
data_HfMn2SiMoP
_symmetry_space_group_name_H-M   'P 1'
_cell_length_a   3.53255800
_cell_length_b   6.31589300
_cell_length_c   7.38625000
_cell_angle_alpha   90.00000000
_cell_angle_beta   90.00000000
_cell_angle_gamma   90.00000000
_symmetry_Int_Tables_number   1
_chemical_formula_structural   HfMn2SiMoP
_chemical_formula_sum   'Hf2 Mn4 Si2 Mo2 P2'
_cell_volume   164.79653195
_cell_formula_units_Z   2
loop_
 _symmetry_equiv_pos_site_id
 _symmetry_equiv_pos_as_xyz
  1  'x, y, z'
loop_
 _atom_site_type_symbol
 _atom_site_label
 _atom_site_symmetry_multiplicity
 _atom_site_fract_x
 _atom_site_fract_y
 _atom_site_fract_z
 _atom_site_occupancy
  Hf  Hf0  1  0.750000  0.031153  0.672606  1
  Hf  Hf1  1  0.750000  0.531153  0.827394  1
  Mn  Mn2  1  0.250000  0.364276  0.561670  1
  Mn  Mn3  1  0.250000  0.864276  0.938330  1
  Mn  Mn4  1  0.750000  0.639772  0.442287  1
  Mn  Mn5  1  0.750000  0.139772  0.057713  1
  Si  Si6  1  0.750000  0.267768  0.363819  1
  Si  Si7  1  0.750000  0.767768  0.136181  1
  Mo  Mo8  1  0.250000  0.964947  0.330905  1
  Mo  Mo9  1  0.250000  0.464947  0.169095  1
  P  P10  1  0.250000  0.732084  0.625381  1
  P  P11  1  0.250000  0.232084  0.874619  1
