# generated using pymatgen
data_Y6Tm7Th3(CdIr)4
_symmetry_space_group_name_H-M   'P 1'
_cell_length_a   9.69042814
_cell_length_b   9.67826177
_cell_length_c   9.67826300
_cell_angle_alpha   59.99999922
_cell_angle_beta   60.04152227
_cell_angle_gamma   60.04152826
_symmetry_Int_Tables_number   1
_chemical_formula_structural   Y6Tm7Th3(CdIr)4
_chemical_formula_sum   'Y6 Tm7 Th3 Cd4 Ir4'
_cell_volume   642.23659892
_cell_formula_units_Z   1
loop_
 _symmetry_equiv_pos_site_id
 _symmetry_equiv_pos_as_xyz
  1  'x, y, z'
loop_
 _atom_site_type_symbol
 _atom_site_label
 _atom_site_symmetry_multiplicity
 _atom_site_fract_x
 _atom_site_fract_y
 _atom_site_fract_z
 _atom_site_occupancy
  Y  Y0  1  0.936921  0.562680  0.562680  1
  Y  Y1  1  0.563962  0.935880  0.935880  1
  Y  Y2  1  0.563962  0.935880  0.564276  1
  Y  Y3  1  0.936921  0.562680  0.937717  1
  Y  Y4  1  0.563962  0.564276  0.935880  1
  Y  Y5  1  0.936921  0.937717  0.562680  1
  Tm  Tm6  1  0.949606  0.350132  0.350132  1
  Tm  Tm7  1  0.812862  0.188386  0.188386  1
  Tm  Tm8  1  0.186467  0.813764  0.813764  1
  Tm  Tm9  1  0.186467  0.813764  0.186003  1
  Tm  Tm10  1  0.812862  0.188386  0.810366  1
  Tm  Tm11  1  0.186467  0.186003  0.813764  1
  Tm  Tm12  1  0.812862  0.810366  0.188386  1
  Th  Th13  1  0.348025  0.350369  0.350369  1
  Th  Th14  1  0.348025  0.350369  0.951237  1
  Th  Th15  1  0.348025  0.951237  0.350369  1
  Cd  Cd16  1  0.584999  0.580670  0.580670  1
  Cd  Cd17  1  0.584999  0.580670  0.253662  1
  Cd  Cd18  1  0.584999  0.253662  0.580670  1
  Cd  Cd19  1  0.251376  0.582875  0.582875  1
  Ir  Ir20  1  0.142072  0.142024  0.142024  1
  Ir  Ir21  1  0.142072  0.142024  0.573879  1
  Ir  Ir22  1  0.142072  0.573879  0.142024  1
  Ir  Ir23  1  0.573101  0.142299  0.142299  1
