# generated using pymatgen
data_Np2VMoN4
_symmetry_space_group_name_H-M   'P 1'
_cell_length_a   3.16213000
_cell_length_b   5.52224000
_cell_length_c   10.79572800
_cell_angle_alpha   90.00000000
_cell_angle_beta   90.00000000
_cell_angle_gamma   90.00000000
_symmetry_Int_Tables_number   1
_chemical_formula_structural   Np2VMoN4
_chemical_formula_sum   'Np4 V2 Mo2 N8'
_cell_volume   188.51544249
_cell_formula_units_Z   2
loop_
 _symmetry_equiv_pos_site_id
 _symmetry_equiv_pos_as_xyz
  1  'x, y, z'
loop_
 _atom_site_type_symbol
 _atom_site_label
 _atom_site_symmetry_multiplicity
 _atom_site_fract_x
 _atom_site_fract_y
 _atom_site_fract_z
 _atom_site_occupancy
  Np  Np0  1  0.750000  0.078147  0.856969  1
  Np  Np1  1  0.750000  0.574859  0.643316  1
  Np  Np2  1  0.250000  0.925141  0.143316  1
  Np  Np3  1  0.250000  0.421853  0.356969  1
  V  V4  1  0.250000  0.576409  0.901568  1
  V  V5  1  0.750000  0.923591  0.401568  1
  Mo  Mo6  1  0.250000  0.070817  0.601288  1
  Mo  Mo7  1  0.750000  0.429183  0.101288  1
  N  N8  1  0.250000  0.341125  0.747874  1
  N  N9  1  0.750000  0.158875  0.247874  1
  N  N10  1  0.250000  0.252701  0.001222  1
  N  N11  1  0.750000  0.668914  0.257827  1
  N  N12  1  0.250000  0.831086  0.757827  1
  N  N13  1  0.750000  0.748301  0.989935  1
  N  N14  1  0.750000  0.247299  0.501222  1
  N  N15  1  0.250000  0.751699  0.489935  1
