# generated using pymatgen
data_Ho16CdIn(HgRh2)2
_symmetry_space_group_name_H-M   'P 1'
_cell_length_a   9.58114874
_cell_length_b   9.59071058
_cell_length_c   9.58114962
_cell_angle_alpha   59.85613318
_cell_angle_beta   59.86797111
_cell_angle_gamma   59.85613767
_symmetry_Int_Tables_number   1
_chemical_formula_structural   Ho16CdIn(HgRh2)2
_chemical_formula_sum   'Ho16 Cd1 In1 Hg2 Rh4'
_cell_volume   620.56868524
_cell_formula_units_Z   1
loop_
 _symmetry_equiv_pos_site_id
 _symmetry_equiv_pos_as_xyz
  1  'x, y, z'
loop_
 _atom_site_type_symbol
 _atom_site_label
 _atom_site_symmetry_multiplicity
 _atom_site_fract_x
 _atom_site_fract_y
 _atom_site_fract_z
 _atom_site_occupancy
  Ho  Ho0  1  0.190262  0.184384  0.812846  1
  Ho  Ho1  1  0.601274  0.600562  0.198688  1
  Ho  Ho2  1  0.439909  0.059844  0.439909  1
  Ho  Ho3  1  0.441366  0.439482  0.059069  1
  Ho  Ho4  1  0.814944  0.185795  0.814944  1
  Ho  Ho5  1  0.187854  0.810929  0.187854  1
  Ho  Ho6  1  0.438021  0.060944  0.061060  1
  Ho  Ho7  1  0.188444  0.812976  0.813823  1
  Ho  Ho8  1  0.059798  0.438596  0.059798  1
  Ho  Ho9  1  0.813823  0.812976  0.188444  1
  Ho  Ho10  1  0.198688  0.600562  0.601274  1
  Ho  Ho11  1  0.059069  0.439482  0.441366  1
  Ho  Ho12  1  0.061060  0.060944  0.438021  1
  Ho  Ho13  1  0.812846  0.184384  0.190262  1
  Ho  Ho14  1  0.601770  0.197837  0.601770  1
  Ho  Ho15  1  0.600624  0.599838  0.600624  1
  Cd  Cd16  1  0.829686  0.831762  0.829686  1
  In  In17  1  0.830060  0.505319  0.830060  1
  Hg  Hg18  1  0.835959  0.836129  0.492664  1
  Hg  Hg19  1  0.492664  0.836129  0.835959  1
  Rh  Rh20  1  0.393463  0.821866  0.393463  1
  Rh  Rh21  1  0.392875  0.392597  0.392875  1
  Rh  Rh22  1  0.822653  0.393335  0.392891  1
  Rh  Rh23  1  0.392891  0.393335  0.822653  1
