# generated using pymatgen
data_Dy16In4Ru3Rh
_symmetry_space_group_name_H-M   'P 1'
_cell_length_a   9.63528926
_cell_length_b   9.63528916
_cell_length_c   9.61926331
_cell_angle_alpha   59.94487785
_cell_angle_beta   59.94487617
_cell_angle_gamma   60.00000311
_symmetry_Int_Tables_number   1
_chemical_formula_structural   Dy16In4Ru3Rh
_chemical_formula_sum   'Dy16 In4 Ru3 Rh1'
_cell_volume   630.94860584
_cell_formula_units_Z   1
loop_
 _symmetry_equiv_pos_site_id
 _symmetry_equiv_pos_as_xyz
  1  'x, y, z'
loop_
 _atom_site_type_symbol
 _atom_site_label
 _atom_site_symmetry_multiplicity
 _atom_site_fract_x
 _atom_site_fract_y
 _atom_site_fract_z
 _atom_site_occupancy
  Dy  Dy0  1  0.188659  0.188659  0.809837  1
  Dy  Dy1  1  0.599519  0.599519  0.201441  1
  Dy  Dy2  1  0.440424  0.059734  0.440107  1
  Dy  Dy3  1  0.440204  0.440204  0.061741  1
  Dy  Dy4  1  0.812844  0.188659  0.809837  1
  Dy  Dy5  1  0.189674  0.810465  0.189396  1
  Dy  Dy6  1  0.440204  0.057852  0.061741  1
  Dy  Dy7  1  0.188659  0.812844  0.809837  1
  Dy  Dy8  1  0.057852  0.440204  0.061741  1
  Dy  Dy9  1  0.810465  0.810465  0.189396  1
  Dy  Dy10  1  0.200835  0.600145  0.598876  1
  Dy  Dy11  1  0.059734  0.440424  0.440107  1
  Dy  Dy12  1  0.059734  0.059734  0.440107  1
  Dy  Dy13  1  0.810465  0.189674  0.189396  1
  Dy  Dy14  1  0.600145  0.200835  0.598876  1
  Dy  Dy15  1  0.600145  0.600145  0.598876  1
  In  In16  1  0.832397  0.832397  0.832220  1
  In  In17  1  0.832445  0.832445  0.502666  1
  In  In18  1  0.502986  0.832397  0.832220  1
  In  In19  1  0.832397  0.502986  0.832220  1
  Ru  Ru20  1  0.391499  0.825346  0.391654  1
  Ru  Ru21  1  0.391499  0.391499  0.391654  1
  Ru  Ru22  1  0.825346  0.391499  0.391654  1
  Rh  Rh23  1  0.391867  0.391867  0.824399  1
