# generated using pymatgen
data_DyEr3ReBr4
_symmetry_space_group_name_H-M   'P 1'
_cell_length_a   8.97833605
_cell_length_b   8.94370107
_cell_length_c   6.57038821
_cell_angle_alpha   89.53928840
_cell_angle_beta   89.28554014
_cell_angle_gamma   89.28395061
_symmetry_Int_Tables_number   1
_chemical_formula_structural   DyEr3ReBr4
_chemical_formula_sum   'Dy2 Er6 Re2 Br8'
_cell_volume   527.50062041
_cell_formula_units_Z   2
loop_
 _symmetry_equiv_pos_site_id
 _symmetry_equiv_pos_as_xyz
  1  'x, y, z'
loop_
 _atom_site_type_symbol
 _atom_site_label
 _atom_site_symmetry_multiplicity
 _atom_site_fract_x
 _atom_site_fract_y
 _atom_site_fract_z
 _atom_site_occupancy
  Dy  Dy0  1  0.249317  0.900544  0.010887  1
  Dy  Dy1  1  0.750683  0.099456  0.989113  1
  Er  Er2  1  0.098300  0.752662  0.486936  1
  Er  Er3  1  0.901700  0.247338  0.513064  1
  Er  Er4  1  0.754439  0.903084  0.508854  1
  Er  Er5  1  0.245561  0.096916  0.491146  1
  Er  Er6  1  0.095838  0.246689  0.991576  1
  Er  Er7  1  0.904162  0.753311  0.008424  1
  Re  Re8  1  0.995005  0.005273  0.250358  1
  Re  Re9  1  0.004995  0.994727  0.749642  1
  Br  Br10  1  0.419112  0.817214  0.412825  1
  Br  Br11  1  0.580888  0.182786  0.587175  1
  Br  Br12  1  0.182084  0.579388  0.090466  1
  Br  Br13  1  0.817916  0.420612  0.909534  1
  Br  Br14  1  0.412292  0.192291  0.091544  1
  Br  Br15  1  0.587708  0.807709  0.908456  1
  Br  Br16  1  0.810891  0.585591  0.407423  1
  Br  Br17  1  0.189109  0.414409  0.592577  1
