# generated using pymatgen
data_TbHo2Al12Ru3Rh
_symmetry_space_group_name_H-M   'P 1'
_cell_length_a   8.80694431
_cell_length_b   8.79939214
_cell_length_c   9.56000400
_cell_angle_alpha   90.00000000
_cell_angle_beta   90.00000000
_cell_angle_gamma   119.54967684
_symmetry_Int_Tables_number   1
_chemical_formula_structural   TbHo2Al12Ru3Rh
_chemical_formula_sum   'Tb2 Ho4 Al24 Ru6 Rh2'
_cell_volume   644.49494960
_cell_formula_units_Z   2
loop_
 _symmetry_equiv_pos_site_id
 _symmetry_equiv_pos_as_xyz
  1  'x, y, z'
loop_
 _atom_site_type_symbol
 _atom_site_label
 _atom_site_symmetry_multiplicity
 _atom_site_fract_x
 _atom_site_fract_y
 _atom_site_fract_z
 _atom_site_occupancy
  Tb  Tb0  1  0.189305  0.386031  0.250000  1
  Tb  Tb1  1  0.810695  0.613969  0.750000  1
  Ho  Ho2  1  0.613273  0.810629  0.250000  1
  Ho  Ho3  1  0.386727  0.189371  0.750000  1
  Ho  Ho4  1  0.194778  0.805313  0.250000  1
  Ho  Ho5  1  0.805222  0.194687  0.750000  1
  Al  Al6  1  0.332346  0.668112  0.018920  1
  Al  Al7  1  0.667654  0.331888  0.981080  1
  Al  Al8  1  0.667654  0.331888  0.518920  1
  Al  Al9  1  0.332346  0.668112  0.481080  1
  Al  Al10  1  0.161298  0.323556  0.578523  1
  Al  Al11  1  0.838702  0.676444  0.421477  1
  Al  Al12  1  0.676389  0.838886  0.578221  1
  Al  Al13  1  0.838702  0.676444  0.078523  1
  Al  Al14  1  0.323611  0.161114  0.421779  1
  Al  Al15  1  0.161298  0.323556  0.921477  1
  Al  Al16  1  0.163351  0.837135  0.577736  1
  Al  Al17  1  0.323611  0.161114  0.078221  1
  Al  Al18  1  0.836649  0.162865  0.422264  1
  Al  Al19  1  0.676389  0.838886  0.921779  1
  Al  Al20  1  0.836649  0.162865  0.077736  1
  Al  Al21  1  0.163351  0.837135  0.922264  1
  Al  Al22  1  0.560157  0.122711  0.250000  1
  Al  Al23  1  0.439843  0.877289  0.750000  1
  Al  Al24  1  0.876874  0.439938  0.250000  1
  Al  Al25  1  0.123126  0.560062  0.750000  1
  Al  Al26  1  0.561097  0.439389  0.250000  1
  Al  Al27  1  0.438903  0.560611  0.750000  1
  Al  Al28  1  0.999150  0.000198  0.250000  1
  Al  Al29  1  0.000850  0.999802  0.750000  1
  Ru  Ru30  1  0.500000  0.000000  0.000000  1
  Ru  Ru31  1  0.000000  0.500000  0.000000  1
  Ru  Ru32  1  0.500000  0.000000  0.500000  1
  Ru  Ru33  1  0.000000  0.500000  0.500000  1
  Ru  Ru34  1  0.000000  0.000000  0.000000  1
  Ru  Ru35  1  0.000000  0.000000  0.500000  1
  Rh  Rh36  1  0.500000  0.500000  0.000000  1
  Rh  Rh37  1  0.500000  0.500000  0.500000  1
