# generated using pymatgen
data_Lu10In8IrPd3
_symmetry_space_group_name_H-M   'P 1'
_cell_length_a   3.55813701
_cell_length_b   8.03240602
_cell_length_c   18.02588508
_cell_angle_alpha   90.00822567
_cell_angle_beta   89.99284302
_cell_angle_gamma   89.99925897
_symmetry_Int_Tables_number   1
_chemical_formula_structural   Lu10In8IrPd3
_chemical_formula_sum   'Lu10 In8 Ir1 Pd3'
_cell_volume   515.18701677
_cell_formula_units_Z   1
loop_
 _symmetry_equiv_pos_site_id
 _symmetry_equiv_pos_as_xyz
  1  'x, y, z'
loop_
 _atom_site_type_symbol
 _atom_site_label
 _atom_site_symmetry_multiplicity
 _atom_site_fract_x
 _atom_site_fract_y
 _atom_site_fract_z
 _atom_site_occupancy
  Lu  Lu0  1  0.999680  0.501010  0.499407  1
  Lu  Lu1  1  0.999571  0.001384  0.000948  1
  Lu  Lu2  1  0.999871  0.731119  0.277603  1
  Lu  Lu3  1  0.999660  0.257789  0.720625  1
  Lu  Lu4  1  0.999660  0.757249  0.778925  1
  Lu  Lu5  1  0.999996  0.253647  0.220610  1
  Lu  Lu6  1  0.000034  0.617124  0.086500  1
  Lu  Lu7  1  0.999945  0.382190  0.915698  1
  Lu  Lu8  1  0.999562  0.882387  0.584077  1
  Lu  Lu9  1  0.999949  0.118006  0.414747  1
  In  In10  1  0.500098  0.708732  0.933252  1
  In  In11  1  0.500368  0.293519  0.067363  1
  In  In12  1  0.499243  0.792675  0.432559  1
  In  In13  1  0.500596  0.208793  0.566758  1
  In  In14  1  0.498803  0.576580  0.648172  1
  In  In15  1  0.500521  0.423537  0.351906  1
  In  In16  1  0.499772  0.924109  0.149808  1
  In  In17  1  0.500608  0.076001  0.851611  1
  Ir  Ir18  1  0.500063  0.522274  0.195191  1
  Pd  Pd19  1  0.500524  0.475472  0.804434  1
  Pd  Pd20  1  0.500495  0.975369  0.695393  1
  Pd  Pd21  1  0.500979  0.021036  0.304414  1
