# generated using pymatgen
data_BeCo20(TcB3)2
_symmetry_space_group_name_H-M   'P 1'
_cell_length_a   7.36339597
_cell_length_b   7.36302420
_cell_length_c   7.36370702
_cell_angle_alpha   59.98511163
_cell_angle_beta   59.98729014
_cell_angle_gamma   59.99354437
_symmetry_Int_Tables_number   1
_chemical_formula_structural   BeCo20(TcB3)2
_chemical_formula_sum   'Be1 Co20 Tc2 B6'
_cell_volume   282.23059313
_cell_formula_units_Z   1
loop_
 _symmetry_equiv_pos_site_id
 _symmetry_equiv_pos_as_xyz
  1  'x, y, z'
loop_
 _atom_site_type_symbol
 _atom_site_label
 _atom_site_symmetry_multiplicity
 _atom_site_fract_x
 _atom_site_fract_y
 _atom_site_fract_z
 _atom_site_occupancy
  Be  Be0  1  0.000000  0.000000  0.000000  1
  Co  Co1  1  0.855836  0.381383  0.381413  1
  Co  Co2  1  0.381356  0.855934  0.381337  1
  Co  Co3  1  0.381387  0.381329  0.855941  1
  Co  Co4  1  0.381347  0.381365  0.381349  1
  Co  Co5  1  0.144164  0.618617  0.618587  1
  Co  Co6  1  0.618644  0.144066  0.618663  1
  Co  Co7  1  0.618613  0.618671  0.144059  1
  Co  Co8  1  0.618653  0.618635  0.618651  1
  Co  Co9  1  0.662447  0.999810  0.999771  1
  Co  Co10  1  0.661904  0.999999  0.338083  1
  Co  Co11  1  0.661843  0.338039  0.000027  1
  Co  Co12  1  0.999973  0.661937  0.338167  1
  Co  Co13  1  0.999708  0.662361  0.999747  1
  Co  Co14  1  0.338157  0.661961  0.999973  1
  Co  Co15  1  0.000027  0.338063  0.661833  1
  Co  Co16  1  0.338096  0.000001  0.661917  1
  Co  Co17  1  0.999762  0.999824  0.662448  1
  Co  Co18  1  0.337553  0.000190  0.000229  1
  Co  Co19  1  0.000292  0.337639  0.000253  1
  Co  Co20  1  0.000238  0.000176  0.337552  1
  Tc  Tc21  1  0.249982  0.249915  0.249997  1
  Tc  Tc22  1  0.750018  0.750085  0.750003  1
  B  B23  1  0.724059  0.276073  0.276083  1
  B  B24  1  0.723935  0.275986  0.723876  1
  B  B25  1  0.723922  0.723863  0.275996  1
  B  B26  1  0.275941  0.723927  0.723917  1
  B  B27  1  0.276065  0.724014  0.276124  1
  B  B28  1  0.276078  0.276137  0.724004  1
