# generated using pymatgen
data_Er5Ge6P6Ir19
_symmetry_space_group_name_H-M   'P 1'
_cell_length_a   12.96679300
_cell_length_b   12.96679313
_cell_length_c   3.96165700
_cell_angle_alpha   90.00000000
_cell_angle_beta   90.00000000
_cell_angle_gamma   120.00000223
_symmetry_Int_Tables_number   1
_chemical_formula_structural   Er5Ge6P6Ir19
_chemical_formula_sum   'Er5 Ge6 P6 Ir19'
_cell_volume   576.86295930
_cell_formula_units_Z   1
loop_
 _symmetry_equiv_pos_site_id
 _symmetry_equiv_pos_as_xyz
  1  'x, y, z'
loop_
 _atom_site_type_symbol
 _atom_site_label
 _atom_site_symmetry_multiplicity
 _atom_site_fract_x
 _atom_site_fract_y
 _atom_site_fract_z
 _atom_site_occupancy
  Er  Er0  1  0.666667  0.333333  0.000000  1
  Er  Er1  1  0.333333  0.666667  0.000000  1
  Er  Er2  1  0.818817  0.816015  0.500000  1
  Er  Er3  1  0.183985  0.002802  0.500000  1
  Er  Er4  1  0.997198  0.181183  0.500000  1
  Ge  Ge5  1  0.677703  0.158616  0.500000  1
  Ge  Ge6  1  0.841384  0.519087  0.500000  1
  Ge  Ge7  1  0.480913  0.322297  0.500000  1
  Ge  Ge8  1  0.638048  0.638907  0.000000  1
  Ge  Ge9  1  0.361093  0.999142  0.000000  1
  Ge  Ge10  1  0.000858  0.361952  0.000000  1
  P  P11  1  0.180368  0.696259  0.500000  1
  P  P12  1  0.515890  0.819632  0.500000  1
  P  P13  1  0.303741  0.484110  0.500000  1
  P  P14  1  0.173659  0.180023  0.000000  1
  P  P15  1  0.819977  0.993635  0.000000  1
  P  P16  1  0.006365  0.826341  0.000000  1
  Ir  Ir17  1  0.810177  0.169568  0.000000  1
  Ir  Ir18  1  0.830432  0.640609  0.000000  1
  Ir  Ir19  1  0.359391  0.189823  0.000000  1
  Ir  Ir20  1  0.181531  0.794660  0.000000  1
  Ir  Ir21  1  0.613128  0.818469  0.000000  1
  Ir  Ir22  1  0.205340  0.386872  0.000000  1
  Ir  Ir23  1  0.452330  0.444169  0.000000  1
  Ir  Ir24  1  0.555831  0.008161  0.000000  1
  Ir  Ir25  1  0.991839  0.547670  0.000000  1
  Ir  Ir26  1  0.268535  0.280074  0.500000  1
  Ir  Ir27  1  0.719926  0.988460  0.500000  1
  Ir  Ir28  1  0.011540  0.731465  0.500000  1
  Ir  Ir29  1  0.868885  0.348699  0.500000  1
  Ir  Ir30  1  0.651301  0.520187  0.500000  1
  Ir  Ir31  1  0.479813  0.131115  0.500000  1
  Ir  Ir32  1  0.370884  0.869067  0.500000  1
  Ir  Ir33  1  0.498185  0.629116  0.500000  1
  Ir  Ir34  1  0.130933  0.501815  0.500000  1
  Ir  Ir35  1  0.000000  0.000000  0.000000  1
