# generated using pymatgen
data_CeLuPt6
_symmetry_space_group_name_H-M   'P 1'
_cell_length_a   4.12527000
_cell_length_b   4.12527000
_cell_length_c   8.23306400
_cell_angle_alpha   90.00000000
_cell_angle_beta   90.00000000
_cell_angle_gamma   90.00000000
_symmetry_Int_Tables_number   1
_chemical_formula_structural   CeLuPt6
_chemical_formula_sum   'Ce1 Lu1 Pt6'
_cell_volume   140.10906938
_cell_formula_units_Z   1
loop_
 _symmetry_equiv_pos_site_id
 _symmetry_equiv_pos_as_xyz
  1  'x, y, z'
loop_
 _atom_site_type_symbol
 _atom_site_label
 _atom_site_symmetry_multiplicity
 _atom_site_fract_x
 _atom_site_fract_y
 _atom_site_fract_z
 _atom_site_occupancy
  Ce  Ce0  1  0.000000  0.000000  0.000000  1
  Lu  Lu1  1  0.000000  0.000000  0.500000  1
  Pt  Pt2  1  0.500000  0.500000  0.000000  1
  Pt  Pt3  1  0.500000  0.500000  0.500000  1
  Pt  Pt4  1  0.500000  0.000000  0.252863  1
  Pt  Pt5  1  0.500000  0.000000  0.747137  1
  Pt  Pt6  1  0.000000  0.500000  0.252863  1
  Pt  Pt7  1  0.000000  0.500000  0.747137  1
