# generated using pymatgen
data_Y2(B2Ir3)3
_symmetry_space_group_name_H-M   'P 1'
_cell_length_a   5.65457600
_cell_length_b   5.65457560
_cell_length_c   8.65088700
_cell_angle_alpha   90.00000000
_cell_angle_beta   90.00000000
_cell_angle_gamma   120.00000235
_symmetry_Int_Tables_number   1
_chemical_formula_structural   Y2(B2Ir3)3
_chemical_formula_sum   'Y2 B6 Ir9'
_cell_volume   239.54732245
_cell_formula_units_Z   1
loop_
 _symmetry_equiv_pos_site_id
 _symmetry_equiv_pos_as_xyz
  1  'x, y, z'
loop_
 _atom_site_type_symbol
 _atom_site_label
 _atom_site_symmetry_multiplicity
 _atom_site_fract_x
 _atom_site_fract_y
 _atom_site_fract_z
 _atom_site_occupancy
  Y  Y0  1  0.000000  0.000000  0.701463  1
  Y  Y1  1  0.000000  0.000000  0.298537  1
  B  B2  1  0.666667  0.333333  0.000000  1
  B  B3  1  0.333333  0.666667  0.000000  1
  B  B4  1  0.666667  0.333333  0.667659  1
  B  B5  1  0.333333  0.666667  0.667659  1
  B  B6  1  0.333333  0.666667  0.332341  1
  B  B7  1  0.666667  0.333333  0.332341  1
  Ir  Ir8  1  0.500000  0.500000  0.835991  1
  Ir  Ir9  1  0.500000  0.000000  0.835991  1
  Ir  Ir10  1  0.000000  0.500000  0.835991  1
  Ir  Ir11  1  0.500000  0.500000  0.164009  1
  Ir  Ir12  1  0.500000  0.000000  0.164009  1
  Ir  Ir13  1  0.000000  0.500000  0.164009  1
  Ir  Ir14  1  0.500000  0.500000  0.500000  1
  Ir  Ir15  1  0.500000  0.000000  0.500000  1
  Ir  Ir16  1  0.000000  0.500000  0.500000  1
