# generated using pymatgen
data_Y5Er3Si8Pd3Pt5
_symmetry_space_group_name_H-M   'P 1'
_cell_length_a   4.26883200
_cell_length_b   7.51524527
_cell_length_c   14.05739239
_cell_angle_alpha   89.94188074
_cell_angle_beta   90.00000000
_cell_angle_gamma   90.00000000
_symmetry_Int_Tables_number   1
_chemical_formula_structural   Y5Er3Si8Pd3Pt5
_chemical_formula_sum   'Y5 Er3 Si8 Pd3 Pt5'
_cell_volume   450.97946476
_cell_formula_units_Z   1
loop_
 _symmetry_equiv_pos_site_id
 _symmetry_equiv_pos_as_xyz
  1  'x, y, z'
loop_
 _atom_site_type_symbol
 _atom_site_label
 _atom_site_symmetry_multiplicity
 _atom_site_fract_x
 _atom_site_fract_y
 _atom_site_fract_z
 _atom_site_occupancy
  Y  Y0  1  0.000000  0.299939  0.999969  1
  Y  Y1  1  0.500000  0.699966  0.500476  1
  Y  Y2  1  0.000000  0.292711  0.499767  1
  Y  Y3  1  0.500000  0.706719  0.999614  1
  Y  Y4  1  0.500000  0.795967  0.249682  1
  Er  Er5  1  0.000000  0.204225  0.249874  1
  Er  Er6  1  0.000000  0.203544  0.749689  1
  Er  Er7  1  0.500000  0.796625  0.750719  1
  Si  Si8  1  0.000000  0.907375  0.592866  1
  Si  Si9  1  0.500000  0.092623  0.907333  1
  Si  Si10  1  0.000000  0.907964  0.407923  1
  Si  Si11  1  0.500000  0.094672  0.093362  1
  Si  Si12  1  0.000000  0.593063  0.144487  1
  Si  Si13  1  0.500000  0.403142  0.353031  1
  Si  Si14  1  0.000000  0.596517  0.856632  1
  Si  Si15  1  0.500000  0.403293  0.643886  1
  Pd  Pd16  1  0.000000  0.579242  0.343567  1
  Pd  Pd17  1  0.500000  0.421331  0.839206  1
  Pd  Pd18  1  0.000000  0.579055  0.659442  1
  Pt  Pt19  1  0.500000  0.073851  0.610116  1
  Pt  Pt20  1  0.000000  0.926142  0.890087  1
  Pt  Pt21  1  0.500000  0.075233  0.391394  1
  Pt  Pt22  1  0.000000  0.925795  0.109016  1
  Pt  Pt23  1  0.500000  0.421004  0.157859  1
