# generated using pymatgen
data_Y7TcSn23Rh5
_symmetry_space_group_name_H-M   'P 1'
_cell_length_a   9.88556232
_cell_length_b   9.88556388
_cell_length_c   10.11239062
_cell_angle_alpha   90.08370560
_cell_angle_beta   89.91629358
_cell_angle_gamma   119.93289187
_symmetry_Int_Tables_number   1
_chemical_formula_structural   Y7TcSn23Rh5
_chemical_formula_sum   'Y7 Tc1 Sn23 Rh5'
_cell_volume   856.40650996
_cell_formula_units_Z   1
loop_
 _symmetry_equiv_pos_site_id
 _symmetry_equiv_pos_as_xyz
  1  'x, y, z'
loop_
 _atom_site_type_symbol
 _atom_site_label
 _atom_site_symmetry_multiplicity
 _atom_site_fract_x
 _atom_site_fract_y
 _atom_site_fract_z
 _atom_site_occupancy
  Y  Y0  1  0.003548  0.996452  0.996670  1
  Y  Y1  1  0.042547  0.520845  0.307772  1
  Y  Y2  1  0.479155  0.957453  0.307772  1
  Y  Y3  1  0.479074  0.520926  0.308288  1
  Y  Y4  1  0.959529  0.481457  0.692656  1
  Y  Y5  1  0.518543  0.040471  0.692656  1
  Y  Y6  1  0.520684  0.479316  0.691184  1
  Tc  Tc7  1  0.167302  0.832698  0.799517  1
  Sn  Sn8  1  0.999997  0.000003  0.497995  1
  Sn  Sn9  1  0.118643  0.881357  0.281048  1
  Sn  Sn10  1  0.762071  0.880875  0.279939  1
  Sn  Sn11  1  0.119125  0.237929  0.279939  1
  Sn  Sn12  1  0.881523  0.118477  0.719778  1
  Sn  Sn13  1  0.237343  0.119771  0.722125  1
  Sn  Sn14  1  0.880229  0.762657  0.722125  1
  Sn  Sn15  1  0.348908  0.998248  0.000058  1
  Sn  Sn16  1  0.648633  0.648796  0.000023  1
  Sn  Sn17  1  0.999488  0.350453  0.000399  1
  Sn  Sn18  1  0.351204  0.351367  0.000023  1
  Sn  Sn19  1  0.001752  0.651092  0.000058  1
  Sn  Sn20  1  0.649547  0.000512  0.000399  1
  Sn  Sn21  1  0.778337  0.557597  0.455173  1
  Sn  Sn22  1  0.778710  0.221290  0.455305  1
  Sn  Sn23  1  0.442403  0.221663  0.455173  1
  Sn  Sn24  1  0.221458  0.442674  0.545482  1
  Sn  Sn25  1  0.221318  0.778682  0.543955  1
  Sn  Sn26  1  0.557326  0.778542  0.545482  1
  Sn  Sn27  1  0.666734  0.333266  0.181824  1
  Sn  Sn28  1  0.332376  0.667624  0.817212  1
  Sn  Sn29  1  0.667074  0.332926  0.881713  1
  Sn  Sn30  1  0.333843  0.666157  0.119468  1
  Rh  Rh31  1  0.662281  0.831062  0.801661  1
  Rh  Rh32  1  0.168938  0.337719  0.801661  1
  Rh  Rh33  1  0.831190  0.168810  0.198971  1
  Rh  Rh34  1  0.338233  0.169064  0.198251  1
  Rh  Rh35  1  0.830936  0.661767  0.198251  1
