# generated using pymatgen
data_V10ZnGa4
_symmetry_space_group_name_H-M   'P 1'
_cell_length_a   9.31037900
_cell_length_b   9.31037900
_cell_length_c   4.76132900
_cell_angle_alpha   90.00000000
_cell_angle_beta   90.00000000
_cell_angle_gamma   90.00000000
_symmetry_Int_Tables_number   1
_chemical_formula_structural   V10ZnGa4
_chemical_formula_sum   'V20 Zn2 Ga8'
_cell_volume   412.72702982
_cell_formula_units_Z   2
loop_
 _symmetry_equiv_pos_site_id
 _symmetry_equiv_pos_as_xyz
  1  'x, y, z'
loop_
 _atom_site_type_symbol
 _atom_site_label
 _atom_site_symmetry_multiplicity
 _atom_site_fract_x
 _atom_site_fract_y
 _atom_site_fract_z
 _atom_site_occupancy
  V  V0  1  0.397374  0.397374  0.000000  1
  V  V1  1  0.897374  0.102626  0.500000  1
  V  V2  1  0.102626  0.897374  0.500000  1
  V  V3  1  0.602626  0.602626  0.000000  1
  V  V4  1  0.128053  0.465602  0.000000  1
  V  V5  1  0.965602  0.371947  0.500000  1
  V  V6  1  0.034398  0.628053  0.500000  1
  V  V7  1  0.871947  0.534398  0.000000  1
  V  V8  1  0.371947  0.965602  0.500000  1
  V  V9  1  0.628053  0.034398  0.500000  1
  V  V10  1  0.465602  0.128053  0.000000  1
  V  V11  1  0.534398  0.871947  0.000000  1
  V  V12  1  0.181951  0.181951  0.254697  1
  V  V13  1  0.681951  0.318049  0.754697  1
  V  V14  1  0.318049  0.681951  0.754697  1
  V  V15  1  0.818049  0.818049  0.254697  1
  V  V16  1  0.318049  0.681951  0.245303  1
  V  V17  1  0.681951  0.318049  0.245303  1
  V  V18  1  0.181951  0.181951  0.745303  1
  V  V19  1  0.818049  0.818049  0.745303  1
  Zn  Zn20  1  0.000000  0.000000  0.000000  1
  Zn  Zn21  1  0.500000  0.500000  0.500000  1
  Ga  Ga22  1  0.264383  0.935433  0.000000  1
  Ga  Ga23  1  0.435433  0.235617  0.500000  1
  Ga  Ga24  1  0.564567  0.764383  0.500000  1
  Ga  Ga25  1  0.735617  0.064567  0.000000  1
  Ga  Ga26  1  0.235617  0.435433  0.500000  1
  Ga  Ga27  1  0.764383  0.564567  0.500000  1
  Ga  Ga28  1  0.935433  0.264383  0.000000  1
  Ga  Ga29  1  0.064567  0.735617  0.000000  1
