# generated using pymatgen
data_Tm5Bi4Te
_symmetry_space_group_name_H-M   'P 1'
_cell_length_a   11.53083116
_cell_length_b   11.53083080
_cell_length_c   11.53083000
_cell_angle_alpha   158.02354106
_cell_angle_beta   149.11880955
_cell_angle_gamma   38.22647146
_symmetry_Int_Tables_number   1
_chemical_formula_structural   Tm5Bi4Te
_chemical_formula_sum   'Tm5 Bi4 Te1'
_cell_volume   294.05382854
_cell_formula_units_Z   1
loop_
 _symmetry_equiv_pos_site_id
 _symmetry_equiv_pos_as_xyz
  1  'x, y, z'
loop_
 _atom_site_type_symbol
 _atom_site_label
 _atom_site_symmetry_multiplicity
 _atom_site_fract_x
 _atom_site_fract_y
 _atom_site_fract_z
 _atom_site_occupancy
  Tm  Tm0  1  0.898106  0.898106  0.000000  1
  Tm  Tm1  1  0.101894  0.101894  0.000000  1
  Tm  Tm2  1  0.300236  0.300236  0.000000  1
  Tm  Tm3  1  0.699764  0.699764  0.000000  1
  Tm  Tm4  1  0.500000  0.500000  0.000000  1
  Bi  Bi5  1  0.599383  0.099383  0.500000  1
  Bi  Bi6  1  0.400617  0.900617  0.500000  1
  Bi  Bi7  1  0.800258  0.300258  0.500000  1
  Bi  Bi8  1  0.199742  0.699742  0.500000  1
  Te  Te9  1  0.000000  0.500000  0.500000  1
