# generated using pymatgen
data_Nd3Y(Al8Pt3)3
_symmetry_space_group_name_H-M   'P 1'
_cell_length_a   7.56662496
_cell_length_b   7.58638237
_cell_length_c   13.27398722
_cell_angle_alpha   84.55270919
_cell_angle_beta   79.14151583
_cell_angle_gamma   59.95315109
_symmetry_Int_Tables_number   1
_chemical_formula_structural   Nd3Y(Al8Pt3)3
_chemical_formula_sum   'Nd3 Y1 Al24 Pt9'
_cell_volume   647.76480330
_cell_formula_units_Z   1
loop_
 _symmetry_equiv_pos_site_id
 _symmetry_equiv_pos_as_xyz
  1  'x, y, z'
loop_
 _atom_site_type_symbol
 _atom_site_label
 _atom_site_symmetry_multiplicity
 _atom_site_fract_x
 _atom_site_fract_y
 _atom_site_fract_z
 _atom_site_occupancy
  Nd  Nd0  1  0.606578  0.832119  0.191471  1
  Nd  Nd1  1  0.733347  0.498291  0.808236  1
  Nd  Nd2  1  0.266876  0.501445  0.191543  1
  Y  Y3  1  0.393758  0.168325  0.806960  1
  Al  Al4  1  0.684393  0.835296  0.944556  1
  Al  Al5  1  0.314785  0.166252  0.052586  1
  Al  Al6  1  0.146403  0.832958  0.561365  1
  Al  Al7  1  0.853113  0.167093  0.439627  1
  Al  Al8  1  0.479719  0.167013  0.558904  1
  Al  Al9  1  0.519982  0.833194  0.442164  1
  Al  Al10  1  0.215351  0.165252  0.333779  1
  Al  Al11  1  0.783480  0.835328  0.667752  1
  Al  Al12  1  0.437609  0.506306  0.667838  1
  Al  Al13  1  0.561937  0.493064  0.333750  1
  Al  Al14  1  0.110668  0.159554  0.666969  1
  Al  Al15  1  0.889435  0.840476  0.334805  1
  Al  Al16  1  0.351005  0.499579  0.944517  1
  Al  Al17  1  0.649740  0.498680  0.053790  1
  Al  Al18  1  0.016386  0.166128  0.954243  1
  Al  Al19  1  0.985533  0.833891  0.043515  1
  Al  Al20  1  0.186591  0.499070  0.442166  1
  Al  Al21  1  0.813306  0.500698  0.558709  1
  Al  Al22  1  0.736045  0.163883  0.184271  1
  Al  Al23  1  0.263372  0.838874  0.815636  1
  Al  Al24  1  0.064017  0.630828  0.814527  1
  Al  Al25  1  0.938813  0.367068  0.185397  1
  Al  Al26  1  0.855301  0.039359  0.815242  1
  Al  Al27  1  0.142831  0.960284  0.184503  1
  Pt  Pt28  1  0.120935  0.492650  0.637847  1
  Pt  Pt29  1  0.879484  0.506179  0.363256  1
  Pt  Pt30  1  0.658223  0.171026  0.999435  1
  Pt  Pt31  1  0.341948  0.829155  0.999288  1
  Pt  Pt32  1  0.538872  0.166678  0.363193  1
  Pt  Pt33  1  0.461133  0.834162  0.637828  1
  Pt  Pt34  1  0.779291  0.173980  0.636548  1
  Pt  Pt35  1  0.219508  0.826250  0.364465  1
  Pt  Pt36  1  0.000231  0.499611  0.999318  1
