# generated using pymatgen
data_Tb9Ho9(LuPt8)2
_symmetry_space_group_name_H-M   'P 1'
_cell_length_a   7.43987334
_cell_length_b   7.55997568
_cell_length_c   14.75377548
_cell_angle_alpha   89.87246179
_cell_angle_beta   90.02009375
_cell_angle_gamma   90.05027843
_symmetry_Int_Tables_number   1
_chemical_formula_structural   Tb9Ho9(LuPt8)2
_chemical_formula_sum   'Tb9 Ho9 Lu2 Pt16'
_cell_volume   829.82753462
_cell_formula_units_Z   1
loop_
 _symmetry_equiv_pos_site_id
 _symmetry_equiv_pos_as_xyz
  1  'x, y, z'
loop_
 _atom_site_type_symbol
 _atom_site_label
 _atom_site_symmetry_multiplicity
 _atom_site_fract_x
 _atom_site_fract_y
 _atom_site_fract_z
 _atom_site_occupancy
  Tb  Tb0  1  0.143957  0.330399  0.620872  1
  Tb  Tb1  1  0.489075  0.676996  0.593946  1
  Tb  Tb2  1  0.989560  0.823810  0.906741  1
  Tb  Tb3  1  0.511457  0.324708  0.095700  1
  Tb  Tb4  1  0.012692  0.174241  0.402820  1
  Tb  Tb5  1  0.512118  0.324549  0.403879  1
  Tb  Tb6  1  0.011336  0.175657  0.095786  1
  Tb  Tb7  1  0.489312  0.675548  0.906680  1
  Tb  Tb8  1  0.988622  0.824466  0.593935  1
  Ho  Ho9  1  0.644477  0.169260  0.621861  1
  Ho  Ho10  1  0.144754  0.330557  0.878632  1
  Ho  Ho11  1  0.355047  0.830989  0.122864  1
  Ho  Ho12  1  0.855538  0.669500  0.376944  1
  Ho  Ho13  1  0.356307  0.830822  0.376701  1
  Ho  Ho14  1  0.854884  0.669244  0.122926  1
  Ho  Ho15  1  0.644864  0.169182  0.878861  1
  Ho  Ho16  1  0.805896  0.512337  0.750472  1
  Ho  Ho17  1  0.306363  0.987799  0.750660  1
  Lu  Lu18  1  0.193695  0.488370  0.249827  1
  Lu  Lu19  1  0.693817  0.011740  0.249612  1
  Pt  Pt20  1  0.691585  0.971374  0.456562  1
  Pt  Pt21  1  0.189889  0.529869  0.043125  1
  Pt  Pt22  1  0.309757  0.029944  0.958708  1
  Pt  Pt23  1  0.807004  0.471858  0.541466  1
  Pt  Pt24  1  0.310815  0.027514  0.541317  1
  Pt  Pt25  1  0.809887  0.469897  0.958889  1
  Pt  Pt26  1  0.689935  0.970623  0.043448  1
  Pt  Pt27  1  0.190555  0.529337  0.455196  1
  Pt  Pt28  1  0.438781  0.385546  0.750697  1
  Pt  Pt29  1  0.937918  0.113757  0.750709  1
  Pt  Pt30  1  0.559493  0.614341  0.249763  1
  Pt  Pt31  1  0.059512  0.885511  0.249671  1
  Pt  Pt32  1  0.667014  0.857510  0.750804  1
  Pt  Pt33  1  0.167465  0.642537  0.750869  1
  Pt  Pt34  1  0.333553  0.143557  0.249547  1
  Pt  Pt35  1  0.833069  0.356655  0.249511  1
