# generated using pymatgen
data_Mg4CoAs6Ir5Ru
_symmetry_space_group_name_H-M   'P 1'
_cell_length_a   7.02324977
_cell_length_b   7.02325011
_cell_length_c   7.02325068
_cell_angle_alpha   109.20764044
_cell_angle_beta   109.99966553
_cell_angle_gamma   109.20765082
_symmetry_Int_Tables_number   1
_chemical_formula_structural   Mg4CoAs6Ir5Ru
_chemical_formula_sum   'Mg4 Co1 As6 Ir5 Ru1'
_cell_volume   266.66424899
_cell_formula_units_Z   1
loop_
 _symmetry_equiv_pos_site_id
 _symmetry_equiv_pos_as_xyz
  1  'x, y, z'
loop_
 _atom_site_type_symbol
 _atom_site_label
 _atom_site_symmetry_multiplicity
 _atom_site_fract_x
 _atom_site_fract_y
 _atom_site_fract_z
 _atom_site_occupancy
  Mg  Mg0  1  0.998367  0.996735  0.498367  1
  Mg  Mg1  1  0.501633  0.003265  0.001633  1
  Mg  Mg2  1  0.998367  0.500000  0.001633  1
  Mg  Mg3  1  0.501633  0.500000  0.498367  1
  Co  Co4  1  0.250000  0.500000  0.750000  1
  As  As5  1  0.678974  0.686718  0.992256  1
  As  As6  1  0.305538  0.313282  0.992256  1
  As  As7  1  0.007744  0.686718  0.694462  1
  As  As8  1  0.007744  0.313282  0.321026  1
  As  As9  1  0.690093  0.000000  0.690093  1
  As  As10  1  0.309907  0.000000  0.309907  1
  Ir  Ir11  1  0.758196  0.251091  0.507105  1
  Ir  Ir12  1  0.492895  0.251091  0.743986  1
  Ir  Ir13  1  0.492895  0.748909  0.241804  1
  Ir  Ir14  1  0.750000  0.500000  0.250000  1
  Ir  Ir15  1  0.256014  0.748909  0.507105  1
  Ru  Ru16  1  0.000000  0.000000  0.000000  1
