# generated using pymatgen
data_Hf2Zr2Co3Si4Rh
_symmetry_space_group_name_H-M   'P 1'
_cell_length_a   3.87021000
_cell_length_b   6.47993013
_cell_length_c   7.23674067
_cell_angle_alpha   90.43494538
_cell_angle_beta   90.00000000
_cell_angle_gamma   90.00000000
_symmetry_Int_Tables_number   1
_chemical_formula_structural   Hf2Zr2Co3Si4Rh
_chemical_formula_sum   'Hf2 Zr2 Co3 Si4 Rh1'
_cell_volume   181.48274957
_cell_formula_units_Z   1
loop_
 _symmetry_equiv_pos_site_id
 _symmetry_equiv_pos_as_xyz
  1  'x, y, z'
loop_
 _atom_site_type_symbol
 _atom_site_label
 _atom_site_symmetry_multiplicity
 _atom_site_fract_x
 _atom_site_fract_y
 _atom_site_fract_z
 _atom_site_occupancy
  Hf  Hf0  1  0.250000  0.506969  0.188721  1
  Hf  Hf1  1  0.250000  0.015660  0.304727  1
  Zr  Zr2  1  0.750000  0.485814  0.816412  1
  Zr  Zr3  1  0.750000  0.988261  0.693143  1
  Co  Co4  1  0.750000  0.857039  0.070201  1
  Co  Co5  1  0.250000  0.144904  0.936453  1
  Co  Co6  1  0.750000  0.352478  0.429741  1
  Si  Si7  1  0.250000  0.783950  0.901316  1
  Si  Si8  1  0.750000  0.218520  0.109198  1
  Si  Si9  1  0.250000  0.275600  0.608837  1
  Si  Si10  1  0.750000  0.722309  0.377573  1
  Rh  Rh11  1  0.250000  0.648496  0.563679  1
