# generated using pymatgen
data_Nb16FeCo2NiTe16
_symmetry_space_group_name_H-M   'P 1'
_cell_length_a   4.84831200
_cell_length_b   10.93168800
_cell_length_c   19.16111701
_cell_angle_alpha   90.00062385
_cell_angle_beta   90.00000000
_cell_angle_gamma   90.00000000
_symmetry_Int_Tables_number   1
_chemical_formula_structural   Nb16FeCo2NiTe16
_chemical_formula_sum   'Nb16 Fe1 Co2 Ni1 Te16'
_cell_volume   1015.54368795
_cell_formula_units_Z   1
loop_
 _symmetry_equiv_pos_site_id
 _symmetry_equiv_pos_as_xyz
  1  'x, y, z'
loop_
 _atom_site_type_symbol
 _atom_site_label
 _atom_site_symmetry_multiplicity
 _atom_site_fract_x
 _atom_site_fract_y
 _atom_site_fract_z
 _atom_site_occupancy
  Nb  Nb0  1  0.498851  0.564378  0.384103  1
  Nb  Nb1  1  0.498851  0.435622  0.615897  1
  Nb  Nb2  1  0.500073  0.064295  0.115707  1
  Nb  Nb3  1  0.500073  0.935705  0.884293  1
  Nb  Nb4  1  0.498476  0.704043  0.536485  1
  Nb  Nb5  1  0.498476  0.295957  0.463515  1
  Nb  Nb6  1  0.500012  0.203490  0.963471  1
  Nb  Nb7  1  0.500012  0.796510  0.036529  1
  Nb  Nb8  1  0.002191  0.689958  0.443436  1
  Nb  Nb9  1  0.002191  0.310042  0.556564  1
  Nb  Nb10  1  0.000094  0.189312  0.056379  1
  Nb  Nb11  1  0.000094  0.810688  0.943621  1
  Nb  Nb12  1  0.000728  0.401373  0.392124  1
  Nb  Nb13  1  0.000728  0.598627  0.607876  1
  Nb  Nb14  1  0.000010  0.901761  0.107642  1
  Nb  Nb15  1  0.000010  0.098239  0.892358  1
  Fe  Fe16  1  0.748608  0.500000  0.500000  1
  Co  Co17  1  0.750033  0.000000  0.000000  1
  Co  Co18  1  0.250006  0.000000  0.000000  1
  Ni  Ni19  1  0.248559  0.500000  0.500000  1
  Te  Te20  1  0.000059  0.847645  0.562588  1
  Te  Te21  1  0.000059  0.152355  0.437412  1
  Te  Te22  1  0.000071  0.347244  0.937447  1
  Te  Te23  1  0.000071  0.652756  0.062553  1
  Te  Te24  1  0.499496  0.332042  0.316085  1
  Te  Te25  1  0.499496  0.667958  0.683915  1
  Te  Te26  1  0.499991  0.832284  0.183963  1
  Te  Te27  1  0.499991  0.167716  0.816037  1
  Te  Te28  1  0.500732  0.823861  0.403856  1
  Te  Te29  1  0.500732  0.176139  0.596144  1
  Te  Te30  1  0.500051  0.323561  0.095910  1
  Te  Te31  1  0.500051  0.676439  0.904090  1
  Te  Te32  1  0.000471  0.609251  0.301843  1
  Te  Te33  1  0.000471  0.390749  0.698157  1
  Te  Te34  1  0.000092  0.109326  0.198092  1
  Te  Te35  1  0.000092  0.890674  0.801908  1
