# generated using pymatgen
data_Ho9ErSn5Sb
_symmetry_space_group_name_H-M   'P 1'
_cell_length_a   8.93396400
_cell_length_b   8.92517734
_cell_length_c   6.47132400
_cell_angle_alpha   89.99886643
_cell_angle_beta   90.00049802
_cell_angle_gamma   120.03261217
_symmetry_Int_Tables_number   1
_chemical_formula_structural   Ho9ErSn5Sb
_chemical_formula_sum   'Ho9 Er1 Sn5 Sb1'
_cell_volume   446.72680857
_cell_formula_units_Z   1
loop_
 _symmetry_equiv_pos_site_id
 _symmetry_equiv_pos_as_xyz
  1  'x, y, z'
loop_
 _atom_site_type_symbol
 _atom_site_label
 _atom_site_symmetry_multiplicity
 _atom_site_fract_x
 _atom_site_fract_y
 _atom_site_fract_z
 _atom_site_occupancy
  Ho  Ho0  1  0.998064  0.760114  0.749989  1
  Ho  Ho1  1  0.000680  0.238932  0.250010  1
  Ho  Ho2  1  0.761730  0.761076  0.250013  1
  Ho  Ho3  1  0.761951  0.999993  0.749991  1
  Ho  Ho4  1  0.237941  0.239894  0.749991  1
  Ho  Ho5  1  0.238955  0.999991  0.250005  1
  Ho  Ho6  1  0.667444  0.334299  0.000171  1
  Ho  Ho7  1  0.667445  0.334299  0.499826  1
  Ho  Ho8  1  0.333145  0.665697  0.000174  1
  Er  Er9  1  0.333143  0.665695  0.499827  1
  Sn  Sn10  1  0.395541  0.394834  0.250038  1
  Sn  Sn11  1  0.000804  0.605213  0.250039  1
  Sn  Sn12  1  0.999897  0.395531  0.749963  1
  Sn  Sn13  1  0.604317  0.604522  0.749960  1
  Sn  Sn14  1  0.605342  0.999953  0.250037  1
  Sb  Sb15  1  0.393599  0.999956  0.749967  1
