# generated using pymatgen
data_Yb10Cu3NiHg2
_symmetry_space_group_name_H-M   'P 1'
_cell_length_a   8.93331725
_cell_length_b   8.93331762
_cell_length_c   8.90555404
_cell_angle_alpha   129.24998897
_cell_angle_beta   129.24999391
_cell_angle_gamma   74.84224473
_symmetry_Int_Tables_number   1
_chemical_formula_structural   Yb10Cu3NiHg2
_chemical_formula_sum   'Yb10 Cu3 Ni1 Hg2'
_cell_volume   414.61607925
_cell_formula_units_Z   1
loop_
 _symmetry_equiv_pos_site_id
 _symmetry_equiv_pos_as_xyz
  1  'x, y, z'
loop_
 _atom_site_type_symbol
 _atom_site_label
 _atom_site_symmetry_multiplicity
 _atom_site_fract_x
 _atom_site_fract_y
 _atom_site_fract_z
 _atom_site_occupancy
  Yb  Yb0  1  0.496917  0.501235  0.998153  1
  Yb  Yb1  1  0.001235  0.996917  0.998153  1
  Yb  Yb2  1  0.530896  0.030896  0.836267  1
  Yb  Yb3  1  0.190684  0.690684  0.152202  1
  Yb  Yb4  1  0.031402  0.201340  0.505603  1
  Yb  Yb5  1  0.701340  0.531402  0.505603  1
  Yb  Yb6  1  0.461519  0.961519  0.152202  1
  Yb  Yb7  1  0.805372  0.305372  0.836267  1
  Yb  Yb8  1  0.974201  0.804264  0.505603  1
  Yb  Yb9  1  0.304264  0.474201  0.505603  1
  Cu  Cu10  1  0.883902  0.383902  0.267803  1
  Cu  Cu11  1  0.617491  0.881451  0.498942  1
  Cu  Cu12  1  0.381451  0.117491  0.498942  1
  Ni  Ni13  1  0.117344  0.617344  0.734690  1
  Hg  Hg14  1  0.250992  0.250992  0.001983  1
  Hg  Hg15  1  0.750992  0.750992  0.001983  1
