# generated using pymatgen
data_Nd10CuPb6Br
_symmetry_space_group_name_H-M   'P 1'
_cell_length_a   9.50256100
_cell_length_b   9.50264728
_cell_length_c   6.84691700
_cell_angle_alpha   90.00146516
_cell_angle_beta   89.99992765
_cell_angle_gamma   120.00452109
_symmetry_Int_Tables_number   1
_chemical_formula_structural   Nd10CuPb6Br
_chemical_formula_sum   'Nd10 Cu1 Pb6 Br1'
_cell_volume   535.41580013
_cell_formula_units_Z   1
loop_
 _symmetry_equiv_pos_site_id
 _symmetry_equiv_pos_as_xyz
  1  'x, y, z'
loop_
 _atom_site_type_symbol
 _atom_site_label
 _atom_site_symmetry_multiplicity
 _atom_site_fract_x
 _atom_site_fract_y
 _atom_site_fract_z
 _atom_site_occupancy
  Nd  Nd0  1  0.257484  0.000003  0.257580  1
  Nd  Nd1  1  0.742516  0.999997  0.742420  1
  Nd  Nd2  1  0.000026  0.257515  0.257600  1
  Nd  Nd3  1  0.999974  0.742485  0.742400  1
  Nd  Nd4  1  0.742518  0.742524  0.257575  1
  Nd  Nd5  1  0.257482  0.257476  0.742425  1
  Nd  Nd6  1  0.333295  0.666686  0.999984  1
  Nd  Nd7  1  0.666705  0.333314  0.000016  1
  Nd  Nd8  1  0.666655  0.333345  0.499949  1
  Nd  Nd9  1  0.333345  0.666655  0.500051  1
  Cu  Cu10  1  0.000000  0.000000  0.500000  1
  Pb  Pb11  1  0.610975  0.999996  0.250108  1
  Pb  Pb12  1  0.389025  0.000004  0.749892  1
  Pb  Pb13  1  0.000031  0.610980  0.250105  1
  Pb  Pb14  1  0.999969  0.389020  0.749895  1
  Pb  Pb15  1  0.389010  0.389019  0.250113  1
  Pb  Pb16  1  0.610990  0.610981  0.749887  1
  Br  Br17  1  0.000000  0.000000  0.000000  1
