# generated using pymatgen
data_Y3Er9Rh4
_symmetry_space_group_name_H-M   'P 1'
_cell_length_a   6.29300793
_cell_length_b   7.16917859
_cell_length_c   9.33577400
_cell_angle_alpha   90.00000000
_cell_angle_beta   90.00000000
_cell_angle_gamma   89.85673844
_symmetry_Int_Tables_number   1
_chemical_formula_structural   Y3Er9Rh4
_chemical_formula_sum   'Y3 Er9 Rh4'
_cell_volume   421.18864106
_cell_formula_units_Z   1
loop_
 _symmetry_equiv_pos_site_id
 _symmetry_equiv_pos_as_xyz
  1  'x, y, z'
loop_
 _atom_site_type_symbol
 _atom_site_label
 _atom_site_symmetry_multiplicity
 _atom_site_fract_x
 _atom_site_fract_y
 _atom_site_fract_z
 _atom_site_occupancy
  Y  Y0  1  0.867635  0.966451  0.750000  1
  Y  Y1  1  0.367479  0.533496  0.250000  1
  Y  Y2  1  0.632038  0.466192  0.750000  1
  Er  Er3  1  0.672432  0.177513  0.063291  1
  Er  Er4  1  0.171372  0.321552  0.937211  1
  Er  Er5  1  0.828907  0.678562  0.436530  1
  Er  Er6  1  0.327738  0.822503  0.562476  1
  Er  Er7  1  0.327738  0.822503  0.937524  1
  Er  Er8  1  0.828907  0.678562  0.063470  1
  Er  Er9  1  0.171372  0.321552  0.562789  1
  Er  Er10  1  0.672432  0.177513  0.436709  1
  Er  Er11  1  0.133133  0.034995  0.250000  1
  Rh  Rh12  1  0.056580  0.615369  0.750000  1
  Rh  Rh13  1  0.553520  0.885765  0.250000  1
  Rh  Rh14  1  0.443685  0.115044  0.750000  1
  Rh  Rh15  1  0.945032  0.382429  0.250000  1
