# generated using pymatgen
data_YbPr3MnRu7
_symmetry_space_group_name_H-M   'P 1'
_cell_length_a   5.38408600
_cell_length_b   5.38408392
_cell_length_c   8.87975500
_cell_angle_alpha   90.00000000
_cell_angle_beta   90.00000000
_cell_angle_gamma   119.99998823
_symmetry_Int_Tables_number   1
_chemical_formula_structural   YbPr3MnRu7
_chemical_formula_sum   'Yb1 Pr3 Mn1 Ru7'
_cell_volume   222.92330593
_cell_formula_units_Z   1
loop_
 _symmetry_equiv_pos_site_id
 _symmetry_equiv_pos_as_xyz
  1  'x, y, z'
loop_
 _atom_site_type_symbol
 _atom_site_label
 _atom_site_symmetry_multiplicity
 _atom_site_fract_x
 _atom_site_fract_y
 _atom_site_fract_z
 _atom_site_occupancy
  Yb  Yb0  1  0.333333  0.666667  0.067868  1
  Pr  Pr1  1  0.333333  0.666667  0.427296  1
  Pr  Pr2  1  0.666667  0.333333  0.566764  1
  Pr  Pr3  1  0.666667  0.333333  0.935335  1
  Mn  Mn4  1  0.000000  0.000000  0.002114  1
  Ru  Ru5  1  0.000000  0.000000  0.501478  1
  Ru  Ru6  1  0.830334  0.169666  0.244821  1
  Ru  Ru7  1  0.830334  0.660666  0.244821  1
  Ru  Ru8  1  0.339334  0.169666  0.244821  1
  Ru  Ru9  1  0.170550  0.829450  0.754894  1
  Ru  Ru10  1  0.170550  0.341101  0.754894  1
  Ru  Ru11  1  0.658899  0.829450  0.754894  1
