# generated using pymatgen
data_Ba2Ga6TcOs
_symmetry_space_group_name_H-M   'P 1'
_cell_length_a   6.95493441
_cell_length_b   6.95493428
_cell_length_c   6.95493300
_cell_angle_alpha   119.99999867
_cell_angle_beta   119.99999805
_cell_angle_gamma   59.99999793
_symmetry_Int_Tables_number   1
_chemical_formula_structural   Ba2Ga6TcOs
_chemical_formula_sum   'Ba2 Ga6 Tc1 Os1'
_cell_volume   237.88333909
_cell_formula_units_Z   1
loop_
 _symmetry_equiv_pos_site_id
 _symmetry_equiv_pos_as_xyz
  1  'x, y, z'
loop_
 _atom_site_type_symbol
 _atom_site_label
 _atom_site_symmetry_multiplicity
 _atom_site_fract_x
 _atom_site_fract_y
 _atom_site_fract_z
 _atom_site_occupancy
  Ba  Ba0  1  0.750000  0.750000  0.249999  1
  Ba  Ba1  1  0.250001  0.250001  0.749999  1
  Ga  Ga2  1  0.749879  0.250122  0.250122  1
  Ga  Ga3  1  0.250122  0.749879  0.250122  1
  Ga  Ga4  1  0.250122  0.250122  0.250122  1
  Ga  Ga5  1  0.749878  0.749878  0.749878  1
  Ga  Ga6  1  0.749878  0.250121  0.749878  1
  Ga  Ga7  1  0.250121  0.749878  0.749878  1
  Tc  Tc8  1  0.000000  0.000000  0.000000  1
  Os  Os9  1  0.499999  0.499999  0.500000  1
