# generated using pymatgen
data_Ca4Zn(Ga3Ir2)3
_symmetry_space_group_name_H-M   'P 1'
_cell_length_a   8.61500144
_cell_length_b   8.65991452
_cell_length_c   8.65991300
_cell_angle_alpha   140.69974857
_cell_angle_beta   110.46229403
_cell_angle_gamma   82.97807799
_symmetry_Int_Tables_number   1
_chemical_formula_structural   Ca4Zn(Ga3Ir2)3
_chemical_formula_sum   'Ca4 Zn1 Ga9 Ir6'
_cell_volume   371.23154856
_cell_formula_units_Z   1
loop_
 _symmetry_equiv_pos_site_id
 _symmetry_equiv_pos_as_xyz
  1  'x, y, z'
loop_
 _atom_site_type_symbol
 _atom_site_label
 _atom_site_symmetry_multiplicity
 _atom_site_fract_x
 _atom_site_fract_y
 _atom_site_fract_z
 _atom_site_occupancy
  Ca  Ca0  1  0.871368  0.642866  0.228503  1
  Ca  Ca1  1  0.125008  0.353116  0.771892  1
  Ca  Ca2  1  0.581464  0.854435  0.727029  1
  Ca  Ca3  1  0.418565  0.147606  0.270959  1
  Zn  Zn4  1  0.729655  0.416640  0.313015  1
  Ga  Ga5  1  0.500425  0.749949  0.250094  1
  Ga  Ga6  1  0.500425  0.250331  0.750474  1
  Ga  Ga7  1  0.199809  0.948416  0.746302  1
  Ga  Ga8  1  0.799500  0.547990  0.746940  1
  Ga  Ga9  1  0.799500  0.052559  0.251509  1
  Ga  Ga10  1  0.199809  0.453507  0.251394  1
  Ga  Ga11  1  0.104872  0.919417  0.185455  1
  Ga  Ga12  1  0.897748  0.080164  0.817584  1
  Ga  Ga13  1  0.269257  0.582461  0.686796  1
  Ir  Ir14  1  0.572511  0.651931  0.920579  1
  Ir  Ir15  1  0.421538  0.347962  0.073579  1
  Ir  Ir16  1  0.003993  0.749369  0.753559  1
  Ir  Ir17  1  0.003993  0.250434  0.254624  1
  Ir  Ir18  1  0.267117  0.849712  0.417405  1
  Ir  Ir19  1  0.733440  0.151132  0.582307  1
