# generated using pymatgen
data_TbAs4(Ru2Rh)2
_symmetry_space_group_name_H-M   'P 1'
_cell_length_a   7.17346728
_cell_length_b   7.19991809
_cell_length_c   3.88137800
_cell_angle_alpha   90.00000000
_cell_angle_beta   90.00000000
_cell_angle_gamma   120.12205178
_symmetry_Int_Tables_number   1
_chemical_formula_structural   TbAs4(Ru2Rh)2
_chemical_formula_sum   'Tb1 As4 Ru4 Rh2'
_cell_volume   173.39549357
_cell_formula_units_Z   1
loop_
 _symmetry_equiv_pos_site_id
 _symmetry_equiv_pos_as_xyz
  1  'x, y, z'
loop_
 _atom_site_type_symbol
 _atom_site_label
 _atom_site_symmetry_multiplicity
 _atom_site_fract_x
 _atom_site_fract_y
 _atom_site_fract_z
 _atom_site_occupancy
  Tb  Tb0  1  0.998060  0.999030  0.000000  1
  As  As1  1  0.805460  0.615251  0.500000  1
  As  As2  1  0.338122  0.669061  0.000000  1
  As  As3  1  0.387325  0.193663  0.500000  1
  As  As4  1  0.805460  0.190209  0.500000  1
  Ru  Ru5  1  0.534150  0.069003  0.000000  1
  Ru  Ru6  1  0.600765  0.800383  0.500000  1
  Ru  Ru7  1  0.534150  0.465148  0.000000  1
  Ru  Ru8  1  0.933249  0.466625  0.000000  1
  Rh  Rh9  1  0.198295  0.395293  0.500000  1
  Rh  Rh10  1  0.198295  0.803003  0.500000  1
