# generated using pymatgen
data_ErZn3AgPt
_symmetry_space_group_name_H-M   'P 1'
_cell_length_a   5.24061222
_cell_length_b   5.24061245
_cell_length_c   5.26133961
_cell_angle_alpha   60.13023526
_cell_angle_beta   60.13023363
_cell_angle_gamma   60.00001070
_symmetry_Int_Tables_number   1
_chemical_formula_structural   ErZn3AgPt
_chemical_formula_sum   'Er1 Zn3 Ag1 Pt1'
_cell_volume   102.37585659
_cell_formula_units_Z   1
loop_
 _symmetry_equiv_pos_site_id
 _symmetry_equiv_pos_as_xyz
  1  'x, y, z'
loop_
 _atom_site_type_symbol
 _atom_site_label
 _atom_site_symmetry_multiplicity
 _atom_site_fract_x
 _atom_site_fract_y
 _atom_site_fract_z
 _atom_site_occupancy
  Er  Er0  1  0.997057  0.997057  0.008829  1
  Zn  Zn1  1  0.623895  0.131549  0.620659  1
  Zn  Zn2  1  0.131549  0.623895  0.620659  1
  Zn  Zn3  1  0.623895  0.623895  0.620659  1
  Ag  Ag4  1  0.245709  0.245709  0.262872  1
  Pt  Pt5  1  0.627893  0.627893  0.116320  1
