# generated using pymatgen
data_PrTh2(GaNi)3
_symmetry_space_group_name_H-M   'P 1'
_cell_length_a   7.10863348
_cell_length_b   7.06861375
_cell_length_c   3.99132900
_cell_angle_alpha   90.00000000
_cell_angle_beta   90.00000000
_cell_angle_gamma   119.81394319
_symmetry_Int_Tables_number   1
_chemical_formula_structural   PrTh2(GaNi)3
_chemical_formula_sum   'Pr1 Th2 Ga3 Ni3'
_cell_volume   174.01220599
_cell_formula_units_Z   1
loop_
 _symmetry_equiv_pos_site_id
 _symmetry_equiv_pos_as_xyz
  1  'x, y, z'
loop_
 _atom_site_type_symbol
 _atom_site_label
 _atom_site_symmetry_multiplicity
 _atom_site_fract_x
 _atom_site_fract_y
 _atom_site_fract_z
 _atom_site_occupancy
  Pr  Pr0  1  0.000000  0.415289  0.500000  1
  Th  Th1  1  0.580586  0.581195  0.500000  1
  Th  Th2  1  0.419414  0.000609  0.500000  1
  Ga  Ga3  1  0.000000  0.762809  0.000000  1
  Ga  Ga4  1  0.231971  0.233773  0.000000  1
  Ga  Ga5  1  0.768029  0.001802  0.000000  1
  Ni  Ni6  1  0.351050  0.682724  0.000000  1
  Ni  Ni7  1  0.648950  0.331673  0.000000  1
  Ni  Ni8  1  0.000000  0.990126  0.500000  1
