# generated using pymatgen
data_Y2Co9Si7Tc3
_symmetry_space_group_name_H-M   'P 1'
_cell_length_a   3.75408200
_cell_length_b   9.19215187
_cell_length_c   9.19215200
_cell_angle_alpha   120.00000046
_cell_angle_beta   90.00000000
_cell_angle_gamma   90.00000000
_symmetry_Int_Tables_number   1
_chemical_formula_structural   Y2Co9Si7Tc3
_chemical_formula_sum   'Y2 Co9 Si7 Tc3'
_cell_volume   274.70639688
_cell_formula_units_Z   1
loop_
 _symmetry_equiv_pos_site_id
 _symmetry_equiv_pos_as_xyz
  1  'x, y, z'
loop_
 _atom_site_type_symbol
 _atom_site_label
 _atom_site_symmetry_multiplicity
 _atom_site_fract_x
 _atom_site_fract_y
 _atom_site_fract_z
 _atom_site_occupancy
  Y  Y0  1  0.000000  0.666667  0.333333  1
  Y  Y1  1  0.500000  0.333333  0.666667  1
  Co  Co2  1  0.000000  0.570079  0.946293  1
  Co  Co3  1  0.000000  0.376214  0.429921  1
  Co  Co4  1  0.000000  0.053707  0.623786  1
  Co  Co5  1  0.000000  0.874621  0.155025  1
  Co  Co6  1  0.000000  0.280403  0.125379  1
  Co  Co7  1  0.000000  0.844975  0.719597  1
  Co  Co8  1  0.500000  0.949471  0.384270  1
  Co  Co9  1  0.500000  0.434798  0.050529  1
  Co  Co10  1  0.500000  0.615730  0.565202  1
  Si  Si11  1  0.000000  0.000000  0.000000  1
  Si  Si12  1  0.500000  0.709688  0.111510  1
  Si  Si13  1  0.500000  0.401823  0.290312  1
  Si  Si14  1  0.500000  0.888490  0.598177  1
  Si  Si15  1  0.000000  0.592556  0.703552  1
  Si  Si16  1  0.000000  0.110997  0.407444  1
  Si  Si17  1  0.000000  0.296448  0.889003  1
  Tc  Tc18  1  0.500000  0.784434  0.895891  1
  Tc  Tc19  1  0.500000  0.111457  0.215566  1
  Tc  Tc20  1  0.500000  0.104109  0.888543  1
