# generated using pymatgen
data_Zr10AlTl3CuPb3
_symmetry_space_group_name_H-M   'P 1'
_cell_length_a   8.81329400
_cell_length_b   8.81329480
_cell_length_c   5.96987800
_cell_angle_alpha   90.00000000
_cell_angle_beta   90.00000000
_cell_angle_gamma   119.99998948
_symmetry_Int_Tables_number   1
_chemical_formula_structural   Zr10AlTl3CuPb3
_chemical_formula_sum   'Zr10 Al1 Tl3 Cu1 Pb3'
_cell_volume   401.58056745
_cell_formula_units_Z   1
loop_
 _symmetry_equiv_pos_site_id
 _symmetry_equiv_pos_as_xyz
  1  'x, y, z'
loop_
 _atom_site_type_symbol
 _atom_site_label
 _atom_site_symmetry_multiplicity
 _atom_site_fract_x
 _atom_site_fract_y
 _atom_site_fract_z
 _atom_site_occupancy
  Zr  Zr0  1  0.666667  0.333333  0.497629  1
  Zr  Zr1  1  0.333333  0.666667  0.497629  1
  Zr  Zr2  1  0.333333  0.666667  0.002234  1
  Zr  Zr3  1  0.666667  0.333333  0.002234  1
  Zr  Zr4  1  0.735885  0.735885  0.246333  1
  Zr  Zr5  1  0.264115  0.000000  0.246333  1
  Zr  Zr6  1  0.000000  0.264115  0.246333  1
  Zr  Zr7  1  0.259570  0.259570  0.753400  1
  Zr  Zr8  1  0.740430  0.000000  0.753400  1
  Zr  Zr9  1  0.000000  0.740430  0.753400  1
  Al  Al10  1  0.000000  0.000000  0.493378  1
  Tl  Tl11  1  0.383796  0.383796  0.250527  1
  Tl  Tl12  1  0.616204  0.000000  0.250527  1
  Tl  Tl13  1  0.000000  0.616204  0.250527  1
  Cu  Cu14  1  0.000000  0.000000  0.008836  1
  Pb  Pb15  1  0.613520  0.613520  0.749093  1
  Pb  Pb16  1  0.386480  0.000000  0.749093  1
  Pb  Pb17  1  0.000000  0.386480  0.749093  1
