# generated using pymatgen
data_Tb16Cd4Ru3Au
_symmetry_space_group_name_H-M   'P 1'
_cell_length_a   9.71232459
_cell_length_b   9.66880960
_cell_length_c   9.71232500
_cell_angle_alpha   59.85101291
_cell_angle_beta   60.00000202
_cell_angle_gamma   59.85101025
_symmetry_Int_Tables_number   1
_chemical_formula_structural   Tb16Cd4Ru3Au
_chemical_formula_sum   'Tb16 Cd4 Ru3 Au1'
_cell_volume   643.46172494
_cell_formula_units_Z   1
loop_
 _symmetry_equiv_pos_site_id
 _symmetry_equiv_pos_as_xyz
  1  'x, y, z'
loop_
 _atom_site_type_symbol
 _atom_site_label
 _atom_site_symmetry_multiplicity
 _atom_site_fract_x
 _atom_site_fract_y
 _atom_site_fract_z
 _atom_site_occupancy
  Tb  Tb0  1  0.438009  0.434993  0.063499  1
  Tb  Tb1  1  0.067683  0.057496  0.437411  1
  Tb  Tb2  1  0.437411  0.057496  0.067683  1
  Tb  Tb3  1  0.854555  0.843624  0.854555  1
  Tb  Tb4  1  0.690020  0.320251  0.299710  1
  Tb  Tb5  1  0.063499  0.434993  0.438009  1
  Tb  Tb6  1  0.311845  0.688636  0.687673  1
  Tb  Tb7  1  0.299710  0.320251  0.690020  1
  Tb  Tb8  1  0.854555  0.843624  0.447266  1
  Tb  Tb9  1  0.687673  0.688636  0.311845  1
  Tb  Tb10  1  0.447266  0.843624  0.854555  1
  Tb  Tb11  1  0.063499  0.434993  0.063499  1
  Tb  Tb12  1  0.846871  0.459385  0.846871  1
  Tb  Tb13  1  0.437411  0.057496  0.437411  1
  Tb  Tb14  1  0.311845  0.688636  0.311845  1
  Tb  Tb15  1  0.690020  0.320251  0.690020  1
  Cd  Cd16  1  0.081114  0.756656  0.081114  1
  Cd  Cd17  1  0.079803  0.080949  0.759444  1
  Cd  Cd18  1  0.759444  0.080949  0.079803  1
  Cd  Cd19  1  0.079803  0.080949  0.079803  1
  Ru  Ru20  1  0.639930  0.644928  0.639930  1
  Ru  Ru21  1  0.639930  0.644928  0.075210  1
  Ru  Ru22  1  0.075210  0.644928  0.639930  1
  Au  Au23  1  0.642889  0.071331  0.642889  1
