# generated using pymatgen
data_CuHgPt4(PbO7)2
_symmetry_space_group_name_H-M   'P 1'
_cell_length_a   7.20815207
_cell_length_b   7.14316495
_cell_length_c   7.20815206
_cell_angle_alpha   60.98317943
_cell_angle_beta   61.73359681
_cell_angle_gamma   60.98318323
_symmetry_Int_Tables_number   1
_chemical_formula_structural   CuHgPt4(PbO7)2
_chemical_formula_sum   'Cu1 Hg1 Pt4 Pb2 O14'
_cell_volume   269.68518978
_cell_formula_units_Z   1
loop_
 _symmetry_equiv_pos_site_id
 _symmetry_equiv_pos_as_xyz
  1  'x, y, z'
loop_
 _atom_site_type_symbol
 _atom_site_label
 _atom_site_symmetry_multiplicity
 _atom_site_fract_x
 _atom_site_fract_y
 _atom_site_fract_z
 _atom_site_occupancy
  Cu  Cu0  1  0.125000  0.125000  0.125000  1
  Hg  Hg1  1  0.125000  0.625000  0.125000  1
  Pt  Pt2  1  0.625000  0.625000  0.125000  1
  Pt  Pt3  1  0.625000  0.625000  0.625000  1
  Pt  Pt4  1  0.625000  0.125000  0.625000  1
  Pt  Pt5  1  0.125000  0.625000  0.625000  1
  Pb  Pb6  1  0.625000  0.125000  0.125000  1
  Pb  Pb7  1  0.125000  0.125000  0.625000  1
  O  O8  1  0.704410  0.290335  0.293740  1
  O  O9  1  0.711286  0.289582  0.711286  1
  O  O10  1  0.003807  0.033120  0.003807  1
  O  O11  1  0.289352  0.718836  0.289352  1
  O  O12  1  0.707600  0.715327  0.290987  1
  O  O13  1  0.959013  0.534673  0.542400  1
  O  O14  1  0.290987  0.715327  0.707600  1
  O  O15  1  0.246193  0.216880  0.246193  1
  O  O16  1  0.960648  0.531164  0.960648  1
  O  O17  1  0.538714  0.960418  0.538714  1
  O  O18  1  0.542400  0.534673  0.959013  1
  O  O19  1  0.956260  0.959665  0.545590  1
  O  O20  1  0.545590  0.959665  0.956260  1
  O  O21  1  0.293740  0.290335  0.704410  1
