# generated using pymatgen
data_La5Pr5(SnC)4
_symmetry_space_group_name_H-M   'P 1'
_cell_length_a   8.32726200
_cell_length_b   13.16663987
_cell_length_c   4.38543800
_cell_angle_alpha   90.00000000
_cell_angle_beta   90.00000000
_cell_angle_gamma   90.15768866
_symmetry_Int_Tables_number   1
_chemical_formula_structural   La5Pr5(SnC)4
_chemical_formula_sum   'La5 Pr5 Sn4 C4'
_cell_volume   480.82663451
_cell_formula_units_Z   1
loop_
 _symmetry_equiv_pos_site_id
 _symmetry_equiv_pos_as_xyz
  1  'x, y, z'
loop_
 _atom_site_type_symbol
 _atom_site_label
 _atom_site_symmetry_multiplicity
 _atom_site_fract_x
 _atom_site_fract_y
 _atom_site_fract_z
 _atom_site_occupancy
  La  La0  1  0.828635  0.791995  0.000000  1
  La  La1  1  0.836101  0.059315  0.499998  1
  La  La2  1  0.335487  0.441450  0.499998  1
  La  La3  1  0.664754  0.557632  0.499998  1
  La  La4  1  0.164924  0.943114  0.499998  1
  Pr  Pr5  1  0.499000  0.001127  0.000000  1
  Pr  Pr6  1  0.170716  0.208340  0.000000  1
  Pr  Pr7  1  0.669976  0.292101  0.000000  1
  Pr  Pr8  1  0.999800  0.498585  0.000000  1
  Pr  Pr9  1  0.329221  0.707139  0.000000  1
  Sn  Sn10  1  0.449930  0.174143  0.499998  1
  Sn  Sn11  1  0.950588  0.325403  0.499998  1
  Sn  Sn12  1  0.051977  0.671238  0.499998  1
  Sn  Sn13  1  0.544024  0.827660  0.499998  1
  C  C14  1  0.040750  0.045641  0.000000  1
  C  C15  1  0.540484  0.454780  0.000000  1
  C  C16  1  0.462243  0.545566  0.000000  1
  C  C17  1  0.961392  0.954771  0.000000  1
