# generated using pymatgen
data_SrAc7(GePt)8
_symmetry_space_group_name_H-M   'P 1'
_cell_length_a   4.59832900
_cell_length_b   7.89062300
_cell_length_c   15.15984200
_cell_angle_alpha   90.00000000
_cell_angle_beta   90.00000000
_cell_angle_gamma   90.00000000
_symmetry_Int_Tables_number   1
_chemical_formula_structural   SrAc7(GePt)8
_chemical_formula_sum   'Sr1 Ac7 Ge8 Pt8'
_cell_volume   550.05486460
_cell_formula_units_Z   1
loop_
 _symmetry_equiv_pos_site_id
 _symmetry_equiv_pos_as_xyz
  1  'x, y, z'
loop_
 _atom_site_type_symbol
 _atom_site_label
 _atom_site_symmetry_multiplicity
 _atom_site_fract_x
 _atom_site_fract_y
 _atom_site_fract_z
 _atom_site_occupancy
  Sr  Sr0  1  0.000000  0.290521  0.500000  1
  Ac  Ac1  1  0.500000  0.790097  0.746072  1
  Ac  Ac2  1  0.000000  0.209404  0.752203  1
  Ac  Ac3  1  0.500000  0.790097  0.253928  1
  Ac  Ac4  1  0.000000  0.209404  0.247797  1
  Ac  Ac5  1  0.500000  0.709868  0.000000  1
  Ac  Ac6  1  0.500000  0.700898  0.500000  1
  Ac  Ac7  1  0.000000  0.294375  0.000000  1
  Ge  Ge8  1  0.500000  0.412765  0.650919  1
  Ge  Ge9  1  0.000000  0.585294  0.850038  1
  Ge  Ge10  1  0.500000  0.412765  0.349081  1
  Ge  Ge11  1  0.000000  0.585294  0.149962  1
  Ge  Ge12  1  0.500000  0.084298  0.092521  1
  Ge  Ge13  1  0.000000  0.919469  0.409465  1
  Ge  Ge14  1  0.500000  0.084298  0.907479  1
  Ge  Ge15  1  0.000000  0.919469  0.590535  1
  Pt  Pt16  1  0.500000  0.081898  0.612543  1
  Pt  Pt17  1  0.000000  0.918715  0.889266  1
  Pt  Pt18  1  0.500000  0.081898  0.387457  1
  Pt  Pt19  1  0.000000  0.918715  0.110734  1
  Pt  Pt20  1  0.500000  0.418655  0.148623  1
  Pt  Pt21  1  0.000000  0.581574  0.350688  1
  Pt  Pt22  1  0.500000  0.418655  0.851377  1
  Pt  Pt23  1  0.000000  0.581574  0.649312  1
