# generated using pymatgen
data_CsBr24
_symmetry_space_group_name_H-M   'P 1'
_cell_length_a   11.44086352
_cell_length_b   11.44086345
_cell_length_c   11.44086300
_cell_angle_alpha   74.46366332
_cell_angle_beta   74.46365823
_cell_angle_gamma   74.46365585
_symmetry_Int_Tables_number   1
_chemical_formula_structural   CsBr24
_chemical_formula_sum   'Cs1 Br24'
_cell_volume   1358.71947193
_cell_formula_units_Z   1
loop_
 _symmetry_equiv_pos_site_id
 _symmetry_equiv_pos_as_xyz
  1  'x, y, z'
loop_
 _atom_site_type_symbol
 _atom_site_label
 _atom_site_symmetry_multiplicity
 _atom_site_fract_x
 _atom_site_fract_y
 _atom_site_fract_z
 _atom_site_occupancy
  Cs  Cs0  1  0.000000  0.000000  0.000000  1
  Br  Br1  1  0.394886  0.142599  0.704804  1
  Br  Br2  1  0.295196  0.605114  0.857401  1
  Br  Br3  1  0.857401  0.295196  0.605114  1
  Br  Br4  1  0.142599  0.704804  0.394886  1
  Br  Br5  1  0.704804  0.394886  0.142599  1
  Br  Br6  1  0.605114  0.857401  0.295196  1
  Br  Br7  1  0.596076  0.108014  0.545378  1
  Br  Br8  1  0.104042  0.364717  0.794030  1
  Br  Br9  1  0.794030  0.104042  0.364717  1
  Br  Br10  1  0.364717  0.794030  0.104042  1
  Br  Br11  1  0.895958  0.635283  0.205970  1
  Br  Br12  1  0.205970  0.895958  0.635283  1
  Br  Br13  1  0.617593  0.039394  0.098536  1
  Br  Br14  1  0.039394  0.098536  0.617593  1
  Br  Br15  1  0.098536  0.617593  0.039394  1
  Br  Br16  1  0.382407  0.960606  0.901464  1
  Br  Br17  1  0.960606  0.901464  0.382407  1
  Br  Br18  1  0.901464  0.382407  0.960606  1
  Br  Br19  1  0.454622  0.403924  0.891986  1
  Br  Br20  1  0.108014  0.545378  0.596076  1
  Br  Br21  1  0.545378  0.596076  0.108014  1
  Br  Br22  1  0.403924  0.891986  0.454622  1
  Br  Br23  1  0.891986  0.454622  0.403924  1
  Br  Br24  1  0.635283  0.205970  0.895958  1
