# generated using pymatgen
data_La3Tm2(Ni2Sn5)2
_symmetry_space_group_name_H-M   'P 1'
_cell_length_a   14.03070900
_cell_length_b   14.03070900
_cell_length_c   4.55365800
_cell_angle_alpha   90.00000000
_cell_angle_beta   90.00000000
_cell_angle_gamma   90.00000000
_symmetry_Int_Tables_number   1
_chemical_formula_structural   La3Tm2(Ni2Sn5)2
_chemical_formula_sum   'La6 Tm4 Ni8 Sn20'
_cell_volume   896.43673423
_cell_formula_units_Z   2
loop_
 _symmetry_equiv_pos_site_id
 _symmetry_equiv_pos_as_xyz
  1  'x, y, z'
loop_
 _atom_site_type_symbol
 _atom_site_label
 _atom_site_symmetry_multiplicity
 _atom_site_fract_x
 _atom_site_fract_y
 _atom_site_fract_z
 _atom_site_occupancy
  La  La0  1  0.000000  0.000000  0.000000  1
  La  La1  1  0.500000  0.500000  0.000000  1
  La  La2  1  0.891607  0.608393  0.500000  1
  La  La3  1  0.108393  0.391607  0.500000  1
  La  La4  1  0.391607  0.891607  0.500000  1
  La  La5  1  0.608393  0.108393  0.500000  1
  Tm  Tm6  1  0.180126  0.680126  0.500000  1
  Tm  Tm7  1  0.819874  0.319874  0.500000  1
  Tm  Tm8  1  0.680126  0.819874  0.500000  1
  Tm  Tm9  1  0.319874  0.180126  0.500000  1
  Ni  Ni10  1  0.255976  0.536790  0.000000  1
  Ni  Ni11  1  0.744024  0.463210  0.000000  1
  Ni  Ni12  1  0.755976  0.963210  0.000000  1
  Ni  Ni13  1  0.244024  0.036790  0.000000  1
  Ni  Ni14  1  0.463210  0.255976  0.000000  1
  Ni  Ni15  1  0.536790  0.744024  0.000000  1
  Ni  Ni16  1  0.036790  0.755976  0.000000  1
  Ni  Ni17  1  0.963210  0.244024  0.000000  1
  Sn  Sn18  1  0.350783  0.701089  0.000000  1
  Sn  Sn19  1  0.649217  0.298911  0.000000  1
  Sn  Sn20  1  0.850783  0.798911  0.000000  1
  Sn  Sn21  1  0.149217  0.201089  0.000000  1
  Sn  Sn22  1  0.298911  0.350783  0.000000  1
  Sn  Sn23  1  0.701089  0.649217  0.000000  1
  Sn  Sn24  1  0.201089  0.850783  0.000000  1
  Sn  Sn25  1  0.798911  0.149217  0.000000  1
  Sn  Sn26  1  0.333037  0.513202  0.500000  1
  Sn  Sn27  1  0.666963  0.486798  0.500000  1
  Sn  Sn28  1  0.833037  0.986798  0.500000  1
  Sn  Sn29  1  0.166963  0.013202  0.500000  1
  Sn  Sn30  1  0.486798  0.333037  0.500000  1
  Sn  Sn31  1  0.513202  0.666963  0.500000  1
  Sn  Sn32  1  0.013202  0.833037  0.500000  1
  Sn  Sn33  1  0.986798  0.166963  0.500000  1
  Sn  Sn34  1  0.073596  0.573596  0.000000  1
  Sn  Sn35  1  0.926404  0.426404  0.000000  1
  Sn  Sn36  1  0.573596  0.926404  0.000000  1
  Sn  Sn37  1  0.426404  0.073596  0.000000  1
