# generated using pymatgen
data_YbDy3Sc6(Si5Ir2)4
_symmetry_space_group_name_H-M   'P 1'
_cell_length_a   12.49828387
_cell_length_b   12.49828403
_cell_length_c   4.14995300
_cell_angle_alpha   90.00000000
_cell_angle_beta   90.00000000
_cell_angle_gamma   89.94051422
_symmetry_Int_Tables_number   1
_chemical_formula_structural   YbDy3Sc6(Si5Ir2)4
_chemical_formula_sum   'Yb1 Dy3 Sc6 Si20 Ir8'
_cell_volume   648.25178095
_cell_formula_units_Z   1
loop_
 _symmetry_equiv_pos_site_id
 _symmetry_equiv_pos_as_xyz
  1  'x, y, z'
loop_
 _atom_site_type_symbol
 _atom_site_label
 _atom_site_symmetry_multiplicity
 _atom_site_fract_x
 _atom_site_fract_y
 _atom_site_fract_z
 _atom_site_occupancy
  Yb  Yb0  1  0.116005  0.616005  0.500000  1
  Dy  Dy1  1  0.883330  0.383330  0.500000  1
  Dy  Dy2  1  0.616001  0.884142  0.500000  1
  Dy  Dy3  1  0.384142  0.116001  0.500000  1
  Sc  Sc4  1  0.673386  0.173386  0.500000  1
  Sc  Sc5  1  0.326999  0.826999  0.500000  1
  Sc  Sc6  1  0.174701  0.326063  0.500000  1
  Sc  Sc7  1  0.826063  0.674701  0.500000  1
  Sc  Sc8  1  0.999983  0.000040  0.000000  1
  Sc  Sc9  1  0.500040  0.499983  0.000000  1
  Si  Si10  1  0.567545  0.067545  0.000000  1
  Si  Si11  1  0.432473  0.932473  0.000000  1
  Si  Si12  1  0.067760  0.432299  0.000000  1
  Si  Si13  1  0.932299  0.567760  0.000000  1
  Si  Si14  1  0.199163  0.165684  0.000000  1
  Si  Si15  1  0.799977  0.834408  0.000000  1
  Si  Si16  1  0.165911  0.800450  0.000000  1
  Si  Si17  1  0.699287  0.333847  0.000000  1
  Si  Si18  1  0.833847  0.199287  0.000000  1
  Si  Si19  1  0.300450  0.665911  0.000000  1
  Si  Si20  1  0.665684  0.699163  0.000000  1
  Si  Si21  1  0.334408  0.299977  0.000000  1
  Si  Si22  1  0.007509  0.150720  0.500000  1
  Si  Si23  1  0.993282  0.849134  0.500000  1
  Si  Si24  1  0.151236  0.992425  0.500000  1
  Si  Si25  1  0.507110  0.349245  0.500000  1
  Si  Si26  1  0.849245  0.007110  0.500000  1
  Si  Si27  1  0.492425  0.651236  0.500000  1
  Si  Si28  1  0.650720  0.507509  0.500000  1
  Si  Si29  1  0.349134  0.493282  0.500000  1
  Ir  Ir30  1  0.019482  0.244505  0.000000  1
  Ir  Ir31  1  0.978959  0.756283  0.000000  1
  Ir  Ir32  1  0.244475  0.979853  0.000000  1
  Ir  Ir33  1  0.520746  0.255585  0.000000  1
  Ir  Ir34  1  0.755585  0.020746  0.000000  1
  Ir  Ir35  1  0.479853  0.744475  0.000000  1
  Ir  Ir36  1  0.744505  0.519482  0.000000  1
  Ir  Ir37  1  0.256283  0.478959  0.000000  1
