# generated using pymatgen
data_Sm2Y6Hf12Si15As
_symmetry_space_group_name_H-M   'P 1'
_cell_length_a   7.29997079
_cell_length_b   7.31585145
_cell_length_c   13.43154908
_cell_angle_alpha   89.72508833
_cell_angle_beta   89.97219521
_cell_angle_gamma   89.97528837
_symmetry_Int_Tables_number   1
_chemical_formula_structural   Sm2Y6Hf12Si15As
_chemical_formula_sum   'Sm2 Y6 Hf12 Si15 As1'
_cell_volume   717.31021311
_cell_formula_units_Z   1
loop_
 _symmetry_equiv_pos_site_id
 _symmetry_equiv_pos_as_xyz
  1  'x, y, z'
loop_
 _atom_site_type_symbol
 _atom_site_label
 _atom_site_symmetry_multiplicity
 _atom_site_fract_x
 _atom_site_fract_y
 _atom_site_fract_z
 _atom_site_occupancy
  Sm  Sm0  1  0.995079  0.344439  0.215403  1
  Sm  Sm1  1  0.005993  0.656714  0.715403  1
  Y  Y2  1  0.153089  0.499243  0.466589  1
  Y  Y3  1  0.506894  0.842672  0.033836  1
  Y  Y4  1  0.844015  0.503406  0.964866  1
  Y  Y5  1  0.495977  0.154728  0.535564  1
  Y  Y6  1  0.345086  0.996137  0.785307  1
  Y  Y7  1  0.654392  0.004075  0.284333  1
  Hf  Hf8  1  0.174688  0.174908  0.000182  1
  Hf  Hf9  1  0.826018  0.826592  0.500128  1
  Hf  Hf10  1  0.325155  0.677966  0.249731  1
  Hf  Hf11  1  0.674273  0.325067  0.749973  1
  Hf  Hf12  1  0.149706  0.995660  0.372878  1
  Hf  Hf13  1  0.850689  0.003915  0.874797  1
  Hf  Hf14  1  0.503632  0.650060  0.624554  1
  Hf  Hf15  1  0.351582  0.495443  0.875495  1
  Hf  Hf16  1  0.494482  0.348086  0.124955  1
  Hf  Hf17  1  0.652738  0.507438  0.376876  1
  Hf  Hf18  1  0.996381  0.150501  0.625573  1
  Hf  Hf19  1  0.001211  0.847533  0.124257  1
  Si  Si20  1  0.636083  0.705385  0.816955  1
  Si  Si21  1  0.204794  0.864683  0.565425  1
  Si  Si22  1  0.137344  0.795139  0.932831  1
  Si  Si23  1  0.794157  0.137178  0.066444  1
  Si  Si24  1  0.862690  0.204011  0.433084  1
  Si  Si25  1  0.296849  0.361273  0.682949  1
  Si  Si26  1  0.701882  0.636707  0.183842  1
  Si  Si27  1  0.293737  0.038134  0.179701  1
  Si  Si28  1  0.705105  0.951778  0.685655  1
  Si  Si29  1  0.451523  0.795589  0.435878  1
  Si  Si30  1  0.205843  0.548840  0.063990  1
  Si  Si31  1  0.549159  0.204925  0.935865  1
  Si  Si32  1  0.793461  0.450430  0.564760  1
  Si  Si33  1  0.049756  0.293338  0.814514  1
  Si  Si34  1  0.951321  0.706953  0.314979  1
  As  As35  1  0.365220  0.301055  0.322427  1
