# generated using pymatgen
data_Ta(NbCl6)5
_symmetry_space_group_name_H-M   'P 1'
_cell_length_a   13.75652269
_cell_length_b   13.75953867
_cell_length_c   6.48318989
_cell_angle_alpha   88.69964231
_cell_angle_beta   88.74330608
_cell_angle_gamma   87.10091369
_symmetry_Int_Tables_number   1
_chemical_formula_structural   Ta(NbCl6)5
_chemical_formula_sum   'Ta1 Nb5 Cl30'
_cell_volume   1225.00858462
_cell_formula_units_Z   1
loop_
 _symmetry_equiv_pos_site_id
 _symmetry_equiv_pos_as_xyz
  1  'x, y, z'
loop_
 _atom_site_type_symbol
 _atom_site_label
 _atom_site_symmetry_multiplicity
 _atom_site_fract_x
 _atom_site_fract_y
 _atom_site_fract_z
 _atom_site_occupancy
  Ta  Ta0  1  0.561849  0.771953  0.524449  1
  Nb  Nb1  1  0.773630  0.560126  0.524520  1
  Nb  Nb2  1  0.439365  0.226419  0.475181  1
  Nb  Nb3  1  0.227012  0.439519  0.475910  1
  Nb  Nb4  1  0.106653  0.893753  0.999694  1
  Nb  Nb5  1  0.893678  0.106026  0.000486  1
  Cl  Cl6  1  0.666582  0.478152  0.741556  1
  Cl  Cl7  1  0.522441  0.333151  0.258131  1
  Cl  Cl8  1  0.333087  0.522502  0.257474  1
  Cl  Cl9  1  0.477291  0.667465  0.741788  1
  Cl  Cl10  1  0.795674  0.433284  0.303840  1
  Cl  Cl11  1  0.566583  0.204037  0.695749  1
  Cl  Cl12  1  0.951977  0.952010  0.205531  1
  Cl  Cl13  1  0.048126  0.047925  0.794513  1
  Cl  Cl14  1  0.765595  0.128187  0.228218  1
  Cl  Cl15  1  0.871970  0.234183  0.771872  1
  Cl  Cl16  1  0.234551  0.871773  0.771791  1
  Cl  Cl17  1  0.128204  0.765738  0.228079  1
  Cl  Cl18  1  0.811447  0.000669  0.796222  1
  Cl  Cl19  1  0.999497  0.188533  0.203481  1
  Cl  Cl20  1  0.188485  0.999464  0.203850  1
  Cl  Cl21  1  0.000532  0.811559  0.796675  1
  Cl  Cl22  1  0.713562  0.714566  0.722687  1
  Cl  Cl23  1  0.285976  0.285790  0.277172  1
  Cl  Cl24  1  0.537645  0.899510  0.741565  1
  Cl  Cl25  1  0.099666  0.461677  0.255077  1
  Cl  Cl26  1  0.461936  0.099211  0.254886  1
  Cl  Cl27  1  0.900565  0.538349  0.745420  1
  Cl  Cl28  1  0.666468  0.856394  0.307203  1
  Cl  Cl29  1  0.143893  0.332925  0.692974  1
  Cl  Cl30  1  0.332830  0.143986  0.693437  1
  Cl  Cl31  1  0.855459  0.667417  0.307246  1
  Cl  Cl32  1  0.619044  0.620177  0.326623  1
  Cl  Cl33  1  0.380424  0.380397  0.673451  1
  Cl  Cl34  1  0.434226  0.796402  0.307323  1
  Cl  Cl35  1  0.204076  0.566770  0.695924  1
