# generated using pymatgen
data_La(GdS2)3
_symmetry_space_group_name_H-M   'P 1'
_cell_length_a   4.06132300
_cell_length_b   11.19173237
_cell_length_c   11.47863080
_cell_angle_alpha   71.61415693
_cell_angle_beta   90.00000000
_cell_angle_gamma   90.00000000
_symmetry_Int_Tables_number   1
_chemical_formula_structural   La(GdS2)3
_chemical_formula_sum   'La2 Gd6 S12'
_cell_volume   495.10815930
_cell_formula_units_Z   2
loop_
 _symmetry_equiv_pos_site_id
 _symmetry_equiv_pos_as_xyz
  1  'x, y, z'
loop_
 _atom_site_type_symbol
 _atom_site_label
 _atom_site_symmetry_multiplicity
 _atom_site_fract_x
 _atom_site_fract_y
 _atom_site_fract_z
 _atom_site_occupancy
  La  La0  1  0.750000  0.548634  0.807122  1
  La  La1  1  0.250000  0.451366  0.192878  1
  Gd  Gd2  1  0.750000  0.180115  0.997924  1
  Gd  Gd3  1  0.250000  0.819885  0.002076  1
  Gd  Gd4  1  0.750000  0.940405  0.667695  1
  Gd  Gd5  1  0.250000  0.059595  0.332305  1
  Gd  Gd6  1  0.750000  0.661278  0.413326  1
  Gd  Gd7  1  0.250000  0.338722  0.586674  1
  S  S8  1  0.750000  0.977080  0.889532  1
  S  S9  1  0.250000  0.022920  0.110468  1
  S  S10  1  0.750000  0.304971  0.748388  1
  S  S11  1  0.250000  0.695029  0.251612  1
  S  S12  1  0.750000  0.896796  0.440114  1
  S  S13  1  0.250000  0.103204  0.559886  1
  S  S14  1  0.750000  0.417994  0.405477  1
  S  S15  1  0.250000  0.582006  0.594523  1
  S  S16  1  0.750000  0.235639  0.227548  1
  S  S17  1  0.250000  0.764361  0.772452  1
  S  S18  1  0.750000  0.617884  0.037899  1
  S  S19  1  0.250000  0.382116  0.962101  1
