# generated using pymatgen
data_Hf3V(Bi2O7)2
_symmetry_space_group_name_H-M   'P 1'
_cell_length_a   7.61770799
_cell_length_b   7.65858571
_cell_length_c   7.68051112
_cell_angle_alpha   59.71730643
_cell_angle_beta   59.68119297
_cell_angle_gamma   89.91774128
_symmetry_Int_Tables_number   1
_chemical_formula_structural   Hf3V(Bi2O7)2
_chemical_formula_sum   'Hf3 V1 Bi4 O14'
_cell_volume   314.17617435
_cell_formula_units_Z   1
loop_
 _symmetry_equiv_pos_site_id
 _symmetry_equiv_pos_as_xyz
  1  'x, y, z'
loop_
 _atom_site_type_symbol
 _atom_site_label
 _atom_site_symmetry_multiplicity
 _atom_site_fract_x
 _atom_site_fract_y
 _atom_site_fract_z
 _atom_site_occupancy
  Hf  Hf0  1  0.122235  0.876135  0.757000  1
  Hf  Hf1  1  0.122388  0.876740  0.255491  1
  Hf  Hf2  1  0.124107  0.381281  0.743663  1
  V  V3  1  0.626894  0.880149  0.242284  1
  Bi  Bi4  1  0.641017  0.446140  0.678193  1
  Bi  Bi5  1  0.119052  0.353652  0.219588  1
  Bi  Bi6  1  0.605827  0.874714  0.816635  1
  Bi  Bi7  1  0.599752  0.308128  0.269227  1
  O  O8  1  0.798867  0.177551  0.030943  1
  O  O9  1  0.494891  0.496738  0.987523  1
  O  O10  1  0.224841  0.209032  0.597353  1
  O  O11  1  0.447407  0.924911  0.119165  1
  O  O12  1  0.196400  0.208846  0.007583  1
  O  O13  1  0.446166  0.959589  0.475364  1
  O  O14  1  0.449676  0.578540  0.505777  1
  O  O15  1  0.050463  0.967420  0.494476  1
  O  O16  1  0.731703  0.240118  0.500475  1
  O  O17  1  0.019225  0.553828  0.533821  1
  O  O18  1  0.798941  0.830974  0.988440  1
  O  O19  1  0.051443  0.548067  0.913735  1
  O  O20  1  0.802911  0.795112  0.376956  1
  O  O21  1  0.218797  0.819335  0.986309  1
