# generated using pymatgen
data_NaLi4(Cu2P3)2
_symmetry_space_group_name_H-M   'P 1'
_cell_length_a   8.04065003
_cell_length_b   8.04065031
_cell_length_c   8.04065020
_cell_angle_alpha   151.85317223
_cell_angle_beta   114.29570025
_cell_angle_gamma   72.95110930
_symmetry_Int_Tables_number   1
_chemical_formula_structural   NaLi4(Cu2P3)2
_chemical_formula_sum   'Na1 Li4 Cu4 P6'
_cell_volume   220.56084465
_cell_formula_units_Z   1
loop_
 _symmetry_equiv_pos_site_id
 _symmetry_equiv_pos_as_xyz
  1  'x, y, z'
loop_
 _atom_site_type_symbol
 _atom_site_label
 _atom_site_symmetry_multiplicity
 _atom_site_fract_x
 _atom_site_fract_y
 _atom_site_fract_z
 _atom_site_occupancy
  Na  Na0  1  0.000000  0.000000  0.000000  1
  Li  Li1  1  0.719270  0.719270  0.000000  1
  Li  Li2  1  0.669611  0.500000  0.169611  1
  Li  Li3  1  0.330389  0.500000  0.830389  1
  Li  Li4  1  0.280730  0.280730  0.000000  1
  Cu  Cu5  1  0.905950  0.172721  0.733230  1
  Cu  Cu6  1  0.560509  0.827279  0.733230  1
  Cu  Cu7  1  0.439491  0.172721  0.266770  1
  Cu  Cu8  1  0.094050  0.827279  0.266770  1
  P  P9  1  0.970050  0.345220  0.624829  1
  P  P10  1  0.720390  0.345220  0.375171  1
  P  P11  1  0.584898  0.084898  0.500000  1
  P  P12  1  0.415102  0.915102  0.500000  1
  P  P13  1  0.279610  0.654780  0.624829  1
  P  P14  1  0.029950  0.654780  0.375171  1
