# generated using pymatgen
data_Nd3Dy5(AgIr)2
_symmetry_space_group_name_H-M   'P 1'
_cell_length_a   9.64736014
_cell_length_b   9.64736046
_cell_length_c   9.64736000
_cell_angle_alpha   60.00000158
_cell_angle_beta   60.00000048
_cell_angle_gamma   60.00000142
_symmetry_Int_Tables_number   1
_chemical_formula_structural   Nd3Dy5(AgIr)2
_chemical_formula_sum   'Nd6 Dy10 Ag4 Ir4'
_cell_volume   634.90755556
_cell_formula_units_Z   2
loop_
 _symmetry_equiv_pos_site_id
 _symmetry_equiv_pos_as_xyz
  1  'x, y, z'
loop_
 _atom_site_type_symbol
 _atom_site_label
 _atom_site_symmetry_multiplicity
 _atom_site_fract_x
 _atom_site_fract_y
 _atom_site_fract_z
 _atom_site_occupancy
  Nd  Nd0  1  0.939506  0.560494  0.560494  1
  Nd  Nd1  1  0.560494  0.939506  0.939506  1
  Nd  Nd2  1  0.560494  0.939506  0.560494  1
  Nd  Nd3  1  0.939506  0.560494  0.939506  1
  Nd  Nd4  1  0.560494  0.560494  0.939506  1
  Nd  Nd5  1  0.939506  0.939506  0.560494  1
  Dy  Dy6  1  0.349886  0.349886  0.349886  1
  Dy  Dy7  1  0.349886  0.349886  0.950340  1
  Dy  Dy8  1  0.349886  0.950340  0.349886  1
  Dy  Dy9  1  0.950340  0.349886  0.349886  1
  Dy  Dy10  1  0.812722  0.187278  0.187278  1
  Dy  Dy11  1  0.187278  0.812722  0.812722  1
  Dy  Dy12  1  0.187278  0.812722  0.187278  1
  Dy  Dy13  1  0.812722  0.187278  0.812722  1
  Dy  Dy14  1  0.187278  0.187278  0.812722  1
  Dy  Dy15  1  0.812722  0.812722  0.187278  1
  Ag  Ag16  1  0.579878  0.579878  0.579878  1
  Ag  Ag17  1  0.579878  0.579878  0.260364  1
  Ag  Ag18  1  0.579878  0.260364  0.579878  1
  Ag  Ag19  1  0.260364  0.579878  0.579878  1
  Ir  Ir20  1  0.142005  0.142005  0.142005  1
  Ir  Ir21  1  0.142005  0.142005  0.573985  1
  Ir  Ir22  1  0.142005  0.573985  0.142005  1
  Ir  Ir23  1  0.573985  0.142005  0.142005  1
