# generated using pymatgen
data_Ga3Si13Ir12
_symmetry_space_group_name_H-M   'P 1'
_cell_length_a   3.66185900
_cell_length_b   5.93854239
_cell_length_c   19.29651526
_cell_angle_alpha   89.95847343
_cell_angle_beta   90.00000000
_cell_angle_gamma   90.00000000
_symmetry_Int_Tables_number   1
_chemical_formula_structural   Ga3Si13Ir12
_chemical_formula_sum   'Ga3 Si13 Ir12'
_cell_volume   419.62393494
_cell_formula_units_Z   1
loop_
 _symmetry_equiv_pos_site_id
 _symmetry_equiv_pos_as_xyz
  1  'x, y, z'
loop_
 _atom_site_type_symbol
 _atom_site_label
 _atom_site_symmetry_multiplicity
 _atom_site_fract_x
 _atom_site_fract_y
 _atom_site_fract_z
 _atom_site_occupancy
  Ga  Ga0  1  0.250000  0.979749  0.451516  1
  Ga  Ga1  1  0.750000  0.020427  0.548415  1
  Ga  Ga2  1  0.750000  0.476420  0.049407  1
  Si  Si3  1  0.250000  0.523898  0.950532  1
  Si  Si4  1  0.250000  0.078506  0.909815  1
  Si  Si5  1  0.750000  0.920439  0.089388  1
  Si  Si6  1  0.750000  0.579422  0.589662  1
  Si  Si7  1  0.250000  0.420338  0.410493  1
  Si  Si8  1  0.250000  0.721890  0.269337  1
  Si  Si9  1  0.750000  0.278103  0.730280  1
  Si  Si10  1  0.750000  0.221002  0.230425  1
  Si  Si11  1  0.250000  0.782086  0.769113  1
  Si  Si12  1  0.250000  0.386225  0.142606  1
  Si  Si13  1  0.750000  0.616844  0.857066  1
  Si  Si14  1  0.750000  0.885479  0.357646  1
  Si  Si15  1  0.250000  0.114290  0.642194  1
  Ir  Ir16  1  0.250000  0.395270  0.827153  1
  Ir  Ir17  1  0.750000  0.609380  0.176819  1
  Ir  Ir18  1  0.750000  0.889579  0.677074  1
  Ir  Ir19  1  0.250000  0.109070  0.322837  1
  Ir  Ir20  1  0.250000  0.495736  0.679021  1
  Ir  Ir21  1  0.750000  0.502470  0.322760  1
  Ir  Ir22  1  0.750000  0.000114  0.823677  1
  Ir  Ir23  1  0.250000  0.003419  0.175593  1
  Ir  Ir24  1  0.250000  0.334256  0.535240  1
  Ir  Ir25  1  0.750000  0.666592  0.465289  1
  Ir  Ir26  1  0.750000  0.811808  0.965624  1
  Ir  Ir27  1  0.250000  0.177189  0.031021  1
