# generated using pymatgen
data_La16MgIn3Rh4
_symmetry_space_group_name_H-M   'P 1'
_cell_length_a   10.12463527
_cell_length_b   10.14928232
_cell_length_c   10.14887203
_cell_angle_alpha   60.00912016
_cell_angle_beta   59.92792360
_cell_angle_gamma   59.92601427
_symmetry_Int_Tables_number   1
_chemical_formula_structural   La16MgIn3Rh4
_chemical_formula_sum   'La16 Mg1 In3 Rh4'
_cell_volume   736.65997300
_cell_formula_units_Z   1
loop_
 _symmetry_equiv_pos_site_id
 _symmetry_equiv_pos_as_xyz
  1  'x, y, z'
loop_
 _atom_site_type_symbol
 _atom_site_label
 _atom_site_symmetry_multiplicity
 _atom_site_fract_x
 _atom_site_fract_y
 _atom_site_fract_z
 _atom_site_occupancy
  La  La0  1  0.348761  0.346626  0.346580  1
  La  La1  1  0.348737  0.346556  0.958065  1
  La  La2  1  0.348719  0.958086  0.346560  1
  La  La3  1  0.957453  0.347483  0.347489  1
  La  La4  1  0.807103  0.192791  0.192776  1
  La  La5  1  0.189379  0.810315  0.810357  1
  La  La6  1  0.189394  0.810395  0.189915  1
  La  La7  1  0.806991  0.192808  0.807424  1
  La  La8  1  0.189398  0.189902  0.810390  1
  La  La9  1  0.807023  0.807416  0.192773  1
  La  La10  1  0.935485  0.563077  0.563082  1
  La  La11  1  0.562945  0.937443  0.937454  1
  La  La12  1  0.562922  0.937481  0.562140  1
  La  La13  1  0.935472  0.563085  0.938350  1
  La  La14  1  0.562911  0.562158  0.937484  1
  La  La15  1  0.935484  0.938343  0.563056  1
  Mg  Mg16  1  0.274432  0.575185  0.575195  1
  In  In17  1  0.578727  0.579513  0.579527  1
  In  In18  1  0.578771  0.579540  0.262172  1
  In  In19  1  0.578762  0.262171  0.579542  1
  Rh  Rh20  1  0.141735  0.140526  0.140551  1
  Rh  Rh21  1  0.141724  0.140534  0.577220  1
  Rh  Rh22  1  0.141718  0.577220  0.140537  1
  Rh  Rh23  1  0.575954  0.141347  0.141363  1
