# generated using pymatgen
data_La11In9Pd4
_symmetry_space_group_name_H-M   'P 1'
_cell_length_a   13.74439305
_cell_length_b   13.74412113
_cell_length_c   3.90225800
_cell_angle_alpha   90.00000000
_cell_angle_beta   90.00000000
_cell_angle_gamma   111.62427071
_symmetry_Int_Tables_number   1
_chemical_formula_structural   La11In9Pd4
_chemical_formula_sum   'La11 In9 Pd4'
_cell_volume   685.27390630
_cell_formula_units_Z   1
loop_
 _symmetry_equiv_pos_site_id
 _symmetry_equiv_pos_as_xyz
  1  'x, y, z'
loop_
 _atom_site_type_symbol
 _atom_site_label
 _atom_site_symmetry_multiplicity
 _atom_site_fract_x
 _atom_site_fract_y
 _atom_site_fract_z
 _atom_site_occupancy
  La  La0  1  0.419380  0.069400  0.000000  1
  La  La1  1  0.580620  0.930600  0.000000  1
  La  La2  1  0.069410  0.419383  0.000000  1
  La  La3  1  0.930590  0.580617  0.000000  1
  La  La4  1  0.159347  0.840654  0.000000  1
  La  La5  1  0.840653  0.159346  0.000000  1
  La  La6  1  0.370726  0.629266  0.000000  1
  La  La7  1  0.629274  0.370734  0.000000  1
  La  La8  1  0.308329  0.308335  0.000000  1
  La  La9  1  0.691671  0.691665  0.000000  1
  La  La10  1  0.000000  0.000000  0.000000  1
  In  In11  1  0.365839  0.838720  0.500000  1
  In  In12  1  0.634161  0.161280  0.500000  1
  In  In13  1  0.838748  0.365844  0.500000  1
  In  In14  1  0.161252  0.634156  0.500000  1
  In  In15  1  0.219917  0.077269  0.500000  1
  In  In16  1  0.780083  0.922731  0.500000  1
  In  In17  1  0.077244  0.219900  0.500000  1
  In  In18  1  0.922756  0.780100  0.500000  1
  In  In19  1  0.500000  0.500000  0.500000  1
  Pd  Pd20  1  0.449771  0.247452  0.500000  1
  Pd  Pd21  1  0.550229  0.752548  0.500000  1
  Pd  Pd22  1  0.247445  0.449773  0.500000  1
  Pd  Pd23  1  0.752555  0.550227  0.500000  1
