# generated using pymatgen
data_Pr3BiRu4F28
_symmetry_space_group_name_H-M   'P 1'
_cell_length_a   5.69321371
_cell_length_b   9.26154894
_cell_length_c   12.30140734
_cell_angle_alpha   62.70504665
_cell_angle_beta   90.03008257
_cell_angle_gamma   89.92114109
_symmetry_Int_Tables_number   1
_chemical_formula_structural   Pr3BiRu4F28
_chemical_formula_sum   'Pr3 Bi1 Ru4 F28'
_cell_volume   576.40747761
_cell_formula_units_Z   1
loop_
 _symmetry_equiv_pos_site_id
 _symmetry_equiv_pos_as_xyz
  1  'x, y, z'
loop_
 _atom_site_type_symbol
 _atom_site_label
 _atom_site_symmetry_multiplicity
 _atom_site_fract_x
 _atom_site_fract_y
 _atom_site_fract_z
 _atom_site_occupancy
  Pr  Pr0  1  0.258581  0.192905  0.732709  1
  Pr  Pr1  1  0.241215  0.191680  0.232126  1
  Pr  Pr2  1  0.741712  0.807540  0.267991  1
  Bi  Bi3  1  0.763381  0.813486  0.767272  1
  Ru  Ru4  1  0.753765  0.272689  0.956734  1
  Ru  Ru5  1  0.255304  0.727401  0.544943  1
  Ru  Ru6  1  0.245627  0.727606  0.040969  1
  Ru  Ru7  1  0.746902  0.273290  0.457339  1
  F  F8  1  0.441176  0.706704  0.917152  1
  F  F9  1  0.945055  0.293292  0.580939  1
  F  F10  1  0.559303  0.292149  0.081432  1
  F  F11  1  0.060083  0.706569  0.420782  1
  F  F12  1  0.461430  0.285123  0.544775  1
  F  F13  1  0.952478  0.717603  0.955735  1
  F  F14  1  0.542009  0.714183  0.458926  1
  F  F15  1  0.041508  0.285126  0.041841  1
  F  F16  1  0.760257  0.502260  0.861868  1
  F  F17  1  0.263442  0.494779  0.639935  1
  F  F18  1  0.236444  0.495646  0.134482  1
  F  F19  1  0.738521  0.505363  0.363003  1
  F  F20  1  0.758242  0.041171  0.048332  1
  F  F21  1  0.257940  0.958442  0.452388  1
  F  F22  1  0.242252  0.959147  0.950229  1
  F  F23  1  0.743525  0.041528  0.548030  1
  F  F24  1  0.970406  0.733526  0.633204  1
  F  F25  1  0.470318  0.265037  0.867236  1
  F  F26  1  0.028223  0.268044  0.366315  1
  F  F27  1  0.526984  0.732167  0.132072  1
  F  F28  1  0.051688  0.746739  0.166984  1
  F  F29  1  0.550928  0.254679  0.332101  1
  F  F30  1  0.945681  0.252282  0.830481  1
  F  F31  1  0.446329  0.748380  0.670412  1
  F  F32  1  0.411893  0.968920  0.230753  1
  F  F33  1  0.912607  0.029803  0.269322  1
  F  F34  1  0.593749  0.025659  0.770473  1
  F  F35  1  0.081043  0.969082  0.730717  1
