# generated using pymatgen
data_Er8Ta12Si15P
_symmetry_space_group_name_H-M   'P 1'
_cell_length_a   6.99529044
_cell_length_b   6.99887995
_cell_length_c   12.93642551
_cell_angle_alpha   89.92307225
_cell_angle_beta   89.99548684
_cell_angle_gamma   90.02130161
_symmetry_Int_Tables_number   1
_chemical_formula_structural   Er8Ta12Si15P
_chemical_formula_sum   'Er8 Ta12 Si15 P1'
_cell_volume   633.35640153
_cell_formula_units_Z   1
loop_
 _symmetry_equiv_pos_site_id
 _symmetry_equiv_pos_as_xyz
  1  'x, y, z'
loop_
 _atom_site_type_symbol
 _atom_site_label
 _atom_site_symmetry_multiplicity
 _atom_site_fract_x
 _atom_site_fract_y
 _atom_site_fract_z
 _atom_site_occupancy
  Er  Er0  1  0.340354  0.002126  0.469230  1
  Er  Er1  1  0.495134  0.844646  0.718397  1
  Er  Er2  1  0.501131  0.158428  0.218690  1
  Er  Er3  1  0.841002  0.497282  0.281560  1
  Er  Er4  1  0.158805  0.498239  0.780187  1
  Er  Er5  1  0.660250  0.997626  0.968918  1
  Er  Er6  1  0.002006  0.340381  0.532617  1
  Er  Er7  1  0.998489  0.659085  0.031105  1
  Ta  Ta8  1  0.328933  0.329083  0.999718  1
  Ta  Ta9  1  0.171463  0.828804  0.249855  1
  Ta  Ta10  1  0.829840  0.171696  0.749473  1
  Ta  Ta11  1  0.670433  0.670544  0.500154  1
  Ta  Ta12  1  0.155268  0.009223  0.871261  1
  Ta  Ta13  1  0.492942  0.653292  0.123809  1
  Ta  Ta14  1  0.503798  0.343653  0.624711  1
  Ta  Ta15  1  0.653551  0.496089  0.876362  1
  Ta  Ta16  1  0.346175  0.505747  0.376309  1
  Ta  Ta17  1  0.847254  0.993780  0.374575  1
  Ta  Ta18  1  0.007005  0.152496  0.125996  1
  Ta  Ta19  1  0.996087  0.848541  0.626363  1
  Si  Si20  1  0.364389  0.704190  0.930618  1
  Si  Si21  1  0.634237  0.295361  0.431896  1
  Si  Si22  1  0.703942  0.365537  0.068644  1
  Si  Si23  1  0.296731  0.634513  0.568551  1
  Si  Si24  1  0.796180  0.864968  0.181677  1
  Si  Si25  1  0.134909  0.203243  0.318771  1
  Si  Si26  1  0.865917  0.796158  0.818108  1
  Si  Si27  1  0.295718  0.955915  0.063099  1
  Si  Si28  1  0.544294  0.795111  0.314018  1
  Si  Si29  1  0.461223  0.206247  0.816315  1
  Si  Si30  1  0.793428  0.545851  0.685588  1
  Si  Si31  1  0.204584  0.455231  0.186209  1
  Si  Si32  1  0.704928  0.043670  0.563731  1
  Si  Si33  1  0.955703  0.295335  0.936376  1
  Si  Si34  1  0.043796  0.703920  0.436360  1
  P  P35  1  0.200098  0.133992  0.680749  1
