# generated using pymatgen
data_LaPr2(ZnPt)4
_symmetry_space_group_name_H-M   'P 1'
_cell_length_a   8.41585328
_cell_length_b   8.41585349
_cell_length_c   8.41585337
_cell_angle_alpha   151.31879759
_cell_angle_beta   126.96836546
_cell_angle_gamma   61.40093173
_symmetry_Int_Tables_number   1
_chemical_formula_structural   LaPr2(ZnPt)4
_chemical_formula_sum   'La1 Pr2 Zn4 Pt4'
_cell_volume   226.69650957
_cell_formula_units_Z   1
loop_
 _symmetry_equiv_pos_site_id
 _symmetry_equiv_pos_as_xyz
  1  'x, y, z'
loop_
 _atom_site_type_symbol
 _atom_site_label
 _atom_site_symmetry_multiplicity
 _atom_site_fract_x
 _atom_site_fract_y
 _atom_site_fract_z
 _atom_site_occupancy
  La  La0  1  0.500000  0.000000  0.500000  1
  Pr  Pr1  1  0.872321  0.872321  0.000000  1
  Pr  Pr2  1  0.127679  0.127679  0.000000  1
  Zn  Zn3  1  0.479868  0.673722  0.806145  1
  Zn  Zn4  1  0.867577  0.673722  0.193855  1
  Zn  Zn5  1  0.132423  0.326278  0.806145  1
  Zn  Zn6  1  0.520132  0.326278  0.193855  1
  Pt  Pt7  1  0.282396  0.782396  0.500000  1
  Pt  Pt8  1  0.717604  0.217604  0.500000  1
  Pt  Pt9  1  0.801493  0.500000  0.301493  1
  Pt  Pt10  1  0.198507  0.500000  0.698507  1
