# generated using pymatgen
data_HfNb(NiH3)2
_symmetry_space_group_name_H-M   'P 1'
_cell_length_a   5.37320927
_cell_length_b   5.37320961
_cell_length_c   4.23440300
_cell_angle_alpha   90.00000000
_cell_angle_beta   90.00000000
_cell_angle_gamma   142.19925931
_symmetry_Int_Tables_number   1
_chemical_formula_structural   HfNb(NiH3)2
_chemical_formula_sum   'Hf1 Nb1 Ni2 H6'
_cell_volume   74.93100958
_cell_formula_units_Z   1
loop_
 _symmetry_equiv_pos_site_id
 _symmetry_equiv_pos_as_xyz
  1  'x, y, z'
loop_
 _atom_site_type_symbol
 _atom_site_label
 _atom_site_symmetry_multiplicity
 _atom_site_fract_x
 _atom_site_fract_y
 _atom_site_fract_z
 _atom_site_occupancy
  Hf  Hf0  1  0.139891  0.860111  0.250000  1
  Nb  Nb1  1  0.860717  0.139285  0.750000  1
  Ni  Ni2  1  0.428871  0.571131  0.250000  1
  Ni  Ni3  1  0.568193  0.431809  0.750000  1
  H  H4  1  0.692461  0.307541  0.000591  1
  H  H5  1  0.925112  0.074890  0.250000  1
  H  H6  1  0.692461  0.307541  0.499409  1
  H  H7  1  0.313938  0.686064  0.519931  1
  H  H8  1  0.064427  0.935575  0.750000  1
  H  H9  1  0.313938  0.686064  0.980068  1
