# generated using pymatgen
data_Mn8NbRu2W
_symmetry_space_group_name_H-M   'P 1'
_cell_length_a   4.68612600
_cell_length_b   4.68612499
_cell_length_c   7.75312600
_cell_angle_alpha   90.00000000
_cell_angle_beta   90.00000000
_cell_angle_gamma   120.00000710
_symmetry_Int_Tables_number   1
_chemical_formula_structural   Mn8NbRu2W
_chemical_formula_sum   'Mn8 Nb1 Ru2 W1'
_cell_volume   147.44677322
_cell_formula_units_Z   1
loop_
 _symmetry_equiv_pos_site_id
 _symmetry_equiv_pos_as_xyz
  1  'x, y, z'
loop_
 _atom_site_type_symbol
 _atom_site_label
 _atom_site_symmetry_multiplicity
 _atom_site_fract_x
 _atom_site_fract_y
 _atom_site_fract_z
 _atom_site_occupancy
  Mn  Mn0  1  0.173291  0.346583  0.748130  1
  Mn  Mn1  1  0.825889  0.174111  0.252380  1
  Mn  Mn2  1  0.348223  0.174111  0.252380  1
  Mn  Mn3  1  0.653417  0.826709  0.748130  1
  Mn  Mn4  1  0.000000  0.000000  0.000891  1
  Mn  Mn5  1  0.000000  0.000000  0.500109  1
  Mn  Mn6  1  0.825889  0.651777  0.252380  1
  Mn  Mn7  1  0.173291  0.826709  0.748130  1
  Nb  Nb8  1  0.333333  0.666667  0.061167  1
  Ru  Ru9  1  0.666667  0.333333  0.922704  1
  Ru  Ru10  1  0.666667  0.333333  0.573752  1
  W  W11  1  0.333333  0.666667  0.439845  1
