# generated using pymatgen
data_RbNa3ZrO4
_symmetry_space_group_name_H-M   'P 1'
_cell_length_a   6.74802425
_cell_length_b   8.68622806
_cell_length_c   11.53087582
_cell_angle_alpha   83.33310250
_cell_angle_beta   76.53335222
_cell_angle_gamma   79.73511196
_symmetry_Int_Tables_number   1
_chemical_formula_structural   RbNa3ZrO4
_chemical_formula_sum   'Rb4 Na12 Zr4 O16'
_cell_volume   644.80932694
_cell_formula_units_Z   4
loop_
 _symmetry_equiv_pos_site_id
 _symmetry_equiv_pos_as_xyz
  1  'x, y, z'
loop_
 _atom_site_type_symbol
 _atom_site_label
 _atom_site_symmetry_multiplicity
 _atom_site_fract_x
 _atom_site_fract_y
 _atom_site_fract_z
 _atom_site_occupancy
  Rb  Rb0  1  0.989455  0.619040  0.119059  1
  Rb  Rb1  1  0.010545  0.380960  0.880941  1
  Rb  Rb2  1  0.954878  0.859368  0.372992  1
  Rb  Rb3  1  0.045122  0.140632  0.627008  1
  Na  Na4  1  0.429575  0.040874  0.378394  1
  Na  Na5  1  0.570425  0.959126  0.621606  1
  Na  Na6  1  0.821580  0.051412  0.105422  1
  Na  Na7  1  0.178420  0.948588  0.894578  1
  Na  Na8  1  0.540705  0.426748  0.123585  1
  Na  Na9  1  0.459295  0.573252  0.876415  1
  Na  Na10  1  0.190007  0.446359  0.398509  1
  Na  Na11  1  0.809993  0.553641  0.601491  1
  Na  Na12  1  0.196260  0.177721  0.144061  1
  Na  Na13  1  0.803740  0.822279  0.855939  1
  Na  Na14  1  0.523814  0.676865  0.387726  1
  Na  Na15  1  0.476186  0.323135  0.612274  1
  Zr  Zr16  1  0.834031  0.291090  0.352452  1
  Zr  Zr17  1  0.165969  0.708910  0.647548  1
  Zr  Zr18  1  0.436767  0.789828  0.135994  1
  Zr  Zr19  1  0.563233  0.210172  0.864006  1
  O  O20  1  0.123462  0.195897  0.358238  1
  O  O21  1  0.876538  0.804103  0.641762  1
  O  O22  1  0.382808  0.328253  0.999336  1
  O  O23  1  0.617192  0.671747  0.000664  1
  O  O24  1  0.330943  0.619509  0.252764  1
  O  O25  1  0.669057  0.380491  0.747236  1
  O  O26  1  0.810556  0.505334  0.407808  1
  O  O27  1  0.189444  0.494666  0.592192  1
  O  O28  1  0.185056  0.929205  0.097585  1
  O  O29  1  0.814944  0.070795  0.902415  1
  O  O30  1  0.830319  0.294540  0.178697  1
  O  O31  1  0.169681  0.705460  0.821303  1
  O  O32  1  0.605869  0.884661  0.221981  1
  O  O33  1  0.394131  0.115339  0.778019  1
  O  O34  1  0.639951  0.160898  0.461591  1
  O  O35  1  0.360049  0.839102  0.538409  1
