# generated using pymatgen
data_PuTh5(Ni3Sb4)2
_symmetry_space_group_name_H-M   'P 1'
_cell_length_a   8.31755923
_cell_length_b   8.31756012
_cell_length_c   8.31755993
_cell_angle_alpha   109.41555844
_cell_angle_beta   109.58261521
_cell_angle_gamma   109.41554998
_symmetry_Int_Tables_number   1
_chemical_formula_structural   PuTh5(Ni3Sb4)2
_chemical_formula_sum   'Pu1 Th5 Ni6 Sb8'
_cell_volume   442.96013633
_cell_formula_units_Z   1
loop_
 _symmetry_equiv_pos_site_id
 _symmetry_equiv_pos_as_xyz
  1  'x, y, z'
loop_
 _atom_site_type_symbol
 _atom_site_label
 _atom_site_symmetry_multiplicity
 _atom_site_fract_x
 _atom_site_fract_y
 _atom_site_fract_z
 _atom_site_occupancy
  Pu  Pu0  1  0.375000  0.250000  0.625000  1
  Th  Th1  1  0.748856  0.874579  0.124303  1
  Th  Th2  1  0.249724  0.625421  0.374277  1
  Th  Th3  1  0.625723  0.375447  0.251144  1
  Th  Th4  1  0.875697  0.124553  0.750276  1
  Th  Th5  1  0.125000  0.750000  0.875000  1
  Ni  Ni6  1  0.122966  0.873450  0.248316  1
  Ni  Ni7  1  0.625000  0.750000  0.375000  1
  Ni  Ni8  1  0.875000  0.250000  0.125000  1
  Ni  Ni9  1  0.250484  0.125349  0.877034  1
  Ni  Ni10  1  0.751684  0.374651  0.625134  1
  Ni  Ni11  1  0.374866  0.626550  0.749516  1
  Sb  Sb12  1  0.002983  0.337858  0.501167  1
  Sb  Sb13  1  0.834875  0.498183  0.997017  1
  Sb  Sb14  1  0.498833  0.001817  0.836692  1
  Sb  Sb15  1  0.659293  0.658750  0.661648  1
  Sb  Sb16  1  0.163308  0.162142  0.165125  1
  Sb  Sb17  1  0.338352  0.497645  0.997102  1
  Sb  Sb18  1  0.499457  0.002355  0.340707  1
  Sb  Sb19  1  0.002898  0.841250  0.500543  1
