# generated using pymatgen
data_La5Co3(P3Ru4)4
_symmetry_space_group_name_H-M   'P 1'
_cell_length_a   12.67481000
_cell_length_b   12.67481098
_cell_length_c   3.94855900
_cell_angle_alpha   90.00000000
_cell_angle_beta   90.00000000
_cell_angle_gamma   120.00000267
_symmetry_Int_Tables_number   1
_chemical_formula_structural   La5Co3(P3Ru4)4
_chemical_formula_sum   'La5 Co3 P12 Ru16'
_cell_volume   549.35388589
_cell_formula_units_Z   1
loop_
 _symmetry_equiv_pos_site_id
 _symmetry_equiv_pos_as_xyz
  1  'x, y, z'
loop_
 _atom_site_type_symbol
 _atom_site_label
 _atom_site_symmetry_multiplicity
 _atom_site_fract_x
 _atom_site_fract_y
 _atom_site_fract_z
 _atom_site_occupancy
  La  La0  1  0.182374  0.182374  0.500000  1
  La  La1  1  0.817626  0.000000  0.500000  1
  La  La2  1  0.000000  0.817626  0.500000  1
  La  La3  1  0.333333  0.666667  0.000000  1
  La  La4  1  0.666667  0.333333  0.000000  1
  Co  Co5  1  0.713443  0.713443  0.500000  1
  Co  Co6  1  0.286557  0.000000  0.500000  1
  Co  Co7  1  0.000000  0.286557  0.500000  1
  P  P8  1  0.809372  0.809372  0.000000  1
  P  P9  1  0.190628  0.000000  0.000000  1
  P  P10  1  0.000000  0.190628  0.000000  1
  P  P11  1  0.162194  0.472748  0.500000  1
  P  P12  1  0.527252  0.689445  0.500000  1
  P  P13  1  0.310555  0.837806  0.500000  1
  P  P14  1  0.689445  0.527252  0.500000  1
  P  P15  1  0.837806  0.310555  0.500000  1
  P  P16  1  0.472748  0.162194  0.500000  1
  P  P17  1  0.375328  0.375328  0.000000  1
  P  P18  1  0.624672  0.000000  0.000000  1
  P  P19  1  0.000000  0.624672  0.000000  1
  Ru  Ru20  1  0.556675  0.556675  0.000000  1
  Ru  Ru21  1  0.443325  0.000000  0.000000  1
  Ru  Ru22  1  0.000000  0.443325  0.000000  1
  Ru  Ru23  1  0.179508  0.376657  0.000000  1
  Ru  Ru24  1  0.623343  0.802851  0.000000  1
  Ru  Ru25  1  0.197149  0.820492  0.000000  1
  Ru  Ru26  1  0.802851  0.623343  0.000000  1
  Ru  Ru27  1  0.820492  0.197149  0.000000  1
  Ru  Ru28  1  0.376657  0.179508  0.000000  1
  Ru  Ru29  1  0.362617  0.487341  0.500000  1
  Ru  Ru30  1  0.512659  0.875277  0.500000  1
  Ru  Ru31  1  0.124723  0.637383  0.500000  1
  Ru  Ru32  1  0.875277  0.512659  0.500000  1
  Ru  Ru33  1  0.637383  0.124723  0.500000  1
  Ru  Ru34  1  0.487341  0.362617  0.500000  1
  Ru  Ru35  1  0.000000  0.000000  0.000000  1
