# generated using pymatgen
data_La5Ce3Te8
_symmetry_space_group_name_H-M   'P 1'
_cell_length_a   9.12809848
_cell_length_b   9.12809831
_cell_length_c   9.18831300
_cell_angle_alpha   60.21654259
_cell_angle_beta   60.21654318
_cell_angle_gamma   59.99999877
_symmetry_Int_Tables_number   1
_chemical_formula_structural   La5Ce3Te8
_chemical_formula_sum   'La5 Ce3 Te8'
_cell_volume   543.11918349
_cell_formula_units_Z   1
loop_
 _symmetry_equiv_pos_site_id
 _symmetry_equiv_pos_as_xyz
  1  'x, y, z'
loop_
 _atom_site_type_symbol
 _atom_site_label
 _atom_site_symmetry_multiplicity
 _atom_site_fract_x
 _atom_site_fract_y
 _atom_site_fract_z
 _atom_site_occupancy
  La  La0  1  0.125000  0.125000  0.625000  1
  La  La1  1  0.625000  0.125000  0.625000  1
  La  La2  1  0.625000  0.625000  0.625000  1
  La  La3  1  0.125000  0.625000  0.625000  1
  La  La4  1  0.625000  0.625000  0.125000  1
  Ce  Ce5  1  0.125000  0.625000  0.125000  1
  Ce  Ce6  1  0.625000  0.125000  0.125000  1
  Ce  Ce7  1  0.125000  0.125000  0.125000  1
  Te  Te8  1  0.375036  0.878036  0.371890  1
  Te  Te9  1  0.874964  0.371964  0.878110  1
  Te  Te10  1  0.876370  0.876370  0.370892  1
  Te  Te11  1  0.874964  0.874964  0.878110  1
  Te  Te12  1  0.878036  0.375036  0.371890  1
  Te  Te13  1  0.373630  0.373630  0.879108  1
  Te  Te14  1  0.375036  0.375036  0.371890  1
  Te  Te15  1  0.371964  0.874964  0.878110  1
