# generated using pymatgen
data_Ho10Tl4In4Pd3Rh
_symmetry_space_group_name_H-M   'P 1'
_cell_length_a   3.60652800
_cell_length_b   8.18335500
_cell_length_c   18.35285114
_cell_angle_alpha   89.98094728
_cell_angle_beta   90.00000000
_cell_angle_gamma   90.00000000
_symmetry_Int_Tables_number   1
_chemical_formula_structural   Ho10Tl4In4Pd3Rh
_chemical_formula_sum   'Ho10 Tl4 In4 Pd3 Rh1'
_cell_volume   541.65682280
_cell_formula_units_Z   1
loop_
 _symmetry_equiv_pos_site_id
 _symmetry_equiv_pos_as_xyz
  1  'x, y, z'
loop_
 _atom_site_type_symbol
 _atom_site_label
 _atom_site_symmetry_multiplicity
 _atom_site_fract_x
 _atom_site_fract_y
 _atom_site_fract_z
 _atom_site_occupancy
  Ho  Ho0  1  0.000000  0.500162  0.499912  1
  Ho  Ho1  1  0.000000  0.999795  0.000358  1
  Ho  Ho2  1  0.000000  0.731338  0.278001  1
  Ho  Ho3  1  0.000000  0.260676  0.719755  1
  Ho  Ho4  1  0.000000  0.760149  0.779866  1
  Ho  Ho5  1  0.000000  0.252672  0.219946  1
  Ho  Ho6  1  0.000000  0.613281  0.088434  1
  Ho  Ho7  1  0.000000  0.383322  0.915036  1
  Ho  Ho8  1  0.000000  0.884045  0.584792  1
  Ho  Ho9  1  0.000000  0.115854  0.413901  1
  Tl  Tl10  1  0.500000  0.709919  0.933634  1
  Tl  Tl11  1  0.500000  0.289583  0.067883  1
  Tl  Tl12  1  0.500000  0.790272  0.432494  1
  Tl  Tl13  1  0.500000  0.209985  0.566618  1
  In  In14  1  0.500000  0.582029  0.650088  1
  In  In15  1  0.500000  0.419218  0.349770  1
  In  In16  1  0.500000  0.918444  0.150718  1
  In  In17  1  0.500000  0.081969  0.849782  1
  Pd  Pd18  1  0.500000  0.473567  0.802949  1
  Pd  Pd19  1  0.500000  0.973682  0.697248  1
  Pd  Pd20  1  0.500000  0.024918  0.302340  1
  Rh  Rh21  1  0.500000  0.525119  0.196474  1
