# generated using pymatgen
data_TbNdY6(CdPd)2
_symmetry_space_group_name_H-M   'P 1'
_cell_length_a   9.78178662
_cell_length_b   9.78178651
_cell_length_c   9.76116800
_cell_angle_alpha   60.06969579
_cell_angle_beta   60.06969616
_cell_angle_gamma   60.17386391
_symmetry_Int_Tables_number   1
_chemical_formula_structural   TbNdY6(CdPd)2
_chemical_formula_sum   'Tb2 Nd2 Y12 Cd4 Pd4'
_cell_volume   661.98548885
_cell_formula_units_Z   2
loop_
 _symmetry_equiv_pos_site_id
 _symmetry_equiv_pos_as_xyz
  1  'x, y, z'
loop_
 _atom_site_type_symbol
 _atom_site_label
 _atom_site_symmetry_multiplicity
 _atom_site_fract_x
 _atom_site_fract_y
 _atom_site_fract_z
 _atom_site_occupancy
  Tb  Tb0  1  0.356979  0.934374  0.354323  1
  Tb  Tb1  1  0.934374  0.356979  0.354323  1
  Nd  Nd2  1  0.354145  0.354145  0.352987  1
  Nd  Nd3  1  0.354145  0.354145  0.938723  1
  Y  Y4  1  0.812497  0.188439  0.188576  1
  Y  Y5  1  0.188439  0.812497  0.810488  1
  Y  Y6  1  0.188439  0.812497  0.188576  1
  Y  Y7  1  0.812497  0.188439  0.810488  1
  Y  Y8  1  0.188281  0.188281  0.811719  1
  Y  Y9  1  0.811160  0.811160  0.188840  1
  Y  Y10  1  0.934747  0.565739  0.565735  1
  Y  Y11  1  0.565739  0.934747  0.933780  1
  Y  Y12  1  0.565739  0.934747  0.565735  1
  Y  Y13  1  0.934747  0.565739  0.933780  1
  Y  Y14  1  0.566989  0.566989  0.933011  1
  Y  Y15  1  0.935988  0.935988  0.564012  1
  Cd  Cd16  1  0.583665  0.583665  0.580709  1
  Cd  Cd17  1  0.583665  0.583665  0.251962  1
  Cd  Cd18  1  0.584501  0.251417  0.582041  1
  Cd  Cd19  1  0.251417  0.584501  0.582041  1
  Pd  Pd20  1  0.141675  0.141675  0.151195  1
  Pd  Pd21  1  0.141675  0.141675  0.565452  1
  Pd  Pd22  1  0.137609  0.570887  0.145751  1
  Pd  Pd23  1  0.570887  0.137609  0.145751  1
