# generated using pymatgen
data_LiYb2ReN4
_symmetry_space_group_name_H-M   'P 1'
_cell_length_a   5.71258600
_cell_length_b   5.84972547
_cell_length_c   6.52112106
_cell_angle_alpha   73.63262992
_cell_angle_beta   90.00000000
_cell_angle_gamma   90.00000000
_symmetry_Int_Tables_number   1
_chemical_formula_structural   LiYb2ReN4
_chemical_formula_sum   'Li2 Yb4 Re2 N8'
_cell_volume   209.08553403
_cell_formula_units_Z   2
loop_
 _symmetry_equiv_pos_site_id
 _symmetry_equiv_pos_as_xyz
  1  'x, y, z'
loop_
 _atom_site_type_symbol
 _atom_site_label
 _atom_site_symmetry_multiplicity
 _atom_site_fract_x
 _atom_site_fract_y
 _atom_site_fract_z
 _atom_site_occupancy
  Li  Li0  1  0.750000  0.284795  0.310914  1
  Li  Li1  1  0.250000  0.715205  0.689086  1
  Yb  Yb2  1  0.250000  0.277876  0.052273  1
  Yb  Yb3  1  0.750000  0.722124  0.947727  1
  Yb  Yb4  1  0.750000  0.765131  0.432908  1
  Yb  Yb5  1  0.250000  0.234869  0.567092  1
  Re  Re6  1  0.250000  0.735570  0.195082  1
  Re  Re7  1  0.750000  0.264430  0.804918  1
  N  N8  1  0.500875  0.469317  0.751893  1
  N  N9  1  0.000875  0.530683  0.248107  1
  N  N10  1  0.499125  0.530683  0.248107  1
  N  N11  1  0.999125  0.469317  0.751893  1
  N  N12  1  0.750000  0.069119  0.627515  1
  N  N13  1  0.250000  0.930881  0.372485  1
  N  N14  1  0.750000  0.085534  0.084019  1
  N  N15  1  0.250000  0.914466  0.915981  1
