# generated using pymatgen
data_Sr3Hg3Pd2Au
_symmetry_space_group_name_H-M   'P 1'
_cell_length_a   7.95088600
_cell_length_b   7.95088664
_cell_length_c   4.29097300
_cell_angle_alpha   90.00000000
_cell_angle_beta   90.00000000
_cell_angle_gamma   119.99999733
_symmetry_Int_Tables_number   1
_chemical_formula_structural   Sr3Hg3Pd2Au
_chemical_formula_sum   'Sr3 Hg3 Pd2 Au1'
_cell_volume   234.91865921
_cell_formula_units_Z   1
loop_
 _symmetry_equiv_pos_site_id
 _symmetry_equiv_pos_as_xyz
  1  'x, y, z'
loop_
 _atom_site_type_symbol
 _atom_site_label
 _atom_site_symmetry_multiplicity
 _atom_site_fract_x
 _atom_site_fract_y
 _atom_site_fract_z
 _atom_site_occupancy
  Sr  Sr0  1  0.599747  0.006593  0.500000  1
  Sr  Sr1  1  0.406846  0.400253  0.500000  1
  Sr  Sr2  1  0.993407  0.593154  0.500000  1
  Hg  Hg3  1  0.753742  0.744252  0.000000  1
  Hg  Hg4  1  0.990510  0.246258  0.000000  1
  Hg  Hg5  1  0.255748  0.009490  0.000000  1
  Pd  Pd6  1  0.000000  0.000000  0.500000  1
  Pd  Pd7  1  0.666667  0.333333  0.000000  1
  Au  Au8  1  0.333333  0.666667  0.000000  1
