# generated using pymatgen
data_Dy8Er12Co4SnBi7
_symmetry_space_group_name_H-M   'P 1'
_cell_length_a   7.94839198
_cell_length_b   8.88768983
_cell_length_c   12.32971169
_cell_angle_alpha   90.05899274
_cell_angle_beta   90.10452727
_cell_angle_gamma   90.03395273
_symmetry_Int_Tables_number   1
_chemical_formula_structural   Dy8Er12Co4SnBi7
_chemical_formula_sum   'Dy8 Er12 Co4 Sn1 Bi7'
_cell_volume   871.00381642
_cell_formula_units_Z   1
loop_
 _symmetry_equiv_pos_site_id
 _symmetry_equiv_pos_as_xyz
  1  'x, y, z'
loop_
 _atom_site_type_symbol
 _atom_site_label
 _atom_site_symmetry_multiplicity
 _atom_site_fract_x
 _atom_site_fract_y
 _atom_site_fract_z
 _atom_site_occupancy
  Dy  Dy0  1  0.655571  0.753581  0.700821  1
  Dy  Dy1  1  0.348494  0.249056  0.302339  1
  Dy  Dy2  1  0.149656  0.246515  0.797659  1
  Dy  Dy3  1  0.848640  0.748759  0.199341  1
  Dy  Dy4  1  0.112514  0.753831  0.810538  1
  Dy  Dy5  1  0.883887  0.250179  0.186938  1
  Dy  Dy6  1  0.623188  0.246448  0.687839  1
  Dy  Dy7  1  0.383468  0.750590  0.312768  1
  Er  Er8  1  0.552529  0.749091  0.996859  1
  Er  Er9  1  0.445621  0.250877  0.002947  1
  Er  Er10  1  0.048191  0.246104  0.505390  1
  Er  Er11  1  0.948406  0.753607  0.498816  1
  Er  Er12  1  0.823984  0.462724  0.935807  1
  Er  Er13  1  0.174919  0.537422  0.063101  1
  Er  Er14  1  0.325790  0.535443  0.564487  1
  Er  Er15  1  0.174438  0.964486  0.063800  1
  Er  Er16  1  0.676076  0.465188  0.436600  1
  Er  Er17  1  0.825726  0.036157  0.931676  1
  Er  Er18  1  0.676344  0.035910  0.438787  1
  Er  Er19  1  0.321498  0.964817  0.565128  1
  Co  Co20  1  0.933559  0.750340  0.991973  1
  Co  Co21  1  0.065526  0.250558  0.006759  1
  Co  Co22  1  0.438241  0.250331  0.508465  1
  Co  Co23  1  0.563421  0.750163  0.493281  1
  Sn  Sn24  1  0.930167  0.006647  0.670835  1
  Bi  Bi25  1  0.070233  0.991706  0.326395  1
  Bi  Bi26  1  0.428172  0.991767  0.828155  1
  Bi  Bi27  1  0.071279  0.507726  0.328775  1
  Bi  Bi28  1  0.571276  0.008331  0.172211  1
  Bi  Bi29  1  0.929791  0.492698  0.672241  1
  Bi  Bi30  1  0.569594  0.491497  0.173391  1
  Bi  Bi31  1  0.429802  0.507453  0.825875  1
