# generated using pymatgen
data_B4Pd4PtRh3
_symmetry_space_group_name_H-M   'P 1'
_cell_length_a   6.72314593
_cell_length_b   6.12049850
_cell_length_c   5.53580138
_cell_angle_alpha   70.62406383
_cell_angle_beta   58.72708650
_cell_angle_gamma   50.60123036
_symmetry_Int_Tables_number   1
_chemical_formula_structural   B4Pd4PtRh3
_chemical_formula_sum   'B4 Pd4 Pt1 Rh3'
_cell_volume   150.44945035
_cell_formula_units_Z   1
loop_
 _symmetry_equiv_pos_site_id
 _symmetry_equiv_pos_as_xyz
  1  'x, y, z'
loop_
 _atom_site_type_symbol
 _atom_site_label
 _atom_site_symmetry_multiplicity
 _atom_site_fract_x
 _atom_site_fract_y
 _atom_site_fract_z
 _atom_site_occupancy
  B  B0  1  0.047546  0.995920  0.558951  1
  B  B1  1  0.678969  0.857400  0.207319  1
  B  B2  1  0.409450  0.559096  0.989280  1
  B  B3  1  0.262774  0.191956  0.856140  1
  Pd  Pd4  1  0.949461  0.786798  0.379444  1
  Pd  Pd5  1  0.463740  0.298270  0.366847  1
  Pd  Pd6  1  0.867536  0.366390  0.296653  1
  Pd  Pd7  1  0.884996  0.382727  0.778722  1
  Pt  Pt8  1  0.096479  0.638852  0.861024  1
  Rh  Rh9  1  0.386976  0.850606  0.155208  1
  Rh  Rh10  1  0.609385  0.154175  0.851112  1
  Rh  Rh11  1  0.397888  0.862610  0.644098  1
