# generated using pymatgen
data_Tb8Yb3Y(SiPd)12
_symmetry_space_group_name_H-M   'P 1'
_cell_length_a   4.34459000
_cell_length_b   7.45411031
_cell_length_c   21.23629700
_cell_angle_alpha   89.98346035
_cell_angle_beta   90.00000000
_cell_angle_gamma   90.00000000
_symmetry_Int_Tables_number   1
_chemical_formula_structural   Tb8Yb3Y(SiPd)12
_chemical_formula_sum   'Tb8 Yb3 Y1 Si12 Pd12'
_cell_volume   687.73857775
_cell_formula_units_Z   1
loop_
 _symmetry_equiv_pos_site_id
 _symmetry_equiv_pos_as_xyz
  1  'x, y, z'
loop_
 _atom_site_type_symbol
 _atom_site_label
 _atom_site_symmetry_multiplicity
 _atom_site_fract_x
 _atom_site_fract_y
 _atom_site_fract_z
 _atom_site_occupancy
  Tb  Tb0  1  0.250000  0.797343  0.832384  1
  Tb  Tb1  1  0.250000  0.798133  0.166241  1
  Tb  Tb2  1  0.750000  0.296843  0.333648  1
  Tb  Tb3  1  0.250000  0.703571  0.665763  1
  Tb  Tb4  1  0.250000  0.708594  0.001180  1
  Tb  Tb5  1  0.750000  0.291512  0.999920  1
  Tb  Tb6  1  0.750000  0.207007  0.499162  1
  Tb  Tb7  1  0.250000  0.793965  0.500265  1
  Yb  Yb8  1  0.250000  0.703657  0.332255  1
  Yb  Yb9  1  0.750000  0.294898  0.667536  1
  Yb  Yb10  1  0.750000  0.203239  0.167611  1
  Y  Y11  1  0.750000  0.204324  0.833433  1
  Si  Si12  1  0.250000  0.088430  0.065903  1
  Si  Si13  1  0.750000  0.910583  0.928524  1
  Si  Si14  1  0.750000  0.586911  0.434122  1
  Si  Si15  1  0.250000  0.412757  0.566096  1
  Si  Si16  1  0.250000  0.086582  0.274487  1
  Si  Si17  1  0.750000  0.911454  0.727804  1
  Si  Si18  1  0.750000  0.587089  0.225720  1
  Si  Si19  1  0.250000  0.414217  0.774119  1
  Si  Si20  1  0.250000  0.089417  0.395079  1
  Si  Si21  1  0.750000  0.910867  0.605730  1
  Si  Si22  1  0.750000  0.588849  0.104977  1
  Si  Si23  1  0.250000  0.410765  0.895456  1
  Pd  Pd24  1  0.250000  0.415483  0.236846  1
  Pd  Pd25  1  0.750000  0.582758  0.763794  1
  Pd  Pd26  1  0.750000  0.915565  0.263223  1
  Pd  Pd27  1  0.250000  0.085390  0.736703  1
  Pd  Pd28  1  0.250000  0.417665  0.436738  1
  Pd  Pd29  1  0.750000  0.582815  0.563222  1
  Pd  Pd30  1  0.750000  0.916828  0.063767  1
  Pd  Pd31  1  0.250000  0.083262  0.938060  1
  Pd  Pd32  1  0.250000  0.418353  0.094120  1
  Pd  Pd33  1  0.750000  0.580668  0.905941  1
  Pd  Pd34  1  0.750000  0.917027  0.406543  1
  Pd  Pd35  1  0.250000  0.083178  0.593628  1
