# generated using pymatgen
data_BaSe2(O3F)2
_symmetry_space_group_name_H-M   'P 1'
_cell_length_a   7.91954450
_cell_length_b   7.91954379
_cell_length_c   9.30816474
_cell_angle_alpha   107.61826533
_cell_angle_beta   102.58837829
_cell_angle_gamma   112.83601788
_symmetry_Int_Tables_number   1
_chemical_formula_structural   BaSe2(O3F)2
_chemical_formula_sum   'Ba2 Se4 O12 F4'
_cell_volume   473.94685479
_cell_formula_units_Z   2
loop_
 _symmetry_equiv_pos_site_id
 _symmetry_equiv_pos_as_xyz
  1  'x, y, z'
loop_
 _atom_site_type_symbol
 _atom_site_label
 _atom_site_symmetry_multiplicity
 _atom_site_fract_x
 _atom_site_fract_y
 _atom_site_fract_z
 _atom_site_occupancy
  Ba  Ba0  1  0.736490  0.486490  0.750000  1
  Ba  Ba1  1  0.263510  0.513510  0.250000  1
  Se  Se2  1  0.172803  0.342325  0.746127  1
  Se  Se3  1  0.596198  0.926676  0.753873  1
  Se  Se4  1  0.827197  0.657675  0.253873  1
  Se  Se5  1  0.403802  0.073324  0.246127  1
  O  O6  1  0.349426  0.380965  0.674929  1
  O  O7  1  0.706036  0.174498  0.825071  1
  O  O8  1  0.650574  0.619035  0.325071  1
  O  O9  1  0.293964  0.825502  0.174929  1
  O  O10  1  0.999405  0.381693  0.654718  1
  O  O11  1  0.726975  0.844687  0.845282  1
  O  O12  1  0.000595  0.618307  0.345282  1
  O  O13  1  0.273025  0.155313  0.154718  1
  O  O14  1  0.243592  0.432582  0.944750  1
  O  O15  1  0.487833  0.798843  0.555250  1
  O  O16  1  0.756408  0.567418  0.055250  1
  O  O17  1  0.512167  0.201157  0.444750  1
  F  F18  1  0.053783  0.075435  0.684347  1
  F  F19  1  0.391088  0.869435  0.815653  1
  F  F20  1  0.946217  0.924565  0.315653  1
  F  F21  1  0.608912  0.130565  0.184347  1
