# generated using pymatgen
data_Sm8Ta11Si16Tc
_symmetry_space_group_name_H-M   'P 1'
_cell_length_a   6.90369651
_cell_length_b   7.14548053
_cell_length_c   13.45073200
_cell_angle_alpha   90.00000000
_cell_angle_beta   90.00000000
_cell_angle_gamma   89.95588085
_symmetry_Int_Tables_number   1
_chemical_formula_structural   Sm8Ta11Si16Tc
_chemical_formula_sum   'Sm8 Ta11 Si16 Tc1'
_cell_volume   663.52749315
_cell_formula_units_Z   1
loop_
 _symmetry_equiv_pos_site_id
 _symmetry_equiv_pos_as_xyz
  1  'x, y, z'
loop_
 _atom_site_type_symbol
 _atom_site_label
 _atom_site_symmetry_multiplicity
 _atom_site_fract_x
 _atom_site_fract_y
 _atom_site_fract_z
 _atom_site_occupancy
  Sm  Sm0  1  0.004183  0.170139  0.095667  1
  Sm  Sm1  1  0.997316  0.830089  0.904120  1
  Sm  Sm2  1  0.496016  0.670679  0.903767  1
  Sm  Sm3  1  0.997316  0.830089  0.595880  1
  Sm  Sm4  1  0.504792  0.329676  0.095417  1
  Sm  Sm5  1  0.004183  0.170139  0.404333  1
  Sm  Sm6  1  0.504792  0.329676  0.404583  1
  Sm  Sm7  1  0.496016  0.670679  0.596233  1
  Ta  Ta8  1  0.839554  0.512866  0.250000  1
  Ta  Ta9  1  0.339082  0.988148  0.250000  1
  Ta  Ta10  1  0.661543  0.013613  0.750000  1
  Ta  Ta11  1  0.335086  0.172988  0.626214  1
  Ta  Ta12  1  0.664482  0.825521  0.374258  1
  Ta  Ta13  1  0.164743  0.674220  0.375008  1
  Ta  Ta14  1  0.664482  0.825521  0.125742  1
  Ta  Ta15  1  0.833033  0.326941  0.626780  1
  Ta  Ta16  1  0.335086  0.172988  0.873786  1
  Ta  Ta17  1  0.833033  0.326941  0.873220  1
  Ta  Ta18  1  0.164743  0.674220  0.124992  1
  Si  Si19  1  0.040756  0.129153  0.750000  1
  Si  Si20  1  0.962200  0.875460  0.250000  1
  Si  Si21  1  0.461328  0.625138  0.250000  1
  Si  Si22  1  0.532451  0.375759  0.750000  1
  Si  Si23  1  0.298433  0.880216  0.750000  1
  Si  Si24  1  0.704629  0.121427  0.250000  1
  Si  Si25  1  0.204834  0.379019  0.250000  1
  Si  Si26  1  0.801989  0.619139  0.750000  1
  Si  Si27  1  0.159683  0.459241  0.543776  1
  Si  Si28  1  0.838606  0.539261  0.458259  1
  Si  Si29  1  0.338834  0.960953  0.457819  1
  Si  Si30  1  0.838606  0.539261  0.041741  1
  Si  Si31  1  0.661055  0.038140  0.542586  1
  Si  Si32  1  0.159683  0.459241  0.956224  1
  Si  Si33  1  0.661055  0.038140  0.957414  1
  Si  Si34  1  0.338834  0.960953  0.042181  1
  Tc  Tc35  1  0.157543  0.484365  0.750000  1
