# generated using pymatgen
data_Er6Mn2Al24(PdRu)3
_symmetry_space_group_name_H-M   'P 1'
_cell_length_a   8.81230031
_cell_length_b   8.77005165
_cell_length_c   9.47947689
_cell_angle_alpha   90.16244426
_cell_angle_beta   90.00415922
_cell_angle_gamma   119.70001141
_symmetry_Int_Tables_number   1
_chemical_formula_structural   Er6Mn2Al24(PdRu)3
_chemical_formula_sum   'Er6 Mn2 Al24 Pd3 Ru3'
_cell_volume   636.36893515
_cell_formula_units_Z   1
loop_
 _symmetry_equiv_pos_site_id
 _symmetry_equiv_pos_as_xyz
  1  'x, y, z'
loop_
 _atom_site_type_symbol
 _atom_site_label
 _atom_site_symmetry_multiplicity
 _atom_site_fract_x
 _atom_site_fract_y
 _atom_site_fract_z
 _atom_site_occupancy
  Er  Er0  1  0.189427  0.386759  0.251598  1
  Er  Er1  1  0.810573  0.613241  0.748402  1
  Er  Er2  1  0.616211  0.810362  0.250306  1
  Er  Er3  1  0.383789  0.189638  0.749694  1
  Er  Er4  1  0.191651  0.804136  0.250460  1
  Er  Er5  1  0.808349  0.195864  0.749540  1
  Mn  Mn6  1  0.000000  0.000000  0.000000  1
  Mn  Mn7  1  0.000000  0.000000  0.500000  1
  Al  Al8  1  0.328394  0.663892  0.025812  1
  Al  Al9  1  0.671606  0.336108  0.974188  1
  Al  Al10  1  0.669386  0.330625  0.524189  1
  Al  Al11  1  0.330614  0.669375  0.475811  1
  Al  Al12  1  0.154755  0.318758  0.576625  1
  Al  Al13  1  0.845245  0.681242  0.423375  1
  Al  Al14  1  0.682267  0.846378  0.577082  1
  Al  Al15  1  0.845502  0.681976  0.076888  1
  Al  Al16  1  0.317733  0.153622  0.422918  1
  Al  Al17  1  0.154498  0.318024  0.923112  1
  Al  Al18  1  0.161107  0.839628  0.576265  1
  Al  Al19  1  0.316055  0.158720  0.079329  1
  Al  Al20  1  0.838893  0.160372  0.423735  1
  Al  Al21  1  0.683945  0.841280  0.920671  1
  Al  Al22  1  0.844928  0.164704  0.077954  1
  Al  Al23  1  0.155072  0.835296  0.922046  1
  Al  Al24  1  0.562590  0.125799  0.252860  1
  Al  Al25  1  0.437410  0.874201  0.747140  1
  Al  Al26  1  0.875349  0.438208  0.249434  1
  Al  Al27  1  0.124651  0.561792  0.750566  1
  Al  Al28  1  0.563230  0.436744  0.249203  1
  Al  Al29  1  0.436770  0.563256  0.750797  1
  Al  Al30  1  0.998592  0.000321  0.250363  1
  Al  Al31  1  0.001408  0.999679  0.749637  1
  Pd  Pd32  1  0.500000  0.000000  0.000000  1
  Pd  Pd33  1  0.500000  0.500000  0.000000  1
  Pd  Pd34  1  0.500000  0.500000  0.500000  1
  Ru  Ru35  1  0.000000  0.500000  0.000000  1
  Ru  Ru36  1  0.500000  0.000000  0.500000  1
  Ru  Ru37  1  0.000000  0.500000  0.500000  1
