# generated using pymatgen
data_Rb3GdGe2O7
_symmetry_space_group_name_H-M   'P 1'
_cell_length_a   10.52942500
_cell_length_b   10.52942515
_cell_length_c   15.30773100
_cell_angle_alpha   90.00000000
_cell_angle_beta   90.00000000
_cell_angle_gamma   119.99999638
_symmetry_Int_Tables_number   1
_chemical_formula_structural   Rb3GdGe2O7
_chemical_formula_sum   'Rb18 Gd6 Ge12 O42'
_cell_volume   1469.77476501
_cell_formula_units_Z   6
loop_
 _symmetry_equiv_pos_site_id
 _symmetry_equiv_pos_as_xyz
  1  'x, y, z'
loop_
 _atom_site_type_symbol
 _atom_site_label
 _atom_site_symmetry_multiplicity
 _atom_site_fract_x
 _atom_site_fract_y
 _atom_site_fract_z
 _atom_site_occupancy
  Rb  Rb0  1  0.000000  0.666543  0.407496  1
  Rb  Rb1  1  0.666543  0.000000  0.092504  1
  Rb  Rb2  1  0.333333  0.666667  0.750000  1
  Rb  Rb3  1  0.000000  0.333457  0.592504  1
  Rb  Rb4  1  0.666543  0.666543  0.907496  1
  Rb  Rb5  1  0.333457  0.333457  0.407496  1
  Rb  Rb6  1  0.333457  0.000000  0.592504  1
  Rb  Rb7  1  0.666667  0.333333  0.250000  1
  Rb  Rb8  1  0.333457  0.000000  0.907496  1
  Rb  Rb9  1  0.000000  0.000000  0.000000  1
  Rb  Rb10  1  0.666543  0.000000  0.407496  1
  Rb  Rb11  1  0.000000  0.666543  0.092504  1
  Rb  Rb12  1  0.666667  0.333333  0.750000  1
  Rb  Rb13  1  0.666543  0.666543  0.592504  1
  Rb  Rb14  1  0.000000  0.333457  0.907496  1
  Rb  Rb15  1  0.333333  0.666667  0.250000  1
  Rb  Rb16  1  0.000000  0.000000  0.500000  1
  Rb  Rb17  1  0.333457  0.333457  0.092504  1
  Gd  Gd18  1  0.333333  0.666667  0.500000  1
  Gd  Gd19  1  0.666667  0.333333  0.000000  1
  Gd  Gd20  1  0.666667  0.333333  0.500000  1
  Gd  Gd21  1  0.000000  0.000000  0.750000  1
  Gd  Gd22  1  0.333333  0.666667  0.000000  1
  Gd  Gd23  1  0.000000  0.000000  0.250000  1
  Ge  Ge24  1  0.658958  0.000000  0.858168  1
  Ge  Ge25  1  0.341042  0.000000  0.141832  1
  Ge  Ge26  1  0.658958  0.658958  0.358168  1
  Ge  Ge27  1  0.000000  0.658958  0.858168  1
  Ge  Ge28  1  0.000000  0.658958  0.641832  1
  Ge  Ge29  1  0.341042  0.341042  0.641832  1
  Ge  Ge30  1  0.341042  0.341042  0.858168  1
  Ge  Ge31  1  0.658958  0.658958  0.141832  1
  Ge  Ge32  1  0.000000  0.341042  0.141832  1
  Ge  Ge33  1  0.341042  0.000000  0.358168  1
  Ge  Ge34  1  0.000000  0.341042  0.358168  1
  Ge  Ge35  1  0.658958  0.000000  0.641832  1
  O  O36  1  0.841383  0.321537  0.088479  1
  O  O37  1  0.678463  0.519845  0.088479  1
  O  O38  1  0.000000  0.173009  0.150006  1
  O  O39  1  0.519845  0.678463  0.088479  1
  O  O40  1  0.826991  0.826991  0.349994  1
  O  O41  1  0.678463  0.158617  0.911521  1
  O  O42  1  0.173009  0.173009  0.849994  1
  O  O43  1  0.000000  0.826991  0.650006  1
  O  O44  1  0.583681  0.583681  0.250000  1
  O  O45  1  0.519845  0.841383  0.588479  1
  O  O46  1  0.678463  0.519845  0.411521  1
  O  O47  1  0.158617  0.678463  0.588479  1
  O  O48  1  0.000000  0.826991  0.849994  1
  O  O49  1  0.158617  0.480155  0.411521  1
  O  O50  1  0.321537  0.480155  0.911521  1
  O  O51  1  0.841383  0.519845  0.588479  1
  O  O52  1  0.000000  0.416319  0.250000  1
  O  O53  1  0.480155  0.158617  0.088479  1
  O  O54  1  0.321537  0.841383  0.411521  1
  O  O55  1  0.416319  0.000000  0.250000  1
  O  O56  1  0.519845  0.678463  0.411521  1
  O  O57  1  0.158617  0.678463  0.911521  1
  O  O58  1  0.480155  0.158617  0.411521  1
  O  O59  1  0.173009  0.173009  0.650006  1
  O  O60  1  0.678463  0.158617  0.588479  1
  O  O61  1  0.480155  0.321537  0.911521  1
  O  O62  1  0.173009  0.000000  0.349994  1
  O  O63  1  0.416319  0.416319  0.750000  1
  O  O64  1  0.826991  0.826991  0.150006  1
  O  O65  1  0.841383  0.321537  0.411521  1
  O  O66  1  0.158617  0.480155  0.088479  1
  O  O67  1  0.826991  0.000000  0.849994  1
  O  O68  1  0.841383  0.519845  0.911521  1
  O  O69  1  0.000000  0.173009  0.349994  1
  O  O70  1  0.826991  0.000000  0.650006  1
  O  O71  1  0.321537  0.480155  0.588479  1
  O  O72  1  0.321537  0.841383  0.088479  1
  O  O73  1  0.000000  0.583681  0.750000  1
  O  O74  1  0.519845  0.841383  0.911521  1
  O  O75  1  0.583681  0.000000  0.750000  1
  O  O76  1  0.173009  0.000000  0.150006  1
  O  O77  1  0.480155  0.321537  0.588479  1
