# generated using pymatgen
data_Dy3Lu(MgPt)4
_symmetry_space_group_name_H-M   'P 1'
_cell_length_a   4.14753300
_cell_length_b   7.10858558
_cell_length_c   8.64885585
_cell_angle_alpha   89.11939849
_cell_angle_beta   90.00000000
_cell_angle_gamma   90.00000000
_symmetry_Int_Tables_number   1
_chemical_formula_structural   Dy3Lu(MgPt)4
_chemical_formula_sum   'Dy3 Lu1 Mg4 Pt4'
_cell_volume   254.96490725
_cell_formula_units_Z   1
loop_
 _symmetry_equiv_pos_site_id
 _symmetry_equiv_pos_as_xyz
  1  'x, y, z'
loop_
 _atom_site_type_symbol
 _atom_site_label
 _atom_site_symmetry_multiplicity
 _atom_site_fract_x
 _atom_site_fract_y
 _atom_site_fract_z
 _atom_site_occupancy
  Dy  Dy0  1  0.250000  0.534891  0.174960  1
  Dy  Dy1  1  0.750000  0.463862  0.825717  1
  Dy  Dy2  1  0.750000  0.963402  0.676010  1
  Lu  Lu3  1  0.250000  0.038359  0.324037  1
  Mg  Mg4  1  0.250000  0.636456  0.560646  1
  Mg  Mg5  1  0.750000  0.364150  0.437189  1
  Mg  Mg6  1  0.750000  0.864661  0.062668  1
  Mg  Mg7  1  0.250000  0.135152  0.939844  1
  Pt  Pt8  1  0.250000  0.746408  0.873259  1
  Pt  Pt9  1  0.750000  0.249072  0.129402  1
  Pt  Pt10  1  0.750000  0.758077  0.374423  1
  Pt  Pt11  1  0.250000  0.245510  0.621846  1
