# generated using pymatgen
data_Nd10Tl7In(PtRh)2
_symmetry_space_group_name_H-M   'P 1'
_cell_length_a   3.77327600
_cell_length_b   8.37158710
_cell_length_c   18.89794929
_cell_angle_alpha   89.89966531
_cell_angle_beta   90.00000000
_cell_angle_gamma   90.00000000
_symmetry_Int_Tables_number   1
_chemical_formula_structural   Nd10Tl7In(PtRh)2
_chemical_formula_sum   'Nd10 Tl7 In1 Pt2 Rh2'
_cell_volume   596.95334013
_cell_formula_units_Z   1
loop_
 _symmetry_equiv_pos_site_id
 _symmetry_equiv_pos_as_xyz
  1  'x, y, z'
loop_
 _atom_site_type_symbol
 _atom_site_label
 _atom_site_symmetry_multiplicity
 _atom_site_fract_x
 _atom_site_fract_y
 _atom_site_fract_z
 _atom_site_occupancy
  Nd  Nd0  1  0.000000  0.114695  0.411591  1
  Nd  Nd1  1  0.000000  0.884625  0.587862  1
  Nd  Nd2  1  0.000000  0.382403  0.912342  1
  Nd  Nd3  1  0.000000  0.617664  0.087591  1
  Nd  Nd4  1  0.000000  0.240294  0.220619  1
  Nd  Nd5  1  0.000000  0.760649  0.779518  1
  Nd  Nd6  1  0.000000  0.249414  0.719957  1
  Nd  Nd7  1  0.000000  0.749774  0.280079  1
  Nd  Nd8  1  0.000000  0.000056  0.999953  1
  Nd  Nd9  1  0.000000  0.501746  0.499588  1
  Tl  Tl10  1  0.500000  0.425930  0.351301  1
  Tl  Tl11  1  0.500000  0.576741  0.649071  1
  Tl  Tl12  1  0.500000  0.071719  0.849284  1
  Tl  Tl13  1  0.500000  0.928457  0.150831  1
  Tl  Tl14  1  0.500000  0.291752  0.066679  1
  Tl  Tl15  1  0.500000  0.708102  0.933360  1
  Tl  Tl16  1  0.500000  0.206673  0.568278  1
  In  In17  1  0.500000  0.794114  0.430716  1
  Pt  Pt18  1  0.500000  0.477834  0.802381  1
  Pt  Pt19  1  0.500000  0.521619  0.197524  1
  Rh  Rh20  1  0.500000  0.015213  0.306701  1
  Rh  Rh21  1  0.500000  0.980526  0.694772  1
