# generated using pymatgen
data_Tm3NbSn2(B2Ru5)2
_symmetry_space_group_name_H-M   'P 1'
_cell_length_a   9.66517740
_cell_length_b   9.66517772
_cell_length_c   3.10183100
_cell_angle_alpha   90.00000000
_cell_angle_beta   90.00000000
_cell_angle_gamma   90.79946153
_symmetry_Int_Tables_number   1
_chemical_formula_structural   Tm3NbSn2(B2Ru5)2
_chemical_formula_sum   'Tm3 Nb1 Sn2 B4 Ru10'
_cell_volume   289.73137507
_cell_formula_units_Z   1
loop_
 _symmetry_equiv_pos_site_id
 _symmetry_equiv_pos_as_xyz
  1  'x, y, z'
loop_
 _atom_site_type_symbol
 _atom_site_label
 _atom_site_symmetry_multiplicity
 _atom_site_fract_x
 _atom_site_fract_y
 _atom_site_fract_z
 _atom_site_occupancy
  Tm  Tm0  1  0.824319  0.675119  0.000000  1
  Tm  Tm1  1  0.175119  0.324319  0.000000  1
  Tm  Tm2  1  0.325273  0.825273  0.000000  1
  Nb  Nb3  1  0.674121  0.174121  0.000000  1
  Sn  Sn4  1  0.498790  0.505004  0.000000  1
  Sn  Sn5  1  0.005004  0.998790  0.000000  1
  B  B6  1  0.623458  0.881869  0.000000  1
  B  B7  1  0.381869  0.123458  0.000000  1
  B  B8  1  0.118299  0.618299  0.000000  1
  B  B9  1  0.876112  0.376112  0.000000  1
  Ru  Ru10  1  0.571902  0.726889  0.500000  1
  Ru  Ru11  1  0.443900  0.277037  0.500000  1
  Ru  Ru12  1  0.070331  0.775319  0.500000  1
  Ru  Ru13  1  0.913184  0.215052  0.500000  1
  Ru  Ru14  1  0.275319  0.570331  0.500000  1
  Ru  Ru15  1  0.715052  0.413184  0.500000  1
  Ru  Ru16  1  0.226889  0.071902  0.500000  1
  Ru  Ru17  1  0.777037  0.943900  0.500000  1
  Ru  Ru18  1  0.508582  0.008582  0.500000  1
  Ru  Ru19  1  0.995440  0.495440  0.500000  1
