# generated using pymatgen
data_Lu12Co4TcHg
_symmetry_space_group_name_H-M   'P 1'
_cell_length_a   8.08402760
_cell_length_b   8.08402688
_cell_length_c   8.08402840
_cell_angle_alpha   111.63490585
_cell_angle_beta   110.74133284
_cell_angle_gamma   106.09075328
_symmetry_Int_Tables_number   1
_chemical_formula_structural   Lu12Co4TcHg
_chemical_formula_sum   'Lu12 Co4 Tc1 Hg1'
_cell_volume   405.60805088
_cell_formula_units_Z   1
loop_
 _symmetry_equiv_pos_site_id
 _symmetry_equiv_pos_as_xyz
  1  'x, y, z'
loop_
 _atom_site_type_symbol
 _atom_site_label
 _atom_site_symmetry_multiplicity
 _atom_site_fract_x
 _atom_site_fract_y
 _atom_site_fract_z
 _atom_site_occupancy
  Lu  Lu0  1  0.422513  0.226418  0.196095  1
  Lu  Lu1  1  0.577487  0.773582  0.803905  1
  Lu  Lu2  1  0.030322  0.226418  0.803905  1
  Lu  Lu3  1  0.969678  0.773582  0.196095  1
  Lu  Lu4  1  0.181966  0.276671  0.458637  1
  Lu  Lu5  1  0.818034  0.723329  0.541363  1
  Lu  Lu6  1  0.181966  0.723329  0.905295  1
  Lu  Lu7  1  0.818034  0.276671  0.094705  1
  Lu  Lu8  1  0.314017  0.618656  0.304637  1
  Lu  Lu9  1  0.685983  0.381344  0.695363  1
  Lu  Lu10  1  0.314017  0.009380  0.695363  1
  Lu  Lu11  1  0.685983  0.990620  0.304637  1
  Co  Co12  1  0.373318  0.000000  0.373318  1
  Co  Co13  1  0.626682  0.000000  0.626682  1
  Co  Co14  1  0.113228  0.613228  0.500000  1
  Co  Co15  1  0.886772  0.386772  0.500000  1
  Tc  Tc16  1  0.000000  0.000000  0.000000  1
  Hg  Hg17  1  0.500000  0.500000  0.000000  1
