# generated using pymatgen
data_LiCoP
_symmetry_space_group_name_H-M   'P 1'
_cell_length_a   3.63941800
_cell_length_b   6.28966000
_cell_length_c   6.30075600
_cell_angle_alpha   90.00000000
_cell_angle_beta   90.00000000
_cell_angle_gamma   90.00000000
_symmetry_Int_Tables_number   1
_chemical_formula_structural   LiCoP
_chemical_formula_sum   'Li4 Co4 P4'
_cell_volume   144.22872682
_cell_formula_units_Z   4
loop_
 _symmetry_equiv_pos_site_id
 _symmetry_equiv_pos_as_xyz
  1  'x, y, z'
loop_
 _atom_site_type_symbol
 _atom_site_label
 _atom_site_symmetry_multiplicity
 _atom_site_fract_x
 _atom_site_fract_y
 _atom_site_fract_z
 _atom_site_occupancy
  Li  Li0  1  0.750000  0.012398  0.661426  1
  Li  Li1  1  0.250000  0.987602  0.338574  1
  Li  Li2  1  0.750000  0.512398  0.838574  1
  Li  Li3  1  0.250000  0.487602  0.161426  1
  Co  Co4  1  0.250000  0.362454  0.555115  1
  Co  Co5  1  0.750000  0.637546  0.444885  1
  Co  Co6  1  0.250000  0.862454  0.944885  1
  Co  Co7  1  0.750000  0.137546  0.055115  1
  P  P8  1  0.250000  0.708155  0.629163  1
  P  P9  1  0.750000  0.291845  0.370837  1
  P  P10  1  0.250000  0.208155  0.870837  1
  P  P11  1  0.750000  0.791845  0.129163  1
