# generated using pymatgen
data_Dy2Er3Lu5Sn6
_symmetry_space_group_name_H-M   'P 1'
_cell_length_a   8.85888172
_cell_length_b   8.86530405
_cell_length_c   6.41911100
_cell_angle_alpha   90.00000000
_cell_angle_beta   90.00000000
_cell_angle_gamma   120.09330072
_symmetry_Int_Tables_number   1
_chemical_formula_structural   Dy2Er3Lu5Sn6
_chemical_formula_sum   'Dy2 Er3 Lu5 Sn6'
_cell_volume   436.18324722
_cell_formula_units_Z   1
loop_
 _symmetry_equiv_pos_site_id
 _symmetry_equiv_pos_as_xyz
  1  'x, y, z'
loop_
 _atom_site_type_symbol
 _atom_site_label
 _atom_site_symmetry_multiplicity
 _atom_site_fract_x
 _atom_site_fract_y
 _atom_site_fract_z
 _atom_site_occupancy
  Dy  Dy0  1  0.761542  0.761281  0.750000  1
  Dy  Dy1  1  0.238682  0.238519  0.250000  1
  Er  Er2  1  0.238778  0.999710  0.750000  1
  Er  Er3  1  0.999994  0.239469  0.750000  1
  Er  Er4  1  0.761026  0.999897  0.250000  1
  Lu  Lu5  1  0.666717  0.333320  0.000084  1
  Lu  Lu6  1  0.333284  0.666743  0.000080  1
  Lu  Lu7  1  0.333284  0.666743  0.499920  1
  Lu  Lu8  1  0.666717  0.333320  0.499916  1
  Lu  Lu9  1  0.000014  0.760903  0.250000  1
  Sn  Sn10  1  0.395185  0.395151  0.750000  1
  Sn  Sn11  1  0.604389  0.000178  0.750000  1
  Sn  Sn12  1  0.000235  0.604248  0.750000  1
  Sn  Sn13  1  0.605842  0.605221  0.250000  1
  Sn  Sn14  1  0.394539  0.999099  0.250000  1
  Sn  Sn15  1  0.999772  0.396195  0.250000  1
