# generated using pymatgen
data_U7PaSe12
_symmetry_space_group_name_H-M   'P 1'
_cell_length_a   3.98519200
_cell_length_b   11.03253852
_cell_length_c   11.08476952
_cell_angle_alpha   90.03514360
_cell_angle_beta   90.00000000
_cell_angle_gamma   90.00000000
_symmetry_Int_Tables_number   1
_chemical_formula_structural   U7PaSe12
_chemical_formula_sum   'U7 Pa1 Se12'
_cell_volume   487.36157827
_cell_formula_units_Z   1
loop_
 _symmetry_equiv_pos_site_id
 _symmetry_equiv_pos_as_xyz
  1  'x, y, z'
loop_
 _atom_site_type_symbol
 _atom_site_label
 _atom_site_symmetry_multiplicity
 _atom_site_fract_x
 _atom_site_fract_y
 _atom_site_fract_z
 _atom_site_occupancy
  U  U0  1  0.750000  0.491058  0.311000  1
  U  U1  1  0.250000  0.990567  0.190129  1
  U  U2  1  0.750000  0.009437  0.809610  1
  U  U3  1  0.250000  0.316740  0.013273  1
  U  U4  1  0.750000  0.683235  0.986558  1
  U  U5  1  0.250000  0.508803  0.690258  1
  U  U6  1  0.250000  0.183950  0.513230  1
  Pa  Pa7  1  0.750000  0.816007  0.485990  1
  Se  Se8  1  0.250000  0.555257  0.125335  1
  Se  Se9  1  0.750000  0.371146  0.551526  1
  Se  Se10  1  0.250000  0.629360  0.448154  1
  Se  Se11  1  0.250000  0.295003  0.274460  1
  Se  Se12  1  0.250000  0.205162  0.774579  1
  Se  Se13  1  0.750000  0.129093  0.051611  1
  Se  Se14  1  0.750000  0.705474  0.724596  1
  Se  Se15  1  0.250000  0.870743  0.948485  1
  Se  Se16  1  0.750000  0.794462  0.225986  1
  Se  Se17  1  0.750000  0.055214  0.375299  1
  Se  Se18  1  0.750000  0.445030  0.874855  1
  Se  Se19  1  0.250000  0.944258  0.625066  1
