# generated using pymatgen
data_Er6Ir7Rh11
_symmetry_space_group_name_H-M   'P 1'
_cell_length_a   5.25569600
_cell_length_b   5.25997453
_cell_length_c   17.53573200
_cell_angle_alpha   90.00143501
_cell_angle_beta   90.00000000
_cell_angle_gamma   119.97309618
_symmetry_Int_Tables_number   1
_chemical_formula_structural   Er6Ir7Rh11
_chemical_formula_sum   'Er6 Ir7 Rh11'
_cell_volume   419.93887719
_cell_formula_units_Z   1
loop_
 _symmetry_equiv_pos_site_id
 _symmetry_equiv_pos_as_xyz
  1  'x, y, z'
loop_
 _atom_site_type_symbol
 _atom_site_label
 _atom_site_symmetry_multiplicity
 _atom_site_fract_x
 _atom_site_fract_y
 _atom_site_fract_z
 _atom_site_occupancy
  Er  Er0  1  0.333336  0.666673  0.041444  1
  Er  Er1  1  0.333291  0.666582  0.249641  1
  Er  Er2  1  0.333933  0.667867  0.458484  1
  Er  Er3  1  0.666484  0.332967  0.540943  1
  Er  Er4  1  0.666597  0.333194  0.750048  1
  Er  Er5  1  0.666629  0.333257  0.959158  1
  Ir  Ir6  1  0.999777  0.999554  0.999617  1
  Ir  Ir7  1  0.335598  0.167608  0.125138  1
  Ir  Ir8  1  0.832009  0.167608  0.125138  1
  Ir  Ir9  1  0.832504  0.665007  0.125327  1
  Ir  Ir10  1  0.334606  0.165789  0.374943  1
  Ir  Ir11  1  0.831182  0.165789  0.374943  1
  Ir  Ir12  1  0.001284  0.002568  0.500206  1
  Rh  Rh13  1  0.000629  0.001257  0.249865  1
  Rh  Rh14  1  0.666847  0.333693  0.250153  1
  Rh  Rh15  1  0.832086  0.664171  0.375439  1
  Rh  Rh16  1  0.166926  0.333852  0.625141  1
  Rh  Rh17  1  0.166908  0.832746  0.625417  1
  Rh  Rh18  1  0.665839  0.832746  0.625417  1
  Rh  Rh19  1  0.000192  0.000385  0.750018  1
  Rh  Rh20  1  0.333185  0.666370  0.749867  1
  Rh  Rh21  1  0.167051  0.334102  0.874594  1
  Rh  Rh22  1  0.167248  0.833107  0.874531  1
  Rh  Rh23  1  0.665861  0.833107  0.874531  1
