# generated using pymatgen
data_GaAs3S5Cl4
_symmetry_space_group_name_H-M   'P 1'
_cell_length_a   10.24697200
_cell_length_b   6.66304741
_cell_length_c   12.01610541
_cell_angle_alpha   75.72791741
_cell_angle_beta   90.00000000
_cell_angle_gamma   90.00000000
_symmetry_Int_Tables_number   1
_chemical_formula_structural   GaAs3S5Cl4
_chemical_formula_sum   'Ga2 As6 S10 Cl8'
_cell_volume   795.09110257
_cell_formula_units_Z   2
loop_
 _symmetry_equiv_pos_site_id
 _symmetry_equiv_pos_as_xyz
  1  'x, y, z'
loop_
 _atom_site_type_symbol
 _atom_site_label
 _atom_site_symmetry_multiplicity
 _atom_site_fract_x
 _atom_site_fract_y
 _atom_site_fract_z
 _atom_site_occupancy
  Ga  Ga0  1  0.750000  0.481365  0.719901  1
  Ga  Ga1  1  0.250000  0.518635  0.280099  1
  As  As2  1  0.083099  0.051416  0.670182  1
  As  As3  1  0.583099  0.948584  0.329818  1
  As  As4  1  0.916901  0.948584  0.329818  1
  As  As5  1  0.750000  0.973268  0.052843  1
  As  As6  1  0.250000  0.026732  0.947157  1
  As  As7  1  0.416901  0.051416  0.670182  1
  S  S8  1  0.428324  0.927400  0.862028  1
  S  S9  1  0.750000  0.685143  0.324856  1
  S  S10  1  0.750000  0.634523  0.167493  1
  S  S11  1  0.571676  0.072600  0.137972  1
  S  S12  1  0.250000  0.314857  0.675144  1
  S  S13  1  0.250000  0.883262  0.605783  1
  S  S14  1  0.250000  0.365477  0.832507  1
  S  S15  1  0.750000  0.116738  0.394217  1
  S  S16  1  0.071676  0.927400  0.862028  1
  S  S17  1  0.928324  0.072600  0.137972  1
  Cl  Cl18  1  0.250000  0.482660  0.103209  1
  Cl  Cl19  1  0.750000  0.150478  0.721661  1
  Cl  Cl20  1  0.750000  0.517340  0.896791  1
  Cl  Cl21  1  0.250000  0.849522  0.278339  1
  Cl  Cl22  1  0.927376  0.623443  0.626491  1
  Cl  Cl23  1  0.572624  0.623443  0.626491  1
  Cl  Cl24  1  0.072624  0.376557  0.373509  1
  Cl  Cl25  1  0.427376  0.376557  0.373509  1
