# generated using pymatgen
data_Tb4Pr16Si15Rh
_symmetry_space_group_name_H-M   'P 1'
_cell_length_a   7.86411679
_cell_length_b   7.82834122
_cell_length_c   15.30279100
_cell_angle_alpha   90.07873803
_cell_angle_beta   89.76385447
_cell_angle_gamma   90.19421870
_symmetry_Int_Tables_number   1
_chemical_formula_structural   Tb4Pr16Si15Rh
_chemical_formula_sum   'Tb4 Pr16 Si15 Rh1'
_cell_volume   942.07127819
_cell_formula_units_Z   1
loop_
 _symmetry_equiv_pos_site_id
 _symmetry_equiv_pos_as_xyz
  1  'x, y, z'
loop_
 _atom_site_type_symbol
 _atom_site_label
 _atom_site_symmetry_multiplicity
 _atom_site_fract_x
 _atom_site_fract_y
 _atom_site_fract_z
 _atom_site_occupancy
  Tb  Tb0  1  0.306399  0.306815  0.999607  1
  Tb  Tb1  1  0.190956  0.807980  0.250254  1
  Tb  Tb2  1  0.817107  0.189689  0.749977  1
  Tb  Tb3  1  0.692615  0.689568  0.500734  1
  Pr  Pr4  1  0.376520  0.013466  0.447060  1
  Pr  Pr5  1  0.486762  0.877846  0.696418  1
  Pr  Pr6  1  0.512814  0.121637  0.195432  1
  Pr  Pr7  1  0.877729  0.485975  0.303198  1
  Pr  Pr8  1  0.122804  0.508392  0.801595  1
  Pr  Pr9  1  0.623751  0.986725  0.945662  1
  Pr  Pr10  1  0.007022  0.378416  0.554247  1
  Pr  Pr11  1  0.986273  0.622895  0.054106  1
  Pr  Pr12  1  0.132985  0.981659  0.874263  1
  Pr  Pr13  1  0.522431  0.628551  0.127459  1
  Pr  Pr14  1  0.469744  0.364824  0.630992  1
  Pr  Pr15  1  0.625174  0.521475  0.872201  1
  Pr  Pr16  1  0.374578  0.477055  0.372050  1
  Pr  Pr17  1  0.875171  0.025353  0.378634  1
  Pr  Pr18  1  0.977170  0.125158  0.122523  1
  Pr  Pr19  1  0.028940  0.882295  0.623328  1
  Si  Si20  1  0.328119  0.688517  0.956156  1
  Si  Si21  1  0.668369  0.311872  0.458477  1
  Si  Si22  1  0.690132  0.330109  0.043730  1
  Si  Si23  1  0.311533  0.671490  0.542585  1
  Si  Si24  1  0.812505  0.828224  0.209013  1
  Si  Si25  1  0.172549  0.188852  0.292196  1
  Si  Si26  1  0.830107  0.810040  0.792987  1
  Si  Si27  1  0.285735  0.921362  0.062075  1
  Si  Si28  1  0.580068  0.784441  0.313675  1
  Si  Si29  1  0.427655  0.209367  0.815373  1
  Si  Si30  1  0.780087  0.582814  0.686495  1
  Si  Si31  1  0.213658  0.421922  0.186829  1
  Si  Si32  1  0.708457  0.074914  0.561835  1
  Si  Si33  1  0.919646  0.285839  0.937870  1
  Si  Si34  1  0.081189  0.717355  0.437606  1
  Rh  Rh35  1  0.183242  0.177115  0.703355  1
