# generated using pymatgen
data_K2Np3OF12
_symmetry_space_group_name_H-M   'P 1'
_cell_length_a   11.14743001
_cell_length_b   11.14742992
_cell_length_c   11.14743053
_cell_angle_alpha   43.61570743
_cell_angle_beta   43.61570869
_cell_angle_gamma   43.61570742
_symmetry_Int_Tables_number   1
_chemical_formula_structural   K2Np3OF12
_chemical_formula_sum   'K4 Np6 O2 F24'
_cell_volume   598.22301744
_cell_formula_units_Z   2
loop_
 _symmetry_equiv_pos_site_id
 _symmetry_equiv_pos_as_xyz
  1  'x, y, z'
loop_
 _atom_site_type_symbol
 _atom_site_label
 _atom_site_symmetry_multiplicity
 _atom_site_fract_x
 _atom_site_fract_y
 _atom_site_fract_z
 _atom_site_occupancy
  K  K0  1  0.000000  0.000000  0.000000  1
  K  K1  1  0.500000  0.500000  0.500000  1
  K  K2  1  0.138477  0.138477  0.138477  1
  K  K3  1  0.861523  0.861523  0.861523  1
  Np  Np4  1  0.580117  0.580117  0.034700  1
  Np  Np5  1  0.034700  0.580117  0.580117  1
  Np  Np6  1  0.580117  0.034700  0.580117  1
  Np  Np7  1  0.419883  0.965300  0.419883  1
  Np  Np8  1  0.965300  0.419883  0.419883  1
  Np  Np9  1  0.419883  0.419883  0.965300  1
  O  O10  1  0.718776  0.718776  0.718776  1
  O  O11  1  0.281224  0.281224  0.281224  1
  F  F12  1  0.697430  0.697430  0.364877  1
  F  F13  1  0.364877  0.697430  0.697430  1
  F  F14  1  0.697430  0.364877  0.697430  1
  F  F15  1  0.302570  0.635123  0.302570  1
  F  F16  1  0.302570  0.302570  0.635123  1
  F  F17  1  0.635123  0.302570  0.302570  1
  F  F18  1  0.917987  0.917987  0.402742  1
  F  F19  1  0.402742  0.917987  0.917987  1
  F  F20  1  0.649699  0.350301  0.000000  1
  F  F21  1  0.350301  0.000000  0.649699  1
  F  F22  1  0.000000  0.649699  0.350301  1
  F  F23  1  0.350301  0.649699  0.000000  1
  F  F24  1  0.649699  0.000000  0.350301  1
  F  F25  1  0.000000  0.350301  0.649699  1
  F  F26  1  0.911666  0.340504  0.340504  1
  F  F27  1  0.340504  0.340504  0.911666  1
  F  F28  1  0.340504  0.911666  0.340504  1
  F  F29  1  0.659496  0.088334  0.659496  1
  F  F30  1  0.088334  0.659496  0.659496  1
  F  F31  1  0.659496  0.659496  0.088334  1
  F  F32  1  0.597258  0.082013  0.082013  1
  F  F33  1  0.082013  0.082013  0.597258  1
  F  F34  1  0.082013  0.597258  0.082013  1
  F  F35  1  0.917987  0.402742  0.917987  1
