# generated using pymatgen
data_Ti4MnB2As
_symmetry_space_group_name_H-M   'P 1'
_cell_length_a   7.16017827
_cell_length_b   7.16017801
_cell_length_c   7.16017805
_cell_angle_alpha   131.28942096
_cell_angle_beta   131.28941152
_cell_angle_gamma   71.35365387
_symmetry_Int_Tables_number   1
_chemical_formula_structural   Ti4MnB2As
_chemical_formula_sum   'Ti8 Mn2 B4 As2'
_cell_volume   202.85343364
_cell_formula_units_Z   2
loop_
 _symmetry_equiv_pos_site_id
 _symmetry_equiv_pos_as_xyz
  1  'x, y, z'
loop_
 _atom_site_type_symbol
 _atom_site_label
 _atom_site_symmetry_multiplicity
 _atom_site_fract_x
 _atom_site_fract_y
 _atom_site_fract_z
 _atom_site_occupancy
  Ti  Ti0  1  0.195934  0.695934  0.152384  1
  Ti  Ti1  1  0.456450  0.956450  0.152384  1
  Ti  Ti2  1  0.543550  0.043550  0.847616  1
  Ti  Ti3  1  0.043550  0.195934  0.500000  1
  Ti  Ti4  1  0.695934  0.543550  0.500000  1
  Ti  Ti5  1  0.956450  0.804066  0.500000  1
  Ti  Ti6  1  0.304066  0.456450  0.500000  1
  Ti  Ti7  1  0.804066  0.304066  0.847616  1
  Mn  Mn8  1  0.000000  0.000000  0.000000  1
  Mn  Mn9  1  0.500000  0.500000  0.000000  1
  B  B10  1  0.885224  0.385224  0.270448  1
  B  B11  1  0.385224  0.114776  0.500000  1
  B  B12  1  0.614776  0.885224  0.500000  1
  B  B13  1  0.114776  0.614776  0.729552  1
  As  As14  1  0.750000  0.750000  0.000000  1
  As  As15  1  0.250000  0.250000  0.000000  1
