# generated using pymatgen
data_Tb5Y11Cd4(CoNi)2
_symmetry_space_group_name_H-M   'P 1'
_cell_length_a   9.56800118
_cell_length_b   9.58378487
_cell_length_c   9.59653980
_cell_angle_alpha   60.00928057
_cell_angle_beta   60.01486299
_cell_angle_gamma   59.97501429
_symmetry_Int_Tables_number   1
_chemical_formula_structural   Tb5Y11Cd4(CoNi)2
_chemical_formula_sum   'Tb5 Y11 Cd4 Co2 Ni2'
_cell_volume   622.23589418
_cell_formula_units_Z   1
loop_
 _symmetry_equiv_pos_site_id
 _symmetry_equiv_pos_as_xyz
  1  'x, y, z'
loop_
 _atom_site_type_symbol
 _atom_site_label
 _atom_site_symmetry_multiplicity
 _atom_site_fract_x
 _atom_site_fract_y
 _atom_site_fract_z
 _atom_site_occupancy
  Tb  Tb0  1  0.595527  0.596027  0.599825  1
  Tb  Tb1  1  0.598388  0.598295  0.203633  1
  Tb  Tb2  1  0.595908  0.207446  0.599468  1
  Tb  Tb3  1  0.207631  0.595842  0.599483  1
  Tb  Tb4  1  0.065112  0.438236  0.439157  1
  Y  Y5  1  0.436945  0.065519  0.058067  1
  Y  Y6  1  0.438978  0.063768  0.439596  1
  Y  Y7  1  0.065539  0.437108  0.057661  1
  Y  Y8  1  0.438930  0.438699  0.060683  1
  Y  Y9  1  0.061320  0.060846  0.437746  1
  Y  Y10  1  0.187331  0.811806  0.814266  1
  Y  Y11  1  0.810420  0.187089  0.188319  1
  Y  Y12  1  0.811500  0.187975  0.814070  1
  Y  Y13  1  0.187234  0.810035  0.188479  1
  Y  Y14  1  0.812508  0.812551  0.188760  1
  Y  Y15  1  0.187771  0.187875  0.811549  1
  Cd  Cd16  1  0.829619  0.829514  0.830506  1
  Cd  Cd17  1  0.830103  0.830585  0.507654  1
  Cd  Cd18  1  0.830941  0.505915  0.831384  1
  Cd  Cd19  1  0.506157  0.830808  0.830874  1
  Co  Co20  1  0.391905  0.394228  0.392729  1
  Co  Co21  1  0.393619  0.393322  0.822078  1
  Ni  Ni22  1  0.393190  0.822888  0.391737  1
  Ni  Ni23  1  0.823424  0.393621  0.392278  1
