# generated using pymatgen
data_NdFeH5
_symmetry_space_group_name_H-M   'P 1'
_cell_length_a   4.39955100
_cell_length_b   4.61974200
_cell_length_c   11.31998800
_cell_angle_alpha   90.00000000
_cell_angle_beta   90.00000000
_cell_angle_gamma   90.00000000
_symmetry_Int_Tables_number   1
_chemical_formula_structural   NdFeH5
_chemical_formula_sum   'Nd4 Fe4 H20'
_cell_volume   230.07638497
_cell_formula_units_Z   4
loop_
 _symmetry_equiv_pos_site_id
 _symmetry_equiv_pos_as_xyz
  1  'x, y, z'
loop_
 _atom_site_type_symbol
 _atom_site_label
 _atom_site_symmetry_multiplicity
 _atom_site_fract_x
 _atom_site_fract_y
 _atom_site_fract_z
 _atom_site_occupancy
  Nd  Nd0  1  0.268806  0.252289  0.642885  1
  Nd  Nd1  1  0.768806  0.247711  0.357115  1
  Nd  Nd2  1  0.231194  0.747711  0.142885  1
  Nd  Nd3  1  0.731194  0.752289  0.857115  1
  Fe  Fe4  1  0.291600  0.252755  0.918403  1
  Fe  Fe5  1  0.791600  0.247245  0.081597  1
  Fe  Fe6  1  0.208400  0.747245  0.418403  1
  Fe  Fe7  1  0.708400  0.752755  0.581597  1
  H  H8  1  0.501621  0.541699  0.496133  1
  H  H9  1  0.001621  0.958301  0.503867  1
  H  H10  1  0.998379  0.458301  0.996133  1
  H  H11  1  0.498379  0.041699  0.003867  1
  H  H12  1  0.192054  0.005656  0.827388  1
  H  H13  1  0.692054  0.494344  0.172612  1
  H  H14  1  0.307946  0.994344  0.327388  1
  H  H15  1  0.807946  0.505656  0.672612  1
  H  H16  1  0.195098  0.502616  0.828214  1
  H  H17  1  0.695098  0.997384  0.171786  1
  H  H18  1  0.304902  0.497384  0.328214  1
  H  H19  1  0.804902  0.002616  0.671786  1
  H  H20  1  0.572622  0.252662  0.834359  1
  H  H21  1  0.072622  0.247338  0.165641  1
  H  H22  1  0.927378  0.747338  0.334359  1
  H  H23  1  0.427378  0.752662  0.665641  1
  H  H24  1  0.000791  0.040022  0.996255  1
  H  H25  1  0.500791  0.459978  0.003745  1
  H  H26  1  0.499209  0.959978  0.496255  1
  H  H27  1  0.999209  0.540022  0.503745  1
