# generated using pymatgen
data_TiAg3F8
_symmetry_space_group_name_H-M   'P 1'
_cell_length_a   5.63824139
_cell_length_b   5.64250354
_cell_length_c   5.63584054
_cell_angle_alpha   94.33353509
_cell_angle_beta   94.36235734
_cell_angle_gamma   85.67966486
_symmetry_Int_Tables_number   1
_chemical_formula_structural   TiAg3F8
_chemical_formula_sum   'Ti1 Ag3 F8'
_cell_volume   177.82980698
_cell_formula_units_Z   1
loop_
 _symmetry_equiv_pos_site_id
 _symmetry_equiv_pos_as_xyz
  1  'x, y, z'
loop_
 _atom_site_type_symbol
 _atom_site_label
 _atom_site_symmetry_multiplicity
 _atom_site_fract_x
 _atom_site_fract_y
 _atom_site_fract_z
 _atom_site_occupancy
  Ti  Ti0  1  0.499998  0.000000  0.500001  1
  Ag  Ag1  1  0.000000  0.000000  0.000000  1
  Ag  Ag2  1  0.499998  0.500001  0.000000  1
  Ag  Ag3  1  0.000000  0.499999  0.499999  1
  F  F4  1  0.852893  0.352751  0.147458  1
  F  F5  1  0.653848  0.877032  0.222893  1
  F  F6  1  0.223081  0.846585  0.377284  1
  F  F7  1  0.377378  0.276726  0.346172  1
  F  F8  1  0.622621  0.723274  0.653828  1
  F  F9  1  0.776922  0.153415  0.622714  1
  F  F10  1  0.346150  0.122968  0.777107  1
  F  F11  1  0.147108  0.647247  0.852542  1
