# generated using pymatgen
data_Y(NiH3)2
_symmetry_space_group_name_H-M   'P 1'
_cell_length_a   4.37986731
_cell_length_b   4.36419550
_cell_length_c   4.18397200
_cell_angle_alpha   89.41350891
_cell_angle_beta   90.40847719
_cell_angle_gamma   119.92241935
_symmetry_Int_Tables_number   1
_chemical_formula_structural   Y(NiH3)2
_chemical_formula_sum   'Y1 Ni2 H6'
_cell_volume   69.31059001
_cell_formula_units_Z   1
loop_
 _symmetry_equiv_pos_site_id
 _symmetry_equiv_pos_as_xyz
  1  'x, y, z'
loop_
 _atom_site_type_symbol
 _atom_site_label
 _atom_site_symmetry_multiplicity
 _atom_site_fract_x
 _atom_site_fract_y
 _atom_site_fract_z
 _atom_site_occupancy
  Y  Y0  1  0.474799  0.394259  0.508589  1
  Ni  Ni1  1  0.142147  0.727877  0.007828  1
  Ni  Ni2  1  0.807378  0.060510  0.008234  1
  H  H3  1  0.976719  0.392528  0.257943  1
  H  H4  1  0.474387  0.892179  0.758622  1
  H  H5  1  0.973044  0.889926  0.258059  1
  H  H6  1  0.974112  0.896133  0.757859  1
  H  H7  1  0.475192  0.898581  0.257211  1
  H  H8  1  0.975357  0.395892  0.757927  1
