# generated using pymatgen
data_Ho3Lu5(AlB6)4
_symmetry_space_group_name_H-M   'P 1'
_cell_length_a   3.56173500
_cell_length_b   9.13890611
_cell_length_c   11.50156400
_cell_angle_alpha   90.00976672
_cell_angle_beta   90.00000000
_cell_angle_gamma   90.00000000
_symmetry_Int_Tables_number   1
_chemical_formula_structural   Ho3Lu5(AlB6)4
_chemical_formula_sum   'Ho3 Lu5 Al4 B24'
_cell_volume   374.38006370
_cell_formula_units_Z   1
loop_
 _symmetry_equiv_pos_site_id
 _symmetry_equiv_pos_as_xyz
  1  'x, y, z'
loop_
 _atom_site_type_symbol
 _atom_site_label
 _atom_site_symmetry_multiplicity
 _atom_site_fract_x
 _atom_site_fract_y
 _atom_site_fract_z
 _atom_site_occupancy
  Ho  Ho0  1  0.000000  0.321410  0.413219  1
  Ho  Ho1  1  0.000000  0.678517  0.586897  1
  Ho  Ho2  1  0.000000  0.821670  0.086614  1
  Lu  Lu3  1  0.000000  0.178765  0.913059  1
  Lu  Lu4  1  0.000000  0.943819  0.371967  1
  Lu  Lu5  1  0.000000  0.056385  0.628353  1
  Lu  Lu6  1  0.000000  0.443417  0.127552  1
  Lu  Lu7  1  0.000000  0.555977  0.872154  1
  Al  Al8  1  0.000000  0.639710  0.320027  1
  Al  Al9  1  0.000000  0.360102  0.680163  1
  Al  Al10  1  0.000000  0.139702  0.179407  1
  Al  Al11  1  0.000000  0.860650  0.820430  1
  B  B12  1  0.500000  0.550667  0.435752  1
  B  B13  1  0.500000  0.449088  0.564467  1
  B  B14  1  0.500000  0.051534  0.063464  1
  B  B15  1  0.500000  0.950284  0.935572  1
  B  B16  1  0.500000  0.751391  0.420382  1
  B  B17  1  0.500000  0.248579  0.580001  1
  B  B18  1  0.500000  0.250834  0.078504  1
  B  B19  1  0.500000  0.748853  0.920295  1
  B  B20  1  0.500000  0.796801  0.263079  1
  B  B21  1  0.500000  0.203089  0.737849  1
  B  B22  1  0.500000  0.296631  0.236353  1
  B  B23  1  0.500000  0.703255  0.763481  1
  B  B24  1  0.500000  0.631255  0.182411  1
  B  B25  1  0.500000  0.367744  0.818026  1
  B  B26  1  0.500000  0.131448  0.317277  1
  B  B27  1  0.500000  0.868816  0.682822  1
  B  B28  1  0.500000  0.979261  0.212597  1
  B  B29  1  0.500000  0.021737  0.788003  1
  B  B30  1  0.500000  0.478919  0.286868  1
  B  B31  1  0.500000  0.520781  0.713157  1
  B  B32  1  0.500000  0.602510  0.028419  1
  B  B33  1  0.500000  0.396250  0.971163  1
  B  B34  1  0.500000  0.102369  0.471700  1
  B  B35  1  0.500000  0.897778  0.528520  1
