# generated using pymatgen
data_Ho3Mg5(B6Ru)4
_symmetry_space_group_name_H-M   'P 1'
_cell_length_a   3.53689700
_cell_length_b   8.88492653
_cell_length_c   11.20316902
_cell_angle_alpha   89.92434162
_cell_angle_beta   90.00000000
_cell_angle_gamma   90.00000000
_symmetry_Int_Tables_number   1
_chemical_formula_structural   Ho3Mg5(B6Ru)4
_chemical_formula_sum   'Ho3 Mg5 B24 Ru4'
_cell_volume   352.06006347
_cell_formula_units_Z   1
loop_
 _symmetry_equiv_pos_site_id
 _symmetry_equiv_pos_as_xyz
  1  'x, y, z'
loop_
 _atom_site_type_symbol
 _atom_site_label
 _atom_site_symmetry_multiplicity
 _atom_site_fract_x
 _atom_site_fract_y
 _atom_site_fract_z
 _atom_site_occupancy
  Ho  Ho0  1  0.000000  0.322347  0.414162  1
  Ho  Ho1  1  0.000000  0.676804  0.587400  1
  Ho  Ho2  1  0.000000  0.823204  0.084694  1
  Mg  Mg3  1  0.000000  0.170950  0.912864  1
  Mg  Mg4  1  0.000000  0.945003  0.370386  1
  Mg  Mg5  1  0.000000  0.057284  0.630421  1
  Mg  Mg6  1  0.000000  0.443964  0.127048  1
  Mg  Mg7  1  0.000000  0.556946  0.872519  1
  B  B8  1  0.500000  0.555057  0.432848  1
  B  B9  1  0.500000  0.443835  0.568083  1
  B  B10  1  0.500000  0.054936  0.065040  1
  B  B11  1  0.500000  0.945414  0.932841  1
  B  B12  1  0.500000  0.755770  0.418388  1
  B  B13  1  0.500000  0.244227  0.583515  1
  B  B14  1  0.500000  0.255938  0.078065  1
  B  B15  1  0.500000  0.745198  0.917731  1
  B  B16  1  0.500000  0.794519  0.262626  1
  B  B17  1  0.500000  0.204531  0.739129  1
  B  B18  1  0.500000  0.294010  0.236089  1
  B  B19  1  0.500000  0.705813  0.763413  1
  B  B20  1  0.500000  0.628325  0.181832  1
  B  B21  1  0.500000  0.369462  0.820935  1
  B  B22  1  0.500000  0.128603  0.317027  1
  B  B23  1  0.500000  0.872167  0.682714  1
  B  B24  1  0.500000  0.981598  0.212052  1
  B  B25  1  0.500000  0.021715  0.788680  1
  B  B26  1  0.500000  0.480630  0.286233  1
  B  B27  1  0.500000  0.519094  0.713881  1
  B  B28  1  0.500000  0.592498  0.024915  1
  B  B29  1  0.500000  0.406339  0.974455  1
  B  B30  1  0.500000  0.092783  0.474896  1
  B  B31  1  0.500000  0.907398  0.525669  1
  Ru  Ru32  1  0.000000  0.640949  0.318749  1
  Ru  Ru33  1  0.000000  0.360090  0.684573  1
  Ru  Ru34  1  0.000000  0.141813  0.177976  1
  Ru  Ru35  1  0.000000  0.860785  0.818153  1
