# generated using pymatgen
data_TbNd16Tm3Sn16
_symmetry_space_group_name_H-M   'P 1'
_cell_length_a   8.22268600
_cell_length_b   8.37781800
_cell_length_c   15.91058400
_cell_angle_alpha   90.00000000
_cell_angle_beta   90.00000000
_cell_angle_gamma   90.00038660
_symmetry_Int_Tables_number   1
_chemical_formula_structural   TbNd16Tm3Sn16
_chemical_formula_sum   'Tb1 Nd16 Tm3 Sn16'
_cell_volume   1096.05096413
_cell_formula_units_Z   1
loop_
 _symmetry_equiv_pos_site_id
 _symmetry_equiv_pos_as_xyz
  1  'x, y, z'
loop_
 _atom_site_type_symbol
 _atom_site_label
 _atom_site_symmetry_multiplicity
 _atom_site_fract_x
 _atom_site_fract_y
 _atom_site_fract_z
 _atom_site_occupancy
  Tb  Tb0  1  0.198778  0.502039  0.250000  1
  Nd  Nd1  1  0.017873  0.180831  0.401426  1
  Nd  Nd2  1  0.368078  0.837716  0.120861  1
  Nd  Nd3  1  0.132162  0.337533  0.621008  1
  Nd  Nd4  1  0.482029  0.680953  0.901397  1
  Nd  Nd5  1  0.867537  0.662729  0.120919  1
  Nd  Nd6  1  0.132162  0.337533  0.878992  1
  Nd  Nd7  1  0.482029  0.680953  0.598603  1
  Nd  Nd8  1  0.632117  0.162500  0.620914  1
  Nd  Nd9  1  0.867537  0.662729  0.379081  1
  Nd  Nd10  1  0.017873  0.180831  0.098574  1
  Nd  Nd11  1  0.982067  0.819023  0.901427  1
  Nd  Nd12  1  0.632117  0.162500  0.879086  1
  Nd  Nd13  1  0.518159  0.318908  0.098520  1
  Nd  Nd14  1  0.368078  0.837716  0.379139  1
  Nd  Nd15  1  0.982067  0.819023  0.598573  1
  Nd  Nd16  1  0.518159  0.318908  0.401480  1
  Tm  Tm17  1  0.699419  0.997870  0.250000  1
  Tm  Tm18  1  0.300647  0.002033  0.750000  1
  Tm  Tm19  1  0.800618  0.497922  0.750000  1
  Sn  Sn20  1  0.791984  0.464992  0.543976  1
  Sn  Sn21  1  0.708005  0.964908  0.456092  1
  Sn  Sn22  1  0.675356  0.853237  0.750000  1
  Sn  Sn23  1  0.208016  0.535139  0.456385  1
  Sn  Sn24  1  0.291981  0.035069  0.956027  1
  Sn  Sn25  1  0.824524  0.353038  0.250000  1
  Sn  Sn26  1  0.791984  0.464992  0.956024  1
  Sn  Sn27  1  0.564875  0.616605  0.250000  1
  Sn  Sn28  1  0.208016  0.535139  0.043615  1
  Sn  Sn29  1  0.435941  0.383496  0.750000  1
  Sn  Sn30  1  0.175270  0.646864  0.750000  1
  Sn  Sn31  1  0.935907  0.116507  0.750000  1
  Sn  Sn32  1  0.291981  0.035069  0.543973  1
  Sn  Sn33  1  0.708005  0.964908  0.043908  1
  Sn  Sn34  1  0.324717  0.146032  0.250000  1
  Sn  Sn35  1  0.063933  0.883753  0.250000  1
