# generated using pymatgen
data_CsSnH9
_symmetry_space_group_name_H-M   'P 1'
_cell_length_a   11.26110900
_cell_length_b   5.98579052
_cell_length_c   6.89140823
_cell_angle_alpha   60.42472687
_cell_angle_beta   90.00000000
_cell_angle_gamma   90.00000000
_symmetry_Int_Tables_number   1
_chemical_formula_structural   CsSnH9
_chemical_formula_sum   'Cs2 Sn2 H18'
_cell_volume   404.00256961
_cell_formula_units_Z   2
loop_
 _symmetry_equiv_pos_site_id
 _symmetry_equiv_pos_as_xyz
  1  'x, y, z'
loop_
 _atom_site_type_symbol
 _atom_site_label
 _atom_site_symmetry_multiplicity
 _atom_site_fract_x
 _atom_site_fract_y
 _atom_site_fract_z
 _atom_site_occupancy
  Cs  Cs0  1  0.500000  0.000000  0.000000  1
  Cs  Cs1  1  0.000000  0.000000  0.000000  1
  Sn  Sn2  1  0.250000  0.711705  0.577145  1
  Sn  Sn3  1  0.750000  0.288295  0.422855  1
  H  H4  1  0.250000  0.808547  0.981431  1
  H  H5  1  0.750000  0.191453  0.018569  1
  H  H6  1  0.250000  0.395129  0.824670  1
  H  H7  1  0.750000  0.604871  0.175330  1
  H  H8  1  0.250000  0.802725  0.094594  1
  H  H9  1  0.750000  0.197275  0.905406  1
  H  H10  1  0.394964  0.413742  0.307175  1
  H  H11  1  0.894964  0.586258  0.692825  1
  H  H12  1  0.605036  0.586258  0.692825  1
  H  H13  1  0.105036  0.413742  0.307175  1
  H  H14  1  0.365120  0.821101  0.693422  1
  H  H15  1  0.865120  0.178899  0.306578  1
  H  H16  1  0.634880  0.178899  0.306578  1
  H  H17  1  0.134880  0.821101  0.693422  1
  H  H18  1  0.544400  0.637184  0.697536  1
  H  H19  1  0.044400  0.362816  0.302464  1
  H  H20  1  0.455600  0.362816  0.302464  1
  H  H21  1  0.955600  0.637184  0.697536  1
