# generated using pymatgen
data_Nd8Nb(RuO8)3
_symmetry_space_group_name_H-M   'P 1'
_cell_length_a   10.22862938
_cell_length_b   10.18251145
_cell_length_c   5.61572014
_cell_angle_alpha   75.19839203
_cell_angle_beta   74.98964215
_cell_angle_gamma   69.08263172
_symmetry_Int_Tables_number   1
_chemical_formula_structural   Nd8Nb(RuO8)3
_chemical_formula_sum   'Nd8 Nb1 Ru3 O24'
_cell_volume   519.02193650
_cell_formula_units_Z   1
loop_
 _symmetry_equiv_pos_site_id
 _symmetry_equiv_pos_as_xyz
  1  'x, y, z'
loop_
 _atom_site_type_symbol
 _atom_site_label
 _atom_site_symmetry_multiplicity
 _atom_site_fract_x
 _atom_site_fract_y
 _atom_site_fract_z
 _atom_site_occupancy
  Nd  Nd0  1  0.111844  0.890927  0.753713  1
  Nd  Nd1  1  0.893266  0.107661  0.252627  1
  Nd  Nd2  1  0.065039  0.285419  0.627668  1
  Nd  Nd3  1  0.711094  0.935395  0.877700  1
  Nd  Nd4  1  0.932524  0.716682  0.380316  1
  Nd  Nd5  1  0.291353  0.053474  0.124583  1
  Nd  Nd6  1  0.628780  0.374098  0.739593  1
  Nd  Nd7  1  0.371049  0.640878  0.240367  1
  Nb  Nb8  1  0.509248  0.798297  0.558432  1
  Ru  Ru9  1  0.199924  0.498048  0.954030  1
  Ru  Ru10  1  0.497654  0.200312  0.444036  1
  Ru  Ru11  1  0.798803  0.500946  0.048541  1
  O  O12  1  0.613507  0.178194  0.144397  1
  O  O13  1  0.828451  0.384470  0.347640  1
  O  O14  1  0.380684  0.828347  0.874021  1
  O  O15  1  0.171298  0.611458  0.655180  1
  O  O16  1  0.473743  0.067801  0.724583  1
  O  O17  1  0.930463  0.525269  0.766610  1
  O  O18  1  0.525883  0.931258  0.246455  1
  O  O19  1  0.070750  0.471633  0.239414  1
  O  O20  1  0.326245  0.214672  0.368339  1
  O  O21  1  0.784452  0.671790  0.132579  1
  O  O22  1  0.686314  0.788311  0.627328  1
  O  O23  1  0.215383  0.325642  0.873657  1
  O  O24  1  0.888077  0.924038  0.076073  1
  O  O25  1  0.077367  0.111847  0.426313  1
  O  O26  1  0.107178  0.078523  0.928113  1
  O  O27  1  0.929448  0.891326  0.570811  1
  O  O28  1  0.160850  0.685216  0.090856  1
  O  O29  1  0.305069  0.839121  0.418099  1
  O  O30  1  0.835272  0.312684  0.908963  1
  O  O31  1  0.685316  0.163752  0.585322  1
  O  O32  1  0.382449  0.457110  0.984433  1
  O  O33  1  0.538978  0.610017  0.518259  1
  O  O34  1  0.617056  0.543170  0.010134  1
  O  O35  1  0.455188  0.382214  0.480816  1
