# generated using pymatgen
data_SrMo2F10
_symmetry_space_group_name_H-M   'P 1'
_cell_length_a   11.01770100
_cell_length_b   5.99576540
_cell_length_c   7.85053100
_cell_angle_alpha   71.79294727
_cell_angle_beta   90.00000000
_cell_angle_gamma   90.00000000
_symmetry_Int_Tables_number   1
_chemical_formula_structural   SrMo2F10
_chemical_formula_sum   'Sr2 Mo4 F20'
_cell_volume   492.63798500
_cell_formula_units_Z   2
loop_
 _symmetry_equiv_pos_site_id
 _symmetry_equiv_pos_as_xyz
  1  'x, y, z'
loop_
 _atom_site_type_symbol
 _atom_site_label
 _atom_site_symmetry_multiplicity
 _atom_site_fract_x
 _atom_site_fract_y
 _atom_site_fract_z
 _atom_site_occupancy
  Sr  Sr0  1  0.762509  0.471977  0.749083  1
  Sr  Sr1  1  0.237491  0.471977  0.249083  1
  Mo  Mo2  1  0.005312  0.087304  0.603977  1
  Mo  Mo3  1  0.500652  0.909528  0.899333  1
  Mo  Mo4  1  0.499348  0.909528  0.399333  1
  Mo  Mo5  1  0.994688  0.087304  0.103977  1
  F  F6  1  0.120324  0.353896  0.550053  1
  F  F7  1  0.617344  0.652702  0.899889  1
  F  F8  1  0.382656  0.652702  0.399889  1
  F  F9  1  0.879676  0.353896  0.050053  1
  F  F10  1  0.873599  0.323587  0.521497  1
  F  F11  1  0.376412  0.672798  0.011430  1
  F  F12  1  0.623588  0.672798  0.511430  1
  F  F13  1  0.126401  0.323587  0.021497  1
  F  F14  1  0.636135  0.129548  0.795409  1
  F  F15  1  0.133319  0.868468  0.699668  1
  F  F16  1  0.866681  0.868468  0.199668  1
  F  F17  1  0.363865  0.129548  0.295409  1
  F  F18  1  0.395462  0.166145  0.890310  1
  F  F19  1  0.887092  0.828128  0.634885  1
  F  F20  1  0.112908  0.828128  0.134885  1
  F  F21  1  0.604538  0.166145  0.390310  1
  F  F22  1  0.940568  0.098339  0.849230  1
  F  F23  1  0.437818  0.908433  0.649778  1
  F  F24  1  0.562182  0.908433  0.149778  1
  F  F25  1  0.059432  0.098339  0.349230  1
