# generated using pymatgen
data_Tb2Mn3Fe4Ni5P7
_symmetry_space_group_name_H-M   'P 1'
_cell_length_a   9.10728808
_cell_length_b   9.13001284
_cell_length_c   3.64066200
_cell_angle_alpha   90.00000000
_cell_angle_beta   90.00000000
_cell_angle_gamma   119.97327238
_symmetry_Int_Tables_number   1
_chemical_formula_structural   Tb2Mn3Fe4Ni5P7
_chemical_formula_sum   'Tb2 Mn3 Fe4 Ni5 P7'
_cell_volume   262.23361291
_cell_formula_units_Z   1
loop_
 _symmetry_equiv_pos_site_id
 _symmetry_equiv_pos_as_xyz
  1  'x, y, z'
loop_
 _atom_site_type_symbol
 _atom_site_label
 _atom_site_symmetry_multiplicity
 _atom_site_fract_x
 _atom_site_fract_y
 _atom_site_fract_z
 _atom_site_occupancy
  Tb  Tb0  1  0.668288  0.334040  0.000000  1
  Tb  Tb1  1  0.331468  0.665442  0.500000  1
  Mn  Mn2  1  0.101007  0.882879  0.500000  1
  Mn  Mn3  1  0.783081  0.900856  0.500000  1
  Mn  Mn4  1  0.115492  0.214443  0.500000  1
  Fe  Fe5  1  0.276250  0.118898  0.000000  1
  Fe  Fe6  1  0.841410  0.723760  0.000000  1
  Fe  Fe7  1  0.880909  0.154709  0.000000  1
  Fe  Fe8  1  0.952425  0.387552  0.500000  1
  Ni  Ni9  1  0.062334  0.631542  0.000000  1
  Ni  Ni10  1  0.566863  0.938563  0.000000  1
  Ni  Ni11  1  0.367878  0.433131  0.000000  1
  Ni  Ni12  1  0.441510  0.051494  0.500000  1
  Ni  Ni13  1  0.610636  0.560424  0.500000  1
  P  P14  1  0.297737  0.890430  0.000000  1
  P  P15  1  0.592017  0.703496  0.000000  1
  P  P16  1  0.104660  0.407624  0.000000  1
  P  P17  1  0.398633  0.282723  0.500000  1
  P  P18  1  0.883375  0.594460  0.500000  1
  P  P19  1  0.723302  0.124009  0.500000  1
  P  P20  1  0.000725  0.999526  0.000000  1
