# generated using pymatgen
data_Tb3Cr(Ni4P3)2
_symmetry_space_group_name_H-M   'P 1'
_cell_length_a   3.77337100
_cell_length_b   10.56483000
_cell_length_c   12.32984400
_cell_angle_alpha   90.00000000
_cell_angle_beta   90.00000000
_cell_angle_gamma   90.00000000
_symmetry_Int_Tables_number   1
_chemical_formula_structural   Tb3Cr(Ni4P3)2
_chemical_formula_sum   'Tb6 Cr2 Ni16 P12'
_cell_volume   491.52951640
_cell_formula_units_Z   2
loop_
 _symmetry_equiv_pos_site_id
 _symmetry_equiv_pos_as_xyz
  1  'x, y, z'
loop_
 _atom_site_type_symbol
 _atom_site_label
 _atom_site_symmetry_multiplicity
 _atom_site_fract_x
 _atom_site_fract_y
 _atom_site_fract_z
 _atom_site_occupancy
  Tb  Tb0  1  0.000000  0.500000  0.521638  1
  Tb  Tb1  1  0.500000  0.000000  0.478362  1
  Tb  Tb2  1  0.500000  0.816015  0.205816  1
  Tb  Tb3  1  0.500000  0.183985  0.205816  1
  Tb  Tb4  1  0.000000  0.683985  0.794184  1
  Tb  Tb5  1  0.000000  0.316015  0.794184  1
  Cr  Cr6  1  0.500000  0.500000  0.153453  1
  Cr  Cr7  1  0.000000  0.000000  0.846547  1
  Ni  Ni8  1  0.500000  0.500000  0.700421  1
  Ni  Ni9  1  0.000000  0.000000  0.299579  1
  Ni  Ni10  1  0.000000  0.500000  0.982446  1
  Ni  Ni11  1  0.500000  0.000000  0.017554  1
  Ni  Ni12  1  0.500000  0.333020  0.990676  1
  Ni  Ni13  1  0.500000  0.666980  0.990676  1
  Ni  Ni14  1  0.000000  0.166980  0.009324  1
  Ni  Ni15  1  0.000000  0.833020  0.009324  1
  Ni  Ni16  1  0.500000  0.301770  0.426767  1
  Ni  Ni17  1  0.500000  0.698230  0.426767  1
  Ni  Ni18  1  0.000000  0.198230  0.573233  1
  Ni  Ni19  1  0.000000  0.801770  0.573233  1
  Ni  Ni20  1  0.500000  0.880510  0.711646  1
  Ni  Ni21  1  0.500000  0.119490  0.711646  1
  Ni  Ni22  1  0.000000  0.619490  0.288354  1
  Ni  Ni23  1  0.000000  0.380510  0.288354  1
  P  P24  1  0.500000  0.500000  0.877589  1
  P  P25  1  0.000000  0.000000  0.122411  1
  P  P26  1  0.500000  0.500000  0.344735  1
  P  P27  1  0.000000  0.000000  0.655265  1
  P  P28  1  0.500000  0.313307  0.613571  1
  P  P29  1  0.500000  0.686693  0.613571  1
  P  P30  1  0.000000  0.186693  0.386429  1
  P  P31  1  0.000000  0.813307  0.386429  1
  P  P32  1  0.500000  0.848318  0.893870  1
  P  P33  1  0.500000  0.151682  0.893870  1
  P  P34  1  0.000000  0.651682  0.106130  1
  P  P35  1  0.000000  0.348318  0.106130  1
