# generated using pymatgen
data_Tm3Mn(P3Rh4)2
_symmetry_space_group_name_H-M   'P 1'
_cell_length_a   3.88764100
_cell_length_b   11.23118400
_cell_length_c   12.50867500
_cell_angle_alpha   90.00000000
_cell_angle_beta   90.00000000
_cell_angle_gamma   90.00000000
_symmetry_Int_Tables_number   1
_chemical_formula_structural   Tm3Mn(P3Rh4)2
_chemical_formula_sum   'Tm6 Mn2 P12 Rh16'
_cell_volume   546.16391735
_cell_formula_units_Z   2
loop_
 _symmetry_equiv_pos_site_id
 _symmetry_equiv_pos_as_xyz
  1  'x, y, z'
loop_
 _atom_site_type_symbol
 _atom_site_label
 _atom_site_symmetry_multiplicity
 _atom_site_fract_x
 _atom_site_fract_y
 _atom_site_fract_z
 _atom_site_occupancy
  Tm  Tm0  1  0.000000  0.500000  0.522302  1
  Tm  Tm1  1  0.500000  0.000000  0.477698  1
  Tm  Tm2  1  0.500000  0.820020  0.200830  1
  Tm  Tm3  1  0.500000  0.179980  0.200830  1
  Tm  Tm4  1  0.000000  0.679980  0.799170  1
  Tm  Tm5  1  0.000000  0.320020  0.799170  1
  Mn  Mn6  1  0.000000  0.500000  0.988818  1
  Mn  Mn7  1  0.500000  0.000000  0.011182  1
  P  P8  1  0.500000  0.500000  0.883157  1
  P  P9  1  0.000000  0.000000  0.116843  1
  P  P10  1  0.500000  0.500000  0.349937  1
  P  P11  1  0.000000  0.000000  0.650063  1
  P  P12  1  0.500000  0.314463  0.621082  1
  P  P13  1  0.500000  0.685537  0.621082  1
  P  P14  1  0.000000  0.185537  0.378918  1
  P  P15  1  0.000000  0.814463  0.378918  1
  P  P16  1  0.500000  0.849510  0.896828  1
  P  P17  1  0.500000  0.150490  0.896828  1
  P  P18  1  0.000000  0.650490  0.103172  1
  P  P19  1  0.000000  0.349510  0.103172  1
  Rh  Rh20  1  0.500000  0.500000  0.161846  1
  Rh  Rh21  1  0.000000  0.000000  0.838154  1
  Rh  Rh22  1  0.500000  0.500000  0.698758  1
  Rh  Rh23  1  0.000000  0.000000  0.301242  1
  Rh  Rh24  1  0.500000  0.333809  0.991015  1
  Rh  Rh25  1  0.500000  0.666191  0.991015  1
  Rh  Rh26  1  0.000000  0.166191  0.008985  1
  Rh  Rh27  1  0.000000  0.833809  0.008985  1
  Rh  Rh28  1  0.500000  0.295614  0.430406  1
  Rh  Rh29  1  0.500000  0.704386  0.430406  1
  Rh  Rh30  1  0.000000  0.204386  0.569594  1
  Rh  Rh31  1  0.000000  0.795614  0.569594  1
  Rh  Rh32  1  0.500000  0.872298  0.712626  1
  Rh  Rh33  1  0.500000  0.127702  0.712626  1
  Rh  Rh34  1  0.000000  0.627702  0.287374  1
  Rh  Rh35  1  0.000000  0.372298  0.287374  1
