# generated using pymatgen
data_PuAsS
_symmetry_space_group_name_H-M   'P 1'
_cell_length_a   3.86974900
_cell_length_b   3.87044300
_cell_length_c   16.49678000
_cell_angle_alpha   90.00000000
_cell_angle_beta   90.00000000
_cell_angle_gamma   90.00000000
_symmetry_Int_Tables_number   1
_chemical_formula_structural   PuAsS
_chemical_formula_sum   'Pu4 As4 S4'
_cell_volume   247.08288032
_cell_formula_units_Z   4
loop_
 _symmetry_equiv_pos_site_id
 _symmetry_equiv_pos_as_xyz
  1  'x, y, z'
loop_
 _atom_site_type_symbol
 _atom_site_label
 _atom_site_symmetry_multiplicity
 _atom_site_fract_x
 _atom_site_fract_y
 _atom_site_fract_z
 _atom_site_occupancy
  Pu  Pu0  1  0.749088  0.250000  0.853562  1
  Pu  Pu1  1  0.750912  0.250000  0.353562  1
  Pu  Pu2  1  0.250912  0.750000  0.146438  1
  Pu  Pu3  1  0.249088  0.750000  0.646438  1
  As  As4  1  0.746759  0.750000  0.499877  1
  As  As5  1  0.753241  0.750000  0.999877  1
  As  As6  1  0.253241  0.250000  0.500123  1
  As  As7  1  0.246759  0.250000  0.000123  1
  S  S8  1  0.749236  0.250000  0.681634  1
  S  S9  1  0.750764  0.250000  0.181634  1
  S  S10  1  0.250764  0.750000  0.318366  1
  S  S11  1  0.249236  0.750000  0.818366  1
