# generated using pymatgen
data_Zr12Al4Cu7PdN4
_symmetry_space_group_name_H-M   'P 1'
_cell_length_a   8.53658180
_cell_length_b   8.53658237
_cell_length_c   8.53658155
_cell_angle_alpha   59.96633414
_cell_angle_beta   59.96632923
_cell_angle_gamma   59.96632618
_symmetry_Int_Tables_number   1
_chemical_formula_structural   Zr12Al4Cu7PdN4
_chemical_formula_sum   'Zr12 Al4 Cu7 Pd1 N4'
_cell_volume   439.54698578
_cell_formula_units_Z   1
loop_
 _symmetry_equiv_pos_site_id
 _symmetry_equiv_pos_as_xyz
  1  'x, y, z'
loop_
 _atom_site_type_symbol
 _atom_site_label
 _atom_site_symmetry_multiplicity
 _atom_site_fract_x
 _atom_site_fract_y
 _atom_site_fract_z
 _atom_site_occupancy
  Zr  Zr0  1  0.810915  0.810915  0.192111  1
  Zr  Zr1  1  0.188942  0.188942  0.811443  1
  Zr  Zr2  1  0.810915  0.192111  0.810915  1
  Zr  Zr3  1  0.188942  0.811443  0.188942  1
  Zr  Zr4  1  0.192111  0.810915  0.810915  1
  Zr  Zr5  1  0.811443  0.188942  0.188942  1
  Zr  Zr6  1  0.438681  0.438681  0.060749  1
  Zr  Zr7  1  0.060491  0.060491  0.439723  1
  Zr  Zr8  1  0.438681  0.060749  0.438681  1
  Zr  Zr9  1  0.060491  0.439723  0.060491  1
  Zr  Zr10  1  0.060749  0.438681  0.438681  1
  Zr  Zr11  1  0.439723  0.060491  0.060491  1
  Al  Al12  1  0.127493  0.622660  0.622660  1
  Al  Al13  1  0.622660  0.127493  0.622660  1
  Al  Al14  1  0.622660  0.622660  0.127493  1
  Al  Al15  1  0.624751  0.624751  0.624751  1
  Cu  Cu16  1  0.741502  0.419686  0.419686  1
  Cu  Cu17  1  0.419686  0.741502  0.419686  1
  Cu  Cu18  1  0.419686  0.419686  0.741502  1
  Cu  Cu19  1  0.419022  0.419022  0.419022  1
  Cu  Cu20  1  0.507242  0.830059  0.830059  1
  Cu  Cu21  1  0.830059  0.507242  0.830059  1
  Cu  Cu22  1  0.830059  0.830059  0.507242  1
  Pd  Pd23  1  0.832646  0.832646  0.832646  1
  N  N24  1  0.625428  0.124836  0.124836  1
  N  N25  1  0.124836  0.625428  0.124836  1
  N  N26  1  0.124836  0.124836  0.625428  1
  N  N27  1  0.125349  0.125349  0.125349  1
