# generated using pymatgen
data_Dy3UPt12
_symmetry_space_group_name_H-M   'P 1'
_cell_length_a   5.83707600
_cell_length_b   5.83707591
_cell_length_c   9.58927400
_cell_angle_alpha   90.00000000
_cell_angle_beta   90.00000000
_cell_angle_gamma   120.00000049
_symmetry_Int_Tables_number   1
_chemical_formula_structural   Dy3UPt12
_chemical_formula_sum   'Dy3 U1 Pt12'
_cell_volume   282.94827278
_cell_formula_units_Z   1
loop_
 _symmetry_equiv_pos_site_id
 _symmetry_equiv_pos_as_xyz
  1  'x, y, z'
loop_
 _atom_site_type_symbol
 _atom_site_label
 _atom_site_symmetry_multiplicity
 _atom_site_fract_x
 _atom_site_fract_y
 _atom_site_fract_z
 _atom_site_occupancy
  Dy  Dy0  1  0.000000  0.000000  0.504911  1
  Dy  Dy1  1  0.000000  0.000000  0.995089  1
  Dy  Dy2  1  0.333333  0.666667  0.750000  1
  U  U3  1  0.666667  0.333333  0.250000  1
  Pt  Pt4  1  0.502700  0.497300  0.495726  1
  Pt  Pt5  1  0.502700  0.005400  0.495726  1
  Pt  Pt6  1  0.994600  0.497300  0.495726  1
  Pt  Pt7  1  0.502700  0.497300  0.004274  1
  Pt  Pt8  1  0.502700  0.005400  0.004274  1
  Pt  Pt9  1  0.994600  0.497300  0.004274  1
  Pt  Pt10  1  0.173024  0.826976  0.250000  1
  Pt  Pt11  1  0.173024  0.346047  0.250000  1
  Pt  Pt12  1  0.653953  0.826976  0.250000  1
  Pt  Pt13  1  0.825222  0.174778  0.750000  1
  Pt  Pt14  1  0.825222  0.650442  0.750000  1
  Pt  Pt15  1  0.349558  0.174778  0.750000  1
