# generated using pymatgen
data_U4Si2As4Ru7
_symmetry_space_group_name_H-M   'P 1'
_cell_length_a   7.18600952
_cell_length_b   7.18600887
_cell_length_c   7.20654406
_cell_angle_alpha   109.52151491
_cell_angle_beta   109.52151178
_cell_angle_gamma   109.25474110
_symmetry_Int_Tables_number   1
_chemical_formula_structural   U4Si2As4Ru7
_chemical_formula_sum   'U4 Si2 As4 Ru7'
_cell_volume   286.87846944
_cell_formula_units_Z   1
loop_
 _symmetry_equiv_pos_site_id
 _symmetry_equiv_pos_as_xyz
  1  'x, y, z'
loop_
 _atom_site_type_symbol
 _atom_site_label
 _atom_site_symmetry_multiplicity
 _atom_site_fract_x
 _atom_site_fract_y
 _atom_site_fract_z
 _atom_site_occupancy
  U  U0  1  0.001036  0.001036  0.498002  1
  U  U1  1  0.500174  0.000174  0.000348  1
  U  U2  1  0.000174  0.500174  0.000348  1
  U  U3  1  0.496966  0.496966  0.498002  1
  Si  Si4  1  0.315980  0.001452  0.317432  1
  Si  Si5  1  0.001452  0.315980  0.317432  1
  As  As6  1  0.000104  0.691000  0.691103  1
  As  As7  1  0.308961  0.308961  0.002100  1
  As  As8  1  0.693138  0.693138  0.002100  1
  As  As9  1  0.691000  0.000104  0.691103  1
  Ru  Ru10  1  0.750682  0.493685  0.244366  1
  Ru  Ru11  1  0.493685  0.750682  0.244366  1
  Ru  Ru12  1  0.495575  0.247109  0.742684  1
  Ru  Ru13  1  0.745219  0.245219  0.490438  1
  Ru  Ru14  1  0.245219  0.745219  0.490438  1
  Ru  Ru15  1  0.247109  0.495575  0.742684  1
  Ru  Ru16  1  0.013527  0.013527  0.027054  1
