# generated using pymatgen
data_Tb7Y(Tm3Pt4)4
_symmetry_space_group_name_H-M   'P 1'
_cell_length_a   7.46642901
_cell_length_b   7.54171707
_cell_length_c   14.68117200
_cell_angle_alpha   90.00431520
_cell_angle_beta   90.00237887
_cell_angle_gamma   90.00619912
_symmetry_Int_Tables_number   1
_chemical_formula_structural   Tb7Y(Tm3Pt4)4
_chemical_formula_sum   'Tb7 Y1 Tm12 Pt16'
_cell_volume   826.69231049
_cell_formula_units_Z   1
loop_
 _symmetry_equiv_pos_site_id
 _symmetry_equiv_pos_as_xyz
  1  'x, y, z'
loop_
 _atom_site_type_symbol
 _atom_site_label
 _atom_site_symmetry_multiplicity
 _atom_site_fract_x
 _atom_site_fract_y
 _atom_site_fract_z
 _atom_site_occupancy
  Tb  Tb0  1  0.998324  0.820555  0.406760  1
  Tb  Tb1  1  0.498187  0.679670  0.093092  1
  Tb  Tb2  1  0.501783  0.320534  0.593160  1
  Tb  Tb3  1  0.001817  0.179458  0.906940  1
  Tb  Tb4  1  0.001756  0.179507  0.593142  1
  Tb  Tb5  1  0.501727  0.320501  0.906845  1
  Tb  Tb6  1  0.498246  0.679524  0.406822  1
  Y  Y7  1  0.998275  0.819932  0.093150  1
  Tm  Tm8  1  0.681020  0.989558  0.249894  1
  Tm  Tm9  1  0.180779  0.510452  0.249940  1
  Tm  Tm10  1  0.819102  0.489646  0.750019  1
  Tm  Tm11  1  0.319176  0.010394  0.750074  1
  Tm  Tm12  1  0.656146  0.832361  0.622610  1
  Tm  Tm13  1  0.156030  0.667792  0.877527  1
  Tm  Tm14  1  0.843943  0.332306  0.377351  1
  Tm  Tm15  1  0.343649  0.167501  0.122571  1
  Tm  Tm16  1  0.343843  0.167589  0.377309  1
  Tm  Tm17  1  0.843951  0.332355  0.122558  1
  Tm  Tm18  1  0.156172  0.667703  0.622609  1
  Tm  Tm19  1  0.656291  0.832395  0.877482  1
  Pt  Pt20  1  0.816614  0.641403  0.250180  1
  Pt  Pt21  1  0.316850  0.858535  0.250005  1
  Pt  Pt22  1  0.683184  0.141515  0.749967  1
  Pt  Pt23  1  0.183102  0.358504  0.749991  1
  Pt  Pt24  1  0.546388  0.383927  0.250017  1
  Pt  Pt25  1  0.046399  0.116318  0.250068  1
  Pt  Pt26  1  0.953623  0.883822  0.749992  1
  Pt  Pt27  1  0.453614  0.616174  0.749994  1
  Pt  Pt28  1  0.817751  0.533705  0.542267  1
  Pt  Pt29  1  0.317955  0.966225  0.957753  1
  Pt  Pt30  1  0.682236  0.033738  0.457749  1
  Pt  Pt31  1  0.182366  0.466237  0.042250  1
  Pt  Pt32  1  0.182175  0.466296  0.457788  1
  Pt  Pt33  1  0.682044  0.033876  0.042210  1
  Pt  Pt34  1  0.317823  0.966397  0.542314  1
  Pt  Pt35  1  0.817663  0.533595  0.957599  1
