# generated using pymatgen
data_La4Ga3RhI2
_symmetry_space_group_name_H-M   'P 1'
_cell_length_a   4.35869000
_cell_length_b   4.35868927
_cell_length_c   17.69335900
_cell_angle_alpha   90.00000000
_cell_angle_beta   90.00000000
_cell_angle_gamma   119.99999037
_symmetry_Int_Tables_number   1
_chemical_formula_structural   La4Ga3RhI2
_chemical_formula_sum   'La4 Ga3 Rh1 I2'
_cell_volume   291.10713805
_cell_formula_units_Z   1
loop_
 _symmetry_equiv_pos_site_id
 _symmetry_equiv_pos_as_xyz
  1  'x, y, z'
loop_
 _atom_site_type_symbol
 _atom_site_label
 _atom_site_symmetry_multiplicity
 _atom_site_fract_x
 _atom_site_fract_y
 _atom_site_fract_z
 _atom_site_occupancy
  La  La0  1  0.000000  0.000000  0.107647  1
  La  La1  1  0.000000  0.000000  0.897182  1
  La  La2  1  0.000000  0.000000  0.618207  1
  La  La3  1  0.000000  0.000000  0.381153  1
  Ga  Ga4  1  0.333333  0.666667  0.510792  1
  Ga  Ga5  1  0.666667  0.333333  0.488691  1
  Ga  Ga6  1  0.666667  0.333333  0.005253  1
  Rh  Rh7  1  0.333333  0.666667  0.993559  1
  I  I8  1  0.333333  0.666667  0.250646  1
  I  I9  1  0.666667  0.333333  0.746870  1
