# generated using pymatgen
data_Zr16Fe4Os3Rh
_symmetry_space_group_name_H-M   'P 1'
_cell_length_a   8.70695551
_cell_length_b   8.67899737
_cell_length_c   8.67899700
_cell_angle_alpha   60.00000521
_cell_angle_beta   60.10616790
_cell_angle_gamma   60.10616704
_symmetry_Int_Tables_number   1
_chemical_formula_structural   Zr16Fe4Os3Rh
_chemical_formula_sum   'Zr16 Fe4 Os3 Rh1'
_cell_volume   464.49976661
_cell_formula_units_Z   1
loop_
 _symmetry_equiv_pos_site_id
 _symmetry_equiv_pos_as_xyz
  1  'x, y, z'
loop_
 _atom_site_type_symbol
 _atom_site_label
 _atom_site_symmetry_multiplicity
 _atom_site_fract_x
 _atom_site_fract_y
 _atom_site_fract_z
 _atom_site_occupancy
  Zr  Zr0  1  0.054686  0.648438  0.648438  1
  Zr  Zr1  1  0.646644  0.056254  0.648551  1
  Zr  Zr2  1  0.646644  0.648551  0.056254  1
  Zr  Zr3  1  0.646644  0.648551  0.648551  1
  Zr  Zr4  1  0.798845  0.802049  0.199553  1
  Zr  Zr5  1  0.200701  0.199924  0.799688  1
  Zr  Zr6  1  0.798845  0.199553  0.802049  1
  Zr  Zr7  1  0.200701  0.799688  0.199924  1
  Zr  Zr8  1  0.200701  0.799688  0.799688  1
  Zr  Zr9  1  0.798845  0.199553  0.199553  1
  Zr  Zr10  1  0.436809  0.436839  0.063176  1
  Zr  Zr11  1  0.066422  0.058951  0.437314  1
  Zr  Zr12  1  0.436809  0.063176  0.436839  1
  Zr  Zr13  1  0.066422  0.437314  0.058951  1
  Zr  Zr14  1  0.066422  0.437314  0.437314  1
  Zr  Zr15  1  0.436809  0.063176  0.063176  1
  Fe  Fe16  1  0.420085  0.859972  0.859972  1
  Fe  Fe17  1  0.860251  0.418622  0.860563  1
  Fe  Fe18  1  0.860251  0.860563  0.418622  1
  Fe  Fe19  1  0.860251  0.860563  0.860563  1
  Os  Os20  1  0.416496  0.745024  0.419241  1
  Os  Os21  1  0.416496  0.419241  0.745024  1
  Os  Os22  1  0.416496  0.419241  0.419241  1
  Rh  Rh23  1  0.746729  0.417757  0.417757  1
