# generated using pymatgen
data_CaLaTh2(AlRh)4
_symmetry_space_group_name_H-M   'P 1'
_cell_length_a   4.22737000
_cell_length_b   7.21438008
_cell_length_c   16.27623717
_cell_angle_alpha   90.01659568
_cell_angle_beta   90.00000000
_cell_angle_gamma   90.00000000
_symmetry_Int_Tables_number   1
_chemical_formula_structural   CaLaTh2(AlRh)4
_chemical_formula_sum   'Ca2 La2 Th4 Al8 Rh8'
_cell_volume   496.39028246
_cell_formula_units_Z   2
loop_
 _symmetry_equiv_pos_site_id
 _symmetry_equiv_pos_as_xyz
  1  'x, y, z'
loop_
 _atom_site_type_symbol
 _atom_site_label
 _atom_site_symmetry_multiplicity
 _atom_site_fract_x
 _atom_site_fract_y
 _atom_site_fract_z
 _atom_site_occupancy
  Ca  Ca0  1  0.250000  0.652056  0.556434  1
  Ca  Ca1  1  0.750000  0.347944  0.443566  1
  La  La2  1  0.750000  0.844453  0.060405  1
  La  La3  1  0.250000  0.155547  0.939595  1
  Th  Th4  1  0.250000  0.524987  0.776191  1
  Th  Th5  1  0.750000  0.475013  0.223809  1
  Th  Th6  1  0.750000  0.980538  0.280928  1
  Th  Th7  1  0.250000  0.019462  0.719072  1
  Al  Al8  1  0.250000  0.651499  0.354230  1
  Al  Al9  1  0.750000  0.348501  0.645770  1
  Al  Al10  1  0.750000  0.846260  0.851070  1
  Al  Al11  1  0.250000  0.153740  0.148930  1
  Al  Al12  1  0.250000  0.506340  0.061230  1
  Al  Al13  1  0.750000  0.493660  0.938770  1
  Al  Al14  1  0.750000  0.987926  0.558220  1
  Al  Al15  1  0.250000  0.012074  0.441780  1
  Rh  Rh16  1  0.250000  0.757198  0.189834  1
  Rh  Rh17  1  0.750000  0.242802  0.810166  1
  Rh  Rh18  1  0.750000  0.739748  0.688579  1
  Rh  Rh19  1  0.250000  0.260252  0.311421  1
  Rh  Rh20  1  0.250000  0.711166  0.924656  1
  Rh  Rh21  1  0.750000  0.288834  0.075344  1
  Rh  Rh22  1  0.750000  0.788460  0.424724  1
  Rh  Rh23  1  0.250000  0.211540  0.575276  1
