# generated using pymatgen
data_Pr8Te3
_symmetry_space_group_name_H-M   'P 1'
_cell_length_a   16.60079781
_cell_length_b   16.60079780
_cell_length_c   25.81218700
_cell_angle_alpha   57.49861334
_cell_angle_beta   57.49861338
_cell_angle_gamma   14.81109390
_symmetry_Int_Tables_number   1
_chemical_formula_structural   Pr8Te3
_chemical_formula_sum   'Pr32 Te12'
_cell_volume   1528.36790818
_cell_formula_units_Z   4
loop_
 _symmetry_equiv_pos_site_id
 _symmetry_equiv_pos_as_xyz
  1  'x, y, z'
loop_
 _atom_site_type_symbol
 _atom_site_label
 _atom_site_symmetry_multiplicity
 _atom_site_fract_x
 _atom_site_fract_y
 _atom_site_fract_z
 _atom_site_occupancy
  Pr  Pr0  1  0.487628  0.487628  0.434425  1
  Pr  Pr1  1  0.512372  0.512372  0.565575  1
  Pr  Pr2  1  0.665899  0.665899  0.156807  1
  Pr  Pr3  1  0.334101  0.334101  0.843193  1
  Pr  Pr4  1  0.791013  0.791013  0.132676  1
  Pr  Pr5  1  0.208987  0.208987  0.867324  1
  Pr  Pr6  1  0.121101  0.121101  0.070356  1
  Pr  Pr7  1  0.878899  0.878899  0.929644  1
  Pr  Pr8  1  0.805261  0.805261  0.743840  1
  Pr  Pr9  1  0.194739  0.194739  0.256160  1
  Pr  Pr10  1  0.935067  0.935067  0.057421  1
  Pr  Pr11  1  0.064933  0.064933  0.942579  1
  Pr  Pr12  1  0.906698  0.906698  0.414768  1
  Pr  Pr13  1  0.093302  0.093302  0.585232  1
  Pr  Pr14  1  0.831512  0.831512  0.338567  1
  Pr  Pr15  1  0.168488  0.168488  0.661433  1
  Pr  Pr16  1  0.780078  0.780078  0.610165  1
  Pr  Pr17  1  0.219922  0.219922  0.389835  1
  Pr  Pr18  1  0.914674  0.914674  0.578769  1
  Pr  Pr19  1  0.085326  0.085326  0.421231  1
  Pr  Pr20  1  0.267289  0.267289  0.037752  1
  Pr  Pr21  1  0.732711  0.732711  0.962248  1
  Pr  Pr22  1  0.952030  0.952030  0.721673  1
  Pr  Pr23  1  0.047970  0.047970  0.278327  1
  Pr  Pr24  1  0.700358  0.700358  0.533202  1
  Pr  Pr25  1  0.299642  0.299642  0.466798  1
  Pr  Pr26  1  0.349502  0.349502  0.197398  1
  Pr  Pr27  1  0.650498  0.650498  0.802602  1
  Pr  Pr28  1  0.512281  0.512281  0.088236  1
  Pr  Pr29  1  0.487719  0.487719  0.911764  1
  Pr  Pr30  1  0.441363  0.441363  0.279036  1
  Pr  Pr31  1  0.558637  0.558637  0.720964  1
  Te  Te32  1  0.631971  0.631971  0.469235  1
  Te  Te33  1  0.368029  0.368029  0.530765  1
  Te  Te34  1  0.372415  0.372415  0.030194  1
  Te  Te35  1  0.627585  0.627585  0.969806  1
  Te  Te36  1  0.927985  0.927985  0.191037  1
  Te  Te37  1  0.072015  0.072015  0.808963  1
  Te  Te38  1  0.555636  0.555636  0.179042  1
  Te  Te39  1  0.444364  0.444364  0.820958  1
  Te  Te40  1  0.603006  0.603006  0.313314  1
  Te  Te41  1  0.396994  0.396994  0.686686  1
  Te  Te42  1  0.762003  0.762003  0.277194  1
  Te  Te43  1  0.237997  0.237997  0.722806  1
