# generated using pymatgen
data_Hf12Mn9Re3N4
_symmetry_space_group_name_H-M   'P 1'
_cell_length_a   8.36287386
_cell_length_b   8.36287169
_cell_length_c   8.36287300
_cell_angle_alpha   60.22618875
_cell_angle_beta   60.22618938
_cell_angle_gamma   60.22618956
_symmetry_Int_Tables_number   1
_chemical_formula_structural   Hf12Mn9Re3N4
_chemical_formula_sum   'Hf12 Mn9 Re3 N4'
_cell_volume   415.69020615
_cell_formula_units_Z   1
loop_
 _symmetry_equiv_pos_site_id
 _symmetry_equiv_pos_as_xyz
  1  'x, y, z'
loop_
 _atom_site_type_symbol
 _atom_site_label
 _atom_site_symmetry_multiplicity
 _atom_site_fract_x
 _atom_site_fract_y
 _atom_site_fract_z
 _atom_site_occupancy
  Hf  Hf0  1  0.808943  0.808943  0.192133  1
  Hf  Hf1  1  0.191712  0.191712  0.808120  1
  Hf  Hf2  1  0.808943  0.192133  0.808943  1
  Hf  Hf3  1  0.191712  0.808120  0.191712  1
  Hf  Hf4  1  0.192133  0.808943  0.808943  1
  Hf  Hf5  1  0.808120  0.191712  0.191712  1
  Hf  Hf6  1  0.441057  0.441057  0.057867  1
  Hf  Hf7  1  0.058288  0.058288  0.441880  1
  Hf  Hf8  1  0.441057  0.057867  0.441057  1
  Hf  Hf9  1  0.058288  0.441880  0.058288  1
  Hf  Hf10  1  0.057867  0.441057  0.441057  1
  Hf  Hf11  1  0.441880  0.058288  0.058288  1
  Mn  Mn12  1  0.625000  0.625000  0.625000  1
  Mn  Mn13  1  0.731877  0.425877  0.425877  1
  Mn  Mn14  1  0.425877  0.731877  0.425877  1
  Mn  Mn15  1  0.425877  0.425877  0.731877  1
  Mn  Mn16  1  0.423054  0.423054  0.423054  1
  Mn  Mn17  1  0.518123  0.824123  0.824123  1
  Mn  Mn18  1  0.824123  0.518123  0.824123  1
  Mn  Mn19  1  0.824123  0.824123  0.518123  1
  Mn  Mn20  1  0.826946  0.826946  0.826946  1
  Re  Re21  1  0.125000  0.625000  0.625000  1
  Re  Re22  1  0.625000  0.125000  0.625000  1
  Re  Re23  1  0.625000  0.625000  0.125000  1
  N  N24  1  0.625000  0.125000  0.125000  1
  N  N25  1  0.125000  0.625000  0.125000  1
  N  N26  1  0.125000  0.125000  0.625000  1
  N  N27  1  0.125000  0.125000  0.125000  1
