# generated using pymatgen
data_Dy4Y6Si6H
_symmetry_space_group_name_H-M   'P 1'
_cell_length_a   8.45639500
_cell_length_b   8.45639571
_cell_length_c   6.30796800
_cell_angle_alpha   90.00000000
_cell_angle_beta   90.00000000
_cell_angle_gamma   119.99999332
_symmetry_Int_Tables_number   1
_chemical_formula_structural   Dy4Y6Si6H
_chemical_formula_sum   'Dy4 Y6 Si6 H1'
_cell_volume   390.65258306
_cell_formula_units_Z   1
loop_
 _symmetry_equiv_pos_site_id
 _symmetry_equiv_pos_as_xyz
  1  'x, y, z'
loop_
 _atom_site_type_symbol
 _atom_site_label
 _atom_site_symmetry_multiplicity
 _atom_site_fract_x
 _atom_site_fract_y
 _atom_site_fract_z
 _atom_site_occupancy
  Dy  Dy0  1  0.333333  0.666667  0.500000  1
  Dy  Dy1  1  0.666667  0.333333  0.500000  1
  Dy  Dy2  1  0.666667  0.333333  0.000000  1
  Dy  Dy3  1  0.333333  0.666667  0.000000  1
  Y  Y4  1  0.000000  0.752750  0.248029  1
  Y  Y5  1  0.247250  0.247250  0.248029  1
  Y  Y6  1  0.752750  0.000000  0.248029  1
  Y  Y7  1  0.000000  0.247250  0.751971  1
  Y  Y8  1  0.752750  0.752750  0.751971  1
  Y  Y9  1  0.247250  0.000000  0.751971  1
  Si  Si10  1  0.000000  0.391247  0.250425  1
  Si  Si11  1  0.608753  0.608753  0.250425  1
  Si  Si12  1  0.391247  0.000000  0.250425  1
  Si  Si13  1  0.000000  0.608753  0.749575  1
  Si  Si14  1  0.391247  0.391247  0.749575  1
  Si  Si15  1  0.608753  0.000000  0.749575  1
  H  H16  1  0.000000  0.000000  0.500000  1
