# generated using pymatgen
data_Yb2ErLu(Ga3Ir)6
_symmetry_space_group_name_H-M   'P 1'
_cell_length_a   7.54212822
_cell_length_b   7.54803755
_cell_length_c   9.54778900
_cell_angle_alpha   90.00000000
_cell_angle_beta   90.00000000
_cell_angle_gamma   119.83758362
_symmetry_Int_Tables_number   1
_chemical_formula_structural   Yb2ErLu(Ga3Ir)6
_chemical_formula_sum   'Yb2 Er1 Lu1 Ga18 Ir6'
_cell_volume   471.48714599
_cell_formula_units_Z   1
loop_
 _symmetry_equiv_pos_site_id
 _symmetry_equiv_pos_as_xyz
  1  'x, y, z'
loop_
 _atom_site_type_symbol
 _atom_site_label
 _atom_site_symmetry_multiplicity
 _atom_site_fract_x
 _atom_site_fract_y
 _atom_site_fract_z
 _atom_site_occupancy
  Yb  Yb0  1  0.996711  0.668226  0.750000  1
  Yb  Yb1  1  0.003216  0.331760  0.250000  1
  Er  Er2  1  0.332022  0.002691  0.250000  1
  Lu  Lu3  1  0.667949  0.997292  0.750000  1
  Ga  Ga4  1  0.126371  0.127397  0.750000  1
  Ga  Ga5  1  0.873149  0.872324  0.250000  1
  Ga  Ga6  1  0.998933  0.334317  0.579744  1
  Ga  Ga7  1  0.000527  0.665102  0.420705  1
  Ga  Ga8  1  0.000527  0.665102  0.079295  1
  Ga  Ga9  1  0.333774  0.998469  0.919261  1
  Ga  Ga10  1  0.998933  0.334317  0.920256  1
  Ga  Ga11  1  0.666802  0.001595  0.079901  1
  Ga  Ga12  1  0.666802  0.001595  0.420099  1
  Ga  Ga13  1  0.333774  0.998469  0.580739  1
  Ga  Ga14  1  0.331874  0.332512  0.064714  1
  Ga  Ga15  1  0.668132  0.667949  0.934781  1
  Ga  Ga16  1  0.668132  0.667949  0.565219  1
  Ga  Ga17  1  0.331874  0.332512  0.435286  1
  Ga  Ga18  1  0.339216  0.547071  0.750000  1
  Ga  Ga19  1  0.661046  0.453423  0.250000  1
  Ga  Ga20  1  0.546858  0.337869  0.750000  1
  Ga  Ga21  1  0.453366  0.662016  0.250000  1
  Ir  Ir22  1  0.671584  0.328209  0.500374  1
  Ir  Ir23  1  0.328579  0.671829  0.499984  1
  Ir  Ir24  1  0.328579  0.671829  0.000016  1
  Ir  Ir25  1  0.671584  0.328209  0.999626  1
  Ir  Ir26  1  0.999843  0.999984  0.500157  1
  Ir  Ir27  1  0.999843  0.999984  0.999843  1
