# generated using pymatgen
data_TlSb2F11
_symmetry_space_group_name_H-M   'P 1'
_cell_length_a   14.28017200
_cell_length_b   7.72709721
_cell_length_c   9.65828700
_cell_angle_alpha   65.50049706
_cell_angle_beta   90.00000000
_cell_angle_gamma   90.00000000
_symmetry_Int_Tables_number   1
_chemical_formula_structural   TlSb2F11
_chemical_formula_sum   'Tl4 Sb8 F44'
_cell_volume   969.78295490
_cell_formula_units_Z   4
loop_
 _symmetry_equiv_pos_site_id
 _symmetry_equiv_pos_as_xyz
  1  'x, y, z'
loop_
 _atom_site_type_symbol
 _atom_site_label
 _atom_site_symmetry_multiplicity
 _atom_site_fract_x
 _atom_site_fract_y
 _atom_site_fract_z
 _atom_site_occupancy
  Tl  Tl0  1  0.623807  0.747543  0.274614  1
  Tl  Tl1  1  0.376193  0.252457  0.725386  1
  Tl  Tl2  1  0.876193  0.747543  0.774614  1
  Tl  Tl3  1  0.123807  0.252457  0.225386  1
  Sb  Sb4  1  0.950368  0.737121  0.241988  1
  Sb  Sb5  1  0.049632  0.262879  0.758012  1
  Sb  Sb6  1  0.549632  0.737121  0.741988  1
  Sb  Sb7  1  0.804051  0.274087  0.312228  1
  Sb  Sb8  1  0.195949  0.725913  0.687772  1
  Sb  Sb9  1  0.304051  0.725913  0.187772  1
  Sb  Sb10  1  0.695949  0.274087  0.812228  1
  Sb  Sb11  1  0.450368  0.262879  0.258012  1
  F  F12  1  0.355797  0.892257  0.996713  1
  F  F13  1  0.946545  0.416460  0.653273  1
  F  F14  1  0.525214  0.040180  0.344584  1
  F  F15  1  0.740398  0.077544  0.281677  1
  F  F16  1  0.259602  0.922456  0.718323  1
  F  F17  1  0.872466  0.488857  0.349227  1
  F  F18  1  0.759602  0.077544  0.781677  1
  F  F19  1  0.799413  0.327619  0.912248  1
  F  F20  1  0.240398  0.922456  0.218323  1
  F  F21  1  0.474786  0.959820  0.655416  1
  F  F22  1  0.200587  0.672381  0.087752  1
  F  F23  1  0.335979  0.150235  0.355071  1
  F  F24  1  0.553455  0.416460  0.153273  1
  F  F25  1  0.144203  0.892257  0.496713  1
  F  F26  1  0.735001  0.477829  0.628253  1
  F  F27  1  0.235001  0.522171  0.871747  1
  F  F28  1  0.446545  0.583540  0.846727  1
  F  F29  1  0.970435  0.655812  0.082321  1
  F  F30  1  0.417397  0.750923  0.282439  1
  F  F31  1  0.299413  0.672381  0.587752  1
  F  F32  1  0.582603  0.788565  0.911933  1
  F  F33  1  0.029565  0.344188  0.917679  1
  F  F34  1  0.164021  0.150235  0.855071  1
  F  F35  1  0.855797  0.107743  0.503287  1
  F  F36  1  0.700587  0.327619  0.412248  1
  F  F37  1  0.627534  0.488857  0.849227  1
  F  F38  1  0.082603  0.211435  0.588067  1
  F  F39  1  0.974786  0.040180  0.844584  1
  F  F40  1  0.644203  0.107743  0.003287  1
  F  F41  1  0.582603  0.249077  0.717561  1
  F  F42  1  0.917397  0.788565  0.411933  1
  F  F43  1  0.764999  0.477829  0.128253  1
  F  F44  1  0.053455  0.583540  0.346727  1
  F  F45  1  0.372466  0.511143  0.150773  1
  F  F46  1  0.264999  0.522171  0.371747  1
  F  F47  1  0.470435  0.344188  0.417679  1
  F  F48  1  0.417397  0.211435  0.088067  1
  F  F49  1  0.529565  0.655812  0.582321  1
  F  F50  1  0.025214  0.959820  0.155416  1
  F  F51  1  0.664021  0.849765  0.644929  1
  F  F52  1  0.835979  0.849765  0.144929  1
  F  F53  1  0.917397  0.249077  0.217561  1
  F  F54  1  0.127534  0.511143  0.650773  1
  F  F55  1  0.082603  0.750923  0.782439  1
