# generated using pymatgen
data_Cs2Ba(NbBr3)6
_symmetry_space_group_name_H-M   'P 1'
_cell_length_a   11.21929854
_cell_length_b   11.21929894
_cell_length_c   11.21929789
_cell_angle_alpha   54.87387153
_cell_angle_beta   54.87387182
_cell_angle_gamma   54.87386789
_symmetry_Int_Tables_number   1
_chemical_formula_structural   Cs2Ba(NbBr3)6
_chemical_formula_sum   'Cs2 Ba1 Nb6 Br18'
_cell_volume   879.41711793
_cell_formula_units_Z   1
loop_
 _symmetry_equiv_pos_site_id
 _symmetry_equiv_pos_as_xyz
  1  'x, y, z'
loop_
 _atom_site_type_symbol
 _atom_site_label
 _atom_site_symmetry_multiplicity
 _atom_site_fract_x
 _atom_site_fract_y
 _atom_site_fract_z
 _atom_site_occupancy
  Cs  Cs0  1  0.723072  0.723072  0.723072  1
  Cs  Cs1  1  0.276928  0.276928  0.276928  1
  Ba  Ba2  1  0.000000  0.000000  0.000000  1
  Nb  Nb3  1  0.574186  0.362317  0.691092  1
  Nb  Nb4  1  0.362317  0.691092  0.574186  1
  Nb  Nb5  1  0.691092  0.574186  0.362317  1
  Nb  Nb6  1  0.637683  0.308908  0.425814  1
  Nb  Nb7  1  0.425814  0.637683  0.308908  1
  Nb  Nb8  1  0.308908  0.425814  0.637683  1
  Br  Br9  1  0.899919  0.360034  0.237062  1
  Br  Br10  1  0.825186  0.422420  0.566213  1
  Br  Br11  1  0.762938  0.100081  0.639966  1
  Br  Br12  1  0.100081  0.639966  0.762938  1
  Br  Br13  1  0.666523  0.178964  0.957397  1
  Br  Br14  1  0.237062  0.899919  0.360034  1
  Br  Br15  1  0.433787  0.174814  0.577580  1
  Br  Br16  1  0.639966  0.762938  0.100081  1
  Br  Br17  1  0.577580  0.433787  0.174814  1
  Br  Br18  1  0.042603  0.333477  0.821036  1
  Br  Br19  1  0.566213  0.825186  0.422420  1
  Br  Br20  1  0.360034  0.237062  0.899919  1
  Br  Br21  1  0.957397  0.666523  0.178964  1
  Br  Br22  1  0.174814  0.577580  0.433787  1
  Br  Br23  1  0.821036  0.042603  0.333477  1
  Br  Br24  1  0.422420  0.566213  0.825186  1
  Br  Br25  1  0.178964  0.957397  0.666523  1
  Br  Br26  1  0.333477  0.821036  0.042603  1
