# generated using pymatgen
data_Zr8Co11Si16Pt
_symmetry_space_group_name_H-M   'P 1'
_cell_length_a   5.23841014
_cell_length_b   6.77928710
_cell_length_c   13.79536015
_cell_angle_alpha   90.00162317
_cell_angle_beta   89.97290015
_cell_angle_gamma   89.88637137
_symmetry_Int_Tables_number   1
_chemical_formula_structural   Zr8Co11Si16Pt
_chemical_formula_sum   'Zr8 Co11 Si16 Pt1'
_cell_volume   489.90927801
_cell_formula_units_Z   1
loop_
 _symmetry_equiv_pos_site_id
 _symmetry_equiv_pos_as_xyz
  1  'x, y, z'
loop_
 _atom_site_type_symbol
 _atom_site_label
 _atom_site_symmetry_multiplicity
 _atom_site_fract_x
 _atom_site_fract_y
 _atom_site_fract_z
 _atom_site_occupancy
  Zr  Zr0  1  0.237040  0.399472  0.151079  1
  Zr  Zr1  1  0.731976  0.100740  0.149594  1
  Zr  Zr2  1  0.267821  0.099547  0.643935  1
  Zr  Zr3  1  0.764353  0.401003  0.643815  1
  Zr  Zr4  1  0.233313  0.600453  0.354926  1
  Zr  Zr5  1  0.734356  0.899198  0.354753  1
  Zr  Zr6  1  0.262989  0.900826  0.852088  1
  Zr  Zr7  1  0.769133  0.601203  0.850227  1
  Co  Co8  1  0.505324  0.228099  0.480190  1
  Co  Co9  1  0.770631  0.999227  0.748855  1
  Co  Co10  1  0.493031  0.223867  0.980415  1
  Co  Co11  1  0.727602  0.500213  0.251064  1
  Co  Co12  1  0.495376  0.771818  0.519538  1
  Co  Co13  1  0.005077  0.272247  0.480122  1
  Co  Co14  1  0.004889  0.730054  0.020260  1
  Co  Co15  1  0.227381  0.999294  0.251713  1
  Co  Co16  1  0.274363  0.502267  0.749474  1
  Co  Co17  1  0.505115  0.771704  0.020850  1
  Co  Co18  1  0.995346  0.727858  0.519480  1
  Si  Si19  1  0.230552  0.011092  0.074977  1
  Si  Si20  1  0.721366  0.519139  0.432397  1
  Si  Si21  1  0.779776  0.018886  0.566821  1
  Si  Si22  1  0.483339  0.753962  0.189891  1
  Si  Si23  1  0.017528  0.253868  0.802541  1
  Si  Si24  1  0.515714  0.246482  0.810814  1
  Si  Si25  1  0.221048  0.981127  0.432826  1
  Si  Si26  1  0.292750  0.528760  0.931328  1
  Si  Si27  1  0.982325  0.746122  0.188775  1
  Si  Si28  1  0.712807  0.488555  0.072804  1
  Si  Si29  1  0.278414  0.481157  0.567097  1
  Si  Si30  1  0.483013  0.246365  0.313823  1
  Si  Si31  1  0.017826  0.747010  0.686344  1
  Si  Si32  1  0.765856  0.969556  0.928693  1
  Si  Si33  1  0.517038  0.754105  0.686731  1
  Si  Si34  1  0.982465  0.253630  0.313524  1
  Pt  Pt35  1  0.993066  0.271097  0.978238  1
