# generated using pymatgen
data_DyTaNb4(B2Ru5)2
_symmetry_space_group_name_H-M   'P 1'
_cell_length_a   9.52417207
_cell_length_b   9.52497552
_cell_length_c   3.05394300
_cell_angle_alpha   90.00000000
_cell_angle_beta   90.00000000
_cell_angle_gamma   90.31288194
_symmetry_Int_Tables_number   1
_chemical_formula_structural   DyTaNb4(B2Ru5)2
_chemical_formula_sum   'Dy1 Ta1 Nb4 B4 Ru10'
_cell_volume   277.04196113
_cell_formula_units_Z   1
loop_
 _symmetry_equiv_pos_site_id
 _symmetry_equiv_pos_as_xyz
  1  'x, y, z'
loop_
 _atom_site_type_symbol
 _atom_site_label
 _atom_site_symmetry_multiplicity
 _atom_site_fract_x
 _atom_site_fract_y
 _atom_site_fract_z
 _atom_site_occupancy
  Dy  Dy0  1  0.824735  0.675324  0.000000  1
  Ta  Ta1  1  0.999604  0.999437  0.000000  1
  Nb  Nb2  1  0.177996  0.321941  0.000000  1
  Nb  Nb3  1  0.324559  0.823597  0.000000  1
  Nb  Nb4  1  0.676539  0.175432  0.000000  1
  Nb  Nb5  1  0.500557  0.500347  0.000000  1
  B  B6  1  0.618903  0.881039  0.000000  1
  B  B7  1  0.377487  0.122548  0.000000  1
  B  B8  1  0.123175  0.620278  0.000000  1
  B  B9  1  0.879699  0.376818  0.000000  1
  Ru  Ru10  1  0.558752  0.724654  0.500000  1
  Ru  Ru11  1  0.426761  0.282678  0.500000  1
  Ru  Ru12  1  0.081863  0.783037  0.500000  1
  Ru  Ru13  1  0.930684  0.216188  0.500000  1
  Ru  Ru14  1  0.283565  0.569367  0.500000  1
  Ru  Ru15  1  0.717261  0.418030  0.500000  1
  Ru  Ru16  1  0.217003  0.073086  0.500000  1
  Ru  Ru17  1  0.775696  0.941280  0.500000  1
  Ru  Ru18  1  0.496322  0.003734  0.500000  1
  Ru  Ru19  1  0.008838  0.491187  0.500000  1
