# generated using pymatgen
data_Tb2Pr2Sn10(IrRh)3
_symmetry_space_group_name_H-M   'P 1'
_cell_length_a   13.56907347
_cell_length_b   13.56907417
_cell_length_c   7.23555326
_cell_angle_alpha   89.97005739
_cell_angle_beta   90.02994312
_cell_angle_gamma   160.80385516
_symmetry_Int_Tables_number   1
_chemical_formula_structural   Tb2Pr2Sn10(IrRh)3
_chemical_formula_sum   'Tb2 Pr2 Sn10 Ir3 Rh3'
_cell_volume   438.03418163
_cell_formula_units_Z   1
loop_
 _symmetry_equiv_pos_site_id
 _symmetry_equiv_pos_as_xyz
  1  'x, y, z'
loop_
 _atom_site_type_symbol
 _atom_site_label
 _atom_site_symmetry_multiplicity
 _atom_site_fract_x
 _atom_site_fract_y
 _atom_site_fract_z
 _atom_site_occupancy
  Tb  Tb0  1  0.476762  0.523238  0.739029  1
  Tb  Tb1  1  0.523282  0.476718  0.239230  1
  Pr  Pr2  1  0.172019  0.827981  0.752656  1
  Pr  Pr3  1  0.828379  0.171621  0.252544  1
  Sn  Sn4  1  0.880228  0.119772  0.733162  1
  Sn  Sn5  1  0.119701  0.880299  0.233342  1
  Sn  Sn6  1  0.703820  0.296180  0.047381  1
  Sn  Sn7  1  0.295987  0.704013  0.546843  1
  Sn  Sn8  1  0.595860  0.404140  0.610837  1
  Sn  Sn9  1  0.404285  0.595715  0.110750  1
  Sn  Sn10  1  0.953173  0.046827  0.402370  1
  Sn  Sn11  1  0.046974  0.953026  0.902784  1
  Sn  Sn12  1  0.289923  0.710077  0.975461  1
  Sn  Sn13  1  0.709839  0.290161  0.474233  1
  Ir  Ir14  1  0.049997  0.950003  0.518234  1
  Ir  Ir15  1  0.949936  0.050064  0.017944  1
  Ir  Ir16  1  0.777592  0.222408  0.763542  1
  Rh  Rh17  1  0.222159  0.777841  0.262862  1
  Rh  Rh18  1  0.396284  0.603716  0.486191  1
  Rh  Rh19  1  0.603799  0.396201  0.986599  1
