# generated using pymatgen
data_Y4Re5Ir2Os
_symmetry_space_group_name_H-M   'P 1'
_cell_length_a   5.32036731
_cell_length_b   5.26840562
_cell_length_c   9.18791400
_cell_angle_alpha   90.00000000
_cell_angle_beta   90.00000000
_cell_angle_gamma   119.67744338
_symmetry_Int_Tables_number   1
_chemical_formula_structural   Y4Re5Ir2Os
_chemical_formula_sum   'Y4 Re5 Ir2 Os1'
_cell_volume   223.75399748
_cell_formula_units_Z   1
loop_
 _symmetry_equiv_pos_site_id
 _symmetry_equiv_pos_as_xyz
  1  'x, y, z'
loop_
 _atom_site_type_symbol
 _atom_site_label
 _atom_site_symmetry_multiplicity
 _atom_site_fract_x
 _atom_site_fract_y
 _atom_site_fract_z
 _atom_site_occupancy
  Y  Y0  1  0.334948  0.667474  0.436100  1
  Y  Y1  1  0.668701  0.334350  0.565798  1
  Y  Y2  1  0.668701  0.334350  0.934202  1
  Y  Y3  1  0.334948  0.667474  0.063900  1
  Re  Re4  1  0.828654  0.170561  0.250000  1
  Re  Re5  1  0.828654  0.658094  0.250000  1
  Re  Re6  1  0.339550  0.169775  0.250000  1
  Re  Re7  1  0.164366  0.829091  0.750000  1
  Re  Re8  1  0.164366  0.335275  0.750000  1
  Ir  Ir9  1  0.009444  0.004722  0.500280  1
  Ir  Ir10  1  0.009444  0.004722  0.999720  1
  Os  Os11  1  0.648224  0.824112  0.750000  1
