# generated using pymatgen
data_Nb12Ga7IrN4
_symmetry_space_group_name_H-M   'P 1'
_cell_length_a   7.05771747
_cell_length_b   7.05771765
_cell_length_c   7.05771699
_cell_angle_alpha   89.74699474
_cell_angle_beta   90.25301132
_cell_angle_gamma   90.25300941
_symmetry_Int_Tables_number   1
_chemical_formula_structural   Nb12Ga7IrN4
_chemical_formula_sum   'Nb12 Ga7 Ir1 N4'
_cell_volume   351.54435047
_cell_formula_units_Z   1
loop_
 _symmetry_equiv_pos_site_id
 _symmetry_equiv_pos_as_xyz
  1  'x, y, z'
loop_
 _atom_site_type_symbol
 _atom_site_label
 _atom_site_symmetry_multiplicity
 _atom_site_fract_x
 _atom_site_fract_y
 _atom_site_fract_z
 _atom_site_occupancy
  Nb  Nb0  1  0.793746  0.956766  0.373240  1
  Nb  Nb1  1  0.707025  0.043814  0.876628  1
  Nb  Nb2  1  0.206957  0.455983  0.122667  1
  Nb  Nb3  1  0.293749  0.546232  0.627253  1
  Nb  Nb4  1  0.956186  0.376628  0.792975  1
  Nb  Nb5  1  0.043234  0.873240  0.706254  1
  Nb  Nb6  1  0.453768  0.127253  0.206251  1
  Nb  Nb7  1  0.544017  0.622667  0.293043  1
  Nb  Nb8  1  0.377333  0.793043  0.955983  1
  Nb  Nb9  1  0.872747  0.706251  0.046232  1
  Nb  Nb10  1  0.126760  0.206254  0.456766  1
  Nb  Nb11  1  0.623372  0.292975  0.543814  1
  Ga  Ga12  1  0.319922  0.176503  0.819417  1
  Ga  Ga13  1  0.823497  0.319417  0.180078  1
  Ga  Ga14  1  0.680583  0.680078  0.676503  1
  Ga  Ga15  1  0.569142  0.430858  0.930858  1
  Ga  Ga16  1  0.425393  0.928547  0.562557  1
  Ga  Ga17  1  0.937443  0.574607  0.428547  1
  Ga  Ga18  1  0.071453  0.062557  0.074607  1
  Ir  Ir19  1  0.180837  0.819163  0.319163  1
  N  N20  1  0.875685  0.124315  0.624315  1
  N  N21  1  0.622513  0.876678  0.128685  1
  N  N22  1  0.123322  0.628685  0.877487  1
  N  N23  1  0.371315  0.377487  0.376678  1
