# generated using pymatgen
data_Al11CuReTc2
_symmetry_space_group_name_H-M   'P 1'
_cell_length_a   5.16155922
_cell_length_b   5.15486080
_cell_length_c   9.08305316
_cell_angle_alpha   105.26463164
_cell_angle_beta   86.99603047
_cell_angle_gamma   100.28954405
_symmetry_Int_Tables_number   1
_chemical_formula_structural   Al11CuReTc2
_chemical_formula_sum   'Al11 Cu1 Re1 Tc2'
_cell_volume   229.39441043
_cell_formula_units_Z   1
loop_
 _symmetry_equiv_pos_site_id
 _symmetry_equiv_pos_as_xyz
  1  'x, y, z'
loop_
 _atom_site_type_symbol
 _atom_site_label
 _atom_site_symmetry_multiplicity
 _atom_site_fract_x
 _atom_site_fract_y
 _atom_site_fract_z
 _atom_site_occupancy
  Al  Al0  1  0.867920  0.300062  0.612997  1
  Al  Al1  1  0.155100  0.715240  0.382300  1
  Al  Al2  1  0.152278  0.458569  0.877237  1
  Al  Al3  1  0.844759  0.542577  0.133979  1
  Al  Al4  1  0.021711  0.983992  0.979739  1
  Al  Al5  1  0.551982  0.108516  0.883839  1
  Al  Al6  1  0.485637  0.901205  0.131030  1
  Al  Al7  1  0.543230  0.323409  0.376351  1
  Al  Al8  1  0.409625  0.668934  0.633604  1
  Al  Al9  1  0.929170  0.836347  0.661476  1
  Al  Al10  1  0.018724  0.144860  0.296777  1
  Cu  Cu11  1  0.352653  0.164218  0.629530  1
  Re  Re12  1  0.326154  0.384176  0.132788  1
  Tc  Tc13  1  0.670536  0.855270  0.401379  1
  Tc  Tc14  1  0.670521  0.612626  0.866977  1
