# generated using pymatgen
data_Sr4YbCd3Pt4
_symmetry_space_group_name_H-M   'P 1'
_cell_length_a   4.49333800
_cell_length_b   7.69690362
_cell_length_c   8.91205408
_cell_angle_alpha   89.32045803
_cell_angle_beta   90.00000000
_cell_angle_gamma   90.00000000
_symmetry_Int_Tables_number   1
_chemical_formula_structural   Sr4YbCd3Pt4
_chemical_formula_sum   'Sr4 Yb1 Cd3 Pt4'
_cell_volume   308.19983669
_cell_formula_units_Z   1
loop_
 _symmetry_equiv_pos_site_id
 _symmetry_equiv_pos_as_xyz
  1  'x, y, z'
loop_
 _atom_site_type_symbol
 _atom_site_label
 _atom_site_symmetry_multiplicity
 _atom_site_fract_x
 _atom_site_fract_y
 _atom_site_fract_z
 _atom_site_occupancy
  Sr  Sr0  1  0.250000  0.027900  0.326142  1
  Sr  Sr1  1  0.250000  0.536428  0.185205  1
  Sr  Sr2  1  0.750000  0.963362  0.670667  1
  Sr  Sr3  1  0.750000  0.478895  0.813670  1
  Yb  Yb4  1  0.250000  0.134814  0.937159  1
  Cd  Cd5  1  0.250000  0.645911  0.565877  1
  Cd  Cd6  1  0.750000  0.854940  0.068171  1
  Cd  Cd7  1  0.750000  0.354567  0.435903  1
  Pt  Pt8  1  0.250000  0.270113  0.624437  1
  Pt  Pt9  1  0.250000  0.769487  0.875712  1
  Pt  Pt10  1  0.750000  0.730978  0.377470  1
  Pt  Pt11  1  0.750000  0.232604  0.119589  1
