# generated using pymatgen
data_Ce3Al24VPd8
_symmetry_space_group_name_H-M   'P 1'
_cell_length_a   8.48078698
_cell_length_b   8.48207337
_cell_length_c   8.48106097
_cell_angle_alpha   89.73039516
_cell_angle_beta   89.73076434
_cell_angle_gamma   89.73007520
_symmetry_Int_Tables_number   1
_chemical_formula_structural   Ce3Al24VPd8
_chemical_formula_sum   'Ce3 Al24 V1 Pd8'
_cell_volume   610.06201927
_cell_formula_units_Z   1
loop_
 _symmetry_equiv_pos_site_id
 _symmetry_equiv_pos_as_xyz
  1  'x, y, z'
loop_
 _atom_site_type_symbol
 _atom_site_label
 _atom_site_symmetry_multiplicity
 _atom_site_fract_x
 _atom_site_fract_y
 _atom_site_fract_z
 _atom_site_occupancy
  Ce  Ce0  1  0.000000  0.500000  0.000000  1
  Ce  Ce1  1  0.500000  0.000000  0.000000  1
  Ce  Ce2  1  0.000000  0.000000  0.500000  1
  Al  Al3  1  0.991158  0.640182  0.640067  1
  Al  Al4  1  0.640145  0.640204  0.991154  1
  Al  Al5  1  0.640176  0.991138  0.640127  1
  Al  Al6  1  0.008842  0.359818  0.359933  1
  Al  Al7  1  0.359855  0.359796  0.008846  1
  Al  Al8  1  0.359824  0.008862  0.359873  1
  Al  Al9  1  0.733036  0.500021  0.266962  1
  Al  Al10  1  0.266964  0.499979  0.733038  1
  Al  Al11  1  0.499985  0.266907  0.733072  1
  Al  Al12  1  0.500015  0.733093  0.266928  1
  Al  Al13  1  0.266907  0.733118  0.499989  1
  Al  Al14  1  0.733093  0.266882  0.500011  1
  Al  Al15  1  0.834601  0.145131  0.834571  1
  Al  Al16  1  0.145197  0.834654  0.834569  1
  Al  Al17  1  0.834650  0.834733  0.145178  1
  Al  Al18  1  0.165399  0.854869  0.165429  1
  Al  Al19  1  0.854803  0.165346  0.165431  1
  Al  Al20  1  0.165350  0.165267  0.854822  1
  Al  Al21  1  0.726214  0.490180  0.726209  1
  Al  Al22  1  0.490153  0.726271  0.726250  1
  Al  Al23  1  0.726251  0.726265  0.490187  1
  Al  Al24  1  0.273786  0.509820  0.273791  1
  Al  Al25  1  0.509847  0.273729  0.273750  1
  Al  Al26  1  0.273749  0.273735  0.509813  1
  V  V27  1  0.500000  0.500000  0.500000  1
  Pd  Pd28  1  0.830502  0.830504  0.830448  1
  Pd  Pd29  1  0.169498  0.169496  0.169552  1
  Pd  Pd30  1  0.662673  0.337318  0.999989  1
  Pd  Pd31  1  0.999998  0.337257  0.662669  1
  Pd  Pd32  1  0.337291  0.000005  0.662639  1
  Pd  Pd33  1  0.337327  0.662682  0.000011  1
  Pd  Pd34  1  0.000002  0.662743  0.337331  1
  Pd  Pd35  1  0.662709  0.999995  0.337361  1
