# generated using pymatgen
data_Ce3Dy2Ir2Os
_symmetry_space_group_name_H-M   'P 1'
_cell_length_a   10.97502400
_cell_length_b   11.10789100
_cell_length_c   6.28983300
_cell_angle_alpha   90.00000000
_cell_angle_beta   90.00000000
_cell_angle_gamma   90.00000000
_symmetry_Int_Tables_number   1
_chemical_formula_structural   Ce3Dy2Ir2Os
_chemical_formula_sum   'Ce12 Dy8 Ir8 Os4'
_cell_volume   766.78958041
_cell_formula_units_Z   4
loop_
 _symmetry_equiv_pos_site_id
 _symmetry_equiv_pos_as_xyz
  1  'x, y, z'
loop_
 _atom_site_type_symbol
 _atom_site_label
 _atom_site_symmetry_multiplicity
 _atom_site_fract_x
 _atom_site_fract_y
 _atom_site_fract_z
 _atom_site_occupancy
  Ce  Ce0  1  0.292548  0.089647  0.379213  1
  Ce  Ce1  1  0.292548  0.910353  0.879213  1
  Ce  Ce2  1  0.707452  0.089647  0.879213  1
  Ce  Ce3  1  0.707452  0.910353  0.379213  1
  Ce  Ce4  1  0.591086  0.789488  0.881648  1
  Ce  Ce5  1  0.591086  0.210512  0.381648  1
  Ce  Ce6  1  0.408914  0.789488  0.381648  1
  Ce  Ce7  1  0.408914  0.210512  0.881648  1
  Ce  Ce8  1  0.202520  0.411789  0.619313  1
  Ce  Ce9  1  0.202520  0.588211  0.119313  1
  Ce  Ce10  1  0.797480  0.411789  0.119313  1
  Ce  Ce11  1  0.797480  0.588211  0.619313  1
  Dy  Dy12  1  0.913644  0.711451  0.121181  1
  Dy  Dy13  1  0.913644  0.288549  0.621181  1
  Dy  Dy14  1  0.086356  0.711451  0.621181  1
  Dy  Dy15  1  0.086356  0.288549  0.121181  1
  Dy  Dy16  1  0.000000  0.000000  0.497051  1
  Dy  Dy17  1  0.000000  0.000000  0.997051  1
  Dy  Dy18  1  0.500000  0.500000  0.004744  1
  Dy  Dy19  1  0.500000  0.500000  0.504744  1
  Ir  Ir20  1  0.843130  0.151516  0.243145  1
  Ir  Ir21  1  0.843130  0.848484  0.743145  1
  Ir  Ir22  1  0.156870  0.151516  0.743145  1
  Ir  Ir23  1  0.156870  0.848484  0.243145  1
  Ir  Ir24  1  0.654634  0.343504  0.753782  1
  Ir  Ir25  1  0.654634  0.656496  0.253782  1
  Ir  Ir26  1  0.345366  0.343504  0.253782  1
  Ir  Ir27  1  0.345366  0.656496  0.753782  1
  Os  Os28  1  0.500000  0.000000  0.125879  1
  Os  Os29  1  0.500000  0.000000  0.625879  1
  Os  Os30  1  0.000000  0.500000  0.875762  1
  Os  Os31  1  0.000000  0.500000  0.375762  1
