# generated using pymatgen
data_Ta(TiRh2)5
_symmetry_space_group_name_H-M   'P 1'
_cell_length_a   4.14983200
_cell_length_b   5.44317912
_cell_length_c   10.57706106
_cell_angle_alpha   90.65188361
_cell_angle_beta   90.00000000
_cell_angle_gamma   90.00000000
_symmetry_Int_Tables_number   1
_chemical_formula_structural   Ta(TiRh2)5
_chemical_formula_sum   'Ta1 Ti5 Rh10'
_cell_volume   238.90214160
_cell_formula_units_Z   1
loop_
 _symmetry_equiv_pos_site_id
 _symmetry_equiv_pos_as_xyz
  1  'x, y, z'
loop_
 _atom_site_type_symbol
 _atom_site_label
 _atom_site_symmetry_multiplicity
 _atom_site_fract_x
 _atom_site_fract_y
 _atom_site_fract_z
 _atom_site_occupancy
  Ta  Ta0  1  0.500000  0.338962  0.143668  1
  Ti  Ti1  1  0.000000  0.999113  0.997769  1
  Ti  Ti2  1  0.000000  0.500606  0.501504  1
  Ti  Ti3  1  0.500000  0.661914  0.853786  1
  Ti  Ti4  1  0.500000  0.839058  0.358322  1
  Ti  Ti5  1  0.500000  0.160345  0.644034  1
  Rh  Rh6  1  0.000000  0.999708  0.500403  1
  Rh  Rh7  1  0.000000  0.502644  0.998347  1
  Rh  Rh8  1  0.000000  0.099231  0.237540  1
  Rh  Rh9  1  0.000000  0.896554  0.764408  1
  Rh  Rh10  1  0.000000  0.602164  0.263821  1
  Rh  Rh11  1  0.000000  0.395877  0.735486  1
  Rh  Rh12  1  0.500000  0.313571  0.394005  1
  Rh  Rh13  1  0.500000  0.686799  0.606907  1
  Rh  Rh14  1  0.500000  0.815840  0.106557  1
  Rh  Rh15  1  0.500000  0.187616  0.893443  1
