# generated using pymatgen
data_Li(CeZn8)2
_symmetry_space_group_name_H-M   'P 1'
_cell_length_a   6.87733871
_cell_length_b   6.87733828
_cell_length_c   6.87733865
_cell_angle_alpha   82.50580673
_cell_angle_beta   97.49419181
_cell_angle_gamma   97.49418318
_symmetry_Int_Tables_number   1
_chemical_formula_structural   Li(CeZn8)2
_chemical_formula_sum   'Li1 Ce2 Zn16'
_cell_volume   317.61416873
_cell_formula_units_Z   1
loop_
 _symmetry_equiv_pos_site_id
 _symmetry_equiv_pos_as_xyz
  1  'x, y, z'
loop_
 _atom_site_type_symbol
 _atom_site_label
 _atom_site_symmetry_multiplicity
 _atom_site_fract_x
 _atom_site_fract_y
 _atom_site_fract_z
 _atom_site_occupancy
  Li  Li0  1  0.903967  0.096034  0.096034  1
  Ce  Ce1  1  0.662012  0.337989  0.337989  1
  Ce  Ce2  1  0.337847  0.662154  0.662154  1
  Zn  Zn3  1  0.998021  0.497439  0.001979  1
  Zn  Zn4  1  0.293359  0.294700  0.000871  1
  Zn  Zn5  1  0.502561  0.001979  0.001980  1
  Zn  Zn6  1  0.705300  0.706640  0.000871  1
  Zn  Zn7  1  0.351867  0.648132  0.161356  1
  Zn  Zn8  1  0.999130  0.706642  0.294700  1
  Zn  Zn9  1  0.293359  0.000870  0.294700  1
  Zn  Zn10  1  0.156644  0.350925  0.350925  1
  Zn  Zn11  1  0.649074  0.843355  0.350926  1
  Zn  Zn12  1  0.998021  0.001978  0.497439  1
  Zn  Zn13  1  0.838643  0.648132  0.648133  1
  Zn  Zn14  1  0.351868  0.161357  0.648133  1
  Zn  Zn15  1  0.705300  0.000870  0.706641  1
  Zn  Zn16  1  0.999130  0.294700  0.706642  1
  Zn  Zn17  1  0.649074  0.350925  0.843356  1
  Zn  Zn18  1  0.104825  0.895176  0.895176  1
