# generated using pymatgen
data_Hf4Ti2Ga5Sb
_symmetry_space_group_name_H-M   'P 1'
_cell_length_a   5.53591400
_cell_length_b   8.60301418
_cell_length_c   9.16331395
_cell_angle_alpha   89.42968798
_cell_angle_beta   90.00000000
_cell_angle_gamma   90.00000000
_symmetry_Int_Tables_number   1
_chemical_formula_structural   Hf4Ti2Ga5Sb
_chemical_formula_sum   'Hf8 Ti4 Ga10 Sb2'
_cell_volume   436.38621679
_cell_formula_units_Z   2
loop_
 _symmetry_equiv_pos_site_id
 _symmetry_equiv_pos_as_xyz
  1  'x, y, z'
loop_
 _atom_site_type_symbol
 _atom_site_label
 _atom_site_symmetry_multiplicity
 _atom_site_fract_x
 _atom_site_fract_y
 _atom_site_fract_z
 _atom_site_occupancy
  Hf  Hf0  1  0.750000  0.472802  0.620906  1
  Hf  Hf1  1  0.250000  0.527198  0.379094  1
  Hf  Hf2  1  0.750000  0.973253  0.392445  1
  Hf  Hf3  1  0.250000  0.026747  0.607555  1
  Hf  Hf4  1  0.750000  0.379058  0.187886  1
  Hf  Hf5  1  0.250000  0.620942  0.812114  1
  Hf  Hf6  1  0.750000  0.861715  0.805323  1
  Hf  Hf7  1  0.250000  0.138285  0.194677  1
  Ti  Ti8  1  0.999758  0.738311  0.110401  1
  Ti  Ti9  1  0.499758  0.261689  0.889599  1
  Ti  Ti10  1  0.000242  0.261689  0.889599  1
  Ti  Ti11  1  0.500242  0.738311  0.110401  1
  Ga  Ga12  1  0.004833  0.746279  0.568142  1
  Ga  Ga13  1  0.504833  0.253721  0.431858  1
  Ga  Ga14  1  0.995167  0.253721  0.431858  1
  Ga  Ga15  1  0.495167  0.746279  0.568142  1
  Ga  Ga16  1  0.750000  0.546351  0.920470  1
  Ga  Ga17  1  0.250000  0.453649  0.079530  1
  Ga  Ga18  1  0.750000  0.141572  0.661386  1
  Ga  Ga19  1  0.250000  0.858428  0.338614  1
  Ga  Ga20  1  0.750000  0.641070  0.345911  1
  Ga  Ga21  1  0.250000  0.358930  0.654089  1
  Sb  Sb22  1  0.750000  0.048874  0.082987  1
  Sb  Sb23  1  0.250000  0.951126  0.917013  1
