# generated using pymatgen
data_Hf4TaV5Ge8
_symmetry_space_group_name_H-M   'P 1'
_cell_length_a   6.62556200
_cell_length_b   6.74098602
_cell_length_c   12.83728600
_cell_angle_alpha   89.99527421
_cell_angle_beta   90.00000000
_cell_angle_gamma   90.00000000
_symmetry_Int_Tables_number   1
_chemical_formula_structural   Hf4TaV5Ge8
_chemical_formula_sum   'Hf8 Ta2 V10 Ge16'
_cell_volume   573.34940269
_cell_formula_units_Z   2
loop_
 _symmetry_equiv_pos_site_id
 _symmetry_equiv_pos_as_xyz
  1  'x, y, z'
loop_
 _atom_site_type_symbol
 _atom_site_label
 _atom_site_symmetry_multiplicity
 _atom_site_fract_x
 _atom_site_fract_y
 _atom_site_fract_z
 _atom_site_occupancy
  Hf  Hf0  1  0.486019  0.672487  0.589905  1
  Hf  Hf1  1  0.986019  0.827513  0.910095  1
  Hf  Hf2  1  0.512636  0.327019  0.092434  1
  Hf  Hf3  1  0.012636  0.172981  0.407566  1
  Hf  Hf4  1  0.510938  0.326540  0.407836  1
  Hf  Hf5  1  0.010938  0.173460  0.092164  1
  Hf  Hf6  1  0.487964  0.674538  0.909889  1
  Hf  Hf7  1  0.987964  0.825462  0.590111  1
  Ta  Ta8  1  0.661010  0.161675  0.876983  1
  Ta  Ta9  1  0.161010  0.338325  0.623017  1
  V  V10  1  0.661751  0.159318  0.624577  1
  V  V11  1  0.161751  0.340682  0.875423  1
  V  V12  1  0.336317  0.839176  0.126001  1
  V  V13  1  0.836317  0.660824  0.373999  1
  V  V14  1  0.341291  0.841267  0.372117  1
  V  V15  1  0.841291  0.658733  0.127883  1
  V  V16  1  0.837968  0.491689  0.750383  1
  V  V17  1  0.337968  0.008311  0.749617  1
  V  V18  1  0.163961  0.508359  0.249036  1
  V  V19  1  0.663961  0.991641  0.250964  1
  Ge  Ge20  1  0.680289  0.954720  0.456417  1
  Ge  Ge21  1  0.180289  0.545280  0.043583  1
  Ge  Ge22  1  0.313664  0.043977  0.959821  1
  Ge  Ge23  1  0.813664  0.456023  0.540179  1
  Ge  Ge24  1  0.325554  0.036205  0.539145  1
  Ge  Ge25  1  0.825554  0.463795  0.960855  1
  Ge  Ge26  1  0.678824  0.949072  0.048128  1
  Ge  Ge27  1  0.178824  0.550928  0.451872  1
  Ge  Ge28  1  0.468465  0.381850  0.748636  1
  Ge  Ge29  1  0.968465  0.118150  0.751364  1
  Ge  Ge30  1  0.533529  0.625014  0.249783  1
  Ge  Ge31  1  0.033529  0.874986  0.250217  1
  Ge  Ge32  1  0.689264  0.846909  0.747789  1
  Ge  Ge33  1  0.189264  0.653091  0.752211  1
  Ge  Ge34  1  0.310559  0.146720  0.249702  1
  Ge  Ge35  1  0.810559  0.353280  0.250298  1
