# generated using pymatgen
data_Tb16MgCd3(PdRu)2
_symmetry_space_group_name_H-M   'P 1'
_cell_length_a   9.73650189
_cell_length_b   9.73650250
_cell_length_c   9.76774721
_cell_angle_alpha   59.53382106
_cell_angle_beta   59.53381719
_cell_angle_gamma   59.49047003
_symmetry_Int_Tables_number   1
_chemical_formula_structural   Tb16MgCd3(PdRu)2
_chemical_formula_sum   'Tb16 Mg1 Cd3 Pd2 Ru2'
_cell_volume   647.60830209
_cell_formula_units_Z   1
loop_
 _symmetry_equiv_pos_site_id
 _symmetry_equiv_pos_as_xyz
  1  'x, y, z'
loop_
 _atom_site_type_symbol
 _atom_site_label
 _atom_site_symmetry_multiplicity
 _atom_site_fract_x
 _atom_site_fract_y
 _atom_site_fract_z
 _atom_site_occupancy
  Tb  Tb0  1  0.348666  0.348666  0.356260  1
  Tb  Tb1  1  0.348647  0.348647  0.948198  1
  Tb  Tb2  1  0.343741  0.956938  0.349759  1
  Tb  Tb3  1  0.956938  0.343741  0.349759  1
  Tb  Tb4  1  0.816057  0.188575  0.189987  1
  Tb  Tb5  1  0.186120  0.817882  0.806534  1
  Tb  Tb6  1  0.188575  0.816057  0.189987  1
  Tb  Tb7  1  0.817882  0.186120  0.806534  1
  Tb  Tb8  1  0.187974  0.187974  0.810895  1
  Tb  Tb9  1  0.810321  0.810321  0.190067  1
  Tb  Tb10  1  0.936718  0.560467  0.568268  1
  Tb  Tb11  1  0.559498  0.935786  0.937665  1
  Tb  Tb12  1  0.560467  0.936718  0.568268  1
  Tb  Tb13  1  0.935786  0.559498  0.937665  1
  Tb  Tb14  1  0.564652  0.564652  0.937672  1
  Tb  Tb15  1  0.937375  0.937375  0.563197  1
  Mg  Mg16  1  0.575626  0.575626  0.575489  1
  Cd  Cd17  1  0.580886  0.580886  0.256282  1
  Cd  Cd18  1  0.581880  0.254262  0.581175  1
  Cd  Cd19  1  0.254262  0.581880  0.581175  1
  Pd  Pd20  1  0.146478  0.571568  0.141923  1
  Pd  Pd21  1  0.571568  0.146478  0.141923  1
  Ru  Ru22  1  0.144324  0.144324  0.138334  1
  Ru  Ru23  1  0.145559  0.145559  0.572983  1
