# generated using pymatgen
data_Mg4ZnAsPd10
_symmetry_space_group_name_H-M   'P 1'
_cell_length_a   4.15625500
_cell_length_b   5.55780746
_cell_length_c   10.76583478
_cell_angle_alpha   90.04512200
_cell_angle_beta   90.00000000
_cell_angle_gamma   90.00000000
_symmetry_Int_Tables_number   1
_chemical_formula_structural   Mg4ZnAsPd10
_chemical_formula_sum   'Mg4 Zn1 As1 Pd10'
_cell_volume   248.68710023
_cell_formula_units_Z   1
loop_
 _symmetry_equiv_pos_site_id
 _symmetry_equiv_pos_as_xyz
  1  'x, y, z'
loop_
 _atom_site_type_symbol
 _atom_site_label
 _atom_site_symmetry_multiplicity
 _atom_site_fract_x
 _atom_site_fract_y
 _atom_site_fract_z
 _atom_site_occupancy
  Mg  Mg0  1  0.500000  0.158023  0.144682  1
  Mg  Mg1  1  0.500000  0.841977  0.855318  1
  Mg  Mg2  1  0.500000  0.329683  0.637521  1
  Mg  Mg3  1  0.500000  0.670317  0.362479  1
  Zn  Zn4  1  0.000000  0.000000  0.500000  1
  As  As5  1  0.000000  0.500000  0.000000  1
  Pd  Pd6  1  0.500000  0.184858  0.391263  1
  Pd  Pd7  1  0.500000  0.815142  0.608737  1
  Pd  Pd8  1  0.500000  0.321587  0.895659  1
  Pd  Pd9  1  0.500000  0.678413  0.104341  1
  Pd  Pd10  1  0.000000  0.417451  0.237818  1
  Pd  Pd11  1  0.000000  0.582549  0.762182  1
  Pd  Pd12  1  0.000000  0.086056  0.739742  1
  Pd  Pd13  1  0.000000  0.913944  0.260258  1
  Pd  Pd14  1  0.000000  0.000000  0.000000  1
  Pd  Pd15  1  0.000000  0.500000  0.500000  1
