# generated using pymatgen
data_Nd5IrPtO12
_symmetry_space_group_name_H-M   'P 1'
_cell_length_a   7.08403040
_cell_length_b   7.08402905
_cell_length_c   7.54219700
_cell_angle_alpha   74.58366763
_cell_angle_beta   74.58367902
_cell_angle_gamma   51.41694650
_symmetry_Int_Tables_number   1
_chemical_formula_structural   Nd5IrPtO12
_chemical_formula_sum   'Nd5 Ir1 Pt1 O12'
_cell_volume   282.70008911
_cell_formula_units_Z   1
loop_
 _symmetry_equiv_pos_site_id
 _symmetry_equiv_pos_as_xyz
  1  'x, y, z'
loop_
 _atom_site_type_symbol
 _atom_site_label
 _atom_site_symmetry_multiplicity
 _atom_site_fract_x
 _atom_site_fract_y
 _atom_site_fract_z
 _atom_site_occupancy
  Nd  Nd0  1  0.309228  0.296104  0.359233  1
  Nd  Nd1  1  0.703896  0.690772  0.640767  1
  Nd  Nd2  1  0.696280  0.692266  0.166169  1
  Nd  Nd3  1  0.307734  0.303720  0.833831  1
  Nd  Nd4  1  0.003108  0.996892  0.500000  1
  Ir  Ir5  1  0.242096  0.757904  0.000000  1
  Pt  Pt6  1  0.748502  0.251498  0.000000  1
  O  O7  1  0.100184  0.597595  0.573228  1
  O  O8  1  0.999133  0.000866  0.173482  1
  O  O9  1  0.402405  0.899816  0.426772  1
  O  O10  1  0.494843  0.505816  0.176858  1
  O  O11  1  0.101861  0.580026  0.081318  1
  O  O12  1  0.907627  0.400663  0.422889  1
  O  O13  1  0.999134  0.000867  0.826518  1
  O  O14  1  0.599337  0.092372  0.577111  1
  O  O15  1  0.494184  0.505157  0.823142  1
  O  O16  1  0.567892  0.097419  0.082805  1
  O  O17  1  0.419974  0.898139  0.918682  1
  O  O18  1  0.902581  0.432108  0.917195  1
