# generated using pymatgen
data_Y20TlCd3(AgRu)2
_symmetry_space_group_name_H-M   'P 1'
_cell_length_a   9.68450392
_cell_length_b   9.68450338
_cell_length_c   9.76771500
_cell_angle_alpha   90.00000000
_cell_angle_beta   90.00000000
_cell_angle_gamma   120.41632736
_symmetry_Int_Tables_number   1
_chemical_formula_structural   Y20TlCd3(AgRu)2
_chemical_formula_sum   'Y20 Tl1 Cd3 Ag2 Ru2'
_cell_volume   790.02542321
_cell_formula_units_Z   1
loop_
 _symmetry_equiv_pos_site_id
 _symmetry_equiv_pos_as_xyz
  1  'x, y, z'
loop_
 _atom_site_type_symbol
 _atom_site_label
 _atom_site_symmetry_multiplicity
 _atom_site_fract_x
 _atom_site_fract_y
 _atom_site_fract_z
 _atom_site_occupancy
  Y  Y0  1  0.005358  0.994642  0.483526  1
  Y  Y1  1  0.005358  0.994642  0.016474  1
  Y  Y2  1  0.211596  0.788404  0.440965  1
  Y  Y3  1  0.207960  0.418518  0.439877  1
  Y  Y4  1  0.581482  0.792040  0.439877  1
  Y  Y5  1  0.790087  0.209913  0.557713  1
  Y  Y6  1  0.788707  0.580041  0.560195  1
  Y  Y7  1  0.419959  0.211293  0.560195  1
  Y  Y8  1  0.790087  0.209913  0.942287  1
  Y  Y9  1  0.788707  0.580041  0.939805  1
  Y  Y10  1  0.419959  0.211293  0.939805  1
  Y  Y11  1  0.211596  0.788404  0.059035  1
  Y  Y12  1  0.207960  0.418518  0.060123  1
  Y  Y13  1  0.581482  0.792040  0.060123  1
  Y  Y14  1  0.538869  0.461131  0.250000  1
  Y  Y15  1  0.532848  0.085401  0.250000  1
  Y  Y16  1  0.914599  0.467152  0.250000  1
  Y  Y17  1  0.457173  0.542827  0.750000  1
  Y  Y18  1  0.460511  0.918716  0.750000  1
  Y  Y19  1  0.081284  0.539489  0.750000  1
  Tl  Tl20  1  0.878651  0.121349  0.250000  1
  Cd  Cd21  1  0.112775  0.887225  0.750000  1
  Cd  Cd22  1  0.110707  0.222864  0.750000  1
  Cd  Cd23  1  0.777136  0.889293  0.750000  1
  Ag  Ag24  1  0.879003  0.756462  0.250000  1
  Ag  Ag25  1  0.243538  0.120997  0.250000  1
  Ru  Ru26  1  0.334456  0.665544  0.250000  1
  Ru  Ru27  1  0.668153  0.331847  0.750000  1
