# generated using pymatgen
data_Ca9ThIr4
_symmetry_space_group_name_H-M   'P 1'
_cell_length_a   6.66765405
_cell_length_b   7.51900518
_cell_length_c   8.68274926
_cell_angle_alpha   97.44755957
_cell_angle_beta   112.57918345
_cell_angle_gamma   90.00000231
_symmetry_Int_Tables_number   1
_chemical_formula_structural   Ca9ThIr4
_chemical_formula_sum   'Ca9 Th1 Ir4'
_cell_volume   397.95601853
_cell_formula_units_Z   1
loop_
 _symmetry_equiv_pos_site_id
 _symmetry_equiv_pos_as_xyz
  1  'x, y, z'
loop_
 _atom_site_type_symbol
 _atom_site_label
 _atom_site_symmetry_multiplicity
 _atom_site_fract_x
 _atom_site_fract_y
 _atom_site_fract_z
 _atom_site_occupancy
  Ca  Ca0  1  0.973985  0.916168  0.173728  1
  Ca  Ca1  1  0.800257  0.583832  0.826272  1
  Ca  Ca2  1  0.018182  0.078708  0.823428  1
  Ca  Ca3  1  0.194753  0.421292  0.176572  1
  Ca  Ca4  1  0.639736  0.821735  0.432555  1
  Ca  Ca5  1  0.207181  0.678265  0.567445  1
  Ca  Ca6  1  0.357517  0.177830  0.557378  1
  Ca  Ca7  1  0.800139  0.322170  0.442622  1
  Ca  Ca8  1  0.426999  0.750000  0.000000  1
  Th  Th9  1  0.563080  0.250000  0.000000  1
  Ir  Ir10  1  0.811946  0.562655  0.208953  1
  Ir  Ir11  1  0.602993  0.937345  0.791047  1
  Ir  Ir12  1  0.196191  0.411780  0.789148  1
  Ir  Ir13  1  0.407043  0.088220  0.210852  1
