# generated using pymatgen
data_Tm12Ir3Pd
_symmetry_space_group_name_H-M   'P 1'
_cell_length_a   6.35138644
_cell_length_b   7.13397143
_cell_length_c   9.11848300
_cell_angle_alpha   90.00000000
_cell_angle_beta   90.00000000
_cell_angle_gamma   89.95875145
_symmetry_Int_Tables_number   1
_chemical_formula_structural   Tm12Ir3Pd
_chemical_formula_sum   'Tm12 Ir3 Pd1'
_cell_volume   413.16391457
_cell_formula_units_Z   1
loop_
 _symmetry_equiv_pos_site_id
 _symmetry_equiv_pos_as_xyz
  1  'x, y, z'
loop_
 _atom_site_type_symbol
 _atom_site_label
 _atom_site_symmetry_multiplicity
 _atom_site_fract_x
 _atom_site_fract_y
 _atom_site_fract_z
 _atom_site_occupancy
  Tm  Tm0  1  0.333041  0.676398  0.058858  1
  Tm  Tm1  1  0.174395  0.184968  0.441175  1
  Tm  Tm2  1  0.674895  0.319055  0.562569  1
  Tm  Tm3  1  0.823040  0.820538  0.935688  1
  Tm  Tm4  1  0.674895  0.319055  0.937431  1
  Tm  Tm5  1  0.823040  0.820538  0.564312  1
  Tm  Tm6  1  0.333041  0.676398  0.441142  1
  Tm  Tm7  1  0.174395  0.184968  0.058825  1
  Tm  Tm8  1  0.866244  0.525210  0.250000  1
  Tm  Tm9  1  0.624274  0.035620  0.250000  1
  Tm  Tm10  1  0.125981  0.467955  0.750000  1
  Tm  Tm11  1  0.371492  0.966679  0.750000  1
  Ir  Ir12  1  0.451902  0.385071  0.250000  1
  Ir  Ir13  1  0.958476  0.114937  0.750000  1
  Ir  Ir14  1  0.540205  0.614854  0.750000  1
  Pd  Pd15  1  0.050684  0.887755  0.250000  1
