# generated using pymatgen
data_ErTm4Lu2CoI12
_symmetry_space_group_name_H-M   'P 1'
_cell_length_a   9.64737580
_cell_length_b   9.64523436
_cell_length_c   9.65213740
_cell_angle_alpha   106.83202902
_cell_angle_beta   106.82344459
_cell_angle_gamma   106.81252389
_symmetry_Int_Tables_number   1
_chemical_formula_structural   ErTm4Lu2CoI12
_chemical_formula_sum   'Er1 Tm4 Lu2 Co1 I12'
_cell_volume   751.57103620
_cell_formula_units_Z   1
loop_
 _symmetry_equiv_pos_site_id
 _symmetry_equiv_pos_as_xyz
  1  'x, y, z'
loop_
 _atom_site_type_symbol
 _atom_site_label
 _atom_site_symmetry_multiplicity
 _atom_site_fract_x
 _atom_site_fract_y
 _atom_site_fract_z
 _atom_site_occupancy
  Er  Er0  1  0.499845  0.500001  0.499834  1
  Tm  Tm1  1  0.090866  0.021771  0.284494  1
  Tm  Tm2  1  0.715646  0.910038  0.978886  1
  Tm  Tm3  1  0.979136  0.715651  0.909557  1
  Tm  Tm4  1  0.910097  0.979301  0.715930  1
  Lu  Lu5  1  0.282116  0.089840  0.021137  1
  Lu  Lu6  1  0.021362  0.282178  0.089476  1
  Co  Co7  1  0.000255  0.000299  0.000091  1
  I  I8  1  0.463122  0.160579  0.386171  1
  I  I9  1  0.386309  0.462675  0.160526  1
  I  I10  1  0.160438  0.386643  0.462648  1
  I  I11  1  0.537012  0.839640  0.613625  1
  I  I12  1  0.613623  0.537081  0.839604  1
  I  I13  1  0.839598  0.613557  0.537041  1
  I  I14  1  0.323830  0.776794  0.929663  1
  I  I15  1  0.929723  0.323990  0.776816  1
  I  I16  1  0.776091  0.929499  0.323632  1
  I  I17  1  0.676278  0.224003  0.070498  1
  I  I18  1  0.070431  0.675846  0.223699  1
  I  I19  1  0.224222  0.070615  0.676670  1
