# generated using pymatgen
data_Hf3Al2GaIrPt2
_symmetry_space_group_name_H-M   'P 1'
_cell_length_a   7.13769912
_cell_length_b   7.13344504
_cell_length_c   7.09434200
_cell_angle_alpha   90.00000000
_cell_angle_beta   90.00000000
_cell_angle_gamma   119.53329162
_symmetry_Int_Tables_number   1
_chemical_formula_structural   Hf3Al2GaIrPt2
_chemical_formula_sum   'Hf6 Al4 Ga2 Ir2 Pt4'
_cell_volume   314.28495104
_cell_formula_units_Z   2
loop_
 _symmetry_equiv_pos_site_id
 _symmetry_equiv_pos_as_xyz
  1  'x, y, z'
loop_
 _atom_site_type_symbol
 _atom_site_label
 _atom_site_symmetry_multiplicity
 _atom_site_fract_x
 _atom_site_fract_y
 _atom_site_fract_z
 _atom_site_occupancy
  Hf  Hf0  1  0.414434  0.390203  0.250000  1
  Hf  Hf1  1  0.594424  0.990485  0.750000  1
  Hf  Hf2  1  0.401022  0.411977  0.750000  1
  Hf  Hf3  1  0.010676  0.602512  0.750000  1
  Hf  Hf4  1  0.975713  0.590450  0.250000  1
  Hf  Hf5  1  0.613254  0.022822  0.250000  1
  Al  Al6  1  0.263079  0.000595  0.999514  1
  Al  Al7  1  0.263079  0.000595  0.500486  1
  Al  Al8  1  0.003944  0.264708  0.500423  1
  Al  Al9  1  0.003944  0.264708  0.999577  1
  Ga  Ga10  1  0.731318  0.733284  0.999006  1
  Ga  Ga11  1  0.731318  0.733284  0.500994  1
  Ir  Ir12  1  0.665167  0.327067  0.520177  1
  Ir  Ir13  1  0.665167  0.327067  0.979823  1
  Pt  Pt14  1  0.005749  0.004891  0.750000  1
  Pt  Pt15  1  0.326533  0.665219  0.030065  1
  Pt  Pt16  1  0.326533  0.665219  0.469935  1
  Pt  Pt17  1  0.004646  0.004912  0.250000  1
