# generated using pymatgen
data_Cs2Rb4NaLiPb8
_symmetry_space_group_name_H-M   'P 1'
_cell_length_a   9.27959140
_cell_length_b   9.27959137
_cell_length_c   11.11028475
_cell_angle_alpha   88.34908267
_cell_angle_beta   91.65091958
_cell_angle_gamma   134.26046826
_symmetry_Int_Tables_number   1
_chemical_formula_structural   Cs2Rb4NaLiPb8
_chemical_formula_sum   'Cs2 Rb4 Na1 Li1 Pb8'
_cell_volume   684.84030047
_cell_formula_units_Z   1
loop_
 _symmetry_equiv_pos_site_id
 _symmetry_equiv_pos_as_xyz
  1  'x, y, z'
loop_
 _atom_site_type_symbol
 _atom_site_label
 _atom_site_symmetry_multiplicity
 _atom_site_fract_x
 _atom_site_fract_y
 _atom_site_fract_z
 _atom_site_occupancy
  Cs  Cs0  1  0.228358  0.771642  0.250055  1
  Cs  Cs1  1  0.771642  0.228358  0.749945  1
  Rb  Rb2  1  0.613174  0.386826  0.046506  1
  Rb  Rb3  1  0.386826  0.613174  0.953494  1
  Rb  Rb4  1  0.387596  0.612404  0.546712  1
  Rb  Rb5  1  0.612404  0.387596  0.453288  1
  Na  Na6  1  0.000000  0.000000  0.000000  1
  Li  Li7  1  0.000000  0.000000  0.500000  1
  Pb  Pb8  1  0.190174  0.268570  0.255601  1
  Pb  Pb9  1  0.809826  0.731430  0.744399  1
  Pb  Pb10  1  0.731430  0.809826  0.255601  1
  Pb  Pb11  1  0.268570  0.190174  0.744399  1
  Pb  Pb12  1  0.829227  0.170773  0.113005  1
  Pb  Pb13  1  0.170773  0.829227  0.886995  1
  Pb  Pb14  1  0.166086  0.833914  0.608689  1
  Pb  Pb15  1  0.833914  0.166086  0.391311  1
