# generated using pymatgen
data_YbCdPbO4
_symmetry_space_group_name_H-M   'P 1'
_cell_length_a   3.38873500
_cell_length_b   5.76121918
_cell_length_c   9.94006996
_cell_angle_alpha   89.24250183
_cell_angle_beta   90.00000000
_cell_angle_gamma   90.00000000
_symmetry_Int_Tables_number   1
_chemical_formula_structural   YbCdPbO4
_chemical_formula_sum   'Yb2 Cd2 Pb2 O8'
_cell_volume   194.04546199
_cell_formula_units_Z   2
loop_
 _symmetry_equiv_pos_site_id
 _symmetry_equiv_pos_as_xyz
  1  'x, y, z'
loop_
 _atom_site_type_symbol
 _atom_site_label
 _atom_site_symmetry_multiplicity
 _atom_site_fract_x
 _atom_site_fract_y
 _atom_site_fract_z
 _atom_site_occupancy
  Yb  Yb0  1  0.500000  0.930710  0.683071  1
  Yb  Yb1  1  0.500000  0.069290  0.316929  1
  Cd  Cd2  1  0.500000  0.432346  0.821706  1
  Cd  Cd3  1  0.500000  0.567654  0.178294  1
  Pb  Pb4  1  0.000000  0.500000  0.500000  1
  Pb  Pb5  1  0.000000  0.000000  0.000000  1
  O  O6  1  0.000000  0.141628  0.797405  1
  O  O7  1  0.000000  0.858372  0.202595  1
  O  O8  1  0.000000  0.644129  0.701953  1
  O  O9  1  0.000000  0.355871  0.298047  1
  O  O10  1  0.500000  0.248251  0.537935  1
  O  O11  1  0.500000  0.751749  0.462065  1
  O  O12  1  0.500000  0.240172  0.048180  1
  O  O13  1  0.500000  0.759828  0.951820  1
