# generated using pymatgen
data_Lu8Ga3Os
_symmetry_space_group_name_H-M   'P 1'
_cell_length_a   9.81006300
_cell_length_b   9.81006568
_cell_length_c   6.89889300
_cell_angle_alpha   90.00000000
_cell_angle_beta   90.00000000
_cell_angle_gamma   120.00000108
_symmetry_Int_Tables_number   1
_chemical_formula_structural   Lu8Ga3Os
_chemical_formula_sum   'Lu16 Ga6 Os2'
_cell_volume   574.98133608
_cell_formula_units_Z   2
loop_
 _symmetry_equiv_pos_site_id
 _symmetry_equiv_pos_as_xyz
  1  'x, y, z'
loop_
 _atom_site_type_symbol
 _atom_site_label
 _atom_site_symmetry_multiplicity
 _atom_site_fract_x
 _atom_site_fract_y
 _atom_site_fract_z
 _atom_site_occupancy
  Lu  Lu0  1  0.828543  0.657086  0.490575  1
  Lu  Lu1  1  0.342914  0.171457  0.490575  1
  Lu  Lu2  1  0.828543  0.171457  0.490575  1
  Lu  Lu3  1  0.171457  0.342914  0.990575  1
  Lu  Lu4  1  0.657086  0.828543  0.990575  1
  Lu  Lu5  1  0.171457  0.828543  0.990575  1
  Lu  Lu6  1  0.666667  0.333333  0.158864  1
  Lu  Lu7  1  0.333333  0.666667  0.658864  1
  Lu  Lu8  1  0.533041  0.066080  0.793506  1
  Lu  Lu9  1  0.933920  0.466959  0.793506  1
  Lu  Lu10  1  0.533041  0.466959  0.793506  1
  Lu  Lu11  1  0.466959  0.933920  0.293506  1
  Lu  Lu12  1  0.066080  0.533041  0.293506  1
  Lu  Lu13  1  0.466959  0.533041  0.293506  1
  Lu  Lu14  1  0.000000  0.000000  0.763858  1
  Lu  Lu15  1  0.000000  0.000000  0.263858  1
  Ga  Ga16  1  0.836083  0.672165  0.044633  1
  Ga  Ga17  1  0.327835  0.163917  0.044633  1
  Ga  Ga18  1  0.836083  0.163917  0.044633  1
  Ga  Ga19  1  0.163917  0.327835  0.544633  1
  Ga  Ga20  1  0.672165  0.836083  0.544633  1
  Ga  Ga21  1  0.163917  0.836083  0.544633  1
  Os  Os22  1  0.666667  0.333333  0.554258  1
  Os  Os23  1  0.333333  0.666667  0.054258  1
