# generated using pymatgen
data_Ce4TlNi4Hg
_symmetry_space_group_name_H-M   'P 1'
_cell_length_a   7.48172900
_cell_length_b   7.48172900
_cell_length_c   3.64767600
_cell_angle_alpha   90.00000000
_cell_angle_beta   90.00000000
_cell_angle_gamma   90.00000000
_symmetry_Int_Tables_number   1
_chemical_formula_structural   Ce4TlNi4Hg
_chemical_formula_sum   'Ce4 Tl1 Ni4 Hg1'
_cell_volume   204.18329238
_cell_formula_units_Z   1
loop_
 _symmetry_equiv_pos_site_id
 _symmetry_equiv_pos_as_xyz
  1  'x, y, z'
loop_
 _atom_site_type_symbol
 _atom_site_label
 _atom_site_symmetry_multiplicity
 _atom_site_fract_x
 _atom_site_fract_y
 _atom_site_fract_z
 _atom_site_occupancy
  Ce  Ce0  1  0.324845  0.829277  0.500000  1
  Ce  Ce1  1  0.829277  0.675155  0.500000  1
  Ce  Ce2  1  0.170723  0.324845  0.500000  1
  Ce  Ce3  1  0.675155  0.170723  0.500000  1
  Tl  Tl4  1  0.500000  0.500000  0.000000  1
  Ni  Ni5  1  0.124710  0.621661  0.000000  1
  Ni  Ni6  1  0.621661  0.875290  0.000000  1
  Ni  Ni7  1  0.875290  0.378339  0.000000  1
  Ni  Ni8  1  0.378339  0.124710  0.000000  1
  Hg  Hg9  1  0.000000  0.000000  0.000000  1
