# generated using pymatgen
data_Tm5Lu11Cd4(IrRu)2
_symmetry_space_group_name_H-M   'P 1'
_cell_length_a   9.48763875
_cell_length_b   9.48536530
_cell_length_c   9.50080911
_cell_angle_alpha   59.59291730
_cell_angle_beta   59.58860840
_cell_angle_gamma   59.51600129
_symmetry_Int_Tables_number   1
_chemical_formula_structural   Tm5Lu11Cd4(IrRu)2
_chemical_formula_sum   'Tm5 Lu11 Cd4 Ir2 Ru2'
_cell_volume   598.61767171
_cell_formula_units_Z   1
loop_
 _symmetry_equiv_pos_site_id
 _symmetry_equiv_pos_as_xyz
  1  'x, y, z'
loop_
 _atom_site_type_symbol
 _atom_site_label
 _atom_site_symmetry_multiplicity
 _atom_site_fract_x
 _atom_site_fract_y
 _atom_site_fract_z
 _atom_site_occupancy
  Tm  Tm0  1  0.809518  0.188497  0.189155  1
  Tm  Tm1  1  0.809353  0.188927  0.812326  1
  Tm  Tm2  1  0.188598  0.809460  0.188836  1
  Tm  Tm3  1  0.810825  0.810601  0.189522  1
  Tm  Tm4  1  0.188716  0.188414  0.811250  1
  Lu  Lu5  1  0.598086  0.598350  0.598966  1
  Lu  Lu6  1  0.598813  0.598748  0.205091  1
  Lu  Lu7  1  0.597117  0.208627  0.597586  1
  Lu  Lu8  1  0.208338  0.597291  0.597745  1
  Lu  Lu9  1  0.062008  0.437958  0.439140  1
  Lu  Lu10  1  0.437531  0.062278  0.060044  1
  Lu  Lu11  1  0.437868  0.061929  0.439320  1
  Lu  Lu12  1  0.062311  0.437709  0.059836  1
  Lu  Lu13  1  0.437766  0.437960  0.061161  1
  Lu  Lu14  1  0.059776  0.059593  0.440031  1
  Lu  Lu15  1  0.189047  0.809289  0.812340  1
  Cd  Cd16  1  0.830578  0.830267  0.830463  1
  Cd  Cd17  1  0.830546  0.830544  0.508443  1
  Cd  Cd18  1  0.830920  0.507287  0.830920  1
  Cd  Cd19  1  0.507155  0.830884  0.830836  1
  Ir  Ir20  1  0.393515  0.826629  0.390923  1
  Ir  Ir21  1  0.826806  0.393580  0.390826  1
  Ru  Ru22  1  0.391953  0.392102  0.388387  1
  Ru  Ru23  1  0.392855  0.393072  0.826852  1
