# generated using pymatgen
data_Lu3Sc(Os3Ru)2
_symmetry_space_group_name_H-M   'P 1'
_cell_length_a   5.20959800
_cell_length_b   5.20959955
_cell_length_c   8.90018700
_cell_angle_alpha   90.00000000
_cell_angle_beta   90.00000000
_cell_angle_gamma   119.99999016
_symmetry_Int_Tables_number   1
_chemical_formula_structural   Lu3Sc(Os3Ru)2
_chemical_formula_sum   'Lu3 Sc1 Os6 Ru2'
_cell_volume   209.18876683
_cell_formula_units_Z   1
loop_
 _symmetry_equiv_pos_site_id
 _symmetry_equiv_pos_as_xyz
  1  'x, y, z'
loop_
 _atom_site_type_symbol
 _atom_site_label
 _atom_site_symmetry_multiplicity
 _atom_site_fract_x
 _atom_site_fract_y
 _atom_site_fract_z
 _atom_site_occupancy
  Lu  Lu0  1  0.666667  0.333333  0.564154  1
  Lu  Lu1  1  0.666667  0.333333  0.933368  1
  Lu  Lu2  1  0.333333  0.666667  0.068123  1
  Sc  Sc3  1  0.333333  0.666667  0.431128  1
  Os  Os4  1  0.170285  0.340571  0.748708  1
  Os  Os5  1  0.170285  0.829715  0.748708  1
  Os  Os6  1  0.340124  0.170061  0.252265  1
  Os  Os7  1  0.829939  0.659876  0.252265  1
  Os  Os8  1  0.659429  0.829715  0.748708  1
  Os  Os9  1  0.829939  0.170061  0.252265  1
  Ru  Ru10  1  0.000000  0.000000  0.000405  1
  Ru  Ru11  1  0.000000  0.000000  0.499904  1
