# generated using pymatgen
data_La2Pa2O7
_symmetry_space_group_name_H-M   'P 1'
_cell_length_a   7.88600554
_cell_length_b   7.88600610
_cell_length_c   7.88600500
_cell_angle_alpha   60.00000041
_cell_angle_beta   59.99999807
_cell_angle_gamma   59.99999863
_symmetry_Int_Tables_number   1
_chemical_formula_structural   La2Pa2O7
_chemical_formula_sum   'La4 Pa4 O14'
_cell_volume   346.78174463
_cell_formula_units_Z   2
loop_
 _symmetry_equiv_pos_site_id
 _symmetry_equiv_pos_as_xyz
  1  'x, y, z'
loop_
 _atom_site_type_symbol
 _atom_site_label
 _atom_site_symmetry_multiplicity
 _atom_site_fract_x
 _atom_site_fract_y
 _atom_site_fract_z
 _atom_site_occupancy
  La  La0  1  0.625000  0.125000  0.125000  1
  La  La1  1  0.125000  0.125000  0.125000  1
  La  La2  1  0.125000  0.625000  0.125000  1
  La  La3  1  0.125000  0.125000  0.625000  1
  Pa  Pa4  1  0.625000  0.625000  0.125000  1
  Pa  Pa5  1  0.625000  0.625000  0.625000  1
  Pa  Pa6  1  0.625000  0.125000  0.625000  1
  Pa  Pa7  1  0.125000  0.625000  0.625000  1
  O  O8  1  0.724569  0.275431  0.275431  1
  O  O9  1  0.724569  0.724569  0.275431  1
  O  O10  1  0.275431  0.724569  0.275431  1
  O  O11  1  0.000000  0.000000  0.000000  1
  O  O12  1  0.724569  0.275431  0.724569  1
  O  O13  1  0.974569  0.525431  0.525431  1
  O  O14  1  0.275431  0.724569  0.724569  1
  O  O15  1  0.525431  0.974569  0.525431  1
  O  O16  1  0.250000  0.250000  0.250000  1
  O  O17  1  0.974569  0.525431  0.974569  1
  O  O18  1  0.525431  0.525431  0.974569  1
  O  O19  1  0.974569  0.974569  0.525431  1
  O  O20  1  0.525431  0.974569  0.974569  1
  O  O21  1  0.275431  0.275431  0.724569  1
