# generated using pymatgen
data_K3V(SO4)3
_symmetry_space_group_name_H-M   'P 1'
_cell_length_a   9.10475126
_cell_length_b   9.10475148
_cell_length_c   9.10475094
_cell_angle_alpha   108.89702320
_cell_angle_beta   108.89702259
_cell_angle_gamma   108.89704197
_symmetry_Int_Tables_number   1
_chemical_formula_structural   K3V(SO4)3
_chemical_formula_sum   'K6 V2 S6 O24'
_cell_volume   593.03829459
_cell_formula_units_Z   2
loop_
 _symmetry_equiv_pos_site_id
 _symmetry_equiv_pos_as_xyz
  1  'x, y, z'
loop_
 _atom_site_type_symbol
 _atom_site_label
 _atom_site_symmetry_multiplicity
 _atom_site_fract_x
 _atom_site_fract_y
 _atom_site_fract_z
 _atom_site_occupancy
  K  K0  1  0.631317  0.149028  0.780495  1
  K  K1  1  0.780495  0.631317  0.149028  1
  K  K2  1  0.149028  0.780495  0.631317  1
  K  K3  1  0.368683  0.850972  0.219505  1
  K  K4  1  0.219505  0.368683  0.850972  1
  K  K5  1  0.850972  0.219505  0.368683  1
  V  V6  1  0.000000  0.000000  0.000000  1
  V  V7  1  0.500000  0.500000  0.500000  1
  S  S8  1  0.892329  0.566050  0.766159  1
  S  S9  1  0.766159  0.892329  0.566050  1
  S  S10  1  0.566050  0.766159  0.892329  1
  S  S11  1  0.107671  0.433950  0.233841  1
  S  S12  1  0.233841  0.107671  0.433950  1
  S  S13  1  0.433950  0.233841  0.107671  1
  O  O14  1  0.748193  0.526383  0.595417  1
  O  O15  1  0.595417  0.748193  0.526383  1
  O  O16  1  0.526383  0.595417  0.748193  1
  O  O17  1  0.251807  0.473617  0.404583  1
  O  O18  1  0.404583  0.251807  0.473617  1
  O  O19  1  0.473617  0.404583  0.251807  1
  O  O20  1  0.820865  0.487607  0.860828  1
  O  O21  1  0.860828  0.820865  0.487607  1
  O  O22  1  0.487607  0.860828  0.820865  1
  O  O23  1  0.179135  0.512393  0.139172  1
  O  O24  1  0.139172  0.179135  0.512393  1
  O  O25  1  0.512393  0.139172  0.179135  1
  O  O26  1  0.010798  0.504774  0.720340  1
  O  O27  1  0.720340  0.010798  0.504774  1
  O  O28  1  0.504774  0.720340  0.010798  1
  O  O29  1  0.989202  0.495226  0.279660  1
  O  O30  1  0.279660  0.989202  0.495226  1
  O  O31  1  0.495226  0.279660  0.989202  1
  O  O32  1  0.999703  0.766432  0.877309  1
  O  O33  1  0.877309  0.999703  0.766432  1
  O  O34  1  0.766432  0.877309  0.999703  1
  O  O35  1  0.000297  0.233568  0.122691  1
  O  O36  1  0.122691  0.000297  0.233568  1
  O  O37  1  0.233568  0.122691  0.000297  1
