# generated using pymatgen
data_YTh3(InAu2)2
_symmetry_space_group_name_H-M   'P 1'
_cell_length_a   8.05135610
_cell_length_b   8.05135610
_cell_length_c   3.93573000
_cell_angle_alpha   90.00000000
_cell_angle_beta   90.00000000
_cell_angle_gamma   89.98195309
_symmetry_Int_Tables_number   1
_chemical_formula_structural   YTh3(InAu2)2
_chemical_formula_sum   'Y1 Th3 In2 Au4'
_cell_volume   255.13106752
_cell_formula_units_Z   1
loop_
 _symmetry_equiv_pos_site_id
 _symmetry_equiv_pos_as_xyz
  1  'x, y, z'
loop_
 _atom_site_type_symbol
 _atom_site_label
 _atom_site_symmetry_multiplicity
 _atom_site_fract_x
 _atom_site_fract_y
 _atom_site_fract_z
 _atom_site_occupancy
  Y  Y0  1  0.824637  0.675363  0.500000  1
  Th  Th1  1  0.677005  0.173421  0.500000  1
  Th  Th2  1  0.326579  0.822995  0.500000  1
  Th  Th3  1  0.172097  0.327903  0.500000  1
  In  In4  1  0.503754  0.502062  0.000000  1
  In  In5  1  0.997938  0.996246  0.000000  1
  Au  Au6  1  0.124146  0.628797  0.000000  1
  Au  Au7  1  0.871203  0.375854  0.000000  1
  Au  Au8  1  0.629677  0.870323  0.000000  1
  Au  Au9  1  0.372963  0.127037  0.000000  1
