# generated using pymatgen
data_HoLuPa(InIr)3
_symmetry_space_group_name_H-M   'P 1'
_cell_length_a   7.53289100
_cell_length_b   7.51442427
_cell_length_c   3.81722500
_cell_angle_alpha   90.00000000
_cell_angle_beta   90.00000000
_cell_angle_gamma   117.70420433
_symmetry_Int_Tables_number   1
_chemical_formula_structural   HoLuPa(InIr)3
_chemical_formula_sum   'Ho1 Lu1 Pa1 In3 Ir3'
_cell_volume   191.30433591
_cell_formula_units_Z   1
loop_
 _symmetry_equiv_pos_site_id
 _symmetry_equiv_pos_as_xyz
  1  'x, y, z'
loop_
 _atom_site_type_symbol
 _atom_site_label
 _atom_site_symmetry_multiplicity
 _atom_site_fract_x
 _atom_site_fract_y
 _atom_site_fract_z
 _atom_site_occupancy
  Ho  Ho0  1  0.000242  0.403393  0.000000  1
  Lu  Lu1  1  0.402460  0.000289  0.000000  1
  Pa  Pa2  1  0.583585  0.583721  0.000000  1
  In  In3  1  0.012266  0.740150  0.500000  1
  In  In4  1  0.245572  0.244321  0.500000  1
  In  In5  1  0.739723  0.012078  0.500000  1
  Ir  Ir6  1  0.991728  0.989727  0.000000  1
  Ir  Ir7  1  0.662861  0.359472  0.500000  1
  Ir  Ir8  1  0.361561  0.666848  0.500000  1
