# generated using pymatgen
data_PrNdMnIr3
_symmetry_space_group_name_H-M   'P 1'
_cell_length_a   5.29893852
_cell_length_b   5.29893763
_cell_length_c   5.29893747
_cell_angle_alpha   63.46835601
_cell_angle_beta   63.46837521
_cell_angle_gamma   63.46836557
_symmetry_Int_Tables_number   1
_chemical_formula_structural   PrNdMnIr3
_chemical_formula_sum   'Pr1 Nd1 Mn1 Ir3'
_cell_volume   113.27990131
_cell_formula_units_Z   1
loop_
 _symmetry_equiv_pos_site_id
 _symmetry_equiv_pos_as_xyz
  1  'x, y, z'
loop_
 _atom_site_type_symbol
 _atom_site_label
 _atom_site_symmetry_multiplicity
 _atom_site_fract_x
 _atom_site_fract_y
 _atom_site_fract_z
 _atom_site_occupancy
  Pr  Pr0  1  0.000115  0.000115  0.000115  1
  Nd  Nd1  1  0.250236  0.250236  0.250236  1
  Mn  Mn2  1  0.624861  0.624861  0.624861  1
  Ir  Ir3  1  0.624883  0.624883  0.125024  1
  Ir  Ir4  1  0.624883  0.125024  0.624883  1
  Ir  Ir5  1  0.125024  0.624883  0.624883  1
