# generated using pymatgen
data_Ta4MnAl6Fe
_symmetry_space_group_name_H-M   'P 1'
_cell_length_a   5.01889097
_cell_length_b   4.99151392
_cell_length_c   8.25381800
_cell_angle_alpha   90.00000000
_cell_angle_beta   90.00000000
_cell_angle_gamma   119.54419863
_symmetry_Int_Tables_number   1
_chemical_formula_structural   Ta4MnAl6Fe
_chemical_formula_sum   'Ta4 Mn1 Al6 Fe1'
_cell_volume   179.88791813
_cell_formula_units_Z   1
loop_
 _symmetry_equiv_pos_site_id
 _symmetry_equiv_pos_as_xyz
  1  'x, y, z'
loop_
 _atom_site_type_symbol
 _atom_site_label
 _atom_site_symmetry_multiplicity
 _atom_site_fract_x
 _atom_site_fract_y
 _atom_site_fract_z
 _atom_site_occupancy
  Ta  Ta0  1  0.335164  0.662362  0.061818  1
  Ta  Ta1  1  0.663419  0.329149  0.562191  1
  Ta  Ta2  1  0.663419  0.329149  0.937809  1
  Ta  Ta3  1  0.335164  0.662362  0.438182  1
  Mn  Mn4  1  0.162493  0.334828  0.750000  1
  Al  Al5  1  0.998374  0.020086  0.001517  1
  Al  Al6  1  0.998374  0.020086  0.498483  1
  Al  Al7  1  0.833607  0.656126  0.250000  1
  Al  Al8  1  0.166617  0.825662  0.750000  1
  Al  Al9  1  0.650969  0.820506  0.750000  1
  Al  Al10  1  0.352024  0.167702  0.250000  1
  Fe  Fe11  1  0.840374  0.171982  0.250000  1
