# generated using pymatgen
data_Ce4DyP12Ru16Pt3
_symmetry_space_group_name_H-M   'P 1'
_cell_length_a   12.66347800
_cell_length_b   12.66347744
_cell_length_c   3.98898700
_cell_angle_alpha   90.00000000
_cell_angle_beta   90.00000000
_cell_angle_gamma   120.00000147
_symmetry_Int_Tables_number   1
_chemical_formula_structural   Ce4DyP12Ru16Pt3
_chemical_formula_sum   'Ce4 Dy1 P12 Ru16 Pt3'
_cell_volume   553.98655842
_cell_formula_units_Z   1
loop_
 _symmetry_equiv_pos_site_id
 _symmetry_equiv_pos_as_xyz
  1  'x, y, z'
loop_
 _atom_site_type_symbol
 _atom_site_label
 _atom_site_symmetry_multiplicity
 _atom_site_fract_x
 _atom_site_fract_y
 _atom_site_fract_z
 _atom_site_occupancy
  Ce  Ce0  1  0.183903  0.183859  0.500000  1
  Ce  Ce1  1  0.816141  0.000044  0.500000  1
  Ce  Ce2  1  0.999956  0.816097  0.500000  1
  Ce  Ce3  1  0.666667  0.333333  0.000000  1
  Dy  Dy4  1  0.333333  0.666667  0.000000  1
  P  P5  1  0.813367  0.813876  0.000000  1
  P  P6  1  0.186124  0.999492  0.000000  1
  P  P7  1  0.000508  0.186633  0.000000  1
  P  P8  1  0.182364  0.482126  0.500000  1
  P  P9  1  0.517874  0.700237  0.500000  1
  P  P10  1  0.299763  0.817636  0.500000  1
  P  P11  1  0.700884  0.521152  0.500000  1
  P  P12  1  0.820267  0.299116  0.500000  1
  P  P13  1  0.478848  0.179733  0.500000  1
  P  P14  1  0.366701  0.367150  0.000000  1
  P  P15  1  0.632850  0.999551  0.000000  1
  P  P16  1  0.000449  0.633299  0.000000  1
  Ru  Ru17  1  0.709788  0.710468  0.500000  1
  Ru  Ru18  1  0.289532  0.999320  0.500000  1
  Ru  Ru19  1  0.000680  0.290212  0.500000  1
  Ru  Ru20  1  0.184692  0.378801  0.000000  1
  Ru  Ru21  1  0.621199  0.805891  0.000000  1
  Ru  Ru22  1  0.194109  0.815308  0.000000  1
  Ru  Ru23  1  0.805732  0.621359  0.000000  1
  Ru  Ru24  1  0.815626  0.194268  0.000000  1
  Ru  Ru25  1  0.378641  0.184374  0.000000  1
  Ru  Ru26  1  0.370399  0.494791  0.500000  1
  Ru  Ru27  1  0.505209  0.875609  0.500000  1
  Ru  Ru28  1  0.124391  0.629601  0.500000  1
  Ru  Ru29  1  0.875507  0.505583  0.500000  1
  Ru  Ru30  1  0.630076  0.124493  0.500000  1
  Ru  Ru31  1  0.494417  0.369924  0.500000  1
  Ru  Ru32  1  0.000000  0.000000  0.000000  1
  Pt  Pt33  1  0.552740  0.551961  0.000000  1
  Pt  Pt34  1  0.448039  0.000779  0.000000  1
  Pt  Pt35  1  0.999221  0.447260  0.000000  1
