# generated using pymatgen
data_K5Rb3(InSb)12
_symmetry_space_group_name_H-M   'P 1'
_cell_length_a   4.71797300
_cell_length_b   7.91698101
_cell_length_c   30.53599203
_cell_angle_alpha   89.99419016
_cell_angle_beta   90.00000000
_cell_angle_gamma   90.00000000
_symmetry_Int_Tables_number   1
_chemical_formula_structural   K5Rb3(InSb)12
_chemical_formula_sum   'K5 Rb3 In12 Sb12'
_cell_volume   1140.58350325
_cell_formula_units_Z   1
loop_
 _symmetry_equiv_pos_site_id
 _symmetry_equiv_pos_as_xyz
  1  'x, y, z'
loop_
 _atom_site_type_symbol
 _atom_site_label
 _atom_site_symmetry_multiplicity
 _atom_site_fract_x
 _atom_site_fract_y
 _atom_site_fract_z
 _atom_site_occupancy
  K  K0  1  0.250000  0.268936  0.995381  1
  K  K1  1  0.250000  0.244735  0.813690  1
  K  K2  1  0.750000  0.756715  0.186309  1
  K  K3  1  0.750000  0.743845  0.686917  1
  K  K4  1  0.250000  0.256121  0.313041  1
  Rb  Rb5  1  0.250000  0.223138  0.495448  1
  Rb  Rb6  1  0.750000  0.776917  0.504557  1
  Rb  Rb7  1  0.750000  0.720943  0.004520  1
  In  In8  1  0.250000  0.555212  0.616688  1
  In  In9  1  0.750000  0.444883  0.383340  1
  In  In10  1  0.750000  0.055706  0.883607  1
  In  In11  1  0.250000  0.945954  0.115041  1
  In  In12  1  0.250000  0.088254  0.204966  1
  In  In13  1  0.750000  0.911890  0.794387  1
  In  In14  1  0.750000  0.588232  0.293936  1
  In  In15  1  0.250000  0.412112  0.706168  1
  In  In16  1  0.750000  0.392706  0.125794  1
  In  In17  1  0.250000  0.608273  0.875641  1
  In  In18  1  0.250000  0.892100  0.373726  1
  In  In19  1  0.750000  0.107910  0.626243  1
  Sb  Sb20  1  0.750000  0.193550  0.720736  1
  Sb  Sb21  1  0.250000  0.806288  0.279113  1
  Sb  Sb22  1  0.250000  0.692505  0.780459  1
  Sb  Sb23  1  0.750000  0.306181  0.220254  1
  Sb  Sb24  1  0.250000  0.918064  0.596949  1
  Sb  Sb25  1  0.750000  0.081962  0.403018  1
  Sb  Sb26  1  0.750000  0.417225  0.904905  1
  Sb  Sb27  1  0.250000  0.581323  0.096088  1
  Sb  Sb28  1  0.750000  0.412150  0.575922  1
  Sb  Sb29  1  0.250000  0.588017  0.424095  1
  Sb  Sb30  1  0.250000  0.916185  0.924839  1
  Sb  Sb31  1  0.750000  0.091967  0.074222  1
