# generated using pymatgen
data_SmHo2AuO7
_symmetry_space_group_name_H-M   'P 1'
_cell_length_a   6.50224761
_cell_length_b   6.50224625
_cell_length_c   7.49476800
_cell_angle_alpha   90.00000000
_cell_angle_beta   90.00000000
_cell_angle_gamma   108.81378821
_symmetry_Int_Tables_number   1
_chemical_formula_structural   SmHo2AuO7
_chemical_formula_sum   'Sm2 Ho4 Au2 O14'
_cell_volume   299.94292183
_cell_formula_units_Z   2
loop_
 _symmetry_equiv_pos_site_id
 _symmetry_equiv_pos_as_xyz
  1  'x, y, z'
loop_
 _atom_site_type_symbol
 _atom_site_label
 _atom_site_symmetry_multiplicity
 _atom_site_fract_x
 _atom_site_fract_y
 _atom_site_fract_z
 _atom_site_occupancy
  Sm  Sm0  1  0.500000  0.500000  0.500000  1
  Sm  Sm1  1  0.500000  0.500000  0.000000  1
  Ho  Ho2  1  0.529119  0.998140  0.750000  1
  Ho  Ho3  1  0.998140  0.529119  0.250000  1
  Ho  Ho4  1  0.470881  0.001860  0.250000  1
  Ho  Ho5  1  0.001860  0.470881  0.750000  1
  Au  Au6  1  0.000000  0.000000  0.500000  1
  Au  Au7  1  0.000000  0.000000  0.000000  1
  O  O8  1  0.670759  0.922974  0.475562  1
  O  O9  1  0.922974  0.670759  0.524438  1
  O  O10  1  0.670759  0.922974  0.024438  1
  O  O11  1  0.922974  0.670759  0.975562  1
  O  O12  1  0.329241  0.077026  0.524438  1
  O  O13  1  0.077026  0.329241  0.475562  1
  O  O14  1  0.329241  0.077026  0.975562  1
  O  O15  1  0.077026  0.329241  0.024438  1
  O  O16  1  0.921625  0.078375  0.750000  1
  O  O17  1  0.078375  0.921625  0.250000  1
  O  O18  1  0.364128  0.635871  0.750000  1
  O  O19  1  0.635871  0.364128  0.250000  1
  O  O20  1  0.642856  0.357144  0.750000  1
  O  O21  1  0.357144  0.642856  0.250000  1
