# generated using pymatgen
data_Ho3Lu2Zr(SnIr)6
_symmetry_space_group_name_H-M   'P 1'
_cell_length_a   7.50731201
_cell_length_b   7.45501143
_cell_length_c   7.73632600
_cell_angle_alpha   90.00000000
_cell_angle_beta   90.00000000
_cell_angle_gamma   120.27436748
_symmetry_Int_Tables_number   1
_chemical_formula_structural   Ho3Lu2Zr(SnIr)6
_chemical_formula_sum   'Ho3 Lu2 Zr1 Sn6 Ir6'
_cell_volume   373.93044324
_cell_formula_units_Z   1
loop_
 _symmetry_equiv_pos_site_id
 _symmetry_equiv_pos_as_xyz
  1  'x, y, z'
loop_
 _atom_site_type_symbol
 _atom_site_label
 _atom_site_symmetry_multiplicity
 _atom_site_fract_x
 _atom_site_fract_y
 _atom_site_fract_z
 _atom_site_occupancy
  Ho  Ho0  1  0.409182  0.001946  0.250000  1
  Ho  Ho1  1  0.593717  0.596531  0.250000  1
  Ho  Ho2  1  0.995333  0.402722  0.250000  1
  Lu  Lu3  1  0.597347  0.597369  0.750000  1
  Lu  Lu4  1  0.005251  0.404966  0.750000  1
  Zr  Zr5  1  0.397779  0.998043  0.750000  1
  Sn  Sn6  1  0.262926  0.265298  0.500140  1
  Sn  Sn7  1  0.262926  0.265298  0.999860  1
  Sn  Sn8  1  0.741400  0.000489  0.991258  1
  Sn  Sn9  1  0.996560  0.734099  0.500412  1
  Sn  Sn10  1  0.741400  0.000489  0.508742  1
  Sn  Sn11  1  0.996560  0.734099  0.999588  1
  Ir  Ir12  1  0.659176  0.323641  0.518481  1
  Ir  Ir13  1  0.659176  0.323641  0.981519  1
  Ir  Ir14  1  0.335102  0.675744  0.989194  1
  Ir  Ir15  1  0.335102  0.675744  0.510806  1
  Ir  Ir16  1  0.011946  0.999901  0.750000  1
  Ir  Ir17  1  0.999118  0.999976  0.250000  1
