# generated using pymatgen
data_YTh6PaH24
_symmetry_space_group_name_H-M   'P 1'
_cell_length_a   6.84075500
_cell_length_b   6.84075500
_cell_length_c   6.84075500
_cell_angle_alpha   90.00000000
_cell_angle_beta   90.00000000
_cell_angle_gamma   90.00000000
_symmetry_Int_Tables_number   1
_chemical_formula_structural   YTh6PaH24
_chemical_formula_sum   'Y1 Th6 Pa1 H24'
_cell_volume   320.11948508
_cell_formula_units_Z   1
loop_
 _symmetry_equiv_pos_site_id
 _symmetry_equiv_pos_as_xyz
  1  'x, y, z'
loop_
 _atom_site_type_symbol
 _atom_site_label
 _atom_site_symmetry_multiplicity
 _atom_site_fract_x
 _atom_site_fract_y
 _atom_site_fract_z
 _atom_site_occupancy
  Y  Y0  1  0.000000  0.000000  0.000000  1
  Th  Th1  1  0.247795  0.000000  0.500000  1
  Th  Th2  1  0.752205  0.000000  0.500000  1
  Th  Th3  1  0.000000  0.500000  0.247795  1
  Th  Th4  1  0.000000  0.500000  0.752205  1
  Th  Th5  1  0.500000  0.752205  0.000000  1
  Th  Th6  1  0.500000  0.247795  0.000000  1
  Pa  Pa7  1  0.500000  0.500000  0.500000  1
  H  H8  1  0.000000  0.153360  0.301050  1
  H  H9  1  0.500000  0.202580  0.652705  1
  H  H10  1  0.500000  0.797420  0.347295  1
  H  H11  1  0.797420  0.652705  0.500000  1
  H  H12  1  0.202580  0.652705  0.500000  1
  H  H13  1  0.347295  0.500000  0.797420  1
  H  H14  1  0.652705  0.500000  0.797420  1
  H  H15  1  0.301050  0.000000  0.153360  1
  H  H16  1  0.153360  0.301050  0.000000  1
  H  H17  1  0.846640  0.698950  0.000000  1
  H  H18  1  0.301050  0.000000  0.846640  1
  H  H19  1  0.846640  0.301050  0.000000  1
  H  H20  1  0.698950  0.000000  0.153360  1
  H  H21  1  0.698950  0.000000  0.846640  1
  H  H22  1  0.153360  0.698950  0.000000  1
  H  H23  1  0.000000  0.846640  0.698950  1
  H  H24  1  0.000000  0.153360  0.698950  1
  H  H25  1  0.000000  0.846640  0.301050  1
  H  H26  1  0.652705  0.500000  0.202580  1
  H  H27  1  0.347295  0.500000  0.202580  1
  H  H28  1  0.797420  0.347295  0.500000  1
  H  H29  1  0.202580  0.347295  0.500000  1
  H  H30  1  0.500000  0.797420  0.652705  1
  H  H31  1  0.500000  0.202580  0.347295  1
