# generated using pymatgen
data_Sc2Ni(B2O5)2
_symmetry_space_group_name_H-M   'P 1'
_cell_length_a   4.44646159
_cell_length_b   7.06332200
_cell_length_c   9.23247867
_cell_angle_alpha   90.00023994
_cell_angle_beta   89.75856460
_cell_angle_gamma   90.00010807
_symmetry_Int_Tables_number   1
_chemical_formula_structural   Sc2Ni(B2O5)2
_chemical_formula_sum   'Sc4 Ni2 B8 O20'
_cell_volume   289.95994399
_cell_formula_units_Z   2
loop_
 _symmetry_equiv_pos_site_id
 _symmetry_equiv_pos_as_xyz
  1  'x, y, z'
loop_
 _atom_site_type_symbol
 _atom_site_label
 _atom_site_symmetry_multiplicity
 _atom_site_fract_x
 _atom_site_fract_y
 _atom_site_fract_z
 _atom_site_occupancy
  Sc  Sc0  1  0.003353  0.906979  0.160335  1
  Sc  Sc1  1  0.996632  0.406954  0.339666  1
  Sc  Sc2  1  0.003356  0.593022  0.660350  1
  Sc  Sc3  1  0.996631  0.093053  0.839654  1
  Ni  Ni4  1  0.000001  0.500080  0.000054  1
  Ni  Ni5  1  0.000004  0.000022  0.499967  1
  B  B6  1  0.529526  0.229102  0.079289  1
  B  B7  1  0.535695  0.593325  0.168730  1
  B  B8  1  0.464323  0.093318  0.331268  1
  B  B9  1  0.470466  0.729098  0.420693  1
  B  B10  1  0.529530  0.270870  0.579300  1
  B  B11  1  0.535652  0.906670  0.668689  1
  B  B12  1  0.464362  0.406682  0.831310  1
  B  B13  1  0.470462  0.770873  0.920682  1
  O  O14  1  0.764068  0.101847  0.033351  1
  O  O15  1  0.664469  0.713591  0.047601  1
  O  O16  1  0.682382  0.401859  0.144551  1
  O  O17  1  0.215501  0.593053  0.174174  1
  O  O18  1  0.322012  0.159184  0.194391  1
  O  O19  1  0.678004  0.659178  0.305604  1
  O  O20  1  0.784521  0.093024  0.325857  1
  O  O21  1  0.317618  0.901856  0.355439  1
  O  O22  1  0.335523  0.213575  0.452395  1
  O  O23  1  0.235915  0.601850  0.466637  1
  O  O24  1  0.764079  0.398114  0.533360  1
  O  O25  1  0.664464  0.786409  0.547582  1
  O  O26  1  0.682382  0.098128  0.644527  1
  O  O27  1  0.215440  0.906981  0.674078  1
  O  O28  1  0.322056  0.340810  0.694408  1
  O  O29  1  0.677954  0.840807  0.805585  1
  O  O30  1  0.784576  0.407014  0.825954  1
  O  O31  1  0.317610  0.598130  0.855471  1
  O  O32  1  0.335523  0.286421  0.952412  1
  O  O33  1  0.235909  0.898116  0.966630  1
