# generated using pymatgen
data_PrBi9(SeO8)3
_symmetry_space_group_name_H-M   'P 1'
_cell_length_a   12.32919366
_cell_length_b   12.34556806
_cell_length_c   8.65938658
_cell_angle_alpha   83.33463556
_cell_angle_beta   83.62171396
_cell_angle_gamma   27.21424283
_symmetry_Int_Tables_number   1
_chemical_formula_structural   PrBi9(SeO8)3
_chemical_formula_sum   'Pr1 Bi9 Se3 O24'
_cell_volume   598.60668581
_cell_formula_units_Z   1
loop_
 _symmetry_equiv_pos_site_id
 _symmetry_equiv_pos_as_xyz
  1  'x, y, z'
loop_
 _atom_site_type_symbol
 _atom_site_label
 _atom_site_symmetry_multiplicity
 _atom_site_fract_x
 _atom_site_fract_y
 _atom_site_fract_z
 _atom_site_occupancy
  Pr  Pr0  1  0.452257  0.480982  0.292755  1
  Bi  Bi1  1  0.604662  0.783123  0.457033  1
  Bi  Bi2  1  0.528271  0.540240  0.672204  1
  Bi  Bi3  1  0.215634  0.262929  0.189346  1
  Bi  Bi4  1  0.061514  0.090173  0.416874  1
  Bi  Bi5  1  0.213433  0.400465  0.546166  1
  Bi  Bi6  1  0.134686  0.160322  0.757956  1
  Bi  Bi7  1  0.915826  0.931806  0.576375  1
  Bi  Bi8  1  0.834564  0.869419  0.242210  1
  Bi  Bi9  1  0.742096  0.778126  0.815166  1
  Se  Se10  1  0.326139  0.414199  0.921746  1
  Se  Se11  1  0.979066  0.021081  0.999245  1
  Se  Se12  1  0.585886  0.673294  0.082860  1
  O  O13  1  0.887286  0.762842  0.637923  1
  O  O14  1  0.389948  0.947334  0.024432  1
  O  O15  1  0.238767  0.111243  0.366768  1
  O  O16  1  0.185895  0.924300  0.919258  1
  O  O17  1  0.713389  0.292303  0.494564  1
  O  O18  1  0.014794  0.537677  0.344939  1
  O  O19  1  0.226276  0.774803  0.493642  1
  O  O20  1  0.817875  0.216816  0.137918  1
  O  O21  1  0.708217  0.522196  0.923583  1
  O  O22  1  0.471796  0.307035  0.083259  1
  O  O23  1  0.460085  0.193541  0.839160  1
  O  O24  1  0.299757  0.543504  0.784309  1
  O  O25  1  0.664504  0.132417  0.389261  1
  O  O26  1  0.794712  0.549468  0.180563  1
  O  O27  1  0.459124  0.690896  0.213189  1
  O  O28  1  0.864051  0.342838  0.602635  1
  O  O29  1  0.117099  0.789528  0.094711  1
  O  O30  1  0.354889  0.859518  0.587740  1
  O  O31  1  0.986751  0.462871  0.692038  1
  O  O32  1  0.133269  0.646635  0.407740  1
  O  O33  1  0.534656  0.017188  0.313088  1
  O  O34  1  0.808054  0.138472  0.857835  1
  O  O35  1  0.055678  0.604526  0.982110  1
  O  O36  1  0.463672  0.981312  0.659399  1
