# generated using pymatgen
data_Ca6ThCo4Sn13
_symmetry_space_group_name_H-M   'P 1'
_cell_length_a   11.21186900
_cell_length_b   11.21186900
_cell_length_c   4.67163500
_cell_angle_alpha   90.00000000
_cell_angle_beta   90.00000000
_cell_angle_gamma   90.00000000
_symmetry_Int_Tables_number   1
_chemical_formula_structural   Ca6ThCo4Sn13
_chemical_formula_sum   'Ca6 Th1 Co4 Sn13'
_cell_volume   587.25257955
_cell_formula_units_Z   1
loop_
 _symmetry_equiv_pos_site_id
 _symmetry_equiv_pos_as_xyz
  1  'x, y, z'
loop_
 _atom_site_type_symbol
 _atom_site_label
 _atom_site_symmetry_multiplicity
 _atom_site_fract_x
 _atom_site_fract_y
 _atom_site_fract_z
 _atom_site_occupancy
  Ca  Ca0  1  0.838308  0.169925  0.000000  1
  Ca  Ca1  1  0.830075  0.838308  0.000000  1
  Ca  Ca2  1  0.161692  0.830075  0.000000  1
  Ca  Ca3  1  0.169925  0.161692  0.000000  1
  Ca  Ca4  1  0.000000  0.500000  0.000000  1
  Ca  Ca5  1  0.500000  0.000000  0.000000  1
  Th  Th6  1  0.500000  0.500000  0.500000  1
  Co  Co7  1  0.772144  0.616452  0.500000  1
  Co  Co8  1  0.383548  0.772144  0.500000  1
  Co  Co9  1  0.616452  0.227856  0.500000  1
  Co  Co10  1  0.227856  0.383548  0.500000  1
  Sn  Sn11  1  0.022416  0.287392  0.500000  1
  Sn  Sn12  1  0.977584  0.712608  0.500000  1
  Sn  Sn13  1  0.216320  0.612737  0.500000  1
  Sn  Sn14  1  0.578908  0.304367  0.000000  1
  Sn  Sn15  1  0.695633  0.578908  0.000000  1
  Sn  Sn16  1  0.783680  0.387263  0.500000  1
  Sn  Sn17  1  0.712608  0.022416  0.500000  1
  Sn  Sn18  1  0.000000  0.000000  0.500000  1
  Sn  Sn19  1  0.287392  0.977584  0.500000  1
  Sn  Sn20  1  0.421092  0.695633  0.000000  1
  Sn  Sn21  1  0.612737  0.783680  0.500000  1
  Sn  Sn22  1  0.304367  0.421092  0.000000  1
  Sn  Sn23  1  0.387263  0.216320  0.500000  1
