# generated using pymatgen
data_Dy5Mg2Ti(P3Ir4)4
_symmetry_space_group_name_H-M   'P 1'
_cell_length_a   12.87452500
_cell_length_b   12.76722844
_cell_length_c   3.96902000
_cell_angle_alpha   90.00000000
_cell_angle_beta   90.00000000
_cell_angle_gamma   120.27839826
_symmetry_Int_Tables_number   1
_chemical_formula_structural   Dy5Mg2Ti(P3Ir4)4
_chemical_formula_sum   'Dy5 Mg2 Ti1 P12 Ir16'
_cell_volume   563.39965570
_cell_formula_units_Z   1
loop_
 _symmetry_equiv_pos_site_id
 _symmetry_equiv_pos_as_xyz
  1  'x, y, z'
loop_
 _atom_site_type_symbol
 _atom_site_label
 _atom_site_symmetry_multiplicity
 _atom_site_fract_x
 _atom_site_fract_y
 _atom_site_fract_z
 _atom_site_occupancy
  Dy  Dy0  1  0.335018  0.670096  0.500000  1
  Dy  Dy1  1  0.664923  0.329904  0.500000  1
  Dy  Dy2  1  0.003343  0.812368  0.000000  1
  Dy  Dy3  1  0.190975  0.187632  0.000000  1
  Dy  Dy4  1  0.808829  0.000000  0.000000  1
  Mg  Mg5  1  0.001755  0.446772  0.500000  1
  Mg  Mg6  1  0.554983  0.553228  0.500000  1
  Ti  Ti7  1  0.442847  0.000000  0.500000  1
  P  P8  1  0.998303  0.642270  0.500000  1
  P  P9  1  0.356033  0.357730  0.500000  1
  P  P10  1  0.636247  0.000000  0.500000  1
  P  P11  1  0.515451  0.687411  0.000000  1
  P  P12  1  0.315394  0.833698  0.000000  1
  P  P13  1  0.175276  0.484246  0.000000  1
  P  P14  1  0.481697  0.166302  0.000000  1
  P  P15  1  0.691030  0.515754  0.000000  1
  P  P16  1  0.828041  0.312589  0.000000  1
  P  P17  1  0.998152  0.177444  0.500000  1
  P  P18  1  0.820708  0.822556  0.500000  1
  P  P19  1  0.174585  0.000000  0.500000  1
  Ir  Ir20  1  0.509385  0.869140  0.000000  1
  Ir  Ir21  1  0.139097  0.641839  0.000000  1
  Ir  Ir22  1  0.360429  0.486595  0.000000  1
  Ir  Ir23  1  0.497259  0.358161  0.000000  1
  Ir  Ir24  1  0.873835  0.513405  0.000000  1
  Ir  Ir25  1  0.640247  0.130860  0.000000  1
  Ir  Ir26  1  0.999470  0.278381  0.000000  1
  Ir  Ir27  1  0.721089  0.721619  0.000000  1
  Ir  Ir28  1  0.282023  0.000000  0.000000  1
  Ir  Ir29  1  0.625318  0.804866  0.500000  1
  Ir  Ir30  1  0.191029  0.821208  0.500000  1
  Ir  Ir31  1  0.177543  0.374456  0.500000  1
  Ir  Ir32  1  0.369820  0.178792  0.500000  1
  Ir  Ir33  1  0.803087  0.625544  0.500000  1
  Ir  Ir34  1  0.820452  0.195134  0.500000  1
  Ir  Ir35  1  0.996325  0.000000  0.500000  1
