# generated using pymatgen
data_Ca6In5Hg12Pb
_symmetry_space_group_name_H-M   'P 1'
_cell_length_a   5.34747813
_cell_length_b   7.14619300
_cell_length_c   16.32746200
_cell_angle_alpha   90.00000000
_cell_angle_beta   90.01275031
_cell_angle_gamma   90.00000000
_symmetry_Int_Tables_number   1
_chemical_formula_structural   Ca6In5Hg12Pb
_chemical_formula_sum   'Ca6 In5 Hg12 Pb1'
_cell_volume   623.93942646
_cell_formula_units_Z   1
loop_
 _symmetry_equiv_pos_site_id
 _symmetry_equiv_pos_as_xyz
  1  'x, y, z'
loop_
 _atom_site_type_symbol
 _atom_site_label
 _atom_site_symmetry_multiplicity
 _atom_site_fract_x
 _atom_site_fract_y
 _atom_site_fract_z
 _atom_site_occupancy
  Ca  Ca0  1  0.999960  0.500000  0.000115  1
  Ca  Ca1  1  0.499863  0.000000  0.166481  1
  Ca  Ca2  1  0.999965  0.500000  0.334612  1
  Ca  Ca3  1  0.500073  0.000000  0.500010  1
  Ca  Ca4  1  0.000137  0.500000  0.665280  1
  Ca  Ca5  1  0.500046  0.000000  0.833556  1
  In  In6  1  0.499832  0.500000  0.166262  1
  In  In7  1  0.000024  0.000000  0.334037  1
  In  In8  1  0.500205  0.500000  0.499910  1
  In  In9  1  0.999936  0.000000  0.665972  1
  In  In10  1  0.499963  0.500000  0.833783  1
  Hg  Hg11  1  0.499936  0.262459  0.000061  1
  Hg  Hg12  1  0.499936  0.737541  0.000061  1
  Hg  Hg13  1  0.999889  0.249837  0.170571  1
  Hg  Hg14  1  0.999889  0.750163  0.170571  1
  Hg  Hg15  1  0.499965  0.255843  0.333720  1
  Hg  Hg16  1  0.499965  0.744157  0.333720  1
  Hg  Hg17  1  0.000101  0.244165  0.499906  1
  Hg  Hg18  1  0.000101  0.755835  0.499906  1
  Hg  Hg19  1  0.500126  0.255849  0.666180  1
  Hg  Hg20  1  0.500126  0.744151  0.666180  1
  Hg  Hg21  1  0.000008  0.249865  0.829518  1
  Hg  Hg22  1  0.000008  0.750135  0.829518  1
  Pb  Pb23  1  0.999747  0.000000  0.000071  1
