# generated using pymatgen
data_Dy5GaBiOs
_symmetry_space_group_name_H-M   'P 1'
_cell_length_a   8.75599683
_cell_length_b   8.75599707
_cell_length_c   8.86586263
_cell_angle_alpha   126.43006340
_cell_angle_beta   126.43007441
_cell_angle_gamma   78.31184647
_symmetry_Int_Tables_number   1
_chemical_formula_structural   Dy5GaBiOs
_chemical_formula_sum   'Dy10 Ga2 Bi2 Os2'
_cell_volume   428.03505136
_cell_formula_units_Z   2
loop_
 _symmetry_equiv_pos_site_id
 _symmetry_equiv_pos_as_xyz
  1  'x, y, z'
loop_
 _atom_site_type_symbol
 _atom_site_label
 _atom_site_symmetry_multiplicity
 _atom_site_fract_x
 _atom_site_fract_y
 _atom_site_fract_z
 _atom_site_occupancy
  Dy  Dy0  1  0.000000  0.000000  0.000000  1
  Dy  Dy1  1  0.500000  0.500000  0.000000  1
  Dy  Dy2  1  0.781543  0.281543  0.793359  1
  Dy  Dy3  1  0.218457  0.718457  0.206641  1
  Dy  Dy4  1  0.488185  0.988185  0.206641  1
  Dy  Dy5  1  0.308589  0.462240  0.500000  1
  Dy  Dy6  1  0.037760  0.191411  0.500000  1
  Dy  Dy7  1  0.511815  0.011815  0.793359  1
  Dy  Dy8  1  0.691411  0.537760  0.500000  1
  Dy  Dy9  1  0.962240  0.808589  0.500000  1
  Ga  Ga10  1  0.137662  0.637662  0.775325  1
  Ga  Ga11  1  0.862338  0.362338  0.224675  1
  Bi  Bi12  1  0.250000  0.250000  0.000000  1
  Bi  Bi13  1  0.750000  0.750000  0.000000  1
  Os  Os14  1  0.637141  0.862859  0.500000  1
  Os  Os15  1  0.362859  0.137141  0.500000  1
