# generated using pymatgen
data_Ho4FeB12Ir
_symmetry_space_group_name_H-M   'P 1'
_cell_length_a   3.59611100
_cell_length_b   9.12099440
_cell_length_c   11.45479481
_cell_angle_alpha   89.94476259
_cell_angle_beta   90.00000000
_cell_angle_gamma   90.00000000
_symmetry_Int_Tables_number   1
_chemical_formula_structural   Ho4FeB12Ir
_chemical_formula_sum   'Ho8 Fe2 B24 Ir2'
_cell_volume   375.71833567
_cell_formula_units_Z   2
loop_
 _symmetry_equiv_pos_site_id
 _symmetry_equiv_pos_as_xyz
  1  'x, y, z'
loop_
 _atom_site_type_symbol
 _atom_site_label
 _atom_site_symmetry_multiplicity
 _atom_site_fract_x
 _atom_site_fract_y
 _atom_site_fract_z
 _atom_site_occupancy
  Ho  Ho0  1  0.000000  0.318193  0.410869  1
  Ho  Ho1  1  0.000000  0.681807  0.589131  1
  Ho  Ho2  1  0.000000  0.826379  0.083674  1
  Ho  Ho3  1  0.000000  0.173621  0.916326  1
  Ho  Ho4  1  0.000000  0.947475  0.370949  1
  Ho  Ho5  1  0.000000  0.052525  0.629051  1
  Ho  Ho6  1  0.000000  0.439489  0.125549  1
  Ho  Ho7  1  0.000000  0.560511  0.874451  1
  Fe  Fe8  1  0.000000  0.138021  0.179179  1
  Fe  Fe9  1  0.000000  0.861979  0.820821  1
  B  B10  1  0.500000  0.553615  0.433927  1
  B  B11  1  0.500000  0.446385  0.566073  1
  B  B12  1  0.500000  0.054073  0.067485  1
  B  B13  1  0.500000  0.945927  0.932515  1
  B  B14  1  0.500000  0.750038  0.420964  1
  B  B15  1  0.500000  0.249962  0.579036  1
  B  B16  1  0.500000  0.245331  0.081060  1
  B  B17  1  0.500000  0.754669  0.918940  1
  B  B18  1  0.500000  0.792971  0.264990  1
  B  B19  1  0.500000  0.207029  0.735010  1
  B  B20  1  0.500000  0.289903  0.233293  1
  B  B21  1  0.500000  0.710097  0.766707  1
  B  B22  1  0.500000  0.632435  0.183531  1
  B  B23  1  0.500000  0.367565  0.816469  1
  B  B24  1  0.500000  0.132501  0.313338  1
  B  B25  1  0.500000  0.867499  0.686662  1
  B  B26  1  0.500000  0.985943  0.211677  1
  B  B27  1  0.500000  0.014057  0.788323  1
  B  B28  1  0.500000  0.481657  0.286207  1
  B  B29  1  0.500000  0.518343  0.713793  1
  B  B30  1  0.500000  0.611768  0.030622  1
  B  B31  1  0.500000  0.388232  0.969378  1
  B  B32  1  0.500000  0.109516  0.469978  1
  B  B33  1  0.500000  0.890484  0.530022  1
  Ir  Ir34  1  0.000000  0.637801  0.321670  1
  Ir  Ir35  1  0.000000  0.362199  0.678330  1
