# generated using pymatgen
data_Tb3Y2Ho3C10
_symmetry_space_group_name_H-M   'P 1'
_cell_length_a   3.68419200
_cell_length_b   6.59696391
_cell_length_c   11.93800378
_cell_angle_alpha   90.88599828
_cell_angle_beta   90.00000000
_cell_angle_gamma   90.00000000
_symmetry_Int_Tables_number   1
_chemical_formula_structural   Tb3Y2Ho3C10
_chemical_formula_sum   'Tb3 Y2 Ho3 C10'
_cell_volume   290.11230426
_cell_formula_units_Z   1
loop_
 _symmetry_equiv_pos_site_id
 _symmetry_equiv_pos_as_xyz
  1  'x, y, z'
loop_
 _atom_site_type_symbol
 _atom_site_label
 _atom_site_symmetry_multiplicity
 _atom_site_fract_x
 _atom_site_fract_y
 _atom_site_fract_z
 _atom_site_occupancy
  Tb  Tb0  1  0.500000  0.890784  0.196085  1
  Tb  Tb1  1  0.500000  0.603484  0.697849  1
  Tb  Tb2  1  0.500000  0.395932  0.302636  1
  Y  Y3  1  0.000000  0.754689  0.956231  1
  Y  Y4  1  0.000000  0.243279  0.042665  1
  Ho  Ho5  1  0.000000  0.257380  0.541950  1
  Ho  Ho6  1  0.000000  0.744263  0.458152  1
  Ho  Ho7  1  0.500000  0.108908  0.804239  1
  C  C8  1  0.500000  0.501812  0.500512  1
  C  C9  1  0.500000  0.998592  0.998704  1
  C  C10  1  0.000000  0.360494  0.734387  1
  C  C11  1  0.000000  0.638523  0.266097  1
  C  C12  1  0.000000  0.858818  0.760782  1
  C  C13  1  0.000000  0.142139  0.238344  1
  C  C14  1  0.000000  0.385692  0.845804  1
  C  C15  1  0.000000  0.607340  0.155094  1
  C  C16  1  0.000000  0.083142  0.344302  1
  C  C17  1  0.000000  0.924732  0.656167  1
