# generated using pymatgen
data_Ac2CuNiBr
_symmetry_space_group_name_H-M   'P 1'
_cell_length_a   4.26446500
_cell_length_b   4.26446473
_cell_length_c   17.65042100
_cell_angle_alpha   90.00000000
_cell_angle_beta   90.00000000
_cell_angle_gamma   119.99999434
_symmetry_Int_Tables_number   1
_chemical_formula_structural   Ac2CuNiBr
_chemical_formula_sum   'Ac4 Cu2 Ni2 Br2'
_cell_volume   277.98080376
_cell_formula_units_Z   2
loop_
 _symmetry_equiv_pos_site_id
 _symmetry_equiv_pos_as_xyz
  1  'x, y, z'
loop_
 _atom_site_type_symbol
 _atom_site_label
 _atom_site_symmetry_multiplicity
 _atom_site_fract_x
 _atom_site_fract_y
 _atom_site_fract_z
 _atom_site_occupancy
  Ac  Ac0  1  0.000000  0.000000  0.609102  1
  Ac  Ac1  1  0.000000  0.000000  0.391658  1
  Ac  Ac2  1  0.000000  0.000000  0.109102  1
  Ac  Ac3  1  0.000000  0.000000  0.891658  1
  Cu  Cu4  1  0.666667  0.333333  0.500463  1
  Cu  Cu5  1  0.333333  0.666667  0.000463  1
  Ni  Ni6  1  0.666667  0.333333  0.999221  1
  Ni  Ni7  1  0.333333  0.666667  0.499221  1
  Br  Br8  1  0.666667  0.333333  0.249556  1
  Br  Br9  1  0.333333  0.666667  0.749556  1
