# generated using pymatgen
data_Tm4IrRhPb5
_symmetry_space_group_name_H-M   'P 1'
_cell_length_a   8.16197634
_cell_length_b   3.51697100
_cell_length_c   9.86388647
_cell_angle_alpha   90.00000000
_cell_angle_beta   93.80499507
_cell_angle_gamma   90.00000000
_symmetry_Int_Tables_number   1
_chemical_formula_structural   Tm4IrRhPb5
_chemical_formula_sum   'Tm4 Ir1 Rh1 Pb5'
_cell_volume   282.52299795
_cell_formula_units_Z   1
loop_
 _symmetry_equiv_pos_site_id
 _symmetry_equiv_pos_as_xyz
  1  'x, y, z'
loop_
 _atom_site_type_symbol
 _atom_site_label
 _atom_site_symmetry_multiplicity
 _atom_site_fract_x
 _atom_site_fract_y
 _atom_site_fract_z
 _atom_site_occupancy
  Tm  Tm0  1  0.305095  0.500000  0.159187  1
  Tm  Tm1  1  0.696381  0.500000  0.433401  1
  Tm  Tm2  1  0.301433  0.500000  0.564834  1
  Tm  Tm3  1  0.693929  0.500000  0.839903  1
  Ir  Ir4  1  0.420292  0.000000  0.364806  1
  Rh  Rh5  1  0.582768  0.000000  0.638876  1
  Pb  Pb6  1  0.000007  0.000000  0.999868  1
  Pb  Pb7  1  0.646698  0.000000  0.136978  1
  Pb  Pb8  1  0.040035  0.000000  0.335397  1
  Pb  Pb9  1  0.959669  0.000000  0.664261  1
  Pb  Pb10  1  0.353694  0.000000  0.862489  1
