# generated using pymatgen
data_TbCeSe2
_symmetry_space_group_name_H-M   'P 1'
_cell_length_a   7.29716505
_cell_length_b   7.29716453
_cell_length_c   7.29716714
_cell_angle_alpha   32.78421876
_cell_angle_beta   32.78422672
_cell_angle_gamma   32.78422164
_symmetry_Int_Tables_number   1
_chemical_formula_structural   TbCeSe2
_chemical_formula_sum   'Tb1 Ce1 Se2'
_cell_volume   101.34884617
_cell_formula_units_Z   1
loop_
 _symmetry_equiv_pos_site_id
 _symmetry_equiv_pos_as_xyz
  1  'x, y, z'
loop_
 _atom_site_type_symbol
 _atom_site_label
 _atom_site_symmetry_multiplicity
 _atom_site_fract_x
 _atom_site_fract_y
 _atom_site_fract_z
 _atom_site_occupancy
  Tb  Tb0  1  0.500000  0.500000  0.500000  1
  Ce  Ce1  1  0.000000  0.000000  0.000000  1
  Se  Se2  1  0.246433  0.246433  0.246433  1
  Se  Se3  1  0.753567  0.753567  0.753567  1
