# generated using pymatgen
data_Yb3ErTh6(Si3C)2
_symmetry_space_group_name_H-M   'P 1'
_cell_length_a   8.76943100
_cell_length_b   8.76943073
_cell_length_c   6.38895400
_cell_angle_alpha   90.00000000
_cell_angle_beta   90.00000000
_cell_angle_gamma   119.99999725
_symmetry_Int_Tables_number   1
_chemical_formula_structural   Yb3ErTh6(Si3C)2
_chemical_formula_sum   'Yb3 Er1 Th6 Si6 C2'
_cell_volume   425.50358379
_cell_formula_units_Z   1
loop_
 _symmetry_equiv_pos_site_id
 _symmetry_equiv_pos_as_xyz
  1  'x, y, z'
loop_
 _atom_site_type_symbol
 _atom_site_label
 _atom_site_symmetry_multiplicity
 _atom_site_fract_x
 _atom_site_fract_y
 _atom_site_fract_z
 _atom_site_occupancy
  Yb  Yb0  1  0.666667  0.333333  0.000000  1
  Yb  Yb1  1  0.333333  0.666667  0.000000  1
  Yb  Yb2  1  0.333333  0.666667  0.500000  1
  Er  Er3  1  0.666667  0.333333  0.500000  1
  Th  Th4  1  0.763619  0.765500  0.750416  1
  Th  Th5  1  0.234500  0.998119  0.750416  1
  Th  Th6  1  0.001881  0.236381  0.750416  1
  Th  Th7  1  0.234500  0.236381  0.249584  1
  Th  Th8  1  0.763619  0.998119  0.249584  1
  Th  Th9  1  0.001881  0.765500  0.249584  1
  Si  Si10  1  0.400712  0.393935  0.741751  1
  Si  Si11  1  0.606065  0.006777  0.741751  1
  Si  Si12  1  0.993223  0.599288  0.741751  1
  Si  Si13  1  0.606065  0.599288  0.258249  1
  Si  Si14  1  0.400712  0.006777  0.258249  1
  Si  Si15  1  0.993223  0.393935  0.258249  1
  C  C16  1  0.000000  0.000000  0.000000  1
  C  C17  1  0.000000  0.000000  0.500000  1
