# generated using pymatgen
data_TbNd6(YRh3)2
_symmetry_space_group_name_H-M   'P 1'
_cell_length_a   7.55591192
_cell_length_b   7.55591115
_cell_length_c   7.55591144
_cell_angle_alpha   71.18738765
_cell_angle_beta   71.18738280
_cell_angle_gamma   71.18737897
_symmetry_Int_Tables_number   1
_chemical_formula_structural   TbNd6(YRh3)2
_chemical_formula_sum   'Tb1 Nd6 Y2 Rh6'
_cell_volume   374.85437660
_cell_formula_units_Z   1
loop_
 _symmetry_equiv_pos_site_id
 _symmetry_equiv_pos_as_xyz
  1  'x, y, z'
loop_
 _atom_site_type_symbol
 _atom_site_label
 _atom_site_symmetry_multiplicity
 _atom_site_fract_x
 _atom_site_fract_y
 _atom_site_fract_z
 _atom_site_occupancy
  Tb  Tb0  1  0.799165  0.799165  0.799165  1
  Nd  Nd1  1  0.162210  0.391532  0.665893  1
  Nd  Nd2  1  0.665893  0.162210  0.391532  1
  Nd  Nd3  1  0.391532  0.665893  0.162210  1
  Nd  Nd4  1  0.837916  0.608314  0.334093  1
  Nd  Nd5  1  0.334093  0.837916  0.608314  1
  Nd  Nd6  1  0.608314  0.334093  0.837916  1
  Y  Y7  1  0.000055  0.000055  0.000055  1
  Y  Y8  1  0.200880  0.200880  0.200880  1
  Rh  Rh9  1  0.959275  0.158271  0.591490  1
  Rh  Rh10  1  0.591490  0.959275  0.158271  1
  Rh  Rh11  1  0.158271  0.591490  0.959275  1
  Rh  Rh12  1  0.040453  0.841443  0.409009  1
  Rh  Rh13  1  0.409009  0.040453  0.841443  1
  Rh  Rh14  1  0.841443  0.409009  0.040453  1
