# generated using pymatgen
data_La16Cd4IrOsPt2
_symmetry_space_group_name_H-M   'P 1'
_cell_length_a   10.19979810
_cell_length_b   10.16547535
_cell_length_c   10.16563913
_cell_angle_alpha   59.69290433
_cell_angle_beta   59.76653345
_cell_angle_gamma   59.76884054
_symmetry_Int_Tables_number   1
_chemical_formula_structural   La16Cd4IrOsPt2
_chemical_formula_sum   'La16 Cd4 Ir1 Os1 Pt2'
_cell_volume   740.95873815
_cell_formula_units_Z   1
loop_
 _symmetry_equiv_pos_site_id
 _symmetry_equiv_pos_as_xyz
  1  'x, y, z'
loop_
 _atom_site_type_symbol
 _atom_site_label
 _atom_site_symmetry_multiplicity
 _atom_site_fract_x
 _atom_site_fract_y
 _atom_site_fract_z
 _atom_site_occupancy
  La  La0  1  0.602654  0.596598  0.596612  1
  La  La1  1  0.597949  0.593385  0.208331  1
  La  La2  1  0.597965  0.208359  0.593298  1
  La  La3  1  0.204437  0.596235  0.596166  1
  La  La4  1  0.062671  0.438731  0.438694  1
  La  La5  1  0.442774  0.056349  0.056274  1
  La  La6  1  0.439372  0.066871  0.439179  1
  La  La7  1  0.054104  0.440162  0.062744  1
  La  La8  1  0.439461  0.439086  0.066912  1
  La  La9  1  0.054043  0.062742  0.440091  1
  La  La10  1  0.188902  0.812586  0.812597  1
  La  La11  1  0.806248  0.190120  0.190358  1
  La  La12  1  0.813212  0.188249  0.811431  1
  La  La13  1  0.190571  0.805460  0.189576  1
  La  La14  1  0.813172  0.811368  0.188366  1
  La  La15  1  0.190557  0.189668  0.805430  1
  Cd  Cd16  1  0.829208  0.828958  0.828944  1
  Cd  Cd17  1  0.829604  0.829593  0.510645  1
  Cd  Cd18  1  0.829606  0.510639  0.829604  1
  Cd  Cd19  1  0.511012  0.829412  0.829410  1
  Ir  Ir20  1  0.826646  0.393311  0.393302  1
  Os  Os21  1  0.391097  0.392147  0.392099  1
  Pt  Pt22  1  0.392377  0.394367  0.825576  1
  Pt  Pt23  1  0.392360  0.825604  0.394360  1
