# generated using pymatgen
data_Ta6Mn2AlSi3C2
_symmetry_space_group_name_H-M   'P 1'
_cell_length_a   8.08245717
_cell_length_b   8.09326230
_cell_length_c   8.09326145
_cell_angle_alpha   60.12322499
_cell_angle_beta   60.04414941
_cell_angle_gamma   60.04414985
_symmetry_Int_Tables_number   1
_chemical_formula_structural   Ta6Mn2AlSi3C2
_chemical_formula_sum   'Ta12 Mn4 Al2 Si6 C4'
_cell_volume   374.94576088
_cell_formula_units_Z   2
loop_
 _symmetry_equiv_pos_site_id
 _symmetry_equiv_pos_as_xyz
  1  'x, y, z'
loop_
 _atom_site_type_symbol
 _atom_site_label
 _atom_site_symmetry_multiplicity
 _atom_site_fract_x
 _atom_site_fract_y
 _atom_site_fract_z
 _atom_site_occupancy
  Ta  Ta0  1  0.556084  0.946894  0.550476  1
  Ta  Ta1  1  0.304189  0.695874  0.695874  1
  Ta  Ta2  1  0.699556  0.303436  0.303436  1
  Ta  Ta3  1  0.303453  0.699524  0.303106  1
  Ta  Ta4  1  0.695679  0.695370  0.304292  1
  Ta  Ta5  1  0.303453  0.303106  0.699524  1
  Ta  Ta6  1  0.556084  0.550476  0.946894  1
  Ta  Ta7  1  0.945936  0.554126  0.554126  1
  Ta  Ta8  1  0.556428  0.946564  0.946564  1
  Ta  Ta9  1  0.945342  0.945708  0.554630  1
  Ta  Ta10  1  0.695679  0.304292  0.695370  1
  Ta  Ta11  1  0.945342  0.554630  0.945708  1
  Mn  Mn12  1  0.122728  0.129266  0.129266  1
  Mn  Mn13  1  0.631259  0.120734  0.120734  1
  Mn  Mn14  1  0.117767  0.625000  0.125000  1
  Mn  Mn15  1  0.117767  0.125000  0.625000  1
  Al  Al16  1  0.245109  0.918339  0.918339  1
  Al  Al17  1  0.331785  0.331661  0.331661  1
  Si  Si18  1  0.919246  0.915341  0.915341  1
  Si  Si19  1  0.999927  0.334659  0.334659  1
  Si  Si20  1  0.334301  0.000465  0.334593  1
  Si  Si21  1  0.334301  0.334593  0.000465  1
  Si  Si22  1  0.919360  0.249535  0.915407  1
  Si  Si23  1  0.919360  0.915407  0.249535  1
  C  C24  1  0.624974  0.625101  0.625101  1
  C  C25  1  0.125176  0.624899  0.624899  1
  C  C26  1  0.624858  0.125000  0.625000  1
  C  C27  1  0.624858  0.625000  0.125000  1
