# generated using pymatgen
data_Ti2V3Si4
_symmetry_space_group_name_H-M   'P 1'
_cell_length_a   6.47484400
_cell_length_b   6.47484400
_cell_length_c   11.93177200
_cell_angle_alpha   90.00000000
_cell_angle_beta   90.00000000
_cell_angle_gamma   90.00000000
_symmetry_Int_Tables_number   1
_chemical_formula_structural   Ti2V3Si4
_chemical_formula_sum   'Ti8 V12 Si16'
_cell_volume   500.22289418
_cell_formula_units_Z   4
loop_
 _symmetry_equiv_pos_site_id
 _symmetry_equiv_pos_as_xyz
  1  'x, y, z'
loop_
 _atom_site_type_symbol
 _atom_site_label
 _atom_site_symmetry_multiplicity
 _atom_site_fract_x
 _atom_site_fract_y
 _atom_site_fract_z
 _atom_site_occupancy
  Ti  Ti0  1  0.003026  0.339748  0.220497  1
  Ti  Ti1  1  0.160252  0.503026  0.470497  1
  Ti  Ti2  1  0.839748  0.496974  0.970497  1
  Ti  Ti3  1  0.503026  0.160252  0.529503  1
  Ti  Ti4  1  0.496974  0.839748  0.029503  1
  Ti  Ti5  1  0.996974  0.660252  0.720497  1
  Ti  Ti6  1  0.339748  0.003026  0.779503  1
  Ti  Ti7  1  0.660252  0.996974  0.279503  1
  V  V8  1  0.994136  0.155205  0.622136  1
  V  V9  1  0.344795  0.494136  0.872136  1
  V  V10  1  0.655205  0.505864  0.372136  1
  V  V11  1  0.494136  0.344795  0.127864  1
  V  V12  1  0.505864  0.655205  0.627864  1
  V  V13  1  0.005864  0.844795  0.122136  1
  V  V14  1  0.155205  0.994136  0.377864  1
  V  V15  1  0.844795  0.005864  0.877864  1
  V  V16  1  0.167102  0.167102  0.000000  1
  V  V17  1  0.332898  0.667102  0.250000  1
  V  V18  1  0.667102  0.332898  0.750000  1
  V  V19  1  0.832898  0.832898  0.500000  1
  Si  Si20  1  0.040375  0.297099  0.814546  1
  Si  Si21  1  0.202901  0.540375  0.064546  1
  Si  Si22  1  0.797099  0.459625  0.564546  1
  Si  Si23  1  0.540375  0.202901  0.935454  1
  Si  Si24  1  0.459625  0.797099  0.435454  1
  Si  Si25  1  0.959625  0.702901  0.314546  1
  Si  Si26  1  0.297099  0.040375  0.185454  1
  Si  Si27  1  0.702901  0.959625  0.685454  1
  Si  Si28  1  0.293319  0.366842  0.673683  1
  Si  Si29  1  0.133158  0.793319  0.923683  1
  Si  Si30  1  0.866842  0.206681  0.423683  1
  Si  Si31  1  0.793319  0.133158  0.076317  1
  Si  Si32  1  0.206681  0.866842  0.576317  1
  Si  Si33  1  0.706681  0.633158  0.173683  1
  Si  Si34  1  0.366842  0.293319  0.326317  1
  Si  Si35  1  0.633158  0.706681  0.826317  1
