# generated using pymatgen
data_TlZnF3
_symmetry_space_group_name_H-M   'P 1'
_cell_length_a   6.01545000
_cell_length_b   6.01545092
_cell_length_c   14.71925500
_cell_angle_alpha   90.00000000
_cell_angle_beta   90.00000000
_cell_angle_gamma   120.00000594
_symmetry_Int_Tables_number   1
_chemical_formula_structural   TlZnF3
_chemical_formula_sum   'Tl6 Zn6 F18'
_cell_volume   461.26738082
_cell_formula_units_Z   6
loop_
 _symmetry_equiv_pos_site_id
 _symmetry_equiv_pos_as_xyz
  1  'x, y, z'
loop_
 _atom_site_type_symbol
 _atom_site_label
 _atom_site_symmetry_multiplicity
 _atom_site_fract_x
 _atom_site_fract_y
 _atom_site_fract_z
 _atom_site_occupancy
  Tl  Tl0  1  0.333333  0.666667  0.403224  1
  Tl  Tl1  1  0.666667  0.333333  0.903224  1
  Tl  Tl2  1  0.666667  0.333333  0.596776  1
  Tl  Tl3  1  0.333333  0.666667  0.096776  1
  Tl  Tl4  1  0.000000  0.000000  0.750000  1
  Tl  Tl5  1  0.000000  0.000000  0.250000  1
  Zn  Zn6  1  0.333333  0.666667  0.653018  1
  Zn  Zn7  1  0.666667  0.333333  0.153018  1
  Zn  Zn8  1  0.666667  0.333333  0.346982  1
  Zn  Zn9  1  0.333333  0.666667  0.846982  1
  Zn  Zn10  1  0.000000  0.000000  0.500000  1
  Zn  Zn11  1  0.000000  0.000000  0.000000  1
  F  F12  1  0.834642  0.165358  0.419956  1
  F  F13  1  0.834642  0.669286  0.419956  1
  F  F14  1  0.330714  0.165358  0.419956  1
  F  F15  1  0.669286  0.834642  0.919956  1
  F  F16  1  0.165358  0.330714  0.580044  1
  F  F17  1  0.165358  0.834642  0.919956  1
  F  F18  1  0.165358  0.330714  0.919956  1
  F  F19  1  0.834642  0.165358  0.080044  1
  F  F20  1  0.330714  0.165358  0.080044  1
  F  F21  1  0.669286  0.834642  0.580044  1
  F  F22  1  0.165358  0.834642  0.580044  1
  F  F23  1  0.834642  0.669286  0.080044  1
  F  F24  1  0.517530  0.035059  0.250000  1
  F  F25  1  0.482470  0.517530  0.750000  1
  F  F26  1  0.035059  0.517530  0.750000  1
  F  F27  1  0.964941  0.482470  0.250000  1
  F  F28  1  0.517530  0.482470  0.250000  1
  F  F29  1  0.482470  0.964941  0.750000  1
