# generated using pymatgen
data_SmTmCo9P6Ru
_symmetry_space_group_name_H-M   'P 1'
_cell_length_a   3.67986100
_cell_length_b   10.36086200
_cell_length_c   11.78740600
_cell_angle_alpha   90.00000000
_cell_angle_beta   90.00000000
_cell_angle_gamma   90.00000000
_symmetry_Int_Tables_number   1
_chemical_formula_structural   SmTmCo9P6Ru
_chemical_formula_sum   'Sm2 Tm2 Co18 P12 Ru2'
_cell_volume   449.41291206
_cell_formula_units_Z   2
loop_
 _symmetry_equiv_pos_site_id
 _symmetry_equiv_pos_as_xyz
  1  'x, y, z'
loop_
 _atom_site_type_symbol
 _atom_site_label
 _atom_site_symmetry_multiplicity
 _atom_site_fract_x
 _atom_site_fract_y
 _atom_site_fract_z
 _atom_site_occupancy
  Sm  Sm0  1  0.250000  0.582430  0.702371  1
  Sm  Sm1  1  0.250000  0.917570  0.202371  1
  Tm  Tm2  1  0.750000  0.413784  0.295843  1
  Tm  Tm3  1  0.750000  0.086216  0.795843  1
  Co  Co4  1  0.750000  0.283863  0.007723  1
  Co  Co5  1  0.750000  0.216137  0.507723  1
  Co  Co6  1  0.250000  0.405027  0.486013  1
  Co  Co7  1  0.250000  0.094973  0.986013  1
  Co  Co8  1  0.750000  0.589903  0.507657  1
  Co  Co9  1  0.750000  0.910097  0.007657  1
  Co  Co10  1  0.250000  0.221695  0.176408  1
  Co  Co11  1  0.250000  0.278305  0.676408  1
  Co  Co12  1  0.750000  0.779662  0.823341  1
  Co  Co13  1  0.750000  0.720338  0.323341  1
  Co  Co14  1  0.250000  0.888673  0.702217  1
  Co  Co15  1  0.250000  0.611327  0.202217  1
  Co  Co16  1  0.750000  0.118862  0.301901  1
  Co  Co17  1  0.750000  0.381138  0.801901  1
  Co  Co18  1  0.250000  0.462823  0.934021  1
  Co  Co19  1  0.250000  0.037177  0.434021  1
  Co  Co20  1  0.750000  0.530784  0.070240  1
  Co  Co21  1  0.750000  0.969216  0.570240  1
  P  P22  1  0.250000  0.416892  0.113682  1
  P  P23  1  0.250000  0.083108  0.613682  1
  P  P24  1  0.750000  0.578237  0.889302  1
  P  P25  1  0.750000  0.921763  0.389302  1
  P  P26  1  0.250000  0.269441  0.868170  1
  P  P27  1  0.250000  0.230559  0.368170  1
  P  P28  1  0.750000  0.725983  0.132250  1
  P  P29  1  0.750000  0.774017  0.632250  1
  P  P30  1  0.250000  0.593906  0.390043  1
  P  P31  1  0.250000  0.906094  0.890043  1
  P  P32  1  0.750000  0.394975  0.607744  1
  P  P33  1  0.750000  0.105025  0.107744  1
  Ru  Ru34  1  0.250000  0.714978  0.991073  1
  Ru  Ru35  1  0.250000  0.785022  0.491073  1
