# generated using pymatgen
data_Sm4NbIO12
_symmetry_space_group_name_H-M   'P 1'
_cell_length_a   5.55418500
_cell_length_b   7.87849623
_cell_length_c   11.76787661
_cell_angle_alpha   76.16215289
_cell_angle_beta   90.00000000
_cell_angle_gamma   90.00000000
_symmetry_Int_Tables_number   1
_chemical_formula_structural   Sm4NbIO12
_chemical_formula_sum   'Sm8 Nb2 I2 O24'
_cell_volume   500.00056951
_cell_formula_units_Z   2
loop_
 _symmetry_equiv_pos_site_id
 _symmetry_equiv_pos_as_xyz
  1  'x, y, z'
loop_
 _atom_site_type_symbol
 _atom_site_label
 _atom_site_symmetry_multiplicity
 _atom_site_fract_x
 _atom_site_fract_y
 _atom_site_fract_z
 _atom_site_occupancy
  Sm  Sm0  1  0.740200  0.982954  0.757566  1
  Sm  Sm1  1  0.259800  0.982954  0.257566  1
  Sm  Sm2  1  0.193398  0.790931  0.576477  1
  Sm  Sm3  1  0.806602  0.790931  0.076477  1
  Sm  Sm4  1  0.688136  0.518163  0.747899  1
  Sm  Sm5  1  0.311864  0.518163  0.247899  1
  Sm  Sm6  1  0.193425  0.203126  0.924045  1
  Sm  Sm7  1  0.806575  0.203126  0.424045  1
  Nb  Nb8  1  0.253305  0.717061  0.890021  1
  Nb  Nb9  1  0.746695  0.717061  0.390021  1
  I  I10  1  0.253018  0.273506  0.617037  1
  I  I11  1  0.746982  0.273506  0.117037  1
  O  O12  1  0.025205  0.944594  0.903808  1
  O  O13  1  0.521733  0.855188  0.928122  1
  O  O14  1  0.974795  0.944594  0.403808  1
  O  O15  1  0.476598  0.781514  0.721625  1
  O  O16  1  0.478267  0.855188  0.428122  1
  O  O17  1  0.985375  0.719433  0.769330  1
  O  O18  1  0.523402  0.781514  0.221625  1
  O  O19  1  0.850916  0.635842  0.549667  1
  O  O20  1  0.363215  0.489046  0.881262  1
  O  O21  1  0.014625  0.719433  0.269330  1
  O  O22  1  0.373929  0.497322  0.610540  1
  O  O23  1  0.860014  0.359759  0.961315  1
  O  O24  1  0.149084  0.635842  0.049667  1
  O  O25  1  0.636785  0.489046  0.381262  1
  O  O26  1  0.988874  0.303133  0.720290  1
  O  O27  1  0.626071  0.497322  0.110540  1
  O  O28  1  0.139986  0.359759  0.461315  1
  O  O29  1  0.433669  0.200937  0.763174  1
  O  O30  1  0.011126  0.303133  0.220290  1
  O  O31  1  0.519283  0.161123  0.565226  1
  O  O32  1  0.566331  0.200937  0.263174  1
  O  O33  1  0.064589  0.066369  0.612595  1
  O  O34  1  0.480717  0.161123  0.065226  1
  O  O35  1  0.935411  0.066369  0.112595  1
