# generated using pymatgen
data_Ta3Ti16Si16Pd
_symmetry_space_group_name_H-M   'P 1'
_cell_length_a   6.71087287
_cell_length_b   6.71087149
_cell_length_c   12.20948896
_cell_angle_alpha   90.31209314
_cell_angle_beta   89.68790391
_cell_angle_gamma   89.84685581
_symmetry_Int_Tables_number   1
_chemical_formula_structural   Ta3Ti16Si16Pd
_chemical_formula_sum   'Ta3 Ti16 Si16 Pd1'
_cell_volume   549.84584587
_cell_formula_units_Z   1
loop_
 _symmetry_equiv_pos_site_id
 _symmetry_equiv_pos_as_xyz
  1  'x, y, z'
loop_
 _atom_site_type_symbol
 _atom_site_label
 _atom_site_symmetry_multiplicity
 _atom_site_fract_x
 _atom_site_fract_y
 _atom_site_fract_z
 _atom_site_occupancy
  Ta  Ta0  1  0.169742  0.169742  0.000000  1
  Ta  Ta1  1  0.327967  0.671842  0.251768  1
  Ta  Ta2  1  0.671842  0.327967  0.748232  1
  Ti  Ti3  1  0.996075  0.151403  0.619874  1
  Ti  Ti4  1  0.351145  0.494595  0.871048  1
  Ti  Ti5  1  0.645408  0.502283  0.370594  1
  Ti  Ti6  1  0.494595  0.351145  0.128952  1
  Ti  Ti7  1  0.502283  0.645408  0.629406  1
  Ti  Ti8  1  0.003880  0.851875  0.123511  1
  Ti  Ti9  1  0.151403  0.996075  0.380126  1
  Ti  Ti10  1  0.851875  0.003880  0.876489  1
  Ti  Ti11  1  0.003481  0.344025  0.220512  1
  Ti  Ti12  1  0.162158  0.501490  0.470775  1
  Ti  Ti13  1  0.844340  0.496449  0.968683  1
  Ti  Ti14  1  0.501490  0.162158  0.529225  1
  Ti  Ti15  1  0.496449  0.844340  0.031317  1
  Ti  Ti16  1  0.999705  0.653408  0.719522  1
  Ti  Ti17  1  0.344025  0.003481  0.779488  1
  Ti  Ti18  1  0.653408  0.999705  0.280478  1
  Si  Si19  1  0.045336  0.301469  0.812240  1
  Si  Si20  1  0.197399  0.545809  0.062807  1
  Si  Si21  1  0.799137  0.454795  0.559681  1
  Si  Si22  1  0.545809  0.197399  0.937193  1
  Si  Si23  1  0.454795  0.799137  0.440319  1
  Si  Si24  1  0.950565  0.699365  0.315272  1
  Si  Si25  1  0.301469  0.045336  0.187760  1
  Si  Si26  1  0.699365  0.950565  0.684728  1
  Si  Si27  1  0.292400  0.357741  0.671788  1
  Si  Si28  1  0.140938  0.791913  0.921929  1
  Si  Si29  1  0.863956  0.213789  0.420364  1
  Si  Si30  1  0.791913  0.140938  0.078071  1
  Si  Si31  1  0.213789  0.863956  0.579636  1
  Si  Si32  1  0.707560  0.641281  0.172100  1
  Si  Si33  1  0.357741  0.292400  0.328212  1
  Si  Si34  1  0.641281  0.707560  0.827900  1
  Pd  Pd35  1  0.825269  0.825269  0.500000  1
