# generated using pymatgen
data_Hf12TaNb3(Co2N)4
_symmetry_space_group_name_H-M   'P 1'
_cell_length_a   8.43521206
_cell_length_b   8.43521190
_cell_length_c   8.43521127
_cell_angle_alpha   60.05129467
_cell_angle_beta   60.05129553
_cell_angle_gamma   60.05129845
_symmetry_Int_Tables_number   1
_chemical_formula_structural   Hf12TaNb3(Co2N)4
_chemical_formula_sum   'Hf12 Ta1 Nb3 Co8 N4'
_cell_volume   424.89106865
_cell_formula_units_Z   1
loop_
 _symmetry_equiv_pos_site_id
 _symmetry_equiv_pos_as_xyz
  1  'x, y, z'
loop_
 _atom_site_type_symbol
 _atom_site_label
 _atom_site_symmetry_multiplicity
 _atom_site_fract_x
 _atom_site_fract_y
 _atom_site_fract_z
 _atom_site_occupancy
  Hf  Hf0  1  0.812281  0.812281  0.187821  1
  Hf  Hf1  1  0.187903  0.187903  0.812048  1
  Hf  Hf2  1  0.812281  0.187821  0.812281  1
  Hf  Hf3  1  0.187903  0.812048  0.187903  1
  Hf  Hf4  1  0.187821  0.812281  0.812281  1
  Hf  Hf5  1  0.812048  0.187903  0.187903  1
  Hf  Hf6  1  0.437719  0.437719  0.062179  1
  Hf  Hf7  1  0.062097  0.062097  0.437952  1
  Hf  Hf8  1  0.437719  0.062179  0.437719  1
  Hf  Hf9  1  0.062097  0.437952  0.062097  1
  Hf  Hf10  1  0.062179  0.437719  0.437719  1
  Hf  Hf11  1  0.437952  0.062097  0.062097  1
  Ta  Ta12  1  0.625000  0.625000  0.625000  1
  Nb  Nb13  1  0.125000  0.625000  0.625000  1
  Nb  Nb14  1  0.625000  0.125000  0.625000  1
  Nb  Nb15  1  0.625000  0.625000  0.125000  1
  Co  Co16  1  0.750887  0.417417  0.417417  1
  Co  Co17  1  0.417417  0.750887  0.417417  1
  Co  Co18  1  0.417417  0.417417  0.750887  1
  Co  Co19  1  0.416249  0.416249  0.416249  1
  Co  Co20  1  0.499113  0.832583  0.832583  1
  Co  Co21  1  0.832583  0.499113  0.832583  1
  Co  Co22  1  0.832583  0.832583  0.499113  1
  Co  Co23  1  0.833751  0.833751  0.833751  1
  N  N24  1  0.625000  0.125000  0.125000  1
  N  N25  1  0.125000  0.625000  0.125000  1
  N  N26  1  0.125000  0.125000  0.625000  1
  N  N27  1  0.125000  0.125000  0.125000  1
