# generated using pymatgen
data_CaYb2U5(ReB6)4
_symmetry_space_group_name_H-M   'P 1'
_cell_length_a   3.64530900
_cell_length_b   9.27053346
_cell_length_c   11.39177631
_cell_angle_alpha   89.99542540
_cell_angle_beta   90.00000000
_cell_angle_gamma   90.00000000
_symmetry_Int_Tables_number   1
_chemical_formula_structural   CaYb2U5(ReB6)4
_chemical_formula_sum   'Ca1 Yb2 U5 Re4 B24'
_cell_volume   384.97322098
_cell_formula_units_Z   1
loop_
 _symmetry_equiv_pos_site_id
 _symmetry_equiv_pos_as_xyz
  1  'x, y, z'
loop_
 _atom_site_type_symbol
 _atom_site_label
 _atom_site_symmetry_multiplicity
 _atom_site_fract_x
 _atom_site_fract_y
 _atom_site_fract_z
 _atom_site_occupancy
  Ca  Ca0  1  0.000000  0.338438  0.408464  1
  Yb  Yb1  1  0.000000  0.661812  0.590132  1
  Yb  Yb2  1  0.000000  0.835925  0.092801  1
  U  U3  1  0.000000  0.163089  0.908658  1
  U  U4  1  0.000000  0.954675  0.395178  1
  U  U5  1  0.000000  0.042866  0.603264  1
  U  U6  1  0.000000  0.458626  0.105745  1
  U  U7  1  0.000000  0.544828  0.896135  1
  Re  Re8  1  0.000000  0.647575  0.317355  1
  Re  Re9  1  0.000000  0.350334  0.686853  1
  Re  Re10  1  0.000000  0.145878  0.176527  1
  Re  Re11  1  0.000000  0.858348  0.819502  1
  B  B12  1  0.500000  0.552951  0.431730  1
  B  B13  1  0.500000  0.447182  0.570794  1
  B  B14  1  0.500000  0.052795  0.067618  1
  B  B15  1  0.500000  0.949796  0.930610  1
  B  B16  1  0.500000  0.743274  0.422392  1
  B  B17  1  0.500000  0.256028  0.578335  1
  B  B18  1  0.500000  0.242917  0.076039  1
  B  B19  1  0.500000  0.756644  0.921911  1
  B  B20  1  0.500000  0.802110  0.274252  1
  B  B21  1  0.500000  0.196251  0.727490  1
  B  B22  1  0.500000  0.302071  0.225105  1
  B  B23  1  0.500000  0.698970  0.774458  1
  B  B24  1  0.500000  0.643730  0.188702  1
  B  B25  1  0.500000  0.354681  0.812806  1
  B  B26  1  0.500000  0.143060  0.310142  1
  B  B27  1  0.500000  0.856436  0.688372  1
  B  B28  1  0.500000  0.989573  0.218623  1
  B  B29  1  0.500000  0.013081  0.781703  1
  B  B30  1  0.500000  0.490151  0.281056  1
  B  B31  1  0.500000  0.510562  0.719249  1
  B  B32  1  0.500000  0.638664  0.037885  1
  B  B33  1  0.500000  0.357692  0.960962  1
  B  B34  1  0.500000  0.136527  0.461233  1
  B  B35  1  0.500000  0.862456  0.537922  1
