# generated using pymatgen
data_Tb5Nd3(AlIr)2
_symmetry_space_group_name_H-M   'P 1'
_cell_length_a   9.68625311
_cell_length_b   9.68625277
_cell_length_c   9.68625200
_cell_angle_alpha   59.99999578
_cell_angle_beta   59.99999695
_cell_angle_gamma   59.99999877
_symmetry_Int_Tables_number   1
_chemical_formula_structural   Tb5Nd3(AlIr)2
_chemical_formula_sum   'Tb10 Nd6 Al4 Ir4'
_cell_volume   642.61720507
_cell_formula_units_Z   2
loop_
 _symmetry_equiv_pos_site_id
 _symmetry_equiv_pos_as_xyz
  1  'x, y, z'
loop_
 _atom_site_type_symbol
 _atom_site_label
 _atom_site_symmetry_multiplicity
 _atom_site_fract_x
 _atom_site_fract_y
 _atom_site_fract_z
 _atom_site_occupancy
  Tb  Tb0  1  0.350112  0.350112  0.350112  1
  Tb  Tb1  1  0.350112  0.350112  0.949663  1
  Tb  Tb2  1  0.350112  0.949663  0.350112  1
  Tb  Tb3  1  0.949663  0.350112  0.350112  1
  Tb  Tb4  1  0.807954  0.192046  0.192046  1
  Tb  Tb5  1  0.192046  0.807954  0.807954  1
  Tb  Tb6  1  0.192046  0.807954  0.192046  1
  Tb  Tb7  1  0.807954  0.192046  0.807954  1
  Tb  Tb8  1  0.192046  0.192046  0.807954  1
  Tb  Tb9  1  0.807954  0.807954  0.192046  1
  Nd  Nd10  1  0.939531  0.560469  0.560469  1
  Nd  Nd11  1  0.560469  0.939531  0.939531  1
  Nd  Nd12  1  0.560469  0.939531  0.560469  1
  Nd  Nd13  1  0.939531  0.560469  0.939531  1
  Nd  Nd14  1  0.560469  0.560469  0.939531  1
  Nd  Nd15  1  0.939531  0.939531  0.560469  1
  Al  Al16  1  0.574424  0.574424  0.574424  1
  Al  Al17  1  0.574424  0.574424  0.276726  1
  Al  Al18  1  0.574424  0.276726  0.574424  1
  Al  Al19  1  0.276726  0.574424  0.574424  1
  Ir  Ir20  1  0.141226  0.141226  0.141226  1
  Ir  Ir21  1  0.141226  0.141226  0.576322  1
  Ir  Ir22  1  0.141226  0.576322  0.141226  1
  Ir  Ir23  1  0.576322  0.141226  0.141226  1
