# generated using pymatgen
data_CaTh(AlIr)2
_symmetry_space_group_name_H-M   'P 1'
_cell_length_a   7.09466800
_cell_length_b   4.21312000
_cell_length_c   8.10550100
_cell_angle_alpha   90.00000000
_cell_angle_beta   90.00000000
_cell_angle_gamma   90.00000000
_symmetry_Int_Tables_number   1
_chemical_formula_structural   CaTh(AlIr)2
_chemical_formula_sum   'Ca2 Th2 Al4 Ir4'
_cell_volume   242.27899859
_cell_formula_units_Z   2
loop_
 _symmetry_equiv_pos_site_id
 _symmetry_equiv_pos_as_xyz
  1  'x, y, z'
loop_
 _atom_site_type_symbol
 _atom_site_label
 _atom_site_symmetry_multiplicity
 _atom_site_fract_x
 _atom_site_fract_y
 _atom_site_fract_z
 _atom_site_occupancy
  Ca  Ca0  1  0.965157  0.250000  0.185080  1
  Ca  Ca1  1  0.465157  0.250000  0.314920  1
  Th  Th2  1  0.031677  0.750000  0.824872  1
  Th  Th3  1  0.531677  0.750000  0.675128  1
  Al  Al4  1  0.866139  0.250000  0.553628  1
  Al  Al5  1  0.366139  0.250000  0.946372  1
  Al  Al6  1  0.136295  0.750000  0.430066  1
  Al  Al7  1  0.636295  0.750000  0.069934  1
  Ir  Ir8  1  0.728609  0.250000  0.868554  1
  Ir  Ir9  1  0.228609  0.250000  0.631446  1
  Ir  Ir10  1  0.272123  0.750000  0.109315  1
  Ir  Ir11  1  0.772123  0.750000  0.390685  1
