# generated using pymatgen
data_Dy2Er3ReOsC7
_symmetry_space_group_name_H-M   'P 1'
_cell_length_a   8.22052818
_cell_length_b   8.21827343
_cell_length_c   3.45399500
_cell_angle_alpha   90.00000000
_cell_angle_beta   90.00000000
_cell_angle_gamma   122.20913087
_symmetry_Int_Tables_number   1
_chemical_formula_structural   Dy2Er3ReOsC7
_chemical_formula_sum   'Dy2 Er3 Re1 Os1 C7'
_cell_volume   197.43672333
_cell_formula_units_Z   1
loop_
 _symmetry_equiv_pos_site_id
 _symmetry_equiv_pos_as_xyz
  1  'x, y, z'
loop_
 _atom_site_type_symbol
 _atom_site_label
 _atom_site_symmetry_multiplicity
 _atom_site_fract_x
 _atom_site_fract_y
 _atom_site_fract_z
 _atom_site_occupancy
  Dy  Dy0  1  0.500997  0.499634  0.000000  1
  Dy  Dy1  1  0.074732  0.335242  0.500000  1
  Er  Er2  1  0.922001  0.662061  0.500000  1
  Er  Er3  1  0.662417  0.923843  0.500000  1
  Er  Er4  1  0.338287  0.077683  0.500000  1
  Re  Re5  1  0.284522  0.715579  0.000000  1
  Os  Os6  1  0.713238  0.286576  0.000000  1
  C  C7  1  0.631039  0.369003  0.500000  1
  C  C8  1  0.374329  0.626680  0.500000  1
  C  C9  1  0.999965  0.000333  0.000000  1
  C  C10  1  0.171594  0.169978  0.000000  1
  C  C11  1  0.828885  0.829804  0.000000  1
  C  C12  1  0.998912  0.502436  0.000000  1
  C  C13  1  0.499081  0.001146  0.000000  1
