# generated using pymatgen
data_Zr16Pt3Rh5O4
_symmetry_space_group_name_H-M   'P 1'
_cell_length_a   8.87350231
_cell_length_b   8.88054232
_cell_length_c   8.87670000
_cell_angle_alpha   60.01431149
_cell_angle_beta   59.98807856
_cell_angle_gamma   59.97426422
_symmetry_Int_Tables_number   1
_chemical_formula_structural   Zr16Pt3Rh5O4
_chemical_formula_sum   'Zr16 Pt3 Rh5 O4'
_cell_volume   494.53194981
_cell_formula_units_Z   1
loop_
 _symmetry_equiv_pos_site_id
 _symmetry_equiv_pos_as_xyz
  1  'x, y, z'
loop_
 _atom_site_type_symbol
 _atom_site_label
 _atom_site_symmetry_multiplicity
 _atom_site_fract_x
 _atom_site_fract_y
 _atom_site_fract_z
 _atom_site_occupancy
  Zr  Zr0  1  0.817127  0.185153  0.816748  1
  Zr  Zr1  1  0.186878  0.815913  0.181068  1
  Zr  Zr2  1  0.433267  0.068856  0.433564  1
  Zr  Zr3  1  0.433267  0.068856  0.064312  1
  Zr  Zr4  1  0.065850  0.433331  0.433435  1
  Zr  Zr5  1  0.065850  0.433331  0.067384  1
  Zr  Zr6  1  0.183973  0.181955  0.817037  1
  Zr  Zr7  1  0.432573  0.432845  0.067291  1
  Zr  Zr8  1  0.129680  0.618799  0.625760  1
  Zr  Zr9  1  0.625244  0.621762  0.124614  1
  Zr  Zr10  1  0.625244  0.621762  0.628380  1
  Zr  Zr11  1  0.619381  0.136138  0.622240  1
  Zr  Zr12  1  0.186878  0.815913  0.816140  1
  Zr  Zr13  1  0.817127  0.185153  0.180971  1
  Zr  Zr14  1  0.062968  0.068709  0.434162  1
  Zr  Zr15  1  0.816437  0.816017  0.183773  1
  Pt  Pt16  1  0.406690  0.781982  0.405663  1
  Pt  Pt17  1  0.843242  0.845053  0.469465  1
  Pt  Pt18  1  0.843242  0.845053  0.842240  1
  Rh  Rh19  1  0.465594  0.846324  0.844041  1
  Rh  Rh20  1  0.403329  0.404862  0.402226  1
  Rh  Rh21  1  0.403329  0.404862  0.789582  1
  Rh  Rh22  1  0.846839  0.460908  0.846127  1
  Rh  Rh23  1  0.785751  0.406346  0.403952  1
  O  O24  1  0.125361  0.124728  0.624160  1
  O  O25  1  0.625183  0.124452  0.125184  1
  O  O26  1  0.125361  0.124728  0.125750  1
  O  O27  1  0.124336  0.626208  0.124728  1
