# generated using pymatgen
data_HoU2(SnIr)3
_symmetry_space_group_name_H-M   'P 1'
_cell_length_a   7.45748691
_cell_length_b   7.34330143
_cell_length_c   4.00591100
_cell_angle_alpha   90.00000000
_cell_angle_beta   90.00000000
_cell_angle_gamma   119.49477679
_symmetry_Int_Tables_number   1
_chemical_formula_structural   HoU2(SnIr)3
_chemical_formula_sum   'Ho1 U2 Sn3 Ir3'
_cell_volume   190.94325648
_cell_formula_units_Z   1
loop_
 _symmetry_equiv_pos_site_id
 _symmetry_equiv_pos_as_xyz
  1  'x, y, z'
loop_
 _atom_site_type_symbol
 _atom_site_label
 _atom_site_symmetry_multiplicity
 _atom_site_fract_x
 _atom_site_fract_y
 _atom_site_fract_z
 _atom_site_occupancy
  Ho  Ho0  1  0.000000  0.594086  0.500000  1
  U  U1  1  0.411670  0.410287  0.500000  1
  U  U2  1  0.588330  0.998617  0.500000  1
  Sn  Sn3  1  0.752086  0.743730  0.000000  1
  Sn  Sn4  1  0.247914  0.991644  0.000000  1
  Sn  Sn5  1  0.000000  0.265193  0.000000  1
  Ir  Ir6  1  0.648437  0.317583  0.000000  1
  Ir  Ir7  1  0.351563  0.669147  0.000000  1
  Ir  Ir8  1  0.000000  0.009713  0.500000  1
