# generated using pymatgen
data_NaTb3As6Ir7
_symmetry_space_group_name_H-M   'P 1'
_cell_length_a   7.27300376
_cell_length_b   7.27300307
_cell_length_c   7.29736000
_cell_angle_alpha   109.53907217
_cell_angle_beta   109.53907024
_cell_angle_gamma   109.40327994
_symmetry_Int_Tables_number   1
_chemical_formula_structural   NaTb3As6Ir7
_chemical_formula_sum   'Na1 Tb3 As6 Ir7'
_cell_volume   296.89791046
_cell_formula_units_Z   1
loop_
 _symmetry_equiv_pos_site_id
 _symmetry_equiv_pos_as_xyz
  1  'x, y, z'
loop_
 _atom_site_type_symbol
 _atom_site_label
 _atom_site_symmetry_multiplicity
 _atom_site_fract_x
 _atom_site_fract_y
 _atom_site_fract_z
 _atom_site_occupancy
  Na  Na0  1  0.000000  0.000000  0.500000  1
  Tb  Tb1  1  0.500000  0.000000  0.000000  1
  Tb  Tb2  1  0.000000  0.500000  0.000000  1
  Tb  Tb3  1  0.500000  0.500000  0.500000  1
  As  As4  1  0.314964  0.000000  0.323231  1
  As  As5  1  0.000000  0.314964  0.323231  1
  As  As6  1  0.000000  0.685036  0.676769  1
  As  As7  1  0.314964  0.314964  0.991734  1
  As  As8  1  0.685036  0.685036  0.008266  1
  As  As9  1  0.685036  0.000000  0.676769  1
  Ir  Ir10  1  0.748099  0.496199  0.248099  1
  Ir  Ir11  1  0.496199  0.748099  0.248099  1
  Ir  Ir12  1  0.503801  0.251901  0.751901  1
  Ir  Ir13  1  0.748099  0.251901  0.500000  1
  Ir  Ir14  1  0.251901  0.748099  0.500000  1
  Ir  Ir15  1  0.251901  0.503801  0.751901  1
  Ir  Ir16  1  0.000000  0.000000  0.000000  1
