# generated using pymatgen
data_Y2AlSi13Rh6
_symmetry_space_group_name_H-M   'P 1'
_cell_length_a   8.03634309
_cell_length_b   8.03634277
_cell_length_c   8.03634200
_cell_angle_alpha   57.02111386
_cell_angle_beta   57.02111535
_cell_angle_gamma   57.02111491
_symmetry_Int_Tables_number   1
_chemical_formula_structural   Y2AlSi13Rh6
_chemical_formula_sum   'Y2 Al1 Si13 Rh6'
_cell_volume   341.79027089
_cell_formula_units_Z   1
loop_
 _symmetry_equiv_pos_site_id
 _symmetry_equiv_pos_as_xyz
  1  'x, y, z'
loop_
 _atom_site_type_symbol
 _atom_site_label
 _atom_site_symmetry_multiplicity
 _atom_site_fract_x
 _atom_site_fract_y
 _atom_site_fract_z
 _atom_site_occupancy
  Y  Y0  1  0.999369  0.999369  0.999369  1
  Y  Y1  1  0.500631  0.500631  0.500631  1
  Al  Al2  1  0.750000  0.750000  0.750000  1
  Si  Si3  1  0.250000  0.250000  0.250000  1
  Si  Si4  1  0.850133  0.064641  0.671423  1
  Si  Si5  1  0.671423  0.850133  0.064641  1
  Si  Si6  1  0.064641  0.671423  0.850133  1
  Si  Si7  1  0.649867  0.828577  0.435359  1
  Si  Si8  1  0.435359  0.649867  0.828577  1
  Si  Si9  1  0.828577  0.435359  0.649867  1
  Si  Si10  1  0.169584  0.562397  0.355770  1
  Si  Si11  1  0.562397  0.355770  0.169584  1
  Si  Si12  1  0.355770  0.169584  0.562397  1
  Si  Si13  1  0.937603  0.330416  0.144230  1
  Si  Si14  1  0.330416  0.144230  0.937603  1
  Si  Si15  1  0.144230  0.937603  0.330416  1
  Rh  Rh16  1  0.080505  0.419495  0.750000  1
  Rh  Rh17  1  0.250000  0.929524  0.570476  1
  Rh  Rh18  1  0.570476  0.250000  0.929524  1
  Rh  Rh19  1  0.929524  0.570476  0.250000  1
  Rh  Rh20  1  0.419495  0.750000  0.080505  1
  Rh  Rh21  1  0.750000  0.080505  0.419495  1
