# generated using pymatgen
data_Hf4Be4Pd7Pt
_symmetry_space_group_name_H-M   'P 1'
_cell_length_a   5.18317648
_cell_length_b   7.13193882
_cell_length_c   6.33714300
_cell_angle_alpha   89.94008474
_cell_angle_beta   89.97536023
_cell_angle_gamma   89.82855917
_symmetry_Int_Tables_number   1
_chemical_formula_structural   Hf4Be4Pd7Pt
_chemical_formula_sum   'Hf4 Be4 Pd7 Pt1'
_cell_volume   234.25824806
_cell_formula_units_Z   1
loop_
 _symmetry_equiv_pos_site_id
 _symmetry_equiv_pos_as_xyz
  1  'x, y, z'
loop_
 _atom_site_type_symbol
 _atom_site_label
 _atom_site_symmetry_multiplicity
 _atom_site_fract_x
 _atom_site_fract_y
 _atom_site_fract_z
 _atom_site_occupancy
  Hf  Hf0  1  0.123432  0.749803  0.018711  1
  Hf  Hf1  1  0.620136  0.249384  0.481631  1
  Hf  Hf2  1  0.377909  0.747958  0.520188  1
  Hf  Hf3  1  0.876821  0.251737  0.980281  1
  Be  Be4  1  0.386448  0.250405  0.111842  1
  Be  Be5  1  0.887553  0.752163  0.387317  1
  Be  Be6  1  0.113919  0.251405  0.611962  1
  Be  Be7  1  0.613113  0.747729  0.888437  1
  Pd  Pd8  1  0.625314  0.553243  0.185964  1
  Pd  Pd9  1  0.625907  0.948068  0.183342  1
  Pd  Pd10  1  0.125865  0.052900  0.316956  1
  Pd  Pd11  1  0.124191  0.446880  0.315173  1
  Pd  Pd12  1  0.875414  0.553332  0.681031  1
  Pd  Pd13  1  0.874146  0.947811  0.683948  1
  Pd  Pd14  1  0.373650  0.050651  0.817009  1
  Pt  Pt15  1  0.376184  0.446532  0.816205  1
