# generated using pymatgen
data_Ce3NdU4(ReB6)4
_symmetry_space_group_name_H-M   'P 1'
_cell_length_a   3.69237800
_cell_length_b   9.35725604
_cell_length_c   11.47814788
_cell_angle_alpha   89.97244051
_cell_angle_beta   90.00000000
_cell_angle_gamma   90.00000000
_symmetry_Int_Tables_number   1
_chemical_formula_structural   Ce3NdU4(ReB6)4
_chemical_formula_sum   'Ce3 Nd1 U4 Re4 B24'
_cell_volume   396.57600474
_cell_formula_units_Z   1
loop_
 _symmetry_equiv_pos_site_id
 _symmetry_equiv_pos_as_xyz
  1  'x, y, z'
loop_
 _atom_site_type_symbol
 _atom_site_label
 _atom_site_symmetry_multiplicity
 _atom_site_fract_x
 _atom_site_fract_y
 _atom_site_fract_z
 _atom_site_occupancy
  Ce  Ce0  1  0.000000  0.335347  0.407836  1
  Ce  Ce1  1  0.000000  0.664478  0.592322  1
  Ce  Ce2  1  0.000000  0.835802  0.092415  1
  Nd  Nd3  1  0.000000  0.163952  0.907913  1
  U  U4  1  0.000000  0.957476  0.396451  1
  U  U5  1  0.000000  0.042702  0.603261  1
  U  U6  1  0.000000  0.457447  0.103279  1
  U  U7  1  0.000000  0.542520  0.896447  1
  Re  Re8  1  0.000000  0.646671  0.318407  1
  Re  Re9  1  0.000000  0.354287  0.680204  1
  Re  Re10  1  0.000000  0.146182  0.182894  1
  Re  Re11  1  0.000000  0.851938  0.818148  1
  B  B12  1  0.500000  0.553354  0.429832  1
  B  B13  1  0.500000  0.446847  0.569904  1
  B  B14  1  0.500000  0.053096  0.071398  1
  B  B15  1  0.500000  0.944771  0.929718  1
  B  B16  1  0.500000  0.744206  0.422259  1
  B  B17  1  0.500000  0.255622  0.577635  1
  B  B18  1  0.500000  0.244950  0.078644  1
  B  B19  1  0.500000  0.755810  0.922562  1
  B  B20  1  0.500000  0.802445  0.274467  1
  B  B21  1  0.500000  0.198126  0.724380  1
  B  B22  1  0.500000  0.302568  0.225728  1
  B  B23  1  0.500000  0.697396  0.774604  1
  B  B24  1  0.500000  0.644341  0.188278  1
  B  B25  1  0.500000  0.356873  0.811221  1
  B  B26  1  0.500000  0.144158  0.311835  1
  B  B27  1  0.500000  0.855779  0.688167  1
  B  B28  1  0.500000  0.989408  0.219674  1
  B  B29  1  0.500000  0.008659  0.779446  1
  B  B30  1  0.500000  0.489860  0.280130  1
  B  B31  1  0.500000  0.510380  0.719693  1
  B  B32  1  0.500000  0.639277  0.038470  1
  B  B33  1  0.500000  0.363721  0.962456  1
  B  B34  1  0.500000  0.138754  0.461757  1
  B  B35  1  0.500000  0.860797  0.538165  1
