# generated using pymatgen
data_K4ZrPaI12
_symmetry_space_group_name_H-M   'P 1'
_cell_length_a   8.59982290
_cell_length_b   8.25039783
_cell_length_c   14.31999650
_cell_angle_alpha   54.91796144
_cell_angle_beta   89.87868380
_cell_angle_gamma   89.95052642
_symmetry_Int_Tables_number   1
_chemical_formula_structural   K4ZrPaI12
_chemical_formula_sum   'K4 Zr1 Pa1 I12'
_cell_volume   831.44731129
_cell_formula_units_Z   1
loop_
 _symmetry_equiv_pos_site_id
 _symmetry_equiv_pos_as_xyz
  1  'x, y, z'
loop_
 _atom_site_type_symbol
 _atom_site_label
 _atom_site_symmetry_multiplicity
 _atom_site_fract_x
 _atom_site_fract_y
 _atom_site_fract_z
 _atom_site_occupancy
  K  K0  1  0.579232  0.725998  0.251174  1
  K  K1  1  0.077577  0.274644  0.246863  1
  K  K2  1  0.420768  0.274002  0.748826  1
  K  K3  1  0.922423  0.725356  0.753137  1
  Zr  Zr4  1  0.000000  0.000000  0.000000  1
  Pa  Pa5  1  0.500000  0.000000  0.500000  1
  I  I6  1  0.992093  0.841858  0.239366  1
  I  I7  1  0.491795  0.165164  0.247978  1
  I  I8  1  0.007907  0.158142  0.760634  1
  I  I9  1  0.508205  0.834836  0.752022  1
  I  I10  1  0.697184  0.652075  0.548389  1
  I  I11  1  0.185742  0.330730  0.955189  1
  I  I12  1  0.302816  0.347925  0.451611  1
  I  I13  1  0.814258  0.669270  0.044811  1
  I  I14  1  0.716882  0.220469  0.963201  1
  I  I15  1  0.202904  0.767287  0.538895  1
  I  I16  1  0.283118  0.779531  0.036799  1
  I  I17  1  0.797096  0.232713  0.461105  1
