# generated using pymatgen
data_SmGd9(Al2Ru3)2
_symmetry_space_group_name_H-M   'P 1'
_cell_length_a   8.32933781
_cell_length_b   8.33201794
_cell_length_c   8.32933800
_cell_angle_alpha   109.47773176
_cell_angle_beta   109.46469854
_cell_angle_gamma   109.47773840
_symmetry_Int_Tables_number   1
_chemical_formula_structural   SmGd9(Al2Ru3)2
_chemical_formula_sum   'Sm1 Gd9 Al4 Ru6'
_cell_volume   444.95324916
_cell_formula_units_Z   1
loop_
 _symmetry_equiv_pos_site_id
 _symmetry_equiv_pos_as_xyz
  1  'x, y, z'
loop_
 _atom_site_type_symbol
 _atom_site_label
 _atom_site_symmetry_multiplicity
 _atom_site_fract_x
 _atom_site_fract_y
 _atom_site_fract_z
 _atom_site_occupancy
  Sm  Sm0  1  0.000000  0.282066  0.500000  1
  Gd  Gd1  1  0.250494  0.683969  0.433770  1
  Gd  Gd2  1  0.749809  0.815621  0.065875  1
  Gd  Gd3  1  0.434125  0.249746  0.683933  1
  Gd  Gd4  1  0.683276  0.433475  0.249506  1
  Gd  Gd5  1  0.066230  0.750199  0.816724  1
  Gd  Gd6  1  0.816067  0.065813  0.750191  1
  Gd  Gd7  1  0.216236  0.215930  0.215627  1
  Gd  Gd8  1  0.499390  0.999694  0.283764  1
  Gd  Gd9  1  0.284373  0.500303  0.000610  1
  Al  Al10  1  0.589398  0.589848  0.589362  1
  Al  Al11  1  0.499964  0.000450  0.910602  1
  Al  Al12  1  0.910638  0.500484  0.000036  1
  Al  Al13  1  0.000000  0.908700  0.500000  1
  Ru  Ru14  1  0.249962  0.122831  0.872575  1
  Ru  Ru15  1  0.748835  0.378194  0.628000  1
  Ru  Ru16  1  0.871999  0.250194  0.120835  1
  Ru  Ru17  1  0.122613  0.872868  0.250038  1
  Ru  Ru18  1  0.627425  0.750256  0.377387  1
  Ru  Ru19  1  0.379165  0.629358  0.751165  1
