# generated using pymatgen
data_Mg4Ni3As6(IrRu)2
_symmetry_space_group_name_H-M   'P 1'
_cell_length_a   7.02295818
_cell_length_b   6.93169831
_cell_length_c   6.93169849
_cell_angle_alpha   109.20758145
_cell_angle_beta   109.77574620
_cell_angle_gamma   109.77576109
_symmetry_Int_Tables_number   1
_chemical_formula_structural   Mg4Ni3As6(IrRu)2
_chemical_formula_sum   'Mg4 Ni3 As6 Ir2 Ru2'
_cell_volume   258.64348564
_cell_formula_units_Z   1
loop_
 _symmetry_equiv_pos_site_id
 _symmetry_equiv_pos_as_xyz
  1  'x, y, z'
loop_
 _atom_site_type_symbol
 _atom_site_label
 _atom_site_symmetry_multiplicity
 _atom_site_fract_x
 _atom_site_fract_y
 _atom_site_fract_z
 _atom_site_occupancy
  Mg  Mg0  1  0.996432  0.991609  0.496640  1
  Mg  Mg1  1  0.500000  0.000168  0.999832  1
  Mg  Mg2  1  0.003568  0.503360  0.008391  1
  Mg  Mg3  1  0.500000  0.504136  0.495864  1
  Ni  Ni4  1  0.245119  0.493064  0.744751  1
  Ni  Ni5  1  0.754881  0.255249  0.506936  1
  Ni  Ni6  1  0.500000  0.253177  0.746823  1
  As  As7  1  0.681756  0.684064  0.993638  1
  As  As8  1  0.308697  0.314320  0.993995  1
  As  As9  1  0.998619  0.680779  0.692436  1
  As  As10  1  0.001381  0.307564  0.319221  1
  As  As11  1  0.691303  0.006005  0.685680  1
  As  As12  1  0.318244  0.006362  0.315936  1
  Ir  Ir13  1  0.745245  0.488427  0.244213  1
  Ir  Ir14  1  0.254755  0.755787  0.511573  1
  Ru  Ru15  1  0.000000  0.000337  0.999663  1
  Ru  Ru16  1  0.500000  0.755590  0.244410  1
