# generated using pymatgen
data_GdY5Ru2
_symmetry_space_group_name_H-M   'P 1'
_cell_length_a   6.34809600
_cell_length_b   7.35858300
_cell_length_c   9.26966400
_cell_angle_alpha   90.00000000
_cell_angle_beta   90.00000000
_cell_angle_gamma   90.00000000
_symmetry_Int_Tables_number   1
_chemical_formula_structural   GdY5Ru2
_chemical_formula_sum   'Gd2 Y10 Ru4'
_cell_volume   433.01373386
_cell_formula_units_Z   2
loop_
 _symmetry_equiv_pos_site_id
 _symmetry_equiv_pos_as_xyz
  1  'x, y, z'
loop_
 _atom_site_type_symbol
 _atom_site_label
 _atom_site_symmetry_multiplicity
 _atom_site_fract_x
 _atom_site_fract_y
 _atom_site_fract_z
 _atom_site_occupancy
  Gd  Gd0  1  0.635896  0.042381  0.250000  1
  Gd  Gd1  1  0.364104  0.957619  0.750000  1
  Y  Y2  1  0.135896  0.457619  0.750000  1
  Y  Y3  1  0.864104  0.542381  0.250000  1
  Y  Y4  1  0.170146  0.175703  0.064861  1
  Y  Y5  1  0.829854  0.824297  0.935139  1
  Y  Y6  1  0.670146  0.324297  0.935139  1
  Y  Y7  1  0.829854  0.824297  0.564861  1
  Y  Y8  1  0.329854  0.675703  0.064861  1
  Y  Y9  1  0.170146  0.175703  0.435139  1
  Y  Y10  1  0.329854  0.675703  0.435139  1
  Y  Y11  1  0.670146  0.324297  0.564861  1
  Ru  Ru12  1  0.459903  0.384620  0.250000  1
  Ru  Ru13  1  0.540097  0.615380  0.750000  1
  Ru  Ru14  1  0.959903  0.115380  0.750000  1
  Ru  Ru15  1  0.040097  0.884620  0.250000  1
