# generated using pymatgen
data_YTm2Cu2(AgSn2)2
_symmetry_space_group_name_H-M   'P 1'
_cell_length_a   4.48176645
_cell_length_b   7.22892379
_cell_length_c   8.61734866
_cell_angle_alpha   115.57162784
_cell_angle_beta   105.07263913
_cell_angle_gamma   89.99999047
_symmetry_Int_Tables_number   1
_chemical_formula_structural   YTm2Cu2(AgSn2)2
_chemical_formula_sum   'Y1 Tm2 Cu2 Ag2 Sn4'
_cell_volume   241.14868731
_cell_formula_units_Z   1
loop_
 _symmetry_equiv_pos_site_id
 _symmetry_equiv_pos_as_xyz
  1  'x, y, z'
loop_
 _atom_site_type_symbol
 _atom_site_label
 _atom_site_symmetry_multiplicity
 _atom_site_fract_x
 _atom_site_fract_y
 _atom_site_fract_z
 _atom_site_occupancy
  Y  Y0  1  0.000000  0.000000  0.000000  1
  Tm  Tm1  1  0.871897  0.346419  0.743793  1
  Tm  Tm2  1  0.128103  0.653581  0.256207  1
  Cu  Cu3  1  0.341404  0.029587  0.682808  1
  Cu  Cu4  1  0.658596  0.970413  0.317192  1
  Ag  Ag5  1  0.316784  0.620614  0.633569  1
  Ag  Ag6  1  0.683216  0.379386  0.366431  1
  Sn  Sn7  1  0.218173  0.177331  0.436346  1
  Sn  Sn8  1  0.781827  0.822669  0.563654  1
  Sn  Sn9  1  0.506040  0.308547  0.012079  1
  Sn  Sn10  1  0.493960  0.691453  0.987921  1
