# generated using pymatgen
data_Tb10In7HgAu4
_symmetry_space_group_name_H-M   'P 1'
_cell_length_a   3.66427100
_cell_length_b   8.16252932
_cell_length_c   18.33405200
_cell_angle_alpha   90.11458420
_cell_angle_beta   90.00000000
_cell_angle_gamma   90.00000000
_symmetry_Int_Tables_number   1
_chemical_formula_structural   Tb10In7HgAu4
_chemical_formula_sum   'Tb10 In7 Hg1 Au4'
_cell_volume   548.36525575
_cell_formula_units_Z   1
loop_
 _symmetry_equiv_pos_site_id
 _symmetry_equiv_pos_as_xyz
  1  'x, y, z'
loop_
 _atom_site_type_symbol
 _atom_site_label
 _atom_site_symmetry_multiplicity
 _atom_site_fract_x
 _atom_site_fract_y
 _atom_site_fract_z
 _atom_site_occupancy
  Tb  Tb0  1  0.000000  0.499431  0.500027  1
  Tb  Tb1  1  0.000000  0.996087  0.997259  1
  Tb  Tb2  1  0.000000  0.737293  0.282713  1
  Tb  Tb3  1  0.000000  0.262242  0.715767  1
  Tb  Tb4  1  0.000000  0.763876  0.788495  1
  Tb  Tb5  1  0.000000  0.236260  0.216499  1
  Tb  Tb6  1  0.000000  0.618647  0.079705  1
  Tb  Tb7  1  0.000000  0.388859  0.920659  1
  Tb  Tb8  1  0.000000  0.880045  0.580011  1
  Tb  Tb9  1  0.000000  0.118894  0.420670  1
  In  In10  1  0.500000  0.286926  0.065476  1
  In  In11  1  0.500000  0.788617  0.432985  1
  In  In12  1  0.500000  0.209568  0.566728  1
  In  In13  1  0.500000  0.581504  0.647360  1
  In  In14  1  0.500000  0.419298  0.352859  1
  In  In15  1  0.500000  0.919927  0.145283  1
  In  In16  1  0.500000  0.086789  0.852750  1
  Hg  Hg17  1  0.500000  0.711564  0.934900  1
  Au  Au18  1  0.500000  0.527044  0.196691  1
  Au  Au19  1  0.500000  0.470900  0.801985  1
  Au  Au20  1  0.500000  0.968833  0.698288  1
  Au  Au21  1  0.500000  0.027399  0.302894  1
