# generated using pymatgen
data_K2Ba2AgSb7Au8
_symmetry_space_group_name_H-M   'P 1'
_cell_length_a   4.82890200
_cell_length_b   8.92850700
_cell_length_c   12.51832724
_cell_angle_alpha   89.98767639
_cell_angle_beta   90.00000000
_cell_angle_gamma   90.00000000
_symmetry_Int_Tables_number   1
_chemical_formula_structural   K2Ba2AgSb7Au8
_chemical_formula_sum   'K2 Ba2 Ag1 Sb7 Au8'
_cell_volume   539.72623093
_cell_formula_units_Z   1
loop_
 _symmetry_equiv_pos_site_id
 _symmetry_equiv_pos_as_xyz
  1  'x, y, z'
loop_
 _atom_site_type_symbol
 _atom_site_label
 _atom_site_symmetry_multiplicity
 _atom_site_fract_x
 _atom_site_fract_y
 _atom_site_fract_z
 _atom_site_occupancy
  K  K0  1  0.750000  0.743774  0.331273  1
  K  K1  1  0.250000  0.756562  0.838992  1
  Ba  Ba2  1  0.250000  0.255090  0.666888  1
  Ba  Ba3  1  0.750000  0.241518  0.162567  1
  Ag  Ag4  1  0.250000  0.401401  0.960795  1
  Sb  Sb5  1  0.250000  0.406378  0.344441  1
  Sb  Sb6  1  0.250000  0.903667  0.155354  1
  Sb  Sb7  1  0.750000  0.591438  0.030258  1
  Sb  Sb8  1  0.750000  0.600715  0.657906  1
  Sb  Sb9  1  0.750000  0.103993  0.850943  1
  Sb  Sb10  1  0.250000  0.893855  0.542989  1
  Sb  Sb11  1  0.750000  0.108875  0.460744  1
  Au  Au12  1  0.250000  0.082152  0.962112  1
  Au  Au13  1  0.750000  0.422442  0.838362  1
  Au  Au14  1  0.750000  0.929543  0.662339  1
  Au  Au15  1  0.250000  0.570015  0.155853  1
  Au  Au16  1  0.250000  0.079382  0.340287  1
  Au  Au17  1  0.750000  0.903203  0.036601  1
  Au  Au18  1  0.250000  0.583881  0.537599  1
  Au  Au19  1  0.750000  0.422118  0.463696  1
