# generated using pymatgen
data_Si8IrPt5W2
_symmetry_space_group_name_H-M   'P 1'
_cell_length_a   3.54825200
_cell_length_b   5.51601600
_cell_length_c   24.50427500
_cell_angle_alpha   90.00000000
_cell_angle_beta   90.00000000
_cell_angle_gamma   90.00000000
_symmetry_Int_Tables_number   1
_chemical_formula_structural   Si8IrPt5W2
_chemical_formula_sum   'Si16 Ir2 Pt10 W4'
_cell_volume   479.60293392
_cell_formula_units_Z   2
loop_
 _symmetry_equiv_pos_site_id
 _symmetry_equiv_pos_as_xyz
  1  'x, y, z'
loop_
 _atom_site_type_symbol
 _atom_site_label
 _atom_site_symmetry_multiplicity
 _atom_site_fract_x
 _atom_site_fract_y
 _atom_site_fract_z
 _atom_site_occupancy
  Si  Si0  1  0.250000  0.172958  0.521503  1
  Si  Si1  1  0.750000  0.327042  0.021503  1
  Si  Si2  1  0.250000  0.672666  0.981579  1
  Si  Si3  1  0.750000  0.827334  0.481579  1
  Si  Si4  1  0.750000  0.318519  0.644295  1
  Si  Si5  1  0.250000  0.181481  0.144295  1
  Si  Si6  1  0.750000  0.821202  0.854258  1
  Si  Si7  1  0.250000  0.678798  0.354258  1
  Si  Si8  1  0.250000  0.669255  0.608561  1
  Si  Si9  1  0.750000  0.830745  0.108561  1
  Si  Si10  1  0.250000  0.161868  0.890911  1
  Si  Si11  1  0.750000  0.338132  0.390911  1
  Si  Si12  1  0.750000  0.828732  0.725491  1
  Si  Si13  1  0.250000  0.671268  0.225491  1
  Si  Si14  1  0.750000  0.330956  0.774113  1
  Si  Si15  1  0.250000  0.169044  0.274113  1
  Ir  Ir16  1  0.750000  0.000712  0.573539  1
  Ir  Ir17  1  0.250000  0.499288  0.073539  1
  Pt  Pt18  1  0.750000  0.503460  0.925250  1
  Pt  Pt19  1  0.250000  0.996540  0.425250  1
  Pt  Pt20  1  0.250000  0.006098  0.670536  1
  Pt  Pt21  1  0.750000  0.493902  0.170536  1
  Pt  Pt22  1  0.250000  0.505735  0.829734  1
  Pt  Pt23  1  0.750000  0.994265  0.329734  1
  Pt  Pt24  1  0.750000  0.502230  0.549162  1
  Pt  Pt25  1  0.250000  0.997770  0.049162  1
  Pt  Pt26  1  0.750000  0.005402  0.951591  1
  Pt  Pt27  1  0.250000  0.494598  0.451591  1
  W  W28  1  0.250000  0.501925  0.710103  1
  W  W29  1  0.750000  0.998075  0.210103  1
  W  W30  1  0.250000  0.004503  0.789372  1
  W  W31  1  0.750000  0.495497  0.289372  1
