# generated using pymatgen
data_La6In5Sn4Hg
_symmetry_space_group_name_H-M   'P 1'
_cell_length_a   6.76771705
_cell_length_b   6.76771730
_cell_length_c   10.52808901
_cell_angle_alpha   90.28099399
_cell_angle_beta   90.28099261
_cell_angle_gamma   102.99229331
_symmetry_Int_Tables_number   1
_chemical_formula_structural   La6In5Sn4Hg
_chemical_formula_sum   'La6 In5 Sn4 Hg1'
_cell_volume   469.84854838
_cell_formula_units_Z   1
loop_
 _symmetry_equiv_pos_site_id
 _symmetry_equiv_pos_as_xyz
  1  'x, y, z'
loop_
 _atom_site_type_symbol
 _atom_site_label
 _atom_site_symmetry_multiplicity
 _atom_site_fract_x
 _atom_site_fract_y
 _atom_site_fract_z
 _atom_site_occupancy
  La  La0  1  0.629343  0.629343  0.250228  1
  La  La1  1  0.367873  0.367873  0.750444  1
  La  La2  1  0.206097  0.794098  0.499283  1
  La  La3  1  0.209264  0.795055  0.001469  1
  La  La4  1  0.794098  0.206097  0.499283  1
  La  La5  1  0.795055  0.209264  0.001469  1
  In  In6  1  0.019714  0.019714  0.249840  1
  In  In7  1  0.979834  0.979834  0.751968  1
  In  In8  1  0.696497  0.696497  0.950267  1
  In  In9  1  0.304445  0.304445  0.447140  1
  In  In10  1  0.695699  0.695699  0.550718  1
  Sn  Sn11  1  0.493879  0.071250  0.249334  1
  Sn  Sn12  1  0.925751  0.506136  0.750997  1
  Sn  Sn13  1  0.506136  0.925751  0.750997  1
  Sn  Sn14  1  0.071250  0.493879  0.249334  1
  Hg  Hg15  1  0.305064  0.305064  0.047233  1
