# generated using pymatgen
data_Dy17Ho3(Cd3Ni)2
_symmetry_space_group_name_H-M   'P 1'
_cell_length_a   9.58500500
_cell_length_b   9.58500577
_cell_length_c   9.80469000
_cell_angle_alpha   90.00000000
_cell_angle_beta   90.00000000
_cell_angle_gamma   119.99999390
_symmetry_Int_Tables_number   1
_chemical_formula_structural   Dy17Ho3(Cd3Ni)2
_chemical_formula_sum   'Dy17 Ho3 Cd6 Ni2'
_cell_volume   780.09814929
_cell_formula_units_Z   1
loop_
 _symmetry_equiv_pos_site_id
 _symmetry_equiv_pos_as_xyz
  1  'x, y, z'
loop_
 _atom_site_type_symbol
 _atom_site_label
 _atom_site_symmetry_multiplicity
 _atom_site_fract_x
 _atom_site_fract_y
 _atom_site_fract_z
 _atom_site_occupancy
  Dy  Dy0  1  0.000000  0.000000  0.500087  1
  Dy  Dy1  1  0.000000  0.000000  0.999913  1
  Dy  Dy2  1  0.543745  0.456255  0.250000  1
  Dy  Dy3  1  0.543745  0.087490  0.250000  1
  Dy  Dy4  1  0.912510  0.456255  0.250000  1
  Dy  Dy5  1  0.210616  0.789384  0.436673  1
  Dy  Dy6  1  0.210616  0.421234  0.436673  1
  Dy  Dy7  1  0.578766  0.789384  0.436673  1
  Dy  Dy8  1  0.789446  0.210554  0.563533  1
  Dy  Dy9  1  0.789446  0.578890  0.563533  1
  Dy  Dy10  1  0.421110  0.210554  0.563533  1
  Dy  Dy11  1  0.789446  0.210554  0.936467  1
  Dy  Dy12  1  0.789446  0.578890  0.936467  1
  Dy  Dy13  1  0.421110  0.210554  0.936467  1
  Dy  Dy14  1  0.210616  0.789384  0.063327  1
  Dy  Dy15  1  0.210616  0.421234  0.063327  1
  Dy  Dy16  1  0.578766  0.789384  0.063327  1
  Ho  Ho17  1  0.456414  0.543586  0.750000  1
  Ho  Ho18  1  0.456414  0.912826  0.750000  1
  Ho  Ho19  1  0.087174  0.543586  0.750000  1
  Cd  Cd20  1  0.884615  0.115385  0.250000  1
  Cd  Cd21  1  0.884615  0.769230  0.250000  1
  Cd  Cd22  1  0.230770  0.115385  0.250000  1
  Cd  Cd23  1  0.115609  0.884391  0.750000  1
  Cd  Cd24  1  0.115609  0.231216  0.750000  1
  Cd  Cd25  1  0.768784  0.884391  0.750000  1
  Ni  Ni26  1  0.333333  0.666667  0.250000  1
  Ni  Ni27  1  0.666667  0.333333  0.750000  1
