# generated using pymatgen
data_Th6Co3Cu3Sb8
_symmetry_space_group_name_H-M   'P 1'
_cell_length_a   8.38650694
_cell_length_b   8.38650715
_cell_length_c   8.38880195
_cell_angle_alpha   109.12024659
_cell_angle_beta   109.95922375
_cell_angle_gamma   109.32425896
_symmetry_Int_Tables_number   1
_chemical_formula_structural   Th6Co3Cu3Sb8
_chemical_formula_sum   'Th6 Co3 Cu3 Sb8'
_cell_volume   454.22860584
_cell_formula_units_Z   1
loop_
 _symmetry_equiv_pos_site_id
 _symmetry_equiv_pos_as_xyz
  1  'x, y, z'
loop_
 _atom_site_type_symbol
 _atom_site_label
 _atom_site_symmetry_multiplicity
 _atom_site_fract_x
 _atom_site_fract_y
 _atom_site_fract_z
 _atom_site_occupancy
  Th  Th0  1  0.378653  0.258744  0.632592  1
  Th  Th1  1  0.737149  0.865580  0.111247  1
  Th  Th2  1  0.254333  0.625902  0.388753  1
  Th  Th3  1  0.619252  0.369252  0.250000  1
  Th  Th4  1  0.881609  0.131609  0.750000  1
  Th  Th5  1  0.126152  0.746061  0.867408  1
  Co  Co6  1  0.251124  0.126783  0.876899  1
  Co  Co7  1  0.749884  0.374224  0.623101  1
  Co  Co8  1  0.376825  0.626825  0.750000  1
  Cu  Cu9  1  0.124937  0.874937  0.250000  1
  Cu  Cu10  1  0.624604  0.749005  0.374694  1
  Cu  Cu11  1  0.874310  0.249910  0.125306  1
  Sb  Sb12  1  0.999672  0.337583  0.504600  1
  Sb  Sb13  1  0.836523  0.499512  0.993688  1
  Sb  Sb14  1  0.493886  0.997484  0.833640  1
  Sb  Sb15  1  0.663845  0.660247  0.666360  1
  Sb  Sb16  1  0.163767  0.162084  0.157415  1
  Sb  Sb17  1  0.332983  0.495072  0.995400  1
  Sb  Sb18  1  0.504669  0.006352  0.342585  1
  Sb  Sb19  1  0.005824  0.842835  0.506312  1
