# generated using pymatgen
data_Ti4TcRu
_symmetry_space_group_name_H-M   'P 1'
_cell_length_a   13.37455500
_cell_length_b   3.12576700
_cell_length_c   4.46091300
_cell_angle_alpha   90.00000000
_cell_angle_beta   90.00000000
_cell_angle_gamma   90.00000000
_symmetry_Int_Tables_number   1
_chemical_formula_structural   Ti4TcRu
_chemical_formula_sum   'Ti8 Tc2 Ru2'
_cell_volume   186.49178090
_cell_formula_units_Z   2
loop_
 _symmetry_equiv_pos_site_id
 _symmetry_equiv_pos_as_xyz
  1  'x, y, z'
loop_
 _atom_site_type_symbol
 _atom_site_label
 _atom_site_symmetry_multiplicity
 _atom_site_fract_x
 _atom_site_fract_y
 _atom_site_fract_z
 _atom_site_occupancy
  Ti  Ti0  1  0.644008  0.000000  0.000000  1
  Ti  Ti1  1  0.958423  0.000000  0.000000  1
  Ti  Ti2  1  0.144126  0.500000  0.000000  1
  Ti  Ti3  1  0.458513  0.500000  0.000000  1
  Ti  Ti4  1  0.484891  0.000000  0.500001  1
  Ti  Ti5  1  0.801976  0.000000  0.500001  1
  Ti  Ti6  1  0.302078  0.500000  0.500001  1
  Ti  Ti7  1  0.984986  0.500000  0.500001  1
  Tc  Tc8  1  0.304491  0.000000  0.000000  1
  Tc  Tc9  1  0.804364  0.500000  0.000000  1
  Ru  Ru10  1  0.139448  0.000000  0.500001  1
  Ru  Ru11  1  0.639336  0.500000  0.500001  1
