# generated using pymatgen
data_Zr2Ti3Ga3Ge
_symmetry_space_group_name_H-M   'P 1'
_cell_length_a   6.86398000
_cell_length_b   6.99945300
_cell_length_c   13.23113200
_cell_angle_alpha   90.00000000
_cell_angle_beta   90.00000000
_cell_angle_gamma   90.00000000
_symmetry_Int_Tables_number   1
_chemical_formula_structural   Zr2Ti3Ga3Ge
_chemical_formula_sum   'Zr8 Ti12 Ga12 Ge4'
_cell_volume   635.67790041
_cell_formula_units_Z   4
loop_
 _symmetry_equiv_pos_site_id
 _symmetry_equiv_pos_as_xyz
  1  'x, y, z'
loop_
 _atom_site_type_symbol
 _atom_site_label
 _atom_site_symmetry_multiplicity
 _atom_site_fract_x
 _atom_site_fract_y
 _atom_site_fract_z
 _atom_site_occupancy
  Zr  Zr0  1  0.497532  0.671249  0.095368  1
  Zr  Zr1  1  0.997532  0.828751  0.404632  1
  Zr  Zr2  1  0.502468  0.328751  0.595368  1
  Zr  Zr3  1  0.002468  0.171249  0.904632  1
  Zr  Zr4  1  0.502468  0.328751  0.904632  1
  Zr  Zr5  1  0.002468  0.171249  0.595368  1
  Zr  Zr6  1  0.497532  0.671249  0.404632  1
  Zr  Zr7  1  0.997532  0.828751  0.095368  1
  Ti  Ti8  1  0.334293  0.008351  0.250000  1
  Ti  Ti9  1  0.834293  0.491649  0.250000  1
  Ti  Ti10  1  0.665707  0.991649  0.750000  1
  Ti  Ti11  1  0.165707  0.508351  0.750000  1
  Ti  Ti12  1  0.657209  0.171824  0.129065  1
  Ti  Ti13  1  0.157209  0.328176  0.370935  1
  Ti  Ti14  1  0.342791  0.828176  0.629065  1
  Ti  Ti15  1  0.842791  0.671824  0.870935  1
  Ti  Ti16  1  0.342791  0.828176  0.870935  1
  Ti  Ti17  1  0.842791  0.671824  0.629065  1
  Ti  Ti18  1  0.657209  0.171824  0.370935  1
  Ti  Ti19  1  0.157209  0.328176  0.129065  1
  Ga  Ga20  1  0.694509  0.854619  0.250000  1
  Ga  Ga21  1  0.194509  0.645381  0.250000  1
  Ga  Ga22  1  0.305491  0.145381  0.750000  1
  Ga  Ga23  1  0.805491  0.354619  0.750000  1
  Ga  Ga24  1  0.673910  0.959759  0.960259  1
  Ga  Ga25  1  0.173910  0.540241  0.539741  1
  Ga  Ga26  1  0.326090  0.040241  0.460259  1
  Ga  Ga27  1  0.826090  0.459759  0.039741  1
  Ga  Ga28  1  0.326090  0.040241  0.039741  1
  Ga  Ga29  1  0.826090  0.459759  0.460259  1
  Ga  Ga30  1  0.673910  0.959759  0.539741  1
  Ga  Ga31  1  0.173910  0.540241  0.960259  1
  Ge  Ge32  1  0.461046  0.382909  0.250000  1
  Ge  Ge33  1  0.961046  0.117091  0.250000  1
  Ge  Ge34  1  0.538954  0.617091  0.750000  1
  Ge  Ge35  1  0.038954  0.882909  0.750000  1
