# generated using pymatgen
data_La10Mg(CdRu2)3
_symmetry_space_group_name_H-M   'P 1'
_cell_length_a   8.74712879
_cell_length_b   8.74712914
_cell_length_c   8.80607300
_cell_angle_alpha   109.60778628
_cell_angle_beta   109.60778710
_cell_angle_gamma   109.33431206
_symmetry_Int_Tables_number   1
_chemical_formula_structural   La10Mg(CdRu2)3
_chemical_formula_sum   'La10 Mg1 Cd3 Ru6'
_cell_volume   517.79362411
_cell_formula_units_Z   1
loop_
 _symmetry_equiv_pos_site_id
 _symmetry_equiv_pos_as_xyz
  1  'x, y, z'
loop_
 _atom_site_type_symbol
 _atom_site_label
 _atom_site_symmetry_multiplicity
 _atom_site_fract_x
 _atom_site_fract_y
 _atom_site_fract_z
 _atom_site_occupancy
  La  La0  1  0.249022  0.685164  0.434772  1
  La  La1  1  0.750880  0.813983  0.064487  1
  La  La2  1  0.436143  0.250978  0.685748  1
  La  La3  1  0.686017  0.436898  0.250504  1
  La  La4  1  0.063103  0.749120  0.813607  1
  La  La5  1  0.814836  0.063858  0.749606  1
  La  La6  1  0.210482  0.209556  0.210569  1
  La  La7  1  0.500001  0.000000  0.290619  1
  La  La8  1  0.290444  0.500927  0.001013  1
  La  La9  1  0.999074  0.289518  0.500088  1
  Mg  Mg10  1  0.500001  0.000000  0.913202  1
  Cd  Cd11  1  0.587520  0.588385  0.587992  1
  Cd  Cd12  1  0.911615  0.499137  0.999607  1
  Cd  Cd13  1  0.000864  0.912480  0.500472  1
  Ru  Ru14  1  0.254479  0.137965  0.889717  1
  Ru  Ru15  1  0.750964  0.360820  0.610930  1
  Ru  Ru16  1  0.883487  0.245523  0.135239  1
  Ru  Ru17  1  0.139179  0.890143  0.250111  1
  Ru  Ru18  1  0.609856  0.749036  0.359966  1
  Ru  Ru19  1  0.362034  0.616512  0.751752  1
