# generated using pymatgen
data_HfSc(Be4Ru)2
_symmetry_space_group_name_H-M   'P 1'
_cell_length_a   4.49267100
_cell_length_b   4.49267106
_cell_length_c   7.41548200
_cell_angle_alpha   90.00000000
_cell_angle_beta   90.00000000
_cell_angle_gamma   120.00000691
_symmetry_Int_Tables_number   1
_chemical_formula_structural   HfSc(Be4Ru)2
_chemical_formula_sum   'Hf1 Sc1 Be8 Ru2'
_cell_volume   129.62215128
_cell_formula_units_Z   1
loop_
 _symmetry_equiv_pos_site_id
 _symmetry_equiv_pos_as_xyz
  1  'x, y, z'
loop_
 _atom_site_type_symbol
 _atom_site_label
 _atom_site_symmetry_multiplicity
 _atom_site_fract_x
 _atom_site_fract_y
 _atom_site_fract_z
 _atom_site_occupancy
  Hf  Hf0  1  0.333333  0.666667  0.436136  1
  Sc  Sc1  1  0.666667  0.333333  0.935623  1
  Be  Be2  1  0.000000  0.000000  0.004011  1
  Be  Be3  1  0.000000  0.000000  0.505677  1
  Be  Be4  1  0.832527  0.665054  0.246935  1
  Be  Be5  1  0.167823  0.832177  0.750503  1
  Be  Be6  1  0.664353  0.832177  0.750503  1
  Be  Be7  1  0.334946  0.167473  0.246935  1
  Be  Be8  1  0.832527  0.167473  0.246935  1
  Be  Be9  1  0.167823  0.335647  0.750503  1
  Ru  Ru10  1  0.333333  0.666667  0.065377  1
  Ru  Ru11  1  0.666667  0.333333  0.560863  1
