# generated using pymatgen
data_NdDy9(Cd2Pt)4
_symmetry_space_group_name_H-M   'P 1'
_cell_length_a   3.67556600
_cell_length_b   7.97362246
_cell_length_c   18.45776503
_cell_angle_alpha   89.74087144
_cell_angle_beta   90.00000000
_cell_angle_gamma   90.00000000
_symmetry_Int_Tables_number   1
_chemical_formula_structural   NdDy9(Cd2Pt)4
_chemical_formula_sum   'Nd1 Dy9 Cd8 Pt4'
_cell_volume   540.94681164
_cell_formula_units_Z   1
loop_
 _symmetry_equiv_pos_site_id
 _symmetry_equiv_pos_as_xyz
  1  'x, y, z'
loop_
 _atom_site_type_symbol
 _atom_site_label
 _atom_site_symmetry_multiplicity
 _atom_site_fract_x
 _atom_site_fract_y
 _atom_site_fract_z
 _atom_site_occupancy
  Nd  Nd0  1  0.000000  0.000000  0.000000  1
  Dy  Dy1  1  0.000000  0.113900  0.413756  1
  Dy  Dy2  1  0.000000  0.886100  0.586244  1
  Dy  Dy3  1  0.000000  0.384827  0.913604  1
  Dy  Dy4  1  0.000000  0.615173  0.086396  1
  Dy  Dy5  1  0.000000  0.243831  0.219885  1
  Dy  Dy6  1  0.000000  0.756169  0.780115  1
  Dy  Dy7  1  0.000000  0.256417  0.719198  1
  Dy  Dy8  1  0.000000  0.743583  0.280802  1
  Dy  Dy9  1  0.000000  0.500000  0.500000  1
  Cd  Cd10  1  0.500000  0.429368  0.353399  1
  Cd  Cd11  1  0.500000  0.570632  0.646601  1
  Cd  Cd12  1  0.500000  0.071854  0.850934  1
  Cd  Cd13  1  0.500000  0.928146  0.149066  1
  Cd  Cd14  1  0.500000  0.291490  0.067845  1
  Cd  Cd15  1  0.500000  0.708510  0.932155  1
  Cd  Cd16  1  0.500000  0.213572  0.566480  1
  Cd  Cd17  1  0.500000  0.786428  0.433520  1
  Pt  Pt18  1  0.500000  0.028320  0.303934  1
  Pt  Pt19  1  0.500000  0.971680  0.696066  1
  Pt  Pt20  1  0.500000  0.471838  0.803484  1
  Pt  Pt21  1  0.500000  0.528162  0.196516  1
