# generated using pymatgen
data_Sc4Ga18NiIr5
_symmetry_space_group_name_H-M   'P 1'
_cell_length_a   7.48856629
_cell_length_b   7.48856563
_cell_length_c   9.34757746
_cell_angle_alpha   90.19766347
_cell_angle_beta   90.19766153
_cell_angle_gamma   120.20581566
_symmetry_Int_Tables_number   1
_chemical_formula_structural   Sc4Ga18NiIr5
_chemical_formula_sum   'Sc4 Ga18 Ni1 Ir5'
_cell_volume   453.01458123
_cell_formula_units_Z   1
loop_
 _symmetry_equiv_pos_site_id
 _symmetry_equiv_pos_as_xyz
  1  'x, y, z'
loop_
 _atom_site_type_symbol
 _atom_site_label
 _atom_site_symmetry_multiplicity
 _atom_site_fract_x
 _atom_site_fract_y
 _atom_site_fract_z
 _atom_site_occupancy
  Sc  Sc0  1  0.997313  0.665616  0.250330  1
  Sc  Sc1  1  0.002687  0.334384  0.749670  1
  Sc  Sc2  1  0.665616  0.997313  0.250330  1
  Sc  Sc3  1  0.334384  0.002687  0.749670  1
  Ga  Ga4  1  0.115224  0.115224  0.244500  1
  Ga  Ga5  1  0.884776  0.884776  0.755500  1
  Ga  Ga6  1  0.996014  0.329272  0.081804  1
  Ga  Ga7  1  0.003986  0.670728  0.918196  1
  Ga  Ga8  1  0.003876  0.667257  0.583367  1
  Ga  Ga9  1  0.332743  0.996124  0.416633  1
  Ga  Ga10  1  0.996124  0.332743  0.416633  1
  Ga  Ga11  1  0.667257  0.003876  0.583367  1
  Ga  Ga12  1  0.670728  0.003986  0.918196  1
  Ga  Ga13  1  0.329272  0.996014  0.081804  1
  Ga  Ga14  1  0.330235  0.330235  0.569657  1
  Ga  Ga15  1  0.669765  0.669765  0.430343  1
  Ga  Ga16  1  0.676762  0.676762  0.069271  1
  Ga  Ga17  1  0.323238  0.323238  0.930729  1
  Ga  Ga18  1  0.339442  0.548585  0.249153  1
  Ga  Ga19  1  0.660558  0.451415  0.750847  1
  Ga  Ga20  1  0.548585  0.339442  0.249153  1
  Ga  Ga21  1  0.451415  0.660558  0.750847  1
  Ni  Ni22  1  0.000000  0.000000  0.000000  1
  Ir  Ir23  1  0.671613  0.328387  0.000000  1
  Ir  Ir24  1  0.328387  0.671613  0.000000  1
  Ir  Ir25  1  0.328285  0.671715  0.500000  1
  Ir  Ir26  1  0.671715  0.328285  0.500000  1
  Ir  Ir27  1  0.000000  0.000000  0.500000  1
