# generated using pymatgen
data_Tb3YAl18Ir5Pt
_symmetry_space_group_name_H-M   'P 1'
_cell_length_a   7.56806536
_cell_length_b   7.56818316
_cell_length_c   9.48081101
_cell_angle_alpha   89.98164764
_cell_angle_beta   89.98124508
_cell_angle_gamma   119.59542583
_symmetry_Int_Tables_number   1
_chemical_formula_structural   Tb3YAl18Ir5Pt
_chemical_formula_sum   'Tb3 Y1 Al18 Ir5 Pt1'
_cell_volume   472.18116073
_cell_formula_units_Z   1
loop_
 _symmetry_equiv_pos_site_id
 _symmetry_equiv_pos_as_xyz
  1  'x, y, z'
loop_
 _atom_site_type_symbol
 _atom_site_label
 _atom_site_symmetry_multiplicity
 _atom_site_fract_x
 _atom_site_fract_y
 _atom_site_fract_z
 _atom_site_occupancy
  Tb  Tb0  1  0.994509  0.670522  0.250623  1
  Tb  Tb1  1  0.005080  0.329406  0.749473  1
  Tb  Tb2  1  0.670586  0.994929  0.250524  1
  Y  Y3  1  0.329468  0.005499  0.749367  1
  Al  Al4  1  0.128257  0.127495  0.250505  1
  Al  Al5  1  0.872502  0.871738  0.749495  1
  Al  Al6  1  0.004091  0.335190  0.075959  1
  Al  Al7  1  0.002233  0.668443  0.923992  1
  Al  Al8  1  0.999812  0.665072  0.574066  1
  Al  Al9  1  0.334949  0.000200  0.425934  1
  Al  Al10  1  0.000674  0.334549  0.425521  1
  Al  Al11  1  0.665435  0.999326  0.574466  1
  Al  Al12  1  0.664793  0.995907  0.924057  1
  Al  Al13  1  0.331582  0.997781  0.076011  1
  Al  Al14  1  0.333199  0.333136  0.551760  1
  Al  Al15  1  0.666850  0.666804  0.448240  1
  Al  Al16  1  0.666181  0.669246  0.054289  1
  Al  Al17  1  0.330753  0.333806  0.945715  1
  Al  Al18  1  0.340216  0.548870  0.250344  1
  Al  Al19  1  0.660160  0.453284  0.747447  1
  Al  Al20  1  0.546719  0.339849  0.252551  1
  Al  Al21  1  0.451147  0.659799  0.749655  1
  Ir  Ir22  1  0.328301  0.671690  0.999990  1
  Ir  Ir23  1  0.328494  0.671496  0.500010  1
  Ir  Ir24  1  0.671907  0.328063  0.500010  1
  Ir  Ir25  1  0.999866  0.000148  0.999987  1
  Ir  Ir26  1  0.000257  0.999751  0.500013  1
  Pt  Pt27  1  0.671980  0.328001  0.999994  1
