# generated using pymatgen
data_DyHo2V(Co4P3)2
_symmetry_space_group_name_H-M   'P 1'
_cell_length_a   3.67274500
_cell_length_b   10.52302500
_cell_length_c   12.18543100
_cell_angle_alpha   90.00000000
_cell_angle_beta   90.00000000
_cell_angle_gamma   90.00000000
_symmetry_Int_Tables_number   1
_chemical_formula_structural   DyHo2V(Co4P3)2
_chemical_formula_sum   'Dy2 Ho4 V2 Co16 P12'
_cell_volume   470.94725858
_cell_formula_units_Z   2
loop_
 _symmetry_equiv_pos_site_id
 _symmetry_equiv_pos_as_xyz
  1  'x, y, z'
loop_
 _atom_site_type_symbol
 _atom_site_label
 _atom_site_symmetry_multiplicity
 _atom_site_fract_x
 _atom_site_fract_y
 _atom_site_fract_z
 _atom_site_occupancy
  Dy  Dy0  1  0.000000  0.500000  0.523213  1
  Dy  Dy1  1  0.500000  0.000000  0.476787  1
  Ho  Ho2  1  0.500000  0.818760  0.204408  1
  Ho  Ho3  1  0.500000  0.181240  0.204408  1
  Ho  Ho4  1  0.000000  0.681240  0.795592  1
  Ho  Ho5  1  0.000000  0.318760  0.795592  1
  V  V6  1  0.500000  0.500000  0.154148  1
  V  V7  1  0.000000  0.000000  0.845852  1
  Co  Co8  1  0.500000  0.500000  0.702221  1
  Co  Co9  1  0.000000  0.000000  0.297779  1
  Co  Co10  1  0.000000  0.500000  0.986895  1
  Co  Co11  1  0.500000  0.000000  0.013105  1
  Co  Co12  1  0.500000  0.332402  0.992964  1
  Co  Co13  1  0.500000  0.667598  0.992964  1
  Co  Co14  1  0.000000  0.167598  0.007036  1
  Co  Co15  1  0.000000  0.832402  0.007036  1
  Co  Co16  1  0.500000  0.295919  0.431090  1
  Co  Co17  1  0.500000  0.704081  0.431090  1
  Co  Co18  1  0.000000  0.204081  0.568910  1
  Co  Co19  1  0.000000  0.795919  0.568910  1
  Co  Co20  1  0.500000  0.878615  0.707807  1
  Co  Co21  1  0.500000  0.121385  0.707807  1
  Co  Co22  1  0.000000  0.621385  0.292193  1
  Co  Co23  1  0.000000  0.378615  0.292193  1
  P  P24  1  0.500000  0.500000  0.881973  1
  P  P25  1  0.000000  0.000000  0.118027  1
  P  P26  1  0.500000  0.500000  0.347003  1
  P  P27  1  0.000000  0.000000  0.652997  1
  P  P28  1  0.500000  0.311247  0.616136  1
  P  P29  1  0.500000  0.688753  0.616136  1
  P  P30  1  0.000000  0.188753  0.383864  1
  P  P31  1  0.000000  0.811247  0.383864  1
  P  P32  1  0.500000  0.845762  0.891706  1
  P  P33  1  0.500000  0.154238  0.891706  1
  P  P34  1  0.000000  0.654238  0.108294  1
  P  P35  1  0.000000  0.345762  0.108294  1
