# generated using pymatgen
data_Y7Er13Cd6OsRh
_symmetry_space_group_name_H-M   'P 1'
_cell_length_a   9.59489510
_cell_length_b   9.60043405
_cell_length_c   9.75452703
_cell_angle_alpha   89.99866525
_cell_angle_beta   90.07908763
_cell_angle_gamma   120.01356600
_symmetry_Int_Tables_number   1
_chemical_formula_structural   Y7Er13Cd6OsRh
_chemical_formula_sum   'Y7 Er13 Cd6 Os1 Rh1'
_cell_volume   778.05092080
_cell_formula_units_Z   1
loop_
 _symmetry_equiv_pos_site_id
 _symmetry_equiv_pos_as_xyz
  1  'x, y, z'
loop_
 _atom_site_type_symbol
 _atom_site_label
 _atom_site_symmetry_multiplicity
 _atom_site_fract_x
 _atom_site_fract_y
 _atom_site_fract_z
 _atom_site_occupancy
  Y  Y0  1  0.582988  0.791503  0.059996  1
  Y  Y1  1  0.541668  0.457537  0.250637  1
  Y  Y2  1  0.541666  0.084081  0.250635  1
  Y  Y3  1  0.917100  0.458520  0.250202  1
  Y  Y4  1  0.460400  0.539247  0.749184  1
  Y  Y5  1  0.460335  0.921162  0.749188  1
  Y  Y6  1  0.080193  0.540163  0.750021  1
  Er  Er7  1  0.999863  0.999933  0.499676  1
  Er  Er8  1  0.001496  0.000773  0.999806  1
  Er  Er9  1  0.208908  0.790959  0.439900  1
  Er  Er10  1  0.208905  0.417965  0.439826  1
  Er  Er11  1  0.580950  0.790477  0.440046  1
  Er  Er12  1  0.790613  0.210027  0.560055  1
  Er  Er13  1  0.790595  0.580543  0.560113  1
  Er  Er14  1  0.419033  0.209515  0.560164  1
  Er  Er15  1  0.791047  0.210392  0.939750  1
  Er  Er16  1  0.791043  0.580627  0.939679  1
  Er  Er17  1  0.419804  0.209890  0.939883  1
  Er  Er18  1  0.208715  0.790889  0.060411  1
  Er  Er19  1  0.208697  0.417807  0.060481  1
  Cd  Cd20  1  0.885798  0.114916  0.249808  1
  Cd  Cd21  1  0.885808  0.770956  0.249804  1
  Cd  Cd22  1  0.228957  0.114513  0.250261  1
  Cd  Cd23  1  0.113894  0.885183  0.749900  1
  Cd  Cd24  1  0.113869  0.228611  0.749907  1
  Cd  Cd25  1  0.771553  0.885754  0.749716  1
  Os  Os26  1  0.666452  0.333236  0.749861  1
  Rh  Rh27  1  0.329652  0.664821  0.251091  1
