# generated using pymatgen
data_LaGa2IrPtRh
_symmetry_space_group_name_H-M   'P 1'
_cell_length_a   5.64288134
_cell_length_b   5.70867189
_cell_length_c   3.91176500
_cell_angle_alpha   90.00000000
_cell_angle_beta   90.00000000
_cell_angle_gamma   120.01105055
_symmetry_Int_Tables_number   1
_chemical_formula_structural   LaGa2IrPtRh
_chemical_formula_sum   'La1 Ga2 Ir1 Pt1 Rh1'
_cell_volume   109.11664843
_cell_formula_units_Z   1
loop_
 _symmetry_equiv_pos_site_id
 _symmetry_equiv_pos_as_xyz
  1  'x, y, z'
loop_
 _atom_site_type_symbol
 _atom_site_label
 _atom_site_symmetry_multiplicity
 _atom_site_fract_x
 _atom_site_fract_y
 _atom_site_fract_z
 _atom_site_occupancy
  La  La0  1  0.000000  0.000000  0.000000  1
  Ga  Ga1  1  0.344028  0.669275  0.000000  1
  Ga  Ga2  1  0.655972  0.330725  0.000000  1
  Ir  Ir3  1  0.500000  0.000000  0.500000  1
  Pt  Pt4  1  0.000000  0.500000  0.500000  1
  Rh  Rh5  1  0.500000  0.500000  0.500000  1
