# generated using pymatgen
data_RbP2RhO7
_symmetry_space_group_name_H-M   'P 1'
_cell_length_a   5.54798515
_cell_length_b   5.54821774
_cell_length_c   6.03141109
_cell_angle_alpha   89.84975654
_cell_angle_beta   89.85355511
_cell_angle_gamma   98.51592196
_symmetry_Int_Tables_number   1
_chemical_formula_structural   RbP2RhO7
_chemical_formula_sum   'Rb1 P2 Rh1 O7'
_cell_volume   183.60711361
_cell_formula_units_Z   1
loop_
 _symmetry_equiv_pos_site_id
 _symmetry_equiv_pos_as_xyz
  1  'x, y, z'
loop_
 _atom_site_type_symbol
 _atom_site_label
 _atom_site_symmetry_multiplicity
 _atom_site_fract_x
 _atom_site_fract_y
 _atom_site_fract_z
 _atom_site_occupancy
  Rb  Rb0  1  0.167446  0.832542  0.499999  1
  P  P1  1  0.048619  0.344394  0.068964  1
  P  P2  1  0.655603  0.951392  0.931033  1
  Rh  Rh3  1  0.520247  0.479694  0.999977  1
  O  O4  1  0.930057  0.069955  0.000008  1
  O  O5  1  0.524297  0.821647  0.136189  1
  O  O6  1  0.847496  0.469501  0.171132  1
  O  O7  1  0.257384  0.309655  0.231076  1
  O  O8  1  0.690349  0.742618  0.768943  1
  O  O9  1  0.530509  0.152535  0.828870  1
  O  O10  1  0.178342  0.475713  0.863806  1
