# generated using pymatgen
data_Sc22FeOs4Ru3
_symmetry_space_group_name_H-M   'P 1'
_cell_length_a   9.45483449
_cell_length_b   9.43822031
_cell_length_c   9.43822065
_cell_angle_alpha   60.11649531
_cell_angle_beta   59.94175201
_cell_angle_gamma   59.94175606
_symmetry_Int_Tables_number   1
_chemical_formula_structural   Sc22FeOs4Ru3
_chemical_formula_sum   'Sc22 Fe1 Os4 Ru3'
_cell_volume   595.54760766
_cell_formula_units_Z   1
loop_
 _symmetry_equiv_pos_site_id
 _symmetry_equiv_pos_as_xyz
  1  'x, y, z'
loop_
 _atom_site_type_symbol
 _atom_site_label
 _atom_site_symmetry_multiplicity
 _atom_site_fract_x
 _atom_site_fract_y
 _atom_site_fract_z
 _atom_site_occupancy
  Sc  Sc0  1  0.842816  0.843031  0.843031  1
  Sc  Sc1  1  0.528878  0.156969  0.156969  1
  Sc  Sc2  1  0.156969  0.157184  0.528878  1
  Sc  Sc3  1  0.156969  0.528878  0.157184  1
  Sc  Sc4  1  0.843031  0.842816  0.471122  1
  Sc  Sc5  1  0.843031  0.471122  0.842816  1
  Sc  Sc6  1  0.471122  0.843031  0.843031  1
  Sc  Sc7  1  0.157184  0.156969  0.156969  1
  Sc  Sc8  1  0.198225  0.801775  0.198225  1
  Sc  Sc9  1  0.198871  0.801129  0.801129  1
  Sc  Sc10  1  0.801129  0.198871  0.198871  1
  Sc  Sc11  1  0.801775  0.801775  0.198225  1
  Sc  Sc12  1  0.198225  0.198225  0.801775  1
  Sc  Sc13  1  0.801775  0.198225  0.801775  1
  Sc  Sc14  1  0.386149  0.384196  0.384196  1
  Sc  Sc15  1  0.154543  0.615804  0.615804  1
  Sc  Sc16  1  0.615804  0.154543  0.613851  1
  Sc  Sc17  1  0.615804  0.613851  0.154543  1
  Sc  Sc18  1  0.384196  0.845457  0.386149  1
  Sc  Sc19  1  0.384196  0.386149  0.845457  1
  Sc  Sc20  1  0.845457  0.384196  0.384196  1
  Sc  Sc21  1  0.613851  0.615804  0.615804  1
  Fe  Fe22  1  0.500000  0.500000  0.500000  1
  Os  Os23  1  0.500000  0.500000  0.000000  1
  Os  Os24  1  0.000000  0.000000  0.500000  1
  Os  Os25  1  0.500000  0.000000  0.500000  1
  Os  Os26  1  0.000000  0.500000  0.000000  1
  Ru  Ru27  1  0.000000  0.500000  0.500000  1
  Ru  Ru28  1  0.500000  0.000000  0.000000  1
  Ru  Ru29  1  0.000000  0.000000  0.000000  1
