# generated using pymatgen
data_Dy7YRe2(OsC4)2
_symmetry_space_group_name_H-M   'P 1'
_cell_length_a   5.11880000
_cell_length_b   6.53856884
_cell_length_c   9.83739907
_cell_angle_alpha   89.77854209
_cell_angle_beta   90.00000000
_cell_angle_gamma   90.00000000
_symmetry_Int_Tables_number   1
_chemical_formula_structural   Dy7YRe2(OsC4)2
_chemical_formula_sum   'Dy7 Y1 Re2 Os2 C8'
_cell_volume   329.25160991
_cell_formula_units_Z   1
loop_
 _symmetry_equiv_pos_site_id
 _symmetry_equiv_pos_as_xyz
  1  'x, y, z'
loop_
 _atom_site_type_symbol
 _atom_site_label
 _atom_site_symmetry_multiplicity
 _atom_site_fract_x
 _atom_site_fract_y
 _atom_site_fract_z
 _atom_site_occupancy
  Dy  Dy0  1  0.250000  0.679042  0.554716  1
  Dy  Dy1  1  0.750000  0.320821  0.445320  1
  Dy  Dy2  1  0.750000  0.819644  0.055198  1
  Dy  Dy3  1  0.250000  0.180370  0.944728  1
  Dy  Dy4  1  0.250000  0.531650  0.215531  1
  Dy  Dy5  1  0.750000  0.468325  0.784504  1
  Dy  Dy6  1  0.750000  0.970065  0.714190  1
  Y  Y7  1  0.250000  0.030020  0.285777  1
  Re  Re8  1  0.250000  0.722940  0.864607  1
  Re  Re9  1  0.750000  0.277175  0.135338  1
  Os  Os10  1  0.750000  0.775590  0.364240  1
  Os  Os11  1  0.250000  0.224202  0.635844  1
  C  C12  1  0.250000  0.457242  0.759843  1
  C  C13  1  0.750000  0.542776  0.240146  1
  C  C14  1  0.750000  0.042247  0.258664  1
  C  C15  1  0.250000  0.957730  0.741349  1
  C  C16  1  0.250000  0.821992  0.050166  1
  C  C17  1  0.750000  0.177958  0.949746  1
  C  C18  1  0.750000  0.677035  0.549309  1
  C  C19  1  0.250000  0.323178  0.450782  1
