# generated using pymatgen
data_Y2Lu14Tl5InCo2
_symmetry_space_group_name_H-M   'P 1'
_cell_length_a   10.14598700
_cell_length_b   10.13977856
_cell_length_c   6.98962400
_cell_angle_alpha   89.99957538
_cell_angle_beta   90.00000000
_cell_angle_gamma   120.02026610
_symmetry_Int_Tables_number   1
_chemical_formula_structural   Y2Lu14Tl5InCo2
_chemical_formula_sum   'Y2 Lu14 Tl5 In1 Co2'
_cell_volume   622.61344129
_cell_formula_units_Z   1
loop_
 _symmetry_equiv_pos_site_id
 _symmetry_equiv_pos_as_xyz
  1  'x, y, z'
loop_
 _atom_site_type_symbol
 _atom_site_label
 _atom_site_symmetry_multiplicity
 _atom_site_fract_x
 _atom_site_fract_y
 _atom_site_fract_z
 _atom_site_occupancy
  Y  Y0  1  0.999449  0.998898  0.496621  1
  Y  Y1  1  0.999500  0.999000  0.995480  1
  Lu  Lu2  1  0.464454  0.537011  0.481743  1
  Lu  Lu3  1  0.072559  0.537011  0.481743  1
  Lu  Lu4  1  0.463301  0.926601  0.480721  1
  Lu  Lu5  1  0.536624  0.463288  0.980535  1
  Lu  Lu6  1  0.926663  0.463288  0.980535  1
  Lu  Lu7  1  0.536834  0.073669  0.980931  1
  Lu  Lu8  1  0.819971  0.180399  0.279097  1
  Lu  Lu9  1  0.360429  0.180399  0.279097  1
  Lu  Lu10  1  0.819873  0.639746  0.277463  1
  Lu  Lu11  1  0.180586  0.819909  0.779109  1
  Lu  Lu12  1  0.639324  0.819909  0.779109  1
  Lu  Lu13  1  0.180221  0.360443  0.778941  1
  Lu  Lu14  1  0.333261  0.666523  0.090627  1
  Lu  Lu15  1  0.666802  0.333603  0.590335  1
  Tl  Tl16  1  0.163245  0.836846  0.232868  1
  Tl  Tl17  1  0.673600  0.836846  0.232868  1
  Tl  Tl18  1  0.163206  0.326414  0.233017  1
  Tl  Tl19  1  0.836876  0.163221  0.732722  1
  Tl  Tl20  1  0.326346  0.163221  0.732722  1
  In  In21  1  0.836939  0.673877  0.733236  1
  Co  Co22  1  0.333385  0.666772  0.707411  1
  Co  Co23  1  0.666553  0.333105  0.207618  1
