# generated using pymatgen
data_PrMnRhO5
_symmetry_space_group_name_H-M   'P 1'
_cell_length_a   6.03923900
_cell_length_b   7.56338600
_cell_length_c   8.86740800
_cell_angle_alpha   90.00000000
_cell_angle_beta   90.00000000
_cell_angle_gamma   90.00000000
_symmetry_Int_Tables_number   1
_chemical_formula_structural   PrMnRhO5
_chemical_formula_sum   'Pr4 Mn4 Rh4 O20'
_cell_volume   405.03744386
_cell_formula_units_Z   4
loop_
 _symmetry_equiv_pos_site_id
 _symmetry_equiv_pos_as_xyz
  1  'x, y, z'
loop_
 _atom_site_type_symbol
 _atom_site_label
 _atom_site_symmetry_multiplicity
 _atom_site_fract_x
 _atom_site_fract_y
 _atom_site_fract_z
 _atom_site_occupancy
  Pr  Pr0  1  0.000000  0.361841  0.672056  1
  Pr  Pr1  1  0.000000  0.638159  0.327944  1
  Pr  Pr2  1  0.000000  0.861841  0.827944  1
  Pr  Pr3  1  0.000000  0.138159  0.172056  1
  Mn  Mn4  1  0.500000  0.088024  0.852196  1
  Mn  Mn5  1  0.500000  0.911976  0.147804  1
  Mn  Mn6  1  0.500000  0.588024  0.647804  1
  Mn  Mn7  1  0.500000  0.411976  0.352196  1
  Rh  Rh8  1  0.254692  0.500000  0.000000  1
  Rh  Rh9  1  0.745308  0.000000  0.500000  1
  Rh  Rh10  1  0.745308  0.500000  0.000000  1
  Rh  Rh11  1  0.254692  0.000000  0.500000  1
  O  O12  1  0.246146  0.899492  0.286223  1
  O  O13  1  0.246146  0.100508  0.713777  1
  O  O14  1  0.753854  0.399492  0.213777  1
  O  O15  1  0.753854  0.600508  0.786223  1
  O  O16  1  0.753854  0.100508  0.713777  1
  O  O17  1  0.753854  0.899492  0.286223  1
  O  O18  1  0.246146  0.600508  0.786223  1
  O  O19  1  0.246146  0.399492  0.213777  1
  O  O20  1  0.500000  0.347373  0.934144  1
  O  O21  1  0.500000  0.652627  0.065856  1
  O  O22  1  0.500000  0.847373  0.565856  1
  O  O23  1  0.500000  0.152627  0.434144  1
  O  O24  1  0.282510  0.000000  0.000000  1
  O  O25  1  0.717490  0.500000  0.500000  1
  O  O26  1  0.717490  0.000000  0.000000  1
  O  O27  1  0.282510  0.500000  0.500000  1
  O  O28  1  0.000000  0.166657  0.445649  1
  O  O29  1  0.000000  0.833343  0.554351  1
  O  O30  1  0.000000  0.666657  0.054351  1
  O  O31  1  0.000000  0.333343  0.945649  1
