# generated using pymatgen
data_Hf4Ir2C
_symmetry_space_group_name_H-M   'P 1'
_cell_length_a   8.77209899
_cell_length_b   8.77223008
_cell_length_c   8.77173208
_cell_angle_alpha   59.98913317
_cell_angle_beta   59.98930700
_cell_angle_gamma   59.99128209
_symmetry_Int_Tables_number   1
_chemical_formula_structural   Hf4Ir2C
_chemical_formula_sum   'Hf16 Ir8 C4'
_cell_volume   477.18249415
_cell_formula_units_Z   4
loop_
 _symmetry_equiv_pos_site_id
 _symmetry_equiv_pos_as_xyz
  1  'x, y, z'
loop_
 _atom_site_type_symbol
 _atom_site_label
 _atom_site_symmetry_multiplicity
 _atom_site_fract_x
 _atom_site_fract_y
 _atom_site_fract_z
 _atom_site_occupancy
  Hf  Hf0  1  0.125000  0.625000  0.625000  1
  Hf  Hf1  1  0.625000  0.125000  0.625000  1
  Hf  Hf2  1  0.625000  0.625000  0.125000  1
  Hf  Hf3  1  0.625000  0.625000  0.625000  1
  Hf  Hf4  1  0.815950  0.815947  0.184053  1
  Hf  Hf5  1  0.184038  0.184030  0.815992  1
  Hf  Hf6  1  0.815937  0.184054  0.815953  1
  Hf  Hf7  1  0.184038  0.815977  0.184044  1
  Hf  Hf8  1  0.184052  0.815938  0.815959  1
  Hf  Hf9  1  0.815975  0.184035  0.184050  1
  Hf  Hf10  1  0.434050  0.434053  0.065947  1
  Hf  Hf11  1  0.065962  0.065970  0.434008  1
  Hf  Hf12  1  0.434063  0.065946  0.434047  1
  Hf  Hf13  1  0.065962  0.434023  0.065956  1
  Hf  Hf14  1  0.065948  0.434062  0.434041  1
  Hf  Hf15  1  0.434025  0.065965  0.065950  1
  Ir  Ir16  1  0.758892  0.413678  0.413679  1
  Ir  Ir17  1  0.413689  0.758907  0.413666  1
  Ir  Ir18  1  0.413698  0.413675  0.758872  1
  Ir  Ir19  1  0.413720  0.413698  0.413701  1
  Ir  Ir20  1  0.491108  0.836322  0.836321  1
  Ir  Ir21  1  0.836311  0.491093  0.836334  1
  Ir  Ir22  1  0.836302  0.836325  0.491128  1
  Ir  Ir23  1  0.836280  0.836302  0.836299  1
  C  C24  1  0.625000  0.125000  0.125000  1
  C  C25  1  0.125000  0.625000  0.125000  1
  C  C26  1  0.125000  0.125000  0.625000  1
  C  C27  1  0.125000  0.125000  0.125000  1
