# generated using pymatgen
data_CaPrNd5OsBr12
_symmetry_space_group_name_H-M   'P 1'
_cell_length_a   9.56886580
_cell_length_b   9.69252983
_cell_length_c   9.57569638
_cell_angle_alpha   107.07084012
_cell_angle_beta   106.84194595
_cell_angle_gamma   107.28698698
_symmetry_Int_Tables_number   1
_chemical_formula_structural   CaPrNd5OsBr12
_chemical_formula_sum   'Ca1 Pr1 Nd5 Os1 Br12'
_cell_volume   738.27229374
_cell_formula_units_Z   1
loop_
 _symmetry_equiv_pos_site_id
 _symmetry_equiv_pos_as_xyz
  1  'x, y, z'
loop_
 _atom_site_type_symbol
 _atom_site_label
 _atom_site_symmetry_multiplicity
 _atom_site_fract_x
 _atom_site_fract_y
 _atom_site_fract_z
 _atom_site_occupancy
  Ca  Ca0  1  0.499876  0.500106  0.500243  1
  Pr  Pr1  1  0.313089  0.104160  0.025555  1
  Nd  Nd2  1  0.027206  0.321529  0.108613  1
  Nd  Nd3  1  0.104035  0.026069  0.310667  1
  Nd  Nd4  1  0.895133  0.973729  0.688933  1
  Nd  Nd5  1  0.973023  0.678398  0.891375  1
  Nd  Nd6  1  0.688787  0.896023  0.974211  1
  Os  Os7  1  0.000079  0.999940  0.999745  1
  Br  Br8  1  0.685463  0.218860  0.069440  1
  Br  Br9  1  0.379419  0.457686  0.167164  1
  Br  Br10  1  0.069456  0.685162  0.220123  1
  Br  Br11  1  0.779977  0.931454  0.315931  1
  Br  Br12  1  0.457563  0.168704  0.381996  1
  Br  Br13  1  0.164706  0.377303  0.455933  1
  Br  Br14  1  0.834920  0.622597  0.543968  1
  Br  Br15  1  0.542491  0.831885  0.620740  1
  Br  Br16  1  0.218273  0.067993  0.681235  1
  Br  Br17  1  0.930347  0.314774  0.779773  1
  Br  Br18  1  0.620628  0.544877  0.834272  1
  Br  Br19  1  0.315533  0.778753  0.930088  1
