# generated using pymatgen
data_NdGePRu2
_symmetry_space_group_name_H-M   'P 1'
_cell_length_a   5.81973045
_cell_length_b   5.81973060
_cell_length_c   5.81973049
_cell_angle_alpha   137.85092569
_cell_angle_beta   137.85093249
_cell_angle_gamma   61.13138558
_symmetry_Int_Tables_number   1
_chemical_formula_structural   NdGePRu2
_chemical_formula_sum   'Nd1 Ge1 P1 Ru2'
_cell_volume   87.77917844
_cell_formula_units_Z   1
loop_
 _symmetry_equiv_pos_site_id
 _symmetry_equiv_pos_as_xyz
  1  'x, y, z'
loop_
 _atom_site_type_symbol
 _atom_site_label
 _atom_site_symmetry_multiplicity
 _atom_site_fract_x
 _atom_site_fract_y
 _atom_site_fract_z
 _atom_site_occupancy
  Nd  Nd0  1  0.001798  0.001798  0.000000  1
  Ge  Ge1  1  0.374378  0.374378  0.000000  1
  P  P2  1  0.638238  0.638238  0.000000  1
  Ru  Ru3  1  0.242793  0.742793  0.500000  1
  Ru  Ru4  1  0.742793  0.242793  0.500000  1
