# generated using pymatgen
data_TbNd19Si15Pd
_symmetry_space_group_name_H-M   'P 1'
_cell_length_a   7.79491818
_cell_length_b   7.93140209
_cell_length_c   15.14398405
_cell_angle_alpha   89.69345059
_cell_angle_beta   89.45898094
_cell_angle_gamma   90.07089601
_symmetry_Int_Tables_number   1
_chemical_formula_structural   TbNd19Si15Pd
_chemical_formula_sum   'Tb1 Nd19 Si15 Pd1'
_cell_volume   936.21529997
_cell_formula_units_Z   1
loop_
 _symmetry_equiv_pos_site_id
 _symmetry_equiv_pos_as_xyz
  1  'x, y, z'
loop_
 _atom_site_type_symbol
 _atom_site_label
 _atom_site_symmetry_multiplicity
 _atom_site_fract_x
 _atom_site_fract_y
 _atom_site_fract_z
 _atom_site_occupancy
  Tb  Tb0  1  0.137259  0.511946  0.748099  1
  Nd  Nd1  1  0.813407  0.327681  0.618100  1
  Nd  Nd2  1  0.456889  0.686514  0.898017  1
  Nd  Nd3  1  0.957244  0.813562  0.897507  1
  Nd  Nd4  1  0.186516  0.682697  0.120470  1
  Nd  Nd5  1  0.691644  0.819442  0.120756  1
  Nd  Nd6  1  0.308385  0.179485  0.878287  1
  Nd  Nd7  1  0.188826  0.677904  0.380052  1
  Nd  Nd8  1  0.042974  0.187105  0.102773  1
  Nd  Nd9  1  0.313298  0.180057  0.622084  1
  Nd  Nd10  1  0.856804  0.490580  0.256056  1
  Nd  Nd11  1  0.363197  0.008254  0.251561  1
  Nd  Nd12  1  0.533508  0.312775  0.396850  1
  Nd  Nd13  1  0.810642  0.318369  0.878635  1
  Nd  Nd14  1  0.964678  0.817544  0.601462  1
  Nd  Nd15  1  0.460434  0.687043  0.603471  1
  Nd  Nd16  1  0.042938  0.181751  0.397683  1
  Nd  Nd17  1  0.688394  0.818328  0.381551  1
  Nd  Nd18  1  0.638246  0.992746  0.748915  1
  Nd  Nd19  1  0.543054  0.312598  0.102077  1
  Si  Si20  1  0.479250  0.602356  0.246591  1
  Si  Si21  1  0.249436  0.378865  0.247476  1
  Si  Si22  1  0.515391  0.401572  0.751164  1
  Si  Si23  1  0.631846  0.025501  0.958303  1
  Si  Si24  1  0.016838  0.103843  0.749643  1
  Si  Si25  1  0.750681  0.621237  0.750300  1
  Si  Si26  1  0.751273  0.120599  0.248937  1
  Si  Si27  1  0.364603  0.970919  0.460625  1
  Si  Si28  1  0.981832  0.898800  0.248991  1
  Si  Si29  1  0.366275  0.974436  0.041222  1
  Si  Si30  1  0.635990  0.026153  0.541585  1
  Si  Si31  1  0.134284  0.474791  0.957206  1
  Si  Si32  1  0.146960  0.475134  0.544506  1
  Si  Si33  1  0.867568  0.525085  0.039875  1
  Si  Si34  1  0.245984  0.874564  0.751075  1
  Pd  Pd35  1  0.863450  0.519762  0.458096  1
