# generated using pymatgen
data_Fe6Mo6As
_symmetry_space_group_name_H-M   'P 1'
_cell_length_a   9.01792480
_cell_length_b   9.01792448
_cell_length_c   9.01792510
_cell_angle_alpha   30.73756920
_cell_angle_beta   30.73757459
_cell_angle_gamma   30.73757454
_symmetry_Int_Tables_number   1
_chemical_formula_structural   Fe6Mo6As
_chemical_formula_sum   'Fe6 Mo6 As1'
_cell_volume   169.88305917
_cell_formula_units_Z   1
loop_
 _symmetry_equiv_pos_site_id
 _symmetry_equiv_pos_as_xyz
  1  'x, y, z'
loop_
 _atom_site_type_symbol
 _atom_site_label
 _atom_site_symmetry_multiplicity
 _atom_site_fract_x
 _atom_site_fract_y
 _atom_site_fract_z
 _atom_site_occupancy
  Fe  Fe0  1  0.584065  0.091720  0.091720  1
  Fe  Fe1  1  0.091720  0.091720  0.584065  1
  Fe  Fe2  1  0.908280  0.908280  0.415935  1
  Fe  Fe3  1  0.908280  0.415935  0.908280  1
  Fe  Fe4  1  0.091720  0.584065  0.091720  1
  Fe  Fe5  1  0.415935  0.908280  0.908280  1
  Mo  Mo6  1  0.350459  0.350459  0.350459  1
  Mo  Mo7  1  0.168082  0.168082  0.168082  1
  Mo  Mo8  1  0.548584  0.548584  0.548584  1
  Mo  Mo9  1  0.649541  0.649541  0.649541  1
  Mo  Mo10  1  0.451416  0.451416  0.451416  1
  Mo  Mo11  1  0.831918  0.831918  0.831918  1
  As  As12  1  0.000000  0.000000  0.000000  1
