# generated using pymatgen
data_Tb3Sn3PtRh2
_symmetry_space_group_name_H-M   'P 1'
_cell_length_a   7.60963000
_cell_length_b   7.60962873
_cell_length_c   3.88627000
_cell_angle_alpha   90.00000000
_cell_angle_beta   90.00000000
_cell_angle_gamma   119.99999684
_symmetry_Int_Tables_number   1
_chemical_formula_structural   Tb3Sn3PtRh2
_chemical_formula_sum   'Tb3 Sn3 Pt1 Rh2'
_cell_volume   194.89047963
_cell_formula_units_Z   1
loop_
 _symmetry_equiv_pos_site_id
 _symmetry_equiv_pos_as_xyz
  1  'x, y, z'
loop_
 _atom_site_type_symbol
 _atom_site_label
 _atom_site_symmetry_multiplicity
 _atom_site_fract_x
 _atom_site_fract_y
 _atom_site_fract_z
 _atom_site_occupancy
  Tb  Tb0  1  0.408910  0.004643  0.500000  1
  Tb  Tb1  1  0.995357  0.404268  0.500000  1
  Tb  Tb2  1  0.595732  0.591090  0.500000  1
  Sn  Sn3  1  0.743565  0.004158  0.000000  1
  Sn  Sn4  1  0.995842  0.739407  0.000000  1
  Sn  Sn5  1  0.260593  0.256435  0.000000  1
  Pt  Pt6  1  0.333333  0.666667  0.000000  1
  Rh  Rh7  1  0.666667  0.333333  0.000000  1
  Rh  Rh8  1  0.000000  0.000000  0.500000  1
