# generated using pymatgen
data_RbTiTc2Te3
_symmetry_space_group_name_H-M   'P 1'
_cell_length_a   10.22144341
_cell_length_b   10.03717132
_cell_length_c   4.55481600
_cell_angle_alpha   90.00000000
_cell_angle_beta   90.00000000
_cell_angle_gamma   120.36672857
_symmetry_Int_Tables_number   1
_chemical_formula_structural   RbTiTc2Te3
_chemical_formula_sum   'Rb2 Ti2 Tc4 Te6'
_cell_volume   403.18860721
_cell_formula_units_Z   2
loop_
 _symmetry_equiv_pos_site_id
 _symmetry_equiv_pos_as_xyz
  1  'x, y, z'
loop_
 _atom_site_type_symbol
 _atom_site_label
 _atom_site_symmetry_multiplicity
 _atom_site_fract_x
 _atom_site_fract_y
 _atom_site_fract_z
 _atom_site_occupancy
  Rb  Rb0  1  0.339430  0.670154  0.250000  1
  Rb  Rb1  1  0.667329  0.330891  0.750000  1
  Ti  Ti2  1  0.972946  0.142030  0.750000  1
  Ti  Ti3  1  0.855465  0.832045  0.750000  1
  Tc  Tc4  1  0.831994  0.973861  0.250000  1
  Tc  Tc5  1  0.135760  0.161413  0.250000  1
  Tc  Tc6  1  0.023686  0.862885  0.250000  1
  Tc  Tc7  1  0.155482  0.023661  0.750000  1
  Te  Te8  1  0.333675  0.051420  0.250000  1
  Te  Te9  1  0.953537  0.292108  0.250000  1
  Te  Te10  1  0.715178  0.657025  0.250000  1
  Te  Te11  1  0.649736  0.948098  0.750000  1
  Te  Te12  1  0.302939  0.340234  0.750000  1
  Te  Te13  1  0.062845  0.714173  0.750000  1
