# generated using pymatgen
data_Sm8Y11ErSn16
_symmetry_space_group_name_H-M   'P 1'
_cell_length_a   8.05035100
_cell_length_b   8.24108019
_cell_length_c   15.56709200
_cell_angle_alpha   90.00000000
_cell_angle_beta   90.00000000
_cell_angle_gamma   89.98757595
_symmetry_Int_Tables_number   1
_chemical_formula_structural   Sm8Y11ErSn16
_chemical_formula_sum   'Sm8 Y11 Er1 Sn16'
_cell_volume   1032.77671651
_cell_formula_units_Z   1
loop_
 _symmetry_equiv_pos_site_id
 _symmetry_equiv_pos_as_xyz
  1  'x, y, z'
loop_
 _atom_site_type_symbol
 _atom_site_label
 _atom_site_symmetry_multiplicity
 _atom_site_fract_x
 _atom_site_fract_y
 _atom_site_fract_z
 _atom_site_occupancy
  Sm  Sm0  1  0.513245  0.321453  0.903740  1
  Sm  Sm1  1  0.013302  0.178551  0.596050  1
  Sm  Sm2  1  0.486257  0.678969  0.403493  1
  Sm  Sm3  1  0.986670  0.821802  0.096622  1
  Sm  Sm4  1  0.486257  0.678969  0.096507  1
  Sm  Sm5  1  0.986670  0.821802  0.403378  1
  Sm  Sm6  1  0.513245  0.321453  0.596260  1
  Sm  Sm7  1  0.013302  0.178551  0.903950  1
  Y  Y8  1  0.358314  0.835785  0.877210  1
  Y  Y9  1  0.858335  0.664368  0.623129  1
  Y  Y10  1  0.641556  0.163901  0.376497  1
  Y  Y11  1  0.141924  0.335580  0.123622  1
  Y  Y12  1  0.641556  0.163901  0.123503  1
  Y  Y13  1  0.141924  0.335580  0.376378  1
  Y  Y14  1  0.358314  0.835785  0.622790  1
  Y  Y15  1  0.858335  0.664368  0.876871  1
  Y  Y16  1  0.191189  0.501539  0.750000  1
  Y  Y17  1  0.691103  0.998520  0.750000  1
  Y  Y18  1  0.809286  0.498804  0.250000  1
  Er  Er19  1  0.309278  0.002200  0.250000  1
  Sn  Sn20  1  0.303085  0.038552  0.042485  1
  Sn  Sn21  1  0.803112  0.460486  0.458332  1
  Sn  Sn22  1  0.696823  0.960699  0.541114  1
  Sn  Sn23  1  0.196504  0.539135  0.958949  1
  Sn  Sn24  1  0.696823  0.960699  0.958886  1
  Sn  Sn25  1  0.196504  0.539135  0.541051  1
  Sn  Sn26  1  0.303085  0.038552  0.457515  1
  Sn  Sn27  1  0.803112  0.460486  0.041668  1
  Sn  Sn28  1  0.556911  0.620229  0.750000  1
  Sn  Sn29  1  0.057282  0.880040  0.750000  1
  Sn  Sn30  1  0.443223  0.379289  0.250000  1
  Sn  Sn31  1  0.944454  0.118669  0.250000  1
  Sn  Sn32  1  0.322174  0.145332  0.750000  1
  Sn  Sn33  1  0.822380  0.354308  0.750000  1
  Sn  Sn34  1  0.675953  0.854492  0.250000  1
  Sn  Sn35  1  0.178516  0.648019  0.250000  1
