# generated using pymatgen
data_HoErCo3Si4Rh3
_symmetry_space_group_name_H-M   'P 1'
_cell_length_a   6.44425626
_cell_length_b   6.49882434
_cell_length_c   6.44598573
_cell_angle_alpha   131.39507187
_cell_angle_beta   114.11081193
_cell_angle_gamma   85.70939792
_symmetry_Int_Tables_number   1
_chemical_formula_structural   HoErCo3Si4Rh3
_chemical_formula_sum   'Ho1 Er1 Co3 Si4 Rh3'
_cell_volume   177.16732602
_cell_formula_units_Z   1
loop_
 _symmetry_equiv_pos_site_id
 _symmetry_equiv_pos_as_xyz
  1  'x, y, z'
loop_
 _atom_site_type_symbol
 _atom_site_label
 _atom_site_symmetry_multiplicity
 _atom_site_fract_x
 _atom_site_fract_y
 _atom_site_fract_z
 _atom_site_occupancy
  Ho  Ho0  1  0.753623  0.035860  0.285792  1
  Er  Er1  1  0.249728  0.962925  0.716490  1
  Co  Co2  1  0.218200  0.500882  0.718351  1
  Co  Co3  1  0.780583  0.500612  0.280594  1
  Co  Co4  1  0.718161  0.000061  0.718691  1
  Si  Si5  1  0.577204  0.378046  0.809928  1
  Si  Si6  1  0.922966  0.723467  0.788485  1
  Si  Si7  1  0.431879  0.621744  0.198853  1
  Si  Si8  1  0.065160  0.276428  0.199316  1
  Rh  Rh9  1  0.500903  0.510439  0.508833  1
  Rh  Rh10  1  0.999034  0.489356  0.990922  1
  Rh  Rh11  1  0.282562  0.000179  0.283745  1
