# generated using pymatgen
data_Hf4Zr4Co16SiP11
_symmetry_space_group_name_H-M   'P 1'
_cell_length_a   12.12882334
_cell_length_b   12.12882411
_cell_length_c   3.65610600
_cell_angle_alpha   90.00000000
_cell_angle_beta   90.00000000
_cell_angle_gamma   120.02971710
_symmetry_Int_Tables_number   1
_chemical_formula_structural   Hf4Zr4Co16SiP11
_chemical_formula_sum   'Hf4 Zr4 Co16 Si1 P11'
_cell_volume   465.64683087
_cell_formula_units_Z   1
loop_
 _symmetry_equiv_pos_site_id
 _symmetry_equiv_pos_as_xyz
  1  'x, y, z'
loop_
 _atom_site_type_symbol
 _atom_site_label
 _atom_site_symmetry_multiplicity
 _atom_site_fract_x
 _atom_site_fract_y
 _atom_site_fract_z
 _atom_site_occupancy
  Hf  Hf0  1  0.441955  0.441955  0.000000  1
  Hf  Hf1  1  0.555993  0.000385  0.000000  1
  Hf  Hf2  1  0.000385  0.555993  0.000000  1
  Hf  Hf3  1  0.826076  0.826076  0.500000  1
  Zr  Zr4  1  0.666956  0.333883  0.000000  1
  Zr  Zr5  1  0.333883  0.666956  0.000000  1
  Zr  Zr6  1  0.176280  0.999710  0.500000  1
  Zr  Zr7  1  0.999710  0.176280  0.500000  1
  Co  Co8  1  0.193068  0.371833  0.000000  1
  Co  Co9  1  0.177819  0.806198  0.000000  1
  Co  Co10  1  0.825480  0.628421  0.000000  1
  Co  Co11  1  0.806198  0.177819  0.000000  1
  Co  Co12  1  0.371833  0.193068  0.000000  1
  Co  Co13  1  0.125646  0.480772  0.500000  1
  Co  Co14  1  0.354645  0.874287  0.500000  1
  Co  Co15  1  0.517454  0.644433  0.500000  1
  Co  Co16  1  0.644433  0.517454  0.500000  1
  Co  Co17  1  0.874287  0.354645  0.500000  1
  Co  Co18  1  0.480772  0.125646  0.500000  1
  Co  Co19  1  0.999681  0.999681  0.000000  1
  Co  Co20  1  0.721890  0.001403  0.500000  1
  Co  Co21  1  0.001403  0.721890  0.500000  1
  Co  Co22  1  0.628421  0.825480  0.000000  1
  Co  Co23  1  0.278083  0.278083  0.500000  1
  Si  Si24  1  0.654694  0.654694  0.000000  1
  P  P25  1  0.345879  0.999772  0.000000  1
  P  P26  1  0.999772  0.345879  0.000000  1
  P  P27  1  0.481416  0.308301  0.500000  1
  P  P28  1  0.691037  0.173208  0.500000  1
  P  P29  1  0.827080  0.518330  0.500000  1
  P  P30  1  0.518330  0.827080  0.500000  1
  P  P31  1  0.173208  0.691037  0.500000  1
  P  P32  1  0.824296  0.998712  0.000000  1
  P  P33  1  0.998712  0.824296  0.000000  1
  P  P34  1  0.308301  0.481416  0.500000  1
  P  P35  1  0.174923  0.174923  0.000000  1
