# generated using pymatgen
data_Na3Ga4AgI16
_symmetry_space_group_name_H-M   'P 1'
_cell_length_a   8.18610563
_cell_length_b   8.40235194
_cell_length_c   15.73766186
_cell_angle_alpha   87.21991604
_cell_angle_beta   90.04322115
_cell_angle_gamma   89.79600623
_symmetry_Int_Tables_number   1
_chemical_formula_structural   Na3Ga4AgI16
_chemical_formula_sum   'Na3 Ga4 Ag1 I16'
_cell_volume   1081.19503295
_cell_formula_units_Z   1
loop_
 _symmetry_equiv_pos_site_id
 _symmetry_equiv_pos_as_xyz
  1  'x, y, z'
loop_
 _atom_site_type_symbol
 _atom_site_label
 _atom_site_symmetry_multiplicity
 _atom_site_fract_x
 _atom_site_fract_y
 _atom_site_fract_z
 _atom_site_occupancy
  Na  Na0  1  0.488872  0.841241  0.871172  1
  Na  Na1  1  0.508616  0.153411  0.130692  1
  Na  Na2  1  0.990926  0.157391  0.628890  1
  Ga  Ga3  1  0.173618  0.712325  0.598793  1
  Ga  Ga4  1  0.827708  0.293356  0.398679  1
  Ga  Ga5  1  0.680848  0.289091  0.899229  1
  Ga  Ga6  1  0.315361  0.709640  0.104482  1
  Ag  Ag7  1  0.014425  0.841835  0.366445  1
  I  I8  1  0.200426  0.452617  0.691530  1
  I  I9  1  0.817035  0.559598  0.309060  1
  I  I10  1  0.697919  0.547566  0.804897  1
  I  I11  1  0.305599  0.446892  0.195914  1
  I  I12  1  0.318431  0.937218  0.680645  1
  I  I13  1  0.703262  0.057151  0.315928  1
  I  I14  1  0.817035  0.059997  0.816476  1
  I  I15  1  0.174077  0.930783  0.191926  1
  I  I16  1  0.169283  0.694926  0.959801  1
  I  I17  1  0.826054  0.308085  0.043583  1
  I  I18  1  0.673615  0.310755  0.540680  1
  I  I19  1  0.302775  0.697728  0.449019  1
  I  I20  1  0.873544  0.803946  0.572044  1
  I  I21  1  0.125224  0.192354  0.427682  1
  I  I22  1  0.379308  0.200132  0.927536  1
  I  I23  1  0.616039  0.801963  0.074901  1
