# generated using pymatgen
data_Sr3Al12IrRh3
_symmetry_space_group_name_H-M   'P 1'
_cell_length_a   8.97848700
_cell_length_b   8.97848553
_cell_length_c   9.69608700
_cell_angle_alpha   90.00000000
_cell_angle_beta   90.00000000
_cell_angle_gamma   119.99999436
_symmetry_Int_Tables_number   1
_chemical_formula_structural   Sr3Al12IrRh3
_chemical_formula_sum   'Sr6 Al24 Ir2 Rh6'
_cell_volume   676.91385820
_cell_formula_units_Z   2
loop_
 _symmetry_equiv_pos_site_id
 _symmetry_equiv_pos_as_xyz
  1  'x, y, z'
loop_
 _atom_site_type_symbol
 _atom_site_label
 _atom_site_symmetry_multiplicity
 _atom_site_fract_x
 _atom_site_fract_y
 _atom_site_fract_z
 _atom_site_occupancy
  Sr  Sr0  1  0.191767  0.383533  0.250000  1
  Sr  Sr1  1  0.808233  0.616467  0.750000  1
  Sr  Sr2  1  0.616467  0.808233  0.250000  1
  Sr  Sr3  1  0.383533  0.191767  0.750000  1
  Sr  Sr4  1  0.191767  0.808233  0.250000  1
  Sr  Sr5  1  0.808233  0.191767  0.750000  1
  Al  Al6  1  0.333333  0.666667  0.992594  1
  Al  Al7  1  0.666667  0.333333  0.007406  1
  Al  Al8  1  0.666667  0.333333  0.492594  1
  Al  Al9  1  0.333333  0.666667  0.507406  1
  Al  Al10  1  0.162711  0.325421  0.577991  1
  Al  Al11  1  0.837289  0.674579  0.422009  1
  Al  Al12  1  0.674579  0.837289  0.577991  1
  Al  Al13  1  0.837289  0.674579  0.077991  1
  Al  Al14  1  0.325421  0.162711  0.422009  1
  Al  Al15  1  0.162711  0.325421  0.922009  1
  Al  Al16  1  0.162711  0.837289  0.577991  1
  Al  Al17  1  0.325421  0.162711  0.077991  1
  Al  Al18  1  0.837289  0.162711  0.422009  1
  Al  Al19  1  0.674579  0.837289  0.922009  1
  Al  Al20  1  0.837289  0.162711  0.077991  1
  Al  Al21  1  0.162711  0.837289  0.922009  1
  Al  Al22  1  0.562946  0.125890  0.250000  1
  Al  Al23  1  0.437054  0.874110  0.750000  1
  Al  Al24  1  0.874110  0.437054  0.250000  1
  Al  Al25  1  0.125890  0.562946  0.750000  1
  Al  Al26  1  0.562946  0.437054  0.250000  1
  Al  Al27  1  0.437054  0.562946  0.750000  1
  Al  Al28  1  0.000000  0.000000  0.250000  1
  Al  Al29  1  0.000000  0.000000  0.750000  1
  Ir  Ir30  1  0.000000  0.000000  0.000000  1
  Ir  Ir31  1  0.000000  0.000000  0.500000  1
  Rh  Rh32  1  0.500000  0.000000  0.000000  1
  Rh  Rh33  1  0.000000  0.500000  0.000000  1
  Rh  Rh34  1  0.500000  0.000000  0.500000  1
  Rh  Rh35  1  0.500000  0.500000  0.000000  1
  Rh  Rh36  1  0.000000  0.500000  0.500000  1
  Rh  Rh37  1  0.500000  0.500000  0.500000  1
