# generated using pymatgen
data_Nb4Ni(RhSe6)2
_symmetry_space_group_name_H-M   'P 1'
_cell_length_a   7.53938304
_cell_length_b   7.53938180
_cell_length_c   19.52611726
_cell_angle_alpha   68.69659318
_cell_angle_beta   68.69659694
_cell_angle_gamma   26.72950103
_symmetry_Int_Tables_number   1
_chemical_formula_structural   Nb4Ni(RhSe6)2
_chemical_formula_sum   'Nb4 Ni1 Rh2 Se12'
_cell_volume   463.10193497
_cell_formula_units_Z   1
loop_
 _symmetry_equiv_pos_site_id
 _symmetry_equiv_pos_as_xyz
  1  'x, y, z'
loop_
 _atom_site_type_symbol
 _atom_site_label
 _atom_site_symmetry_multiplicity
 _atom_site_fract_x
 _atom_site_fract_y
 _atom_site_fract_z
 _atom_site_occupancy
  Nb  Nb0  1  0.744644  0.744644  0.592768  1
  Nb  Nb1  1  0.255356  0.255356  0.407232  1
  Nb  Nb2  1  0.618459  0.618459  0.853181  1
  Nb  Nb3  1  0.381541  0.381541  0.146819  1
  Ni  Ni4  1  0.000000  0.000000  0.000000  1
  Rh  Rh5  1  0.773368  0.773368  0.280276  1
  Rh  Rh6  1  0.226632  0.226632  0.719724  1
  Se  Se7  1  0.861325  0.861325  0.449198  1
  Se  Se8  1  0.025938  0.025938  0.110743  1
  Se  Se9  1  0.801786  0.801786  0.772050  1
  Se  Se10  1  0.398376  0.398376  0.278754  1
  Se  Se11  1  0.169694  0.169694  0.933459  1
  Se  Se12  1  0.601624  0.601624  0.721246  1
  Se  Se13  1  0.138675  0.138675  0.550802  1
  Se  Se14  1  0.830306  0.830306  0.066541  1
  Se  Se15  1  0.371381  0.371381  0.600444  1
  Se  Se16  1  0.974062  0.974062  0.889257  1
  Se  Se17  1  0.198214  0.198214  0.227950  1
  Se  Se18  1  0.628619  0.628619  0.399556  1
