# generated using pymatgen
data_TbY2Ga6Ni4Rh5
_symmetry_space_group_name_H-M   'P 1'
_cell_length_a   9.47476443
_cell_length_b   9.47476385
_cell_length_c   3.89412300
_cell_angle_alpha   90.00000000
_cell_angle_beta   90.00000000
_cell_angle_gamma   121.05319764
_symmetry_Int_Tables_number   1
_chemical_formula_structural   TbY2Ga6Ni4Rh5
_chemical_formula_sum   'Tb1 Y2 Ga6 Ni4 Rh5'
_cell_volume   299.48117938
_cell_formula_units_Z   1
loop_
 _symmetry_equiv_pos_site_id
 _symmetry_equiv_pos_as_xyz
  1  'x, y, z'
loop_
 _atom_site_type_symbol
 _atom_site_label
 _atom_site_symmetry_multiplicity
 _atom_site_fract_x
 _atom_site_fract_y
 _atom_site_fract_z
 _atom_site_occupancy
  Tb  Tb0  1  0.002733  0.997267  0.000000  1
  Y  Y1  1  0.334293  0.665707  0.500000  1
  Y  Y2  1  0.664143  0.335857  0.500000  1
  Ga  Ga3  1  0.328395  0.331731  0.500000  1
  Ga  Ga4  1  0.680476  0.013116  0.500000  1
  Ga  Ga5  1  0.668269  0.671605  0.500000  1
  Ga  Ga6  1  0.986884  0.319524  0.500000  1
  Ga  Ga7  1  0.000630  0.664959  0.500000  1
  Ga  Ga8  1  0.335041  0.999370  0.500000  1
  Ni  Ni9  1  0.819134  0.180866  0.000000  1
  Ni  Ni10  1  0.510872  0.010597  0.000000  1
  Ni  Ni11  1  0.989403  0.489128  0.000000  1
  Ni  Ni12  1  0.496198  0.503802  0.000000  1
  Rh  Rh13  1  0.171842  0.354562  0.000000  1
  Rh  Rh14  1  0.818343  0.637084  0.000000  1
  Rh  Rh15  1  0.184992  0.815008  0.000000  1
  Rh  Rh16  1  0.645438  0.828158  0.000000  1
  Rh  Rh17  1  0.362916  0.181657  0.000000  1
