# generated using pymatgen
data_Th2Sc3GaSb3
_symmetry_space_group_name_H-M   'P 1'
_cell_length_a   7.80108100
_cell_length_b   7.74309300
_cell_length_c   14.76729500
_cell_angle_alpha   90.00000000
_cell_angle_beta   90.00000000
_cell_angle_gamma   90.00000000
_symmetry_Int_Tables_number   1
_chemical_formula_structural   Th2Sc3GaSb3
_chemical_formula_sum   'Th8 Sc12 Ga4 Sb12'
_cell_volume   892.01100708
_cell_formula_units_Z   4
loop_
 _symmetry_equiv_pos_site_id
 _symmetry_equiv_pos_as_xyz
  1  'x, y, z'
loop_
 _atom_site_type_symbol
 _atom_site_label
 _atom_site_symmetry_multiplicity
 _atom_site_fract_x
 _atom_site_fract_y
 _atom_site_fract_z
 _atom_site_occupancy
  Th  Th0  1  0.013689  0.683896  0.597455  1
  Th  Th1  1  0.986311  0.316104  0.402545  1
  Th  Th2  1  0.486311  0.183896  0.402545  1
  Th  Th3  1  0.986311  0.316104  0.097455  1
  Th  Th4  1  0.513689  0.816104  0.597455  1
  Th  Th5  1  0.013689  0.683896  0.902545  1
  Th  Th6  1  0.513689  0.816104  0.902545  1
  Th  Th7  1  0.486311  0.183896  0.097455  1
  Sc  Sc8  1  0.177688  0.992214  0.750000  1
  Sc  Sc9  1  0.822312  0.007786  0.250000  1
  Sc  Sc10  1  0.322312  0.492214  0.250000  1
  Sc  Sc11  1  0.677688  0.507786  0.750000  1
  Sc  Sc12  1  0.350022  0.355515  0.626975  1
  Sc  Sc13  1  0.649978  0.644485  0.373025  1
  Sc  Sc14  1  0.149978  0.855515  0.373025  1
  Sc  Sc15  1  0.649978  0.644485  0.126975  1
  Sc  Sc16  1  0.850022  0.144485  0.626975  1
  Sc  Sc17  1  0.350022  0.355515  0.873025  1
  Sc  Sc18  1  0.850022  0.144485  0.873025  1
  Sc  Sc19  1  0.149978  0.855515  0.126975  1
  Ga  Ga20  1  0.319982  0.648765  0.750000  1
  Ga  Ga21  1  0.680018  0.351235  0.250000  1
  Ga  Ga22  1  0.180018  0.148765  0.250000  1
  Ga  Ga23  1  0.819982  0.851235  0.750000  1
  Sb  Sb24  1  0.046556  0.372864  0.750000  1
  Sb  Sb25  1  0.953444  0.627136  0.250000  1
  Sb  Sb26  1  0.453444  0.872864  0.250000  1
  Sb  Sb27  1  0.546556  0.127136  0.750000  1
  Sb  Sb28  1  0.196101  0.053790  0.546510  1
  Sb  Sb29  1  0.803899  0.946210  0.453490  1
  Sb  Sb30  1  0.303899  0.553790  0.453490  1
  Sb  Sb31  1  0.803899  0.946210  0.046510  1
  Sb  Sb32  1  0.696101  0.446210  0.546510  1
  Sb  Sb33  1  0.196101  0.053790  0.953490  1
  Sb  Sb34  1  0.696101  0.446210  0.953490  1
  Sb  Sb35  1  0.303899  0.553790  0.046510  1
