# generated using pymatgen
data_YHo12Lu7Bi12
_symmetry_space_group_name_H-M   'P 1'
_cell_length_a   8.16834234
_cell_length_b   9.43303629
_cell_length_c   11.91191700
_cell_angle_alpha   89.98745730
_cell_angle_beta   89.96712364
_cell_angle_gamma   89.99344509
_symmetry_Int_Tables_number   1
_chemical_formula_structural   YHo12Lu7Bi12
_chemical_formula_sum   'Y1 Ho12 Lu7 Bi12'
_cell_volume   917.84006281
_cell_formula_units_Z   1
loop_
 _symmetry_equiv_pos_site_id
 _symmetry_equiv_pos_as_xyz
  1  'x, y, z'
loop_
 _atom_site_type_symbol
 _atom_site_label
 _atom_site_symmetry_multiplicity
 _atom_site_fract_x
 _atom_site_fract_y
 _atom_site_fract_z
 _atom_site_occupancy
  Y  Y0  1  0.145860  0.250298  0.716658  1
  Ho  Ho1  1  0.185920  0.750480  0.718653  1
  Ho  Ho2  1  0.686668  0.750351  0.782235  1
  Ho  Ho3  1  0.813293  0.250287  0.281678  1
  Ho  Ho4  1  0.313831  0.250092  0.218153  1
  Ho  Ho5  1  0.191930  0.565834  0.440272  1
  Ho  Ho6  1  0.692979  0.563208  0.059487  1
  Ho  Ho7  1  0.193319  0.936017  0.439880  1
  Ho  Ho8  1  0.306814  0.062778  0.941030  1
  Ho  Ho9  1  0.807335  0.436414  0.559360  1
  Ho  Ho10  1  0.356238  0.751861  0.216445  1
  Ho  Ho11  1  0.853777  0.750257  0.282906  1
  Ho  Ho12  1  0.645403  0.251071  0.783321  1
  Lu  Lu13  1  0.023424  0.749926  0.989034  1
  Lu  Lu14  1  0.524726  0.750448  0.510988  1
  Lu  Lu15  1  0.976058  0.250305  0.011538  1
  Lu  Lu16  1  0.476455  0.250569  0.488749  1
  Lu  Lu17  1  0.308173  0.431330  0.941271  1
  Lu  Lu18  1  0.806648  0.068088  0.559789  1
  Lu  Lu19  1  0.691923  0.931225  0.058933  1
  Bi  Bi20  1  0.434578  0.003564  0.673091  1
  Bi  Bi21  1  0.933086  0.497119  0.827337  1
  Bi  Bi22  1  0.566513  0.504011  0.326672  1
  Bi  Bi23  1  0.066120  0.996562  0.172933  1
  Bi  Bi24  1  0.567200  0.996795  0.327251  1
  Bi  Bi25  1  0.066853  0.504101  0.172758  1
  Bi  Bi26  1  0.433415  0.497061  0.672654  1
  Bi  Bi27  1  0.932587  0.003750  0.827590  1
  Bi  Bi28  1  0.404408  0.746093  0.957079  1
  Bi  Bi29  1  0.905041  0.753628  0.542781  1
  Bi  Bi30  1  0.595451  0.246396  0.042637  1
  Bi  Bi31  1  0.093975  0.250080  0.456838  1
