# generated using pymatgen
data_DyHo(Pa2Ga5)2
_symmetry_space_group_name_H-M   'P 1'
_cell_length_a   6.05413100
_cell_length_b   9.52296100
_cell_length_c   11.70547600
_cell_angle_alpha   90.00000000
_cell_angle_beta   90.00000000
_cell_angle_gamma   90.00000000
_symmetry_Int_Tables_number   1
_chemical_formula_structural   DyHo(Pa2Ga5)2
_chemical_formula_sum   'Dy2 Ho2 Pa8 Ga20'
_cell_volume   674.85877402
_cell_formula_units_Z   2
loop_
 _symmetry_equiv_pos_site_id
 _symmetry_equiv_pos_as_xyz
  1  'x, y, z'
loop_
 _atom_site_type_symbol
 _atom_site_label
 _atom_site_symmetry_multiplicity
 _atom_site_fract_x
 _atom_site_fract_y
 _atom_site_fract_z
 _atom_site_occupancy
  Dy  Dy0  1  0.140617  0.250000  0.927833  1
  Dy  Dy1  1  0.359383  0.250000  0.427833  1
  Ho  Ho2  1  0.859228  0.750000  0.072278  1
  Ho  Ho3  1  0.640772  0.750000  0.572278  1
  Pa  Pa4  1  0.879044  0.501024  0.351908  1
  Pa  Pa5  1  0.620956  0.998976  0.851908  1
  Pa  Pa6  1  0.120944  0.000834  0.648113  1
  Pa  Pa7  1  0.379056  0.499166  0.148113  1
  Pa  Pa8  1  0.120944  0.499166  0.648113  1
  Pa  Pa9  1  0.379056  0.000834  0.148113  1
  Pa  Pa10  1  0.879044  0.998976  0.351908  1
  Pa  Pa11  1  0.620956  0.501024  0.851908  1
  Ga  Ga12  1  0.869919  0.052352  0.091241  1
  Ga  Ga13  1  0.630081  0.447648  0.591241  1
  Ga  Ga14  1  0.129963  0.552865  0.908793  1
  Ga  Ga15  1  0.370037  0.947135  0.408793  1
  Ga  Ga16  1  0.129963  0.947135  0.908793  1
  Ga  Ga17  1  0.370037  0.552865  0.408793  1
  Ga  Ga18  1  0.869919  0.447648  0.091241  1
  Ga  Ga19  1  0.630081  0.052352  0.591241  1
  Ga  Ga20  1  0.152847  0.750000  0.265416  1
  Ga  Ga21  1  0.347153  0.750000  0.765416  1
  Ga  Ga22  1  0.846727  0.250000  0.734406  1
  Ga  Ga23  1  0.653273  0.250000  0.234406  1
  Ga  Ga24  1  0.393710  0.750000  0.994137  1
  Ga  Ga25  1  0.106290  0.750000  0.494137  1
  Ga  Ga26  1  0.606896  0.250000  0.005891  1
  Ga  Ga27  1  0.893104  0.250000  0.505891  1
  Ga  Ga28  1  0.596389  0.750000  0.292015  1
  Ga  Ga29  1  0.903611  0.750000  0.792015  1
  Ga  Ga30  1  0.403832  0.250000  0.707913  1
  Ga  Ga31  1  0.096168  0.250000  0.207913  1
