# generated using pymatgen
data_Sm3Ho(Sc4Bi3)4
_symmetry_space_group_name_H-M   'P 1'
_cell_length_a   7.93006704
_cell_length_b   9.08546600
_cell_length_c   11.61944607
_cell_angle_alpha   90.00000000
_cell_angle_beta   89.98785850
_cell_angle_gamma   90.00000000
_symmetry_Int_Tables_number   1
_chemical_formula_structural   Sm3Ho(Sc4Bi3)4
_chemical_formula_sum   'Sm3 Ho1 Sc16 Bi12'
_cell_volume   837.16195053
_cell_formula_units_Z   1
loop_
 _symmetry_equiv_pos_site_id
 _symmetry_equiv_pos_as_xyz
  1  'x, y, z'
loop_
 _atom_site_type_symbol
 _atom_site_label
 _atom_site_symmetry_multiplicity
 _atom_site_fract_x
 _atom_site_fract_y
 _atom_site_fract_z
 _atom_site_occupancy
  Sm  Sm0  1  0.317236  0.250000  0.219400  1
  Sm  Sm1  1  0.817087  0.250000  0.280596  1
  Sm  Sm2  1  0.682981  0.750000  0.780604  1
  Ho  Ho3  1  0.183556  0.750000  0.718455  1
  Sc  Sc4  1  0.348709  0.750000  0.220938  1
  Sc  Sc5  1  0.849048  0.750000  0.279232  1
  Sc  Sc6  1  0.650685  0.250000  0.778497  1
  Sc  Sc7  1  0.151212  0.250000  0.721147  1
  Sc  Sc8  1  0.692155  0.567449  0.062661  1
  Sc  Sc9  1  0.192552  0.932713  0.437658  1
  Sc  Sc10  1  0.307742  0.067269  0.937071  1
  Sc  Sc11  1  0.807173  0.432699  0.562717  1
  Sc  Sc12  1  0.307742  0.432731  0.937071  1
  Sc  Sc13  1  0.807173  0.067301  0.562717  1
  Sc  Sc14  1  0.692155  0.932551  0.062661  1
  Sc  Sc15  1  0.192552  0.567287  0.437658  1
  Sc  Sc16  1  0.481993  0.250000  0.489664  1
  Sc  Sc17  1  0.982712  0.250000  0.010490  1
  Sc  Sc18  1  0.517367  0.750000  0.511273  1
  Sc  Sc19  1  0.017971  0.750000  0.988917  1
  Bi  Bi20  1  0.399916  0.750000  0.968129  1
  Bi  Bi21  1  0.903060  0.750000  0.532565  1
  Bi  Bi22  1  0.599296  0.250000  0.030739  1
  Bi  Bi23  1  0.098834  0.250000  0.469163  1
  Bi  Bi24  1  0.563959  0.987635  0.329682  1
  Bi  Bi25  1  0.063794  0.512276  0.170537  1
  Bi  Bi26  1  0.433960  0.489385  0.670960  1
  Bi  Bi27  1  0.937834  0.010826  0.828809  1
  Bi  Bi28  1  0.433960  0.010615  0.670960  1
  Bi  Bi29  1  0.937834  0.489174  0.828809  1
  Bi  Bi30  1  0.563959  0.512365  0.329682  1
  Bi  Bi31  1  0.063794  0.987724  0.170537  1
