# generated using pymatgen
data_Nd8In2OsRh
_symmetry_space_group_name_H-M   'P 1'
_cell_length_a   9.99095933
_cell_length_b   10.04283972
_cell_length_c   9.99096016
_cell_angle_alpha   59.82809077
_cell_angle_beta   59.67598817
_cell_angle_gamma   59.82807511
_symmetry_Int_Tables_number   1
_chemical_formula_structural   Nd8In2OsRh
_chemical_formula_sum   'Nd16 In4 Os2 Rh2'
_cell_volume   705.26656295
_cell_formula_units_Z   2
loop_
 _symmetry_equiv_pos_site_id
 _symmetry_equiv_pos_as_xyz
  1  'x, y, z'
loop_
 _atom_site_type_symbol
 _atom_site_label
 _atom_site_symmetry_multiplicity
 _atom_site_fract_x
 _atom_site_fract_y
 _atom_site_fract_z
 _atom_site_occupancy
  Nd  Nd0  1  0.811069  0.806235  0.189535  1
  Nd  Nd1  1  0.809478  0.190522  0.809477  1
  Nd  Nd2  1  0.189534  0.193163  0.811068  1
  Nd  Nd3  1  0.651039  0.045476  0.651037  1
  Nd  Nd4  1  0.060166  0.058503  0.445299  1
  Nd  Nd5  1  0.445297  0.436034  0.060165  1
  Nd  Nd6  1  0.651039  0.652449  0.651037  1
  Nd  Nd7  1  0.811069  0.193162  0.189535  1
  Nd  Nd8  1  0.189534  0.806235  0.811068  1
  Nd  Nd9  1  0.041319  0.652916  0.652847  1
  Nd  Nd10  1  0.445297  0.058504  0.060165  1
  Nd  Nd11  1  0.437264  0.062736  0.437264  1
  Nd  Nd12  1  0.057470  0.442530  0.057470  1
  Nd  Nd13  1  0.652851  0.652915  0.041318  1
  Nd  Nd14  1  0.193193  0.806805  0.193197  1
  Nd  Nd15  1  0.060166  0.436031  0.445299  1
  In  In16  1  0.419586  0.418944  0.419587  1
  In  In17  1  0.418866  0.418738  0.743656  1
  In  In18  1  0.419586  0.741882  0.419587  1
  In  In19  1  0.743659  0.418735  0.418868  1
  Os  Os20  1  0.857890  0.421021  0.857888  1
  Os  Os21  1  0.857890  0.863203  0.857888  1
  Rh  Rh22  1  0.857017  0.861631  0.419723  1
  Rh  Rh23  1  0.419720  0.861630  0.857023  1
