# generated using pymatgen
data_Mn7Zn5(PtRh)6
_symmetry_space_group_name_H-M   'P 1'
_cell_length_a   4.35801001
_cell_length_b   6.11786806
_cell_length_c   13.02091811
_cell_angle_alpha   90.01373232
_cell_angle_beta   89.99477454
_cell_angle_gamma   89.99213189
_symmetry_Int_Tables_number   1
_chemical_formula_structural   Mn7Zn5(PtRh)6
_chemical_formula_sum   'Mn7 Zn5 Pt6 Rh6'
_cell_volume   347.16019172
_cell_formula_units_Z   1
loop_
 _symmetry_equiv_pos_site_id
 _symmetry_equiv_pos_as_xyz
  1  'x, y, z'
loop_
 _atom_site_type_symbol
 _atom_site_label
 _atom_site_symmetry_multiplicity
 _atom_site_fract_x
 _atom_site_fract_y
 _atom_site_fract_z
 _atom_site_occupancy
  Mn  Mn0  1  0.500486  0.249959  0.997298  1
  Mn  Mn1  1  0.500465  0.749745  0.997178  1
  Mn  Mn2  1  0.999819  0.249717  0.166594  1
  Mn  Mn3  1  0.999843  0.749662  0.166172  1
  Mn  Mn4  1  0.500119  0.250256  0.334963  1
  Mn  Mn5  1  0.500080  0.750068  0.334716  1
  Mn  Mn6  1  0.999525  0.250603  0.503020  1
  Zn  Zn7  1  0.999791  0.750274  0.500681  1
  Zn  Zn8  1  0.499915  0.249356  0.665491  1
  Zn  Zn9  1  0.499942  0.750626  0.667094  1
  Zn  Zn10  1  0.000011  0.249988  0.832791  1
  Zn  Zn11  1  0.000018  0.749540  0.833886  1
  Pt  Pt12  1  0.000360  0.000404  0.999620  1
  Pt  Pt13  1  0.499952  0.500146  0.165932  1
  Pt  Pt14  1  0.000025  0.000955  0.334067  1
  Pt  Pt15  1  0.499750  0.500487  0.500639  1
  Pt  Pt16  1  0.999870  0.999106  0.667721  1
  Pt  Pt17  1  0.499995  0.499231  0.831950  1
  Rh  Rh18  1  0.000393  0.499447  0.999532  1
  Rh  Rh19  1  0.499984  0.999378  0.165950  1
  Rh  Rh20  1  0.999974  0.499983  0.333975  1
  Rh  Rh21  1  0.499726  0.000495  0.500152  1
  Rh  Rh22  1  0.999921  0.500818  0.667192  1
  Rh  Rh23  1  0.500036  0.999759  0.833382  1
