# generated using pymatgen
data_TmLu2In3Pt2Rh
_symmetry_space_group_name_H-M   'P 1'
_cell_length_a   7.61741847
_cell_length_b   7.60921296
_cell_length_c   3.77713100
_cell_angle_alpha   90.00000000
_cell_angle_beta   90.00000000
_cell_angle_gamma   119.96437316
_symmetry_Int_Tables_number   1
_chemical_formula_structural   TmLu2In3Pt2Rh
_chemical_formula_sum   'Tm1 Lu2 In3 Pt2 Rh1'
_cell_volume   189.66885931
_cell_formula_units_Z   1
loop_
 _symmetry_equiv_pos_site_id
 _symmetry_equiv_pos_as_xyz
  1  'x, y, z'
loop_
 _atom_site_type_symbol
 _atom_site_label
 _atom_site_symmetry_multiplicity
 _atom_site_fract_x
 _atom_site_fract_y
 _atom_site_fract_z
 _atom_site_occupancy
  Tm  Tm0  1  0.000000  0.597643  0.500000  1
  Lu  Lu1  1  0.597798  0.000034  0.500000  1
  Lu  Lu2  1  0.402202  0.402236  0.500000  1
  In  In3  1  0.000000  0.259123  0.000000  1
  In  In4  1  0.259564  0.000305  0.000000  1
  In  In5  1  0.740436  0.740741  0.000000  1
  Pt  Pt6  1  0.665832  0.332656  0.000000  1
  Pt  Pt7  1  0.334168  0.666825  0.000000  1
  Rh  Rh8  1  0.000000  0.000437  0.500000  1
