# generated using pymatgen
data_Lu4Sc4Re3B24Os
_symmetry_space_group_name_H-M   'P 1'
_cell_length_a   3.55264500
_cell_length_b   8.95307433
_cell_length_c   11.30614523
_cell_angle_alpha   90.03779729
_cell_angle_beta   90.00000000
_cell_angle_gamma   90.00000000
_symmetry_Int_Tables_number   1
_chemical_formula_structural   Lu4Sc4Re3B24Os
_chemical_formula_sum   'Lu4 Sc4 Re3 B24 Os1'
_cell_volume   359.61555446
_cell_formula_units_Z   1
loop_
 _symmetry_equiv_pos_site_id
 _symmetry_equiv_pos_as_xyz
  1  'x, y, z'
loop_
 _atom_site_type_symbol
 _atom_site_label
 _atom_site_symmetry_multiplicity
 _atom_site_fract_x
 _atom_site_fract_y
 _atom_site_fract_z
 _atom_site_occupancy
  Lu  Lu0  1  0.000000  0.320045  0.414226  1
  Lu  Lu1  1  0.000000  0.679497  0.587671  1
  Lu  Lu2  1  0.000000  0.822227  0.084496  1
  Lu  Lu3  1  0.000000  0.178810  0.912985  1
  Sc  Sc4  1  0.000000  0.943637  0.371039  1
  Sc  Sc5  1  0.000000  0.055558  0.628646  1
  Sc  Sc6  1  0.000000  0.443372  0.128400  1
  Sc  Sc7  1  0.000000  0.556383  0.871549  1
  Re  Re8  1  0.000000  0.361018  0.679979  1
  Re  Re9  1  0.000000  0.139543  0.181461  1
  Re  Re10  1  0.000000  0.860834  0.819427  1
  B  B11  1  0.500000  0.554252  0.433694  1
  B  B12  1  0.500000  0.446740  0.565812  1
  B  B13  1  0.500000  0.053594  0.066220  1
  B  B14  1  0.500000  0.946914  0.933578  1
  B  B15  1  0.500000  0.752546  0.419510  1
  B  B16  1  0.500000  0.245999  0.579973  1
  B  B17  1  0.500000  0.253502  0.080248  1
  B  B18  1  0.500000  0.746826  0.919860  1
  B  B19  1  0.500000  0.793585  0.264808  1
  B  B20  1  0.500000  0.205515  0.735181  1
  B  B21  1  0.500000  0.294777  0.235808  1
  B  B22  1  0.500000  0.705439  0.764985  1
  B  B23  1  0.500000  0.629166  0.183173  1
  B  B24  1  0.500000  0.371364  0.816953  1
  B  B25  1  0.500000  0.128669  0.317492  1
  B  B26  1  0.500000  0.870949  0.682894  1
  B  B27  1  0.500000  0.979621  0.213144  1
  B  B28  1  0.500000  0.020212  0.786521  1
  B  B29  1  0.500000  0.480715  0.287166  1
  B  B30  1  0.500000  0.520364  0.713277  1
  B  B31  1  0.500000  0.597862  0.027425  1
  B  B32  1  0.500000  0.402821  0.973431  1
  B  B33  1  0.500000  0.096490  0.473057  1
  B  B34  1  0.500000  0.901790  0.526658  1
  Os  Os35  1  0.000000  0.639360  0.319254  1
