# generated using pymatgen
data_YHo3Pd3PtF28
_symmetry_space_group_name_H-M   'P 1'
_cell_length_a   5.52185804
_cell_length_b   8.83454851
_cell_length_c   11.92699912
_cell_angle_alpha   62.54288605
_cell_angle_beta   89.99736562
_cell_angle_gamma   89.95476310
_symmetry_Int_Tables_number   1
_chemical_formula_structural   YHo3Pd3PtF28
_chemical_formula_sum   'Y1 Ho3 Pd3 Pt1 F28'
_cell_volume   516.29582365
_cell_formula_units_Z   1
loop_
 _symmetry_equiv_pos_site_id
 _symmetry_equiv_pos_as_xyz
  1  'x, y, z'
loop_
 _atom_site_type_symbol
 _atom_site_label
 _atom_site_symmetry_multiplicity
 _atom_site_fract_x
 _atom_site_fract_y
 _atom_site_fract_z
 _atom_site_occupancy
  Y  Y0  1  0.762277  0.813204  0.764454  1
  Ho  Ho1  1  0.261227  0.186941  0.736242  1
  Ho  Ho2  1  0.237672  0.186384  0.234661  1
  Ho  Ho3  1  0.738024  0.814651  0.263939  1
  Pd  Pd4  1  0.758774  0.271844  0.957084  1
  Pd  Pd5  1  0.259418  0.727372  0.542777  1
  Pd  Pd6  1  0.241087  0.727647  0.043544  1
  Pt  Pt7  1  0.740997  0.273007  0.456536  1
  F  F8  1  0.433499  0.702128  0.917017  1
  F  F9  1  0.935762  0.297801  0.584843  1
  F  F10  1  0.565222  0.297254  0.083535  1
  F  F11  1  0.065218  0.702599  0.416126  1
  F  F12  1  0.438291  0.278186  0.542283  1
  F  F13  1  0.941242  0.721372  0.959371  1
  F  F14  1  0.559837  0.722258  0.457712  1
  F  F15  1  0.059223  0.277946  0.041534  1
  F  F16  1  0.775412  0.519340  0.859027  1
  F  F17  1  0.276925  0.479429  0.641776  1
  F  F18  1  0.224492  0.479499  0.141166  1
  F  F19  1  0.725678  0.523321  0.357867  1
  F  F20  1  0.753743  0.024461  0.049427  1
  F  F21  1  0.253553  0.974901  0.450353  1
  F  F22  1  0.246157  0.974995  0.951147  1
  F  F23  1  0.745751  0.023427  0.549311  1
  F  F24  1  0.967411  0.723211  0.635206  1
  F  F25  1  0.466056  0.275001  0.865119  1
  F  F26  1  0.036400  0.274751  0.363950  1
  F  F27  1  0.534109  0.725005  0.135427  1
  F  F28  1  0.052414  0.746103  0.175510  1
  F  F29  1  0.551451  0.253831  0.323624  1
  F  F30  1  0.946846  0.253917  0.824973  1
  F  F31  1  0.445535  0.744931  0.675456  1
  F  F32  1  0.414107  0.970063  0.231950  1
  F  F33  1  0.914096  0.030364  0.267483  1
  F  F34  1  0.584562  0.031614  0.767490  1
  F  F35  1  0.087531  0.971239  0.732082  1
