# generated using pymatgen
data_Zr4Al2TcMo5
_symmetry_space_group_name_H-M   'P 1'
_cell_length_a   5.27006100
_cell_length_b   5.25456937
_cell_length_c   8.86890200
_cell_angle_alpha   90.00000000
_cell_angle_beta   90.00000000
_cell_angle_gamma   120.09756809
_symmetry_Int_Tables_number   1
_chemical_formula_structural   Zr4Al2TcMo5
_chemical_formula_sum   'Zr4 Al2 Tc1 Mo5'
_cell_volume   212.48361091
_cell_formula_units_Z   1
loop_
 _symmetry_equiv_pos_site_id
 _symmetry_equiv_pos_as_xyz
  1  'x, y, z'
loop_
 _atom_site_type_symbol
 _atom_site_label
 _atom_site_symmetry_multiplicity
 _atom_site_fract_x
 _atom_site_fract_y
 _atom_site_fract_z
 _atom_site_occupancy
  Zr  Zr0  1  0.333446  0.666893  0.438084  1
  Zr  Zr1  1  0.666303  0.332607  0.934188  1
  Zr  Zr2  1  0.666303  0.332607  0.565812  1
  Zr  Zr3  1  0.333446  0.666893  0.061916  1
  Al  Al4  1  0.000991  0.001982  0.998899  1
  Al  Al5  1  0.000991  0.001982  0.501101  1
  Tc  Tc6  1  0.168281  0.336563  0.750000  1
  Mo  Mo7  1  0.831252  0.169913  0.250000  1
  Mo  Mo8  1  0.338663  0.169913  0.250000  1
  Mo  Mo9  1  0.660351  0.829381  0.750000  1
  Mo  Mo10  1  0.830942  0.661885  0.250000  1
  Mo  Mo11  1  0.169030  0.829381  0.750000  1
