# generated using pymatgen
data_In9Ag(HgIr2)2
_symmetry_space_group_name_H-M   'P 1'
_cell_length_a   7.23720680
_cell_length_b   7.16603330
_cell_length_c   7.12762200
_cell_angle_alpha   90.00000000
_cell_angle_beta   90.00000000
_cell_angle_gamma   90.48535369
_symmetry_Int_Tables_number   1
_chemical_formula_structural   In9Ag(HgIr2)2
_chemical_formula_sum   'In9 Ag1 Hg2 Ir4'
_cell_volume   369.63993257
_cell_formula_units_Z   1
loop_
 _symmetry_equiv_pos_site_id
 _symmetry_equiv_pos_as_xyz
  1  'x, y, z'
loop_
 _atom_site_type_symbol
 _atom_site_label
 _atom_site_symmetry_multiplicity
 _atom_site_fract_x
 _atom_site_fract_y
 _atom_site_fract_z
 _atom_site_occupancy
  In  In0  1  0.327582  0.349307  0.267806  1
  In  In1  1  0.153347  0.834668  0.761901  1
  In  In2  1  0.153347  0.834668  0.238099  1
  In  In3  1  0.846653  0.165332  0.238099  1
  In  In4  1  0.846653  0.165332  0.761901  1
  In  In5  1  0.672418  0.650693  0.267806  1
  In  In6  1  0.672418  0.650693  0.732194  1
  In  In7  1  0.327582  0.349307  0.732194  1
  In  In8  1  0.500000  0.000000  0.500000  1
  Ag  Ag9  1  0.000000  0.500000  0.500000  1
  Hg  Hg10  1  0.000000  0.500000  0.000000  1
  Hg  Hg11  1  0.500000  0.000000  0.000000  1
  Ir  Ir12  1  0.152774  0.149984  0.000000  1
  Ir  Ir13  1  0.642359  0.339432  0.500000  1
  Ir  Ir14  1  0.357641  0.660568  0.500000  1
  Ir  Ir15  1  0.847226  0.850016  0.000000  1
