# generated using pymatgen
data_Li3LaGd2(TeO6)2
_symmetry_space_group_name_H-M   'P 1'
_cell_length_a   10.91724805
_cell_length_b   10.96431729
_cell_length_c   10.94414402
_cell_angle_alpha   109.51859840
_cell_angle_beta   109.34418577
_cell_angle_gamma   109.53899381
_symmetry_Int_Tables_number   1
_chemical_formula_structural   Li3LaGd2(TeO6)2
_chemical_formula_sum   'Li12 La4 Gd8 Te8 O48'
_cell_volume   1008.59595749
_cell_formula_units_Z   4
loop_
 _symmetry_equiv_pos_site_id
 _symmetry_equiv_pos_as_xyz
  1  'x, y, z'
loop_
 _atom_site_type_symbol
 _atom_site_label
 _atom_site_symmetry_multiplicity
 _atom_site_fract_x
 _atom_site_fract_y
 _atom_site_fract_z
 _atom_site_occupancy
  Li  Li0  1  0.750597  0.375652  0.124581  1
  Li  Li1  1  0.873977  0.748931  0.124577  1
  Li  Li2  1  0.124415  0.375250  0.250430  1
  Li  Li3  1  0.626016  0.875178  0.250431  1
  Li  Li4  1  0.250433  0.126184  0.377270  1
  Li  Li5  1  0.626836  0.251087  0.377268  1
  Li  Li6  1  0.750822  0.875673  0.625872  1
  Li  Li7  1  0.375050  0.750200  0.625878  1
  Li  Li8  1  0.375049  0.124827  0.749043  1
  Li  Li9  1  0.873993  0.624222  0.749046  1
  Li  Li10  1  0.249672  0.623541  0.872915  1
  Li  Li11  1  0.123247  0.249378  0.872920  1
  La  La12  1  0.375944  0.249964  0.123995  1
  La  La13  1  0.248053  0.874032  0.123996  1
  La  La14  1  0.375965  0.625963  0.251930  1
  La  La15  1  0.874968  0.124966  0.249934  1
  Gd  Gd16  1  0.123553  0.750122  0.376606  1
  Gd  Gd17  1  0.753054  0.626485  0.376605  1
  Gd  Gd18  1  0.875428  0.250899  0.626989  1
  Gd  Gd19  1  0.251556  0.376085  0.626984  1
  Gd  Gd20  1  0.625067  0.375067  0.750132  1
  Gd  Gd21  1  0.123565  0.873564  0.747126  1
  Gd  Gd22  1  0.749054  0.124502  0.873081  1
  Gd  Gd23  1  0.624028  0.748580  0.873081  1
  Te  Te24  1  0.995948  0.998213  0.994412  1
  Te  Te25  1  0.498464  0.996199  0.994412  1
  Te  Te26  1  0.995897  0.496960  0.998781  1
  Te  Te27  1  0.502883  0.501820  0.998781  1
  Te  Te28  1  0.000878  0.000386  0.502771  1
  Te  Te29  1  0.502888  0.500849  0.504042  1
  Te  Te30  1  0.501153  0.003193  0.504044  1
  Te  Te31  1  0.001896  0.502387  0.502773  1
  O  O32  1  0.189987  0.612143  0.019528  1
  O  O33  1  0.329542  0.407385  0.019527  1
  O  O34  1  0.879306  0.902318  0.071428  1
  O  O35  1  0.692122  0.169110  0.071427  1
  O  O36  1  0.612575  0.916037  0.087444  1
  O  O37  1  0.974872  0.171409  0.087447  1
  O  O38  1  0.020833  0.691339  0.119436  1
  O  O39  1  0.598603  0.428096  0.119436  1
  O  O40  1  0.188873  0.077371  0.169424  1
  O  O41  1  0.480554  0.092053  0.169423  1
  O  O42  1  0.111729  0.521747  0.194682  1
  O  O43  1  0.582953  0.672936  0.194683  1
  O  O44  1  0.480690  0.888135  0.310600  1
  O  O45  1  0.329910  0.422465  0.310600  1
  O  O46  1  0.924912  0.805754  0.330798  1
  O  O47  1  0.905884  0.525041  0.330796  1
  O  O48  1  0.583145  0.409986  0.387947  1
  O  O49  1  0.304802  0.977961  0.387947  1
  O  O50  1  0.828452  0.023243  0.410963  1
  O  O51  1  0.082513  0.387723  0.410968  1
  O  O52  1  0.097410  0.119774  0.428331  1
  O  O53  1  0.830921  0.308556  0.428331  1
  O  O54  1  0.598527  0.670672  0.479191  1
  O  O55  1  0.380663  0.808518  0.479188  1
  O  O56  1  0.407476  0.329861  0.527475  1
  O  O57  1  0.620000  0.197615  0.527477  1
  O  O58  1  0.170965  0.697627  0.576998  1
  O  O59  1  0.906033  0.879373  0.576999  1
  O  O60  1  0.924584  0.620780  0.595377  1
  O  O61  1  0.170795  0.974599  0.595379  1
  O  O62  1  0.424443  0.594455  0.620738  1
  O  O63  1  0.696293  0.026283  0.620737  1
  O  O64  1  0.076773  0.196401  0.671614  1
  O  O65  1  0.094842  0.475215  0.671615  1
  O  O66  1  0.527465  0.121820  0.699262  1
  O  O67  1  0.671798  0.577443  0.699263  1
  O  O68  1  0.879552  0.474106  0.803942  1
  O  O69  1  0.424389  0.329835  0.803942  1
  O  O70  1  0.527017  0.905236  0.826777  1
  O  O71  1  0.799760  0.921542  0.826779  1
  O  O72  1  0.972518  0.302721  0.879648  1
  O  O73  1  0.407130  0.576927  0.879648  1
  O  O74  1  0.379448  0.071925  0.900791  1
  O  O75  1  0.021341  0.828863  0.900789  1
  O  O76  1  0.302222  0.825959  0.915144  1
  O  O77  1  0.112922  0.089187  0.915145  1
  O  O78  1  0.800134  0.378191  0.972103  1
  O  O79  1  0.671972  0.593913  0.972106  1
