# generated using pymatgen
data_Mg2U(PO5)2
_symmetry_space_group_name_H-M   'P 1'
_cell_length_a   5.21527133
_cell_length_b   5.73641947
_cell_length_c   7.68426671
_cell_angle_alpha   111.91664571
_cell_angle_beta   110.50832237
_cell_angle_gamma   90.00001157
_symmetry_Int_Tables_number   1
_chemical_formula_structural   Mg2U(PO5)2
_chemical_formula_sum   'Mg2 U1 P2 O10'
_cell_volume   197.48326254
_cell_formula_units_Z   1
loop_
 _symmetry_equiv_pos_site_id
 _symmetry_equiv_pos_as_xyz
  1  'x, y, z'
loop_
 _atom_site_type_symbol
 _atom_site_label
 _atom_site_symmetry_multiplicity
 _atom_site_fract_x
 _atom_site_fract_y
 _atom_site_fract_z
 _atom_site_occupancy
  Mg  Mg0  1  0.499999  0.000000  0.500000  1
  Mg  Mg1  1  0.499999  0.500000  0.500000  1
  U  U2  1  0.000000  0.000000  0.000000  1
  P  P3  1  0.888027  0.634940  0.269880  1
  P  P4  1  0.111971  0.365060  0.730120  1
  O  O5  1  0.833806  0.346560  0.133567  1
  O  O6  1  0.833806  0.787007  0.133567  1
  O  O7  1  0.321555  0.121712  0.243424  1
  O  O8  1  0.686539  0.690739  0.381479  1
  O  O9  1  0.194376  0.709470  0.418940  1
  O  O10  1  0.805625  0.290529  0.581059  1
  O  O11  1  0.313460  0.309260  0.618521  1
  O  O12  1  0.678444  0.878287  0.756576  1
  O  O13  1  0.166193  0.212994  0.866434  1
  O  O14  1  0.166193  0.653439  0.866434  1
