# generated using pymatgen
data_Ti8Mo3
_symmetry_space_group_name_H-M   'P 1'
_cell_length_a   5.31268261
_cell_length_b   5.31268262
_cell_length_c   11.75275196
_cell_angle_alpha   105.20562459
_cell_angle_beta   105.20562363
_cell_angle_gamma   35.16742958
_symmetry_Int_Tables_number   1
_chemical_formula_structural   Ti8Mo3
_chemical_formula_sum   'Ti8 Mo3'
_cell_volume   183.68408717
_cell_formula_units_Z   1
loop_
 _symmetry_equiv_pos_site_id
 _symmetry_equiv_pos_as_xyz
  1  'x, y, z'
loop_
 _atom_site_type_symbol
 _atom_site_label
 _atom_site_symmetry_multiplicity
 _atom_site_fract_x
 _atom_site_fract_y
 _atom_site_fract_z
 _atom_site_occupancy
  Ti  Ti0  1  0.706324  0.706324  0.084020  1
  Ti  Ti1  1  0.455820  0.455820  0.181714  1
  Ti  Ti2  1  0.203425  0.203425  0.281975  1
  Ti  Ti3  1  0.621044  0.621044  0.454370  1
  Ti  Ti4  1  0.378957  0.378957  0.545629  1
  Ti  Ti5  1  0.796575  0.796575  0.718025  1
  Ti  Ti6  1  0.544180  0.544180  0.818286  1
  Ti  Ti7  1  0.293677  0.293677  0.915981  1
  Mo  Mo8  1  0.000000  0.000000  0.000000  1
  Mo  Mo9  1  0.914078  0.914078  0.360244  1
  Mo  Mo10  1  0.085922  0.085922  0.639757  1
