# generated using pymatgen
data_TbDy7Lu8(ScSi4)4
_symmetry_space_group_name_H-M   'P 1'
_cell_length_a   7.19603705
_cell_length_b   7.54646707
_cell_length_c   14.26920911
_cell_angle_alpha   90.01160283
_cell_angle_beta   90.00767584
_cell_angle_gamma   90.01124721
_symmetry_Int_Tables_number   1
_chemical_formula_structural   TbDy7Lu8(ScSi4)4
_chemical_formula_sum   'Tb1 Dy7 Lu8 Sc4 Si16'
_cell_volume   774.88446370
_cell_formula_units_Z   1
loop_
 _symmetry_equiv_pos_site_id
 _symmetry_equiv_pos_as_xyz
  1  'x, y, z'
loop_
 _atom_site_type_symbol
 _atom_site_label
 _atom_site_symmetry_multiplicity
 _atom_site_fract_x
 _atom_site_fract_y
 _atom_site_fract_z
 _atom_site_occupancy
  Tb  Tb0  1  0.014906  0.179449  0.097442  1
  Dy  Dy1  1  0.984957  0.820331  0.902259  1
  Dy  Dy2  1  0.485044  0.679630  0.902302  1
  Dy  Dy3  1  0.984918  0.820278  0.597626  1
  Dy  Dy4  1  0.515156  0.320369  0.097652  1
  Dy  Dy5  1  0.015172  0.179669  0.402269  1
  Dy  Dy6  1  0.515155  0.320337  0.402461  1
  Dy  Dy7  1  0.484943  0.679650  0.597580  1
  Lu  Lu8  1  0.326711  0.177422  0.625324  1
  Lu  Lu9  1  0.673093  0.822472  0.374740  1
  Lu  Lu10  1  0.173271  0.677387  0.374731  1
  Lu  Lu11  1  0.673112  0.822453  0.125404  1
  Lu  Lu12  1  0.826674  0.322609  0.625312  1
  Lu  Lu13  1  0.326746  0.177464  0.874688  1
  Lu  Lu14  1  0.826590  0.322728  0.874669  1
  Lu  Lu15  1  0.173250  0.677349  0.125344  1
  Sc  Sc16  1  0.158587  0.510555  0.749990  1
  Sc  Sc17  1  0.841466  0.489733  0.250112  1
  Sc  Sc18  1  0.341530  0.010483  0.250062  1
  Sc  Sc19  1  0.658838  0.989477  0.750016  1
  Si  Si20  1  0.025921  0.102925  0.749965  1
  Si  Si21  1  0.973969  0.896649  0.250162  1
  Si  Si22  1  0.474064  0.602815  0.250056  1
  Si  Si23  1  0.525833  0.397183  0.749974  1
  Si  Si24  1  0.283254  0.867255  0.749968  1
  Si  Si25  1  0.716527  0.132699  0.250203  1
  Si  Si26  1  0.217099  0.367432  0.250164  1
  Si  Si27  1  0.783137  0.632782  0.749940  1
  Si  Si28  1  0.155066  0.468496  0.539696  1
  Si  Si29  1  0.844883  0.531423  0.460349  1
  Si  Si30  1  0.344786  0.968550  0.460378  1
  Si  Si31  1  0.844643  0.531961  0.039479  1
  Si  Si32  1  0.655067  0.031430  0.539677  1
  Si  Si33  1  0.155113  0.468922  0.960166  1
  Si  Si34  1  0.655183  0.031425  0.960322  1
  Si  Si35  1  0.345338  0.968208  0.039516  1
