# generated using pymatgen
data_Hf7Zr11(Si8Mo)2
_symmetry_space_group_name_H-M   'P 1'
_cell_length_a   7.05852810
_cell_length_b   7.05838751
_cell_length_c   12.89788333
_cell_angle_alpha   89.98050996
_cell_angle_beta   90.01687261
_cell_angle_gamma   89.77914269
_symmetry_Int_Tables_number   1
_chemical_formula_structural   Hf7Zr11(Si8Mo)2
_chemical_formula_sum   'Hf7 Zr11 Si16 Mo2'
_cell_volume   642.59126719
_cell_formula_units_Z   1
loop_
 _symmetry_equiv_pos_site_id
 _symmetry_equiv_pos_as_xyz
  1  'x, y, z'
loop_
 _atom_site_type_symbol
 _atom_site_label
 _atom_site_symmetry_multiplicity
 _atom_site_fract_x
 _atom_site_fract_y
 _atom_site_fract_z
 _atom_site_occupancy
  Hf  Hf0  1  0.175442  0.175327  0.999876  1
  Hf  Hf1  1  0.853213  0.002857  0.875634  1
  Hf  Hf2  1  0.146407  0.997372  0.375304  1
  Hf  Hf3  1  0.644039  0.502746  0.372707  1
  Hf  Hf4  1  0.355812  0.497511  0.872899  1
  Hf  Hf5  1  0.003102  0.852863  0.124379  1
  Hf  Hf6  1  0.997188  0.146730  0.624720  1
  Zr  Zr7  1  0.824574  0.824694  0.499904  1
  Zr  Zr8  1  0.496131  0.152111  0.531872  1
  Zr  Zr9  1  0.504109  0.848161  0.031880  1
  Zr  Zr10  1  0.653570  0.001969  0.282796  1
  Zr  Zr11  1  0.346195  0.998296  0.783341  1
  Zr  Zr12  1  0.848029  0.504166  0.968102  1
  Zr  Zr13  1  0.152204  0.496118  0.468120  1
  Zr  Zr14  1  0.001795  0.653358  0.717322  1
  Zr  Zr15  1  0.998508  0.346423  0.216769  1
  Zr  Zr16  1  0.497988  0.355894  0.126942  1
  Zr  Zr17  1  0.502294  0.644012  0.627224  1
  Si  Si18  1  0.796849  0.145739  0.070995  1
  Si  Si19  1  0.204172  0.854516  0.571221  1
  Si  Si20  1  0.646316  0.703056  0.822771  1
  Si  Si21  1  0.353662  0.296998  0.322640  1
  Si  Si22  1  0.854041  0.205170  0.428483  1
  Si  Si23  1  0.146197  0.795778  0.928674  1
  Si  Si24  1  0.703586  0.646862  0.178008  1
  Si  Si25  1  0.296509  0.353043  0.678126  1
  Si  Si26  1  0.552061  0.201531  0.933669  1
  Si  Si27  1  0.446721  0.798140  0.433508  1
  Si  Si28  1  0.696956  0.956833  0.687094  1
  Si  Si29  1  0.302396  0.043757  0.186196  1
  Si  Si30  1  0.798551  0.446444  0.565723  1
  Si  Si31  1  0.201066  0.552287  0.065472  1
  Si  Si32  1  0.955697  0.696717  0.313153  1
  Si  Si33  1  0.044757  0.302707  0.814039  1
  Mo  Mo34  1  0.675916  0.323741  0.750458  1
  Mo  Mo35  1  0.323947  0.676074  0.249977  1
