# generated using pymatgen
data_Zr6BN4
_symmetry_space_group_name_H-M   'P 1'
_cell_length_a   5.73268932
_cell_length_b   5.73268878
_cell_length_c   5.71171394
_cell_angle_alpha   99.72818659
_cell_angle_beta   99.72818492
_cell_angle_gamma   119.74639152
_symmetry_Int_Tables_number   1
_chemical_formula_structural   Zr6BN4
_chemical_formula_sum   'Zr6 B1 N4'
_cell_volume   153.46056795
_cell_formula_units_Z   1
loop_
 _symmetry_equiv_pos_site_id
 _symmetry_equiv_pos_as_xyz
  1  'x, y, z'
loop_
 _atom_site_type_symbol
 _atom_site_label
 _atom_site_symmetry_multiplicity
 _atom_site_fract_x
 _atom_site_fract_y
 _atom_site_fract_z
 _atom_site_occupancy
  Zr  Zr0  1  0.436080  0.086530  0.250807  1
  Zr  Zr1  1  0.083918  0.427775  0.248328  1
  Zr  Zr2  1  0.731297  0.734581  0.262294  1
  Zr  Zr3  1  0.265420  0.268704  0.737706  1
  Zr  Zr4  1  0.913470  0.563920  0.749191  1
  Zr  Zr5  1  0.572225  0.916082  0.751670  1
  B  B6  1  0.166335  0.833664  0.500000  1
  N  N7  1  0.666659  0.333340  0.000000  1
  N  N8  1  0.332199  0.667800  0.000000  1
  N  N9  1  0.832291  0.167708  0.500000  1
  N  N10  1  0.500103  0.499895  0.500000  1
