# generated using pymatgen
data_NpPa3(Al3Rh)6
_symmetry_space_group_name_H-M   'P 1'
_cell_length_a   7.60586550
_cell_length_b   7.60756286
_cell_length_c   9.41540400
_cell_angle_alpha   90.00000000
_cell_angle_beta   90.00000000
_cell_angle_gamma   119.45123692
_symmetry_Int_Tables_number   1
_chemical_formula_structural   NpPa3(Al3Rh)6
_chemical_formula_sum   'Np1 Pa3 Al18 Rh6'
_cell_volume   474.39361885
_cell_formula_units_Z   1
loop_
 _symmetry_equiv_pos_site_id
 _symmetry_equiv_pos_as_xyz
  1  'x, y, z'
loop_
 _atom_site_type_symbol
 _atom_site_label
 _atom_site_symmetry_multiplicity
 _atom_site_fract_x
 _atom_site_fract_y
 _atom_site_fract_z
 _atom_site_occupancy
  Np  Np0  1  0.328999  0.006008  0.750000  1
  Pa  Pa1  1  0.997143  0.672793  0.250000  1
  Pa  Pa2  1  0.003168  0.327299  0.750000  1
  Pa  Pa3  1  0.673504  0.997078  0.250000  1
  Al  Al4  1  0.132191  0.130914  0.250000  1
  Al  Al5  1  0.871177  0.871836  0.750000  1
  Al  Al6  1  0.003908  0.336392  0.075127  1
  Al  Al7  1  0.000664  0.667717  0.922775  1
  Al  Al8  1  0.000664  0.667717  0.577225  1
  Al  Al9  1  0.336163  0.002958  0.427234  1
  Al  Al10  1  0.003908  0.336392  0.424873  1
  Al  Al11  1  0.660520  0.996892  0.576846  1
  Al  Al12  1  0.660520  0.996892  0.923154  1
  Al  Al13  1  0.336163  0.002958  0.072766  1
  Al  Al14  1  0.333736  0.331636  0.554964  1
  Al  Al15  1  0.664309  0.663977  0.449030  1
  Al  Al16  1  0.664309  0.663977  0.050970  1
  Al  Al17  1  0.333736  0.331636  0.945036  1
  Al  Al18  1  0.342392  0.548929  0.250000  1
  Al  Al19  1  0.657745  0.448732  0.750000  1
  Al  Al20  1  0.549768  0.340999  0.250000  1
  Al  Al21  1  0.447745  0.658527  0.750000  1
  Rh  Rh22  1  0.675121  0.329399  0.001121  1
  Rh  Rh23  1  0.327528  0.671086  0.001707  1
  Rh  Rh24  1  0.327528  0.671086  0.498293  1
  Rh  Rh25  1  0.675121  0.329399  0.498879  1
  Rh  Rh26  1  0.996135  0.998385  0.003048  1
  Rh  Rh27  1  0.996135  0.998385  0.496952  1
