# generated using pymatgen
data_Tb4ReTc3Ru4
_symmetry_space_group_name_H-M   'P 1'
_cell_length_a   5.23494048
_cell_length_b   5.41520556
_cell_length_c   9.14831200
_cell_angle_alpha   90.00000000
_cell_angle_beta   90.00000000
_cell_angle_gamma   121.14580005
_symmetry_Int_Tables_number   1
_chemical_formula_structural   Tb4ReTc3Ru4
_chemical_formula_sum   'Tb4 Re1 Tc3 Ru4'
_cell_volume   221.95621178
_cell_formula_units_Z   1
loop_
 _symmetry_equiv_pos_site_id
 _symmetry_equiv_pos_as_xyz
  1  'x, y, z'
loop_
 _atom_site_type_symbol
 _atom_site_label
 _atom_site_symmetry_multiplicity
 _atom_site_fract_x
 _atom_site_fract_y
 _atom_site_fract_z
 _atom_site_occupancy
  Tb  Tb0  1  0.333848  0.666924  0.436107  1
  Tb  Tb1  1  0.656084  0.328042  0.568714  1
  Tb  Tb2  1  0.656084  0.328042  0.931286  1
  Tb  Tb3  1  0.333848  0.666924  0.063893  1
  Re  Re4  1  0.693640  0.846820  0.750000  1
  Tc  Tc5  1  0.830604  0.173385  0.250000  1
  Tc  Tc6  1  0.830604  0.657218  0.250000  1
  Tc  Tc7  1  0.339243  0.169621  0.250000  1
  Ru  Ru8  1  0.981569  0.990784  0.502132  1
  Ru  Ru9  1  0.981569  0.990784  0.997868  1
  Ru  Ru10  1  0.181454  0.823490  0.750000  1
  Ru  Ru11  1  0.181454  0.357965  0.750000  1
