# generated using pymatgen
data_Hf6Ti2Ga14GeRh7
_symmetry_space_group_name_H-M   'P 1'
_cell_length_a   8.80544764
_cell_length_b   8.81433763
_cell_length_c   8.80539977
_cell_angle_alpha   120.50677529
_cell_angle_beta   119.51472527
_cell_angle_gamma   89.95305754
_symmetry_Int_Tables_number   1
_chemical_formula_structural   Hf6Ti2Ga14GeRh7
_chemical_formula_sum   'Hf6 Ti2 Ga14 Ge1 Rh7'
_cell_volume   483.25816474
_cell_formula_units_Z   1
loop_
 _symmetry_equiv_pos_site_id
 _symmetry_equiv_pos_as_xyz
  1  'x, y, z'
loop_
 _atom_site_type_symbol
 _atom_site_label
 _atom_site_symmetry_multiplicity
 _atom_site_fract_x
 _atom_site_fract_y
 _atom_site_fract_z
 _atom_site_occupancy
  Hf  Hf0  1  0.797294  0.288849  0.076643  1
  Hf  Hf1  1  0.212197  0.288806  0.491536  1
  Hf  Hf2  1  0.202979  0.702959  0.499969  1
  Hf  Hf3  1  0.212281  0.720673  0.923446  1
  Hf  Hf4  1  0.797210  0.720612  0.508362  1
  Hf  Hf5  1  0.783085  0.283101  0.499955  1
  Ti  Ti6  1  0.379318  0.124291  0.744985  1
  Ti  Ti7  1  0.379325  0.634366  0.255000  1
  Ga  Ga8  1  0.161691  0.344302  0.182628  1
  Ga  Ga9  1  0.161604  0.979005  0.817386  1
  Ga  Ga10  1  0.157513  0.346272  0.811550  1
  Ga  Ga11  1  0.534707  0.346255  0.188729  1
  Ga  Ga12  1  0.841125  0.657879  0.816744  1
  Ga  Ga13  1  0.841094  0.024328  0.183237  1
  Ga  Ga14  1  0.841326  0.657039  0.184315  1
  Ga  Ga15  1  0.472714  0.657000  0.815674  1
  Ga  Ga16  1  0.379230  0.123218  0.255974  1
  Ga  Ga17  1  0.867229  0.123231  0.743989  1
  Ga  Ga18  1  0.617450  0.871015  0.253599  1
  Ga  Ga19  1  0.617471  0.363832  0.746377  1
  Ga  Ga20  1  0.609874  0.874998  0.734710  1
  Ga  Ga21  1  0.140288  0.874978  0.265096  1
  Ge  Ge22  1  0.992950  0.492976  0.500071  1
  Rh  Rh23  1  0.003185  0.002078  0.502924  1
  Rh  Rh24  1  0.499163  0.002044  0.998879  1
  Rh  Rh25  1  0.497300  0.497194  0.999889  1
  Rh  Rh26  1  0.499153  0.500199  0.497156  1
  Rh  Rh27  1  0.003038  0.500206  0.001075  1
  Rh  Rh28  1  0.001128  0.001161  0.000044  1
  Rh  Rh29  1  0.497071  0.997130  0.500060  1
