# generated using pymatgen
data_CaB13C2
_symmetry_space_group_name_H-M   'P 1'
_cell_length_a   5.62998963
_cell_length_b   7.37694395
_cell_length_c   7.35068422
_cell_angle_alpha   66.34525904
_cell_angle_beta   67.77447305
_cell_angle_gamma   67.27636146
_symmetry_Int_Tables_number   1
_chemical_formula_structural   CaB13C2
_chemical_formula_sum   'Ca2 B26 C4'
_cell_volume   248.76415199
_cell_formula_units_Z   2
loop_
 _symmetry_equiv_pos_site_id
 _symmetry_equiv_pos_as_xyz
  1  'x, y, z'
loop_
 _atom_site_type_symbol
 _atom_site_label
 _atom_site_symmetry_multiplicity
 _atom_site_fract_x
 _atom_site_fract_y
 _atom_site_fract_z
 _atom_site_occupancy
  Ca  Ca0  1  0.744039  0.873746  0.628148  1
  Ca  Ca1  1  0.251667  0.130582  0.371329  1
  B  B2  1  0.666325  0.323717  0.346621  1
  B  B3  1  0.822263  0.488350  0.380112  1
  B  B4  1  0.188799  0.121870  0.013563  1
  B  B5  1  0.173760  0.516017  0.619397  1
  B  B6  1  0.902044  0.094056  0.775767  1
  B  B7  1  0.269981  0.726122  0.407846  1
  B  B8  1  0.679656  0.523975  0.632413  1
  B  B9  1  0.661949  0.134855  0.021546  1
  B  B10  1  0.407727  0.275637  0.588368  1
  B  B11  1  0.329806  0.680619  0.652849  1
  B  B12  1  0.424428  0.397074  0.751446  1
  B  B13  1  0.588367  0.728662  0.411126  1
  B  B14  1  0.807316  0.882531  0.985928  1
  B  B15  1  0.834694  0.155282  0.178192  1
  B  B16  1  0.316410  0.480358  0.367043  1
  B  B17  1  0.859524  0.559983  0.941944  1
  B  B18  1  0.769801  0.913568  0.226237  1
  B  B19  1  0.161396  0.849048  0.821291  1
  B  B20  1  0.925011  0.253872  0.894657  1
  B  B21  1  0.726144  0.278198  0.591636  1
  B  B22  1  0.226274  0.090801  0.773206  1
  B  B23  1  0.071048  0.750480  0.104830  1
  B  B24  1  0.334139  0.869481  0.977960  1
  B  B25  1  0.571692  0.607249  0.248053  1
  B  B26  1  0.136591  0.444402  0.057529  1
  B  B27  1  0.094002  0.910276  0.223717  1
  C  C28  1  0.113590  0.512905  0.241079  1
  C  C29  1  0.365763  0.260771  0.988910  1
  C  C30  1  0.630381  0.743556  0.010508  1
  C  C31  1  0.882520  0.491356  0.758340  1
