# generated using pymatgen
data_Tb2Dy2C7
_symmetry_space_group_name_H-M   'P 1'
_cell_length_a   13.79433200
_cell_length_b   3.72838397
_cell_length_c   6.49483155
_cell_angle_alpha   75.27353573
_cell_angle_beta   90.00000000
_cell_angle_gamma   90.00000000
_symmetry_Int_Tables_number   1
_chemical_formula_structural   Tb2Dy2C7
_chemical_formula_sum   'Tb4 Dy4 C14'
_cell_volume   323.06003267
_cell_formula_units_Z   2
loop_
 _symmetry_equiv_pos_site_id
 _symmetry_equiv_pos_as_xyz
  1  'x, y, z'
loop_
 _atom_site_type_symbol
 _atom_site_label
 _atom_site_symmetry_multiplicity
 _atom_site_fract_x
 _atom_site_fract_y
 _atom_site_fract_z
 _atom_site_occupancy
  Tb  Tb0  1  0.055461  0.631005  0.739573  1
  Tb  Tb1  1  0.944539  0.368995  0.260427  1
  Tb  Tb2  1  0.555461  0.368995  0.760427  1
  Tb  Tb3  1  0.444539  0.631005  0.239573  1
  Dy  Dy4  1  0.336675  0.947572  0.660907  1
  Dy  Dy5  1  0.663325  0.052428  0.339093  1
  Dy  Dy6  1  0.836675  0.052428  0.839093  1
  Dy  Dy7  1  0.163325  0.947572  0.160907  1
  C  C8  1  0.895342  0.738204  0.549586  1
  C  C9  1  0.104658  0.261796  0.450414  1
  C  C10  1  0.395342  0.261796  0.950414  1
  C  C11  1  0.604658  0.738204  0.049586  1
  C  C12  1  0.216985  0.534361  0.926261  1
  C  C13  1  0.783015  0.465639  0.073739  1
  C  C14  1  0.716985  0.465639  0.573739  1
  C  C15  1  0.283015  0.534361  0.426261  1
  C  C16  1  0.804128  0.620837  0.546072  1
  C  C17  1  0.195872  0.379163  0.453928  1
  C  C18  1  0.304128  0.379163  0.953928  1
  C  C19  1  0.695872  0.620837  0.046072  1
  C  C20  1  0.500000  0.000000  0.500000  1
  C  C21  1  0.000000  0.000000  0.000000  1
