# generated using pymatgen
data_ErTi4(ReTc)12
_symmetry_space_group_name_H-M   'P 1'
_cell_length_a   8.38089911
_cell_length_b   8.38073726
_cell_length_c   8.38124000
_cell_angle_alpha   109.47691867
_cell_angle_beta   109.46757913
_cell_angle_gamma   109.47034274
_symmetry_Int_Tables_number   1
_chemical_formula_structural   ErTi4(ReTc)12
_chemical_formula_sum   'Er1 Ti4 Re12 Tc12'
_cell_volume   453.16139481
_cell_formula_units_Z   1
loop_
 _symmetry_equiv_pos_site_id
 _symmetry_equiv_pos_as_xyz
  1  'x, y, z'
loop_
 _atom_site_type_symbol
 _atom_site_label
 _atom_site_symmetry_multiplicity
 _atom_site_fract_x
 _atom_site_fract_y
 _atom_site_fract_z
 _atom_site_occupancy
  Er  Er0  1  0.000008  0.000005  0.999995  1
  Ti  Ti1  1  0.626844  0.999974  0.999924  1
  Ti  Ti2  1  0.000030  0.626910  0.000070  1
  Ti  Ti3  1  0.999985  0.000016  0.626874  1
  Ti  Ti4  1  0.373142  0.373080  0.373123  1
  Re  Re5  1  0.378691  0.194775  0.000011  1
  Re  Re6  1  0.183915  0.805232  0.805287  1
  Re  Re7  1  0.378649  0.999995  0.194731  1
  Re  Re8  1  0.194790  0.378681  0.999993  1
  Re  Re9  1  0.000006  0.378669  0.194735  1
  Re  Re10  1  0.805277  0.183960  0.805292  1
  Re  Re11  1  0.805229  0.805203  0.183872  1
  Re  Re12  1  0.999995  0.194762  0.378625  1
  Re  Re13  1  0.194695  0.999980  0.378673  1
  Re  Re14  1  0.621338  0.621327  0.816097  1
  Re  Re15  1  0.816107  0.621360  0.621342  1
  Re  Re16  1  0.621334  0.816068  0.621345  1
  Tc  Tc17  1  0.401419  0.681382  0.000014  1
  Tc  Tc18  1  0.720060  0.318620  0.318689  1
  Tc  Tc19  1  0.401365  0.999950  0.681370  1
  Tc  Tc20  1  0.681375  0.401384  0.000004  1
  Tc  Tc21  1  0.000018  0.401402  0.681378  1
  Tc  Tc22  1  0.318602  0.720069  0.318610  1
  Tc  Tc23  1  0.318632  0.318664  0.720016  1
  Tc  Tc24  1  0.999968  0.681333  0.401383  1
  Tc  Tc25  1  0.681395  0.000031  0.401460  1
  Tc  Tc26  1  0.598610  0.598607  0.279985  1
  Tc  Tc27  1  0.279941  0.598624  0.598574  1
  Tc  Tc28  1  0.598580  0.279939  0.598531  1
