# generated using pymatgen
data_KCe(PPd)2
_symmetry_space_group_name_H-M   'P 1'
_cell_length_a   4.13844800
_cell_length_b   4.13844841
_cell_length_c   9.03105000
_cell_angle_alpha   90.00000000
_cell_angle_beta   90.00000000
_cell_angle_gamma   120.00001268
_symmetry_Int_Tables_number   1
_chemical_formula_structural   KCe(PPd)2
_chemical_formula_sum   'K1 Ce1 P2 Pd2'
_cell_volume   133.95035580
_cell_formula_units_Z   1
loop_
 _symmetry_equiv_pos_site_id
 _symmetry_equiv_pos_as_xyz
  1  'x, y, z'
loop_
 _atom_site_type_symbol
 _atom_site_label
 _atom_site_symmetry_multiplicity
 _atom_site_fract_x
 _atom_site_fract_y
 _atom_site_fract_z
 _atom_site_occupancy
  K  K0  1  0.000000  0.000000  0.500000  1
  Ce  Ce1  1  0.000000  0.000000  0.000000  1
  P  P2  1  0.333333  0.666667  0.798660  1
  P  P3  1  0.666667  0.333333  0.201340  1
  Pd  Pd4  1  0.333333  0.666667  0.227198  1
  Pd  Pd5  1  0.666667  0.333333  0.772802  1
