# generated using pymatgen
data_Mg4TaNb(SbPt)6
_symmetry_space_group_name_H-M   'P 1'
_cell_length_a   7.76385656
_cell_length_b   7.76211816
_cell_length_c   7.76013516
_cell_angle_alpha   99.61587847
_cell_angle_beta   99.64907397
_cell_angle_gamma   120.00845264
_symmetry_Int_Tables_number   1
_chemical_formula_structural   Mg4TaNb(SbPt)6
_chemical_formula_sum   'Mg4 Ta1 Nb1 Sb6 Pt6'
_cell_volume   381.61160588
_cell_formula_units_Z   1
loop_
 _symmetry_equiv_pos_site_id
 _symmetry_equiv_pos_as_xyz
  1  'x, y, z'
loop_
 _atom_site_type_symbol
 _atom_site_label
 _atom_site_symmetry_multiplicity
 _atom_site_fract_x
 _atom_site_fract_y
 _atom_site_fract_z
 _atom_site_occupancy
  Mg  Mg0  1  0.330050  0.163387  0.499175  1
  Mg  Mg1  1  0.999496  0.503053  0.499582  1
  Mg  Mg2  1  0.163530  0.330185  0.999017  1
  Mg  Mg3  1  0.502624  0.999697  0.999453  1
  Ta  Ta4  1  0.833599  0.667910  0.000413  1
  Nb  Nb5  1  0.667960  0.833349  0.500106  1
  Sb  Sb6  1  0.919388  0.095687  0.247898  1
  Sb  Sb7  1  0.257177  0.749028  0.249149  1
  Sb  Sb8  1  0.574682  0.405889  0.254452  1
  Sb  Sb9  1  0.095450  0.920024  0.746615  1
  Sb  Sb10  1  0.748849  0.254662  0.748185  1
  Sb  Sb11  1  0.405091  0.575089  0.752649  1
  Pt  Pt12  1  0.193464  0.025642  0.120222  1
  Pt  Pt13  1  0.872657  0.389352  0.121212  1
  Pt  Pt14  1  0.559246  0.709254  0.131461  1
  Pt  Pt15  1  0.029036  0.196888  0.621436  1
  Pt  Pt16  1  0.386719  0.873003  0.622452  1
  Pt  Pt17  1  0.710936  0.557862  0.636521  1
