# generated using pymatgen
data_K3Rb13(NpAs4)2
_symmetry_space_group_name_H-M   'P 1'
_cell_length_a   11.86416256
_cell_length_b   11.86419114
_cell_length_c   11.86416900
_cell_angle_alpha   59.73101135
_cell_angle_beta   59.73109295
_cell_angle_gamma   59.73104773
_symmetry_Int_Tables_number   1
_chemical_formula_structural   K3Rb13(NpAs4)2
_chemical_formula_sum   'K3 Rb13 Np2 As8'
_cell_volume   1173.64499563
_cell_formula_units_Z   1
loop_
 _symmetry_equiv_pos_site_id
 _symmetry_equiv_pos_as_xyz
  1  'x, y, z'
loop_
 _atom_site_type_symbol
 _atom_site_label
 _atom_site_symmetry_multiplicity
 _atom_site_fract_x
 _atom_site_fract_y
 _atom_site_fract_z
 _atom_site_occupancy
  K  K0  1  0.625000  0.625000  0.125000  1
  K  K1  1  0.625000  0.125000  0.625000  1
  K  K2  1  0.125000  0.625000  0.625000  1
  Rb  Rb3  1  0.625000  0.625000  0.625000  1
  Rb  Rb4  1  0.031097  0.470672  0.470673  1
  Rb  Rb5  1  0.779213  0.221256  0.221256  1
  Rb  Rb6  1  0.470907  0.030991  0.470783  1
  Rb  Rb7  1  0.470907  0.470782  0.030991  1
  Rb  Rb8  1  0.028771  0.028924  0.470632  1
  Rb  Rb9  1  0.028771  0.470632  0.028924  1
  Rb  Rb10  1  0.470787  0.028744  0.028744  1
  Rb  Rb11  1  0.779093  0.219009  0.779217  1
  Rb  Rb12  1  0.221229  0.779368  0.221076  1
  Rb  Rb13  1  0.221229  0.221076  0.779368  1
  Rb  Rb14  1  0.779093  0.779218  0.219009  1
  Rb  Rb15  1  0.218903  0.779328  0.779327  1
  Np  Np16  1  0.750735  0.750435  0.750435  1
  Np  Np17  1  0.499265  0.499565  0.499565  1
  As  As18  1  0.849609  0.849523  0.455438  1
  As  As19  1  0.849609  0.455437  0.849523  1
  As  As20  1  0.400391  0.400477  0.794562  1
  As  As21  1  0.400391  0.794563  0.400477  1
  As  As22  1  0.794026  0.400366  0.400366  1
  As  As23  1  0.847892  0.848512  0.848512  1
  As  As24  1  0.455974  0.849634  0.849634  1
  As  As25  1  0.402108  0.401488  0.401488  1
