# generated using pymatgen
data_Sr3YCoO6
_symmetry_space_group_name_H-M   'P 1'
_cell_length_a   6.77962620
_cell_length_b   6.77962649
_cell_length_c   6.77962771
_cell_angle_alpha   92.48392947
_cell_angle_beta   92.48393058
_cell_angle_gamma   92.48393031
_symmetry_Int_Tables_number   1
_chemical_formula_structural   Sr3YCoO6
_chemical_formula_sum   'Sr6 Y2 Co2 O12'
_cell_volume   310.70965882
_cell_formula_units_Z   2
loop_
 _symmetry_equiv_pos_site_id
 _symmetry_equiv_pos_as_xyz
  1  'x, y, z'
loop_
 _atom_site_type_symbol
 _atom_site_label
 _atom_site_symmetry_multiplicity
 _atom_site_fract_x
 _atom_site_fract_y
 _atom_site_fract_z
 _atom_site_occupancy
  Sr  Sr0  1  0.882414  0.617586  0.250000  1
  Sr  Sr1  1  0.250000  0.882414  0.617586  1
  Sr  Sr2  1  0.617586  0.250000  0.882414  1
  Sr  Sr3  1  0.750000  0.117586  0.382414  1
  Sr  Sr4  1  0.382414  0.750000  0.117586  1
  Sr  Sr5  1  0.117586  0.382414  0.750000  1
  Y  Y6  1  0.250000  0.250000  0.250000  1
  Y  Y7  1  0.750000  0.750000  0.750000  1
  Co  Co8  1  0.500000  0.500000  0.500000  1
  Co  Co9  1  0.000000  0.000000  0.000000  1
  O  O10  1  0.218888  0.545137  0.414271  1
  O  O11  1  0.414271  0.218888  0.545137  1
  O  O12  1  0.545137  0.414271  0.218888  1
  O  O13  1  0.914271  0.045137  0.718888  1
  O  O14  1  0.718888  0.914271  0.045137  1
  O  O15  1  0.045137  0.718888  0.914271  1
  O  O16  1  0.781112  0.454863  0.585729  1
  O  O17  1  0.585729  0.781112  0.454863  1
  O  O18  1  0.454863  0.585729  0.781112  1
  O  O19  1  0.085729  0.954863  0.281112  1
  O  O20  1  0.281112  0.085729  0.954863  1
  O  O21  1  0.954863  0.281112  0.085729  1
