# generated using pymatgen
data_Li6InAs5Rh12
_symmetry_space_group_name_H-M   'P 1'
_cell_length_a   4.22625900
_cell_length_b   5.98627800
_cell_length_c   12.71800601
_cell_angle_alpha   90.00000000
_cell_angle_beta   89.99583094
_cell_angle_gamma   90.00000000
_symmetry_Int_Tables_number   1
_chemical_formula_structural   Li6InAs5Rh12
_chemical_formula_sum   'Li6 In1 As5 Rh12'
_cell_volume   321.75997165
_cell_formula_units_Z   1
loop_
 _symmetry_equiv_pos_site_id
 _symmetry_equiv_pos_as_xyz
  1  'x, y, z'
loop_
 _atom_site_type_symbol
 _atom_site_label
 _atom_site_symmetry_multiplicity
 _atom_site_fract_x
 _atom_site_fract_y
 _atom_site_fract_z
 _atom_site_occupancy
  Li  Li0  1  0.999999  0.500000  0.998658  1
  Li  Li1  1  0.499998  0.000000  0.171140  1
  Li  Li2  1  0.999886  0.500000  0.333344  1
  Li  Li3  1  0.500036  0.000000  0.495546  1
  Li  Li4  1  0.000185  0.500000  0.668033  1
  Li  Li5  1  0.500126  0.000000  0.833345  1
  In  In6  1  0.499674  0.500000  0.833154  1
  As  As7  1  0.999976  0.000000  0.999368  1
  As  As8  1  0.499947  0.500000  0.166801  1
  As  As9  1  0.999823  0.000000  0.333328  1
  As  As10  1  0.500036  0.500000  0.499885  1
  As  As11  1  0.000156  0.000000  0.667318  1
  Rh  Rh12  1  0.499999  0.242612  0.009782  1
  Rh  Rh13  1  0.499999  0.757389  0.009782  1
  Rh  Rh14  1  0.999934  0.249375  0.170160  1
  Rh  Rh15  1  0.999934  0.750625  0.170160  1
  Rh  Rh16  1  0.499894  0.251662  0.333349  1
  Rh  Rh17  1  0.499894  0.748337  0.333349  1
  Rh  Rh18  1  0.000039  0.249366  0.496533  1
  Rh  Rh19  1  0.000039  0.750635  0.496533  1
  Rh  Rh20  1  0.500155  0.242563  0.656869  1
  Rh  Rh21  1  0.500155  0.757436  0.656869  1
  Rh  Rh22  1  0.000059  0.233365  0.833348  1
  Rh  Rh23  1  0.000059  0.766635  0.833348  1
