# generated using pymatgen
data_ErAl4GaFe6Ge
_symmetry_space_group_name_H-M   'P 1'
_cell_length_a   4.98488841
_cell_length_b   6.53106251
_cell_length_c   6.55231975
_cell_angle_alpha   80.30458836
_cell_angle_beta   67.64209655
_cell_angle_gamma   67.56536495
_symmetry_Int_Tables_number   1
_chemical_formula_structural   ErAl4GaFe6Ge
_chemical_formula_sum   'Er1 Al4 Ga1 Fe6 Ge1'
_cell_volume   182.28626190
_cell_formula_units_Z   1
loop_
 _symmetry_equiv_pos_site_id
 _symmetry_equiv_pos_as_xyz
  1  'x, y, z'
loop_
 _atom_site_type_symbol
 _atom_site_label
 _atom_site_symmetry_multiplicity
 _atom_site_fract_x
 _atom_site_fract_y
 _atom_site_fract_z
 _atom_site_occupancy
  Er  Er0  1  0.000492  0.002050  0.996965  1
  Al  Al1  1  0.001258  0.347559  0.649925  1
  Al  Al2  1  0.346445  0.650687  0.656423  1
  Al  Al3  1  0.655786  0.341253  0.347174  1
  Al  Al4  1  0.310594  0.188392  0.190421  1
  Ga  Ga5  1  0.680580  0.818410  0.820429  1
  Fe  Fe6  1  0.499158  0.242860  0.758825  1
  Fe  Fe7  1  0.499101  0.757551  0.244247  1
  Fe  Fe8  1  0.999698  0.498091  0.998873  1
  Fe  Fe9  1  0.503339  0.498091  0.998873  1
  Fe  Fe10  1  0.002282  0.998284  0.500620  1
  Fe  Fe11  1  0.498815  0.998284  0.500620  1
  Ge  Ge12  1  0.002452  0.658489  0.336607  1
