# generated using pymatgen
data_Dy3Ho(CrB4)4
_symmetry_space_group_name_H-M   'P 1'
_cell_length_a   3.44104900
_cell_length_b   5.93030414
_cell_length_c   11.46406028
_cell_angle_alpha   90.02537582
_cell_angle_beta   90.00000000
_cell_angle_gamma   90.00000000
_symmetry_Int_Tables_number   1
_chemical_formula_structural   Dy3Ho(CrB4)4
_chemical_formula_sum   'Dy3 Ho1 Cr4 B16'
_cell_volume   233.94094658
_cell_formula_units_Z   1
loop_
 _symmetry_equiv_pos_site_id
 _symmetry_equiv_pos_as_xyz
  1  'x, y, z'
loop_
 _atom_site_type_symbol
 _atom_site_label
 _atom_site_symmetry_multiplicity
 _atom_site_fract_x
 _atom_site_fract_y
 _atom_site_fract_z
 _atom_site_occupancy
  Dy  Dy0  1  0.000000  0.624654  0.349120  1
  Dy  Dy1  1  0.000000  0.375374  0.651015  1
  Dy  Dy2  1  0.000000  0.124546  0.150768  1
  Ho  Ho3  1  0.000000  0.875497  0.849175  1
  Cr  Cr4  1  0.000000  0.624405  0.080742  1
  Cr  Cr5  1  0.000000  0.375699  0.918952  1
  Cr  Cr6  1  0.000000  0.124116  0.419218  1
  Cr  Cr7  1  0.000000  0.875741  0.581117  1
  B  B8  1  0.500000  0.781494  0.184001  1
  B  B9  1  0.500000  0.218110  0.815929  1
  B  B10  1  0.500000  0.281429  0.315831  1
  B  B11  1  0.500000  0.718707  0.684398  1
  B  B12  1  0.500000  0.862916  0.032088  1
  B  B13  1  0.500000  0.137025  0.967433  1
  B  B14  1  0.500000  0.362813  0.467671  1
  B  B15  1  0.500000  0.637360  0.532529  1
  B  B16  1  0.500000  0.886732  0.453308  1
  B  B17  1  0.500000  0.112977  0.547001  1
  B  B18  1  0.500000  0.386955  0.046610  1
  B  B19  1  0.500000  0.613514  0.952973  1
  B  B20  1  0.500000  0.975310  0.308449  1
  B  B21  1  0.500000  0.024399  0.691807  1
  B  B22  1  0.500000  0.475359  0.191352  1
  B  B23  1  0.500000  0.524868  0.808515  1
