# generated using pymatgen
data_Pr8Y11ScGa11Si5
_symmetry_space_group_name_H-M   'P 1'
_cell_length_a   7.57461033
_cell_length_b   8.00546367
_cell_length_c   15.22228989
_cell_angle_alpha   89.85061217
_cell_angle_beta   90.13205438
_cell_angle_gamma   90.22658897
_symmetry_Int_Tables_number   1
_chemical_formula_structural   Pr8Y11ScGa11Si5
_chemical_formula_sum   'Pr8 Y11 Sc1 Ga11 Si5'
_cell_volume   923.04050550
_cell_formula_units_Z   1
loop_
 _symmetry_equiv_pos_site_id
 _symmetry_equiv_pos_as_xyz
  1  'x, y, z'
loop_
 _atom_site_type_symbol
 _atom_site_label
 _atom_site_symmetry_multiplicity
 _atom_site_fract_x
 _atom_site_fract_y
 _atom_site_fract_z
 _atom_site_occupancy
  Pr  Pr0  1  0.019150  0.180039  0.406609  1
  Pr  Pr1  1  0.518019  0.321164  0.407217  1
  Pr  Pr2  1  0.482809  0.679748  0.903753  1
  Pr  Pr3  1  0.482133  0.682793  0.595406  1
  Pr  Pr4  1  0.984774  0.813290  0.595520  1
  Pr  Pr5  1  0.983175  0.818291  0.903669  1
  Pr  Pr6  1  0.515425  0.318527  0.094571  1
  Pr  Pr7  1  0.015618  0.182842  0.094339  1
  Y  Y8  1  0.325722  0.175428  0.621872  1
  Y  Y9  1  0.673360  0.820855  0.379260  1
  Y  Y10  1  0.666439  0.981680  0.751802  1
  Y  Y11  1  0.175400  0.677135  0.378553  1
  Y  Y12  1  0.822666  0.326365  0.876385  1
  Y  Y13  1  0.824156  0.329557  0.623072  1
  Y  Y14  1  0.839612  0.486053  0.251274  1
  Y  Y15  1  0.335848  0.016913  0.251359  1
  Y  Y16  1  0.327744  0.177840  0.875962  1
  Y  Y17  1  0.174402  0.672748  0.122663  1
  Y  Y18  1  0.673055  0.824873  0.121277  1
  Sc  Sc19  1  0.157430  0.510898  0.750678  1
  Ga  Ga20  1  0.272075  0.870333  0.749344  1
  Ga  Ga21  1  0.467802  0.607126  0.251213  1
  Ga  Ga22  1  0.033361  0.116168  0.748417  1
  Ga  Ga23  1  0.524056  0.400771  0.748731  1
  Ga  Ga24  1  0.154359  0.470067  0.542087  1
  Ga  Ga25  1  0.966894  0.886485  0.250462  1
  Ga  Ga26  1  0.725415  0.122193  0.251402  1
  Ga  Ga27  1  0.844357  0.530169  0.040468  1
  Ga  Ga28  1  0.344840  0.967082  0.039066  1
  Ga  Ga29  1  0.154658  0.470907  0.955595  1
  Ga  Ga30  1  0.655785  0.033361  0.540447  1
  Si  Si31  1  0.348830  0.968330  0.459360  1
  Si  Si32  1  0.850707  0.529125  0.458522  1
  Si  Si33  1  0.783820  0.616555  0.749298  1
  Si  Si34  1  0.224231  0.381896  0.251551  1
  Si  Si35  1  0.651874  0.032394  0.958794  1
