# generated using pymatgen
data_Tb3YAl18Co5Au
_symmetry_space_group_name_H-M   'P 1'
_cell_length_a   7.44124994
_cell_length_b   7.44131621
_cell_length_c   9.36401500
_cell_angle_alpha   89.78843464
_cell_angle_beta   89.78867215
_cell_angle_gamma   119.15826775
_symmetry_Int_Tables_number   1
_chemical_formula_structural   Tb3YAl18Co5Au
_chemical_formula_sum   'Tb3 Y1 Al18 Co5 Au1'
_cell_volume   452.79156937
_cell_formula_units_Z   1
loop_
 _symmetry_equiv_pos_site_id
 _symmetry_equiv_pos_as_xyz
  1  'x, y, z'
loop_
 _atom_site_type_symbol
 _atom_site_label
 _atom_site_symmetry_multiplicity
 _atom_site_fract_x
 _atom_site_fract_y
 _atom_site_fract_z
 _atom_site_occupancy
  Tb  Tb0  1  0.995550  0.677562  0.251310  1
  Tb  Tb1  1  0.004467  0.322432  0.748690  1
  Tb  Tb2  1  0.677557  0.995540  0.251309  1
  Y  Y3  1  0.322429  0.004460  0.748684  1
  Al  Al4  1  0.137513  0.137509  0.263299  1
  Al  Al5  1  0.862515  0.862512  0.736703  1
  Al  Al6  1  0.332304  0.332302  0.542393  1
  Al  Al7  1  0.654995  0.655016  0.051860  1
  Al  Al8  1  0.344982  0.344994  0.948136  1
  Al  Al9  1  0.667683  0.667694  0.457613  1
  Al  Al10  1  0.340026  0.557827  0.252376  1
  Al  Al11  1  0.659964  0.442161  0.747618  1
  Al  Al12  1  0.557809  0.340026  0.252382  1
  Al  Al13  1  0.442157  0.659980  0.747624  1
  Al  Al14  1  0.001395  0.349722  0.076424  1
  Al  Al15  1  0.003350  0.663132  0.569687  1
  Al  Al16  1  0.336886  0.996664  0.430333  1
  Al  Al17  1  0.650266  0.998605  0.923572  1
  Al  Al18  1  0.998666  0.650318  0.923576  1
  Al  Al19  1  0.996696  0.336900  0.430318  1
  Al  Al20  1  0.663087  0.003305  0.569686  1
  Al  Al21  1  0.349695  0.001342  0.076417  1
  Co  Co22  1  0.999997  0.000000  0.500002  1
  Co  Co23  1  0.671019  0.328975  0.999992  1
  Co  Co24  1  0.329027  0.670972  0.500005  1
  Co  Co25  1  0.328981  0.671024  0.999992  1
  Co  Co26  1  0.670978  0.329026  0.500005  1
  Au  Au27  1  0.000005  0.000000  0.999993  1
