# generated using pymatgen
data_Sr6Tc(RuO6)2
_symmetry_space_group_name_H-M   'P 1'
_cell_length_a   8.75959006
_cell_length_b   8.75959017
_cell_length_c   7.01570971
_cell_angle_alpha   68.00914523
_cell_angle_beta   68.00914557
_cell_angle_gamma   36.88754423
_symmetry_Int_Tables_number   1
_chemical_formula_structural   Sr6Tc(RuO6)2
_chemical_formula_sum   'Sr6 Tc1 Ru2 O12'
_cell_volume   296.88447979
_cell_formula_units_Z   1
loop_
 _symmetry_equiv_pos_site_id
 _symmetry_equiv_pos_as_xyz
  1  'x, y, z'
loop_
 _atom_site_type_symbol
 _atom_site_label
 _atom_site_symmetry_multiplicity
 _atom_site_fract_x
 _atom_site_fract_y
 _atom_site_fract_z
 _atom_site_occupancy
  Sr  Sr0  1  0.218129  0.218129  0.706467  1
  Sr  Sr1  1  0.879589  0.879589  0.707059  1
  Sr  Sr2  1  0.549365  0.549365  0.702785  1
  Sr  Sr3  1  0.781871  0.781871  0.293533  1
  Sr  Sr4  1  0.450635  0.450635  0.297215  1
  Sr  Sr5  1  0.120411  0.120411  0.292941  1
  Tc  Tc6  1  0.000000  0.000000  0.000000  1
  Ru  Ru7  1  0.665814  0.665814  0.999702  1
  Ru  Ru8  1  0.334186  0.334186  0.000298  1
  O  O9  1  0.279508  0.279508  0.327374  1
  O  O10  1  0.946303  0.946303  0.322299  1
  O  O11  1  0.611305  0.611305  0.326774  1
  O  O12  1  0.720492  0.720492  0.672626  1
  O  O13  1  0.388695  0.388695  0.673226  1
  O  O14  1  0.053697  0.053697  0.677701  1
  O  O15  1  0.000000  0.500000  0.000000  1
  O  O16  1  0.669571  0.165525  0.999990  1
  O  O17  1  0.330429  0.834475  0.000010  1
  O  O18  1  0.500000  0.000000  0.000000  1
  O  O19  1  0.165525  0.669571  0.999990  1
  O  O20  1  0.834475  0.330429  0.000010  1
