# generated using pymatgen
data_Ho2Tm3(CoO6)2
_symmetry_space_group_name_H-M   'P 1'
_cell_length_a   6.68905328
_cell_length_b   6.68905347
_cell_length_c   7.11080385
_cell_angle_alpha   74.44139842
_cell_angle_beta   74.44139425
_cell_angle_gamma   50.56826573
_symmetry_Int_Tables_number   1
_chemical_formula_structural   Ho2Tm3(CoO6)2
_chemical_formula_sum   'Ho2 Tm3 Co2 O12'
_cell_volume   234.68124355
_cell_formula_units_Z   1
loop_
 _symmetry_equiv_pos_site_id
 _symmetry_equiv_pos_as_xyz
  1  'x, y, z'
loop_
 _atom_site_type_symbol
 _atom_site_label
 _atom_site_symmetry_multiplicity
 _atom_site_fract_x
 _atom_site_fract_y
 _atom_site_fract_z
 _atom_site_occupancy
  Ho  Ho0  1  0.692100  0.692100  0.165366  1
  Ho  Ho1  1  0.999917  0.999917  0.500912  1
  Tm  Tm2  1  0.305112  0.305112  0.357169  1
  Tm  Tm3  1  0.694940  0.694940  0.643985  1
  Tm  Tm4  1  0.308179  0.308179  0.834220  1
  Co  Co5  1  0.755476  0.244493  0.999662  1
  Co  Co6  1  0.244493  0.755476  0.999662  1
  O  O7  1  0.902516  0.418503  0.918292  1
  O  O8  1  0.418503  0.902516  0.918292  1
  O  O9  1  0.100702  0.578832  0.079244  1
  O  O10  1  0.578832  0.100702  0.079244  1
  O  O11  1  0.097367  0.596283  0.576260  1
  O  O12  1  0.596283  0.097367  0.576260  1
  O  O13  1  0.904136  0.402550  0.426050  1
  O  O14  1  0.402550  0.904136  0.426050  1
  O  O15  1  0.999899  0.999899  0.827655  1
  O  O16  1  0.999452  0.999452  0.172974  1
  O  O17  1  0.500466  0.500466  0.821058  1
  O  O18  1  0.499075  0.499075  0.177645  1
