# generated using pymatgen
data_Sc2Fe3Co2P6Rh5
_symmetry_space_group_name_H-M   'P 1'
_cell_length_a   3.71078400
_cell_length_b   10.44175200
_cell_length_c   12.10740000
_cell_angle_alpha   90.00000000
_cell_angle_beta   90.00000000
_cell_angle_gamma   90.00000000
_symmetry_Int_Tables_number   1
_chemical_formula_structural   Sc2Fe3Co2P6Rh5
_chemical_formula_sum   'Sc4 Fe6 Co4 P12 Rh10'
_cell_volume   469.12647211
_cell_formula_units_Z   2
loop_
 _symmetry_equiv_pos_site_id
 _symmetry_equiv_pos_as_xyz
  1  'x, y, z'
loop_
 _atom_site_type_symbol
 _atom_site_label
 _atom_site_symmetry_multiplicity
 _atom_site_fract_x
 _atom_site_fract_y
 _atom_site_fract_z
 _atom_site_occupancy
  Sc  Sc0  1  0.250000  0.586770  0.713547  1
  Sc  Sc1  1  0.250000  0.913230  0.213547  1
  Sc  Sc2  1  0.750000  0.425093  0.289054  1
  Sc  Sc3  1  0.750000  0.074907  0.789054  1
  Fe  Fe4  1  0.750000  0.776541  0.826582  1
  Fe  Fe5  1  0.750000  0.723459  0.326582  1
  Fe  Fe6  1  0.250000  0.877293  0.696010  1
  Fe  Fe7  1  0.250000  0.622707  0.196010  1
  Fe  Fe8  1  0.250000  0.463170  0.931211  1
  Fe  Fe9  1  0.250000  0.036830  0.431211  1
  Co  Co10  1  0.750000  0.113739  0.301251  1
  Co  Co11  1  0.750000  0.386261  0.801251  1
  Co  Co12  1  0.750000  0.540764  0.066879  1
  Co  Co13  1  0.750000  0.959236  0.566879  1
  P  P14  1  0.250000  0.435030  0.112210  1
  P  P15  1  0.250000  0.064970  0.612210  1
  P  P16  1  0.750000  0.576280  0.885863  1
  P  P17  1  0.750000  0.923720  0.385863  1
  P  P18  1  0.250000  0.269613  0.868041  1
  P  P19  1  0.250000  0.230387  0.368041  1
  P  P20  1  0.750000  0.729014  0.145101  1
  P  P21  1  0.750000  0.770986  0.645101  1
  P  P22  1  0.250000  0.605008  0.374852  1
  P  P23  1  0.250000  0.894992  0.874852  1
  P  P24  1  0.750000  0.405135  0.619344  1
  P  P25  1  0.750000  0.094865  0.119344  1
  Rh  Rh26  1  0.250000  0.712211  0.984032  1
  Rh  Rh27  1  0.250000  0.787789  0.484032  1
  Rh  Rh28  1  0.750000  0.284032  0.006339  1
  Rh  Rh29  1  0.750000  0.215968  0.506339  1
  Rh  Rh30  1  0.250000  0.413448  0.475800  1
  Rh  Rh31  1  0.250000  0.086552  0.975800  1
  Rh  Rh32  1  0.750000  0.597952  0.525117  1
  Rh  Rh33  1  0.750000  0.902048  0.025117  1
  Rh  Rh34  1  0.250000  0.228346  0.178770  1
  Rh  Rh35  1  0.250000  0.271655  0.678770  1
