# generated using pymatgen
data_Nd8Si12HgPt3
_symmetry_space_group_name_H-M   'P 1'
_cell_length_a   8.28496600
_cell_length_b   8.28496598
_cell_length_c   8.62493100
_cell_angle_alpha   90.00000000
_cell_angle_beta   90.00000000
_cell_angle_gamma   120.00000009
_symmetry_Int_Tables_number   1
_chemical_formula_structural   Nd8Si12HgPt3
_chemical_formula_sum   'Nd8 Si12 Hg1 Pt3'
_cell_volume   512.70519801
_cell_formula_units_Z   1
loop_
 _symmetry_equiv_pos_site_id
 _symmetry_equiv_pos_as_xyz
  1  'x, y, z'
loop_
 _atom_site_type_symbol
 _atom_site_label
 _atom_site_symmetry_multiplicity
 _atom_site_fract_x
 _atom_site_fract_y
 _atom_site_fract_z
 _atom_site_occupancy
  Nd  Nd0  1  0.000000  0.000000  0.747036  1
  Nd  Nd1  1  0.000000  0.000000  0.253377  1
  Nd  Nd2  1  0.497253  0.502747  0.745824  1
  Nd  Nd3  1  0.497253  0.994506  0.745824  1
  Nd  Nd4  1  0.005494  0.502747  0.745824  1
  Nd  Nd5  1  0.498323  0.501677  0.253967  1
  Nd  Nd6  1  0.003356  0.501677  0.253967  1
  Nd  Nd7  1  0.498323  0.996644  0.253967  1
  Si  Si8  1  0.841840  0.158160  0.000328  1
  Si  Si9  1  0.841840  0.683679  0.000328  1
  Si  Si10  1  0.316321  0.158160  0.000328  1
  Si  Si11  1  0.833450  0.166550  0.500684  1
  Si  Si12  1  0.833450  0.666901  0.500684  1
  Si  Si13  1  0.333099  0.166550  0.500684  1
  Si  Si14  1  0.165915  0.834085  0.499382  1
  Si  Si15  1  0.668172  0.834085  0.499382  1
  Si  Si16  1  0.165915  0.331828  0.499382  1
  Si  Si17  1  0.168409  0.831591  0.000379  1
  Si  Si18  1  0.663182  0.831591  0.000379  1
  Si  Si19  1  0.168409  0.336818  0.000379  1
  Hg  Hg20  1  0.666667  0.333333  0.996773  1
  Pt  Pt21  1  0.666667  0.333333  0.501388  1
  Pt  Pt22  1  0.333333  0.666667  0.498643  1
  Pt  Pt23  1  0.333333  0.666667  0.001095  1
