# generated using pymatgen
data_Ca8Be3Si12Rh
_symmetry_space_group_name_H-M   'P 1'
_cell_length_a   7.98480600
_cell_length_b   7.98480564
_cell_length_c   8.71864300
_cell_angle_alpha   90.00000000
_cell_angle_beta   90.00000000
_cell_angle_gamma   119.99999321
_symmetry_Int_Tables_number   1
_chemical_formula_structural   Ca8Be3Si12Rh
_chemical_formula_sum   'Ca8 Be3 Si12 Rh1'
_cell_volume   481.40242612
_cell_formula_units_Z   1
loop_
 _symmetry_equiv_pos_site_id
 _symmetry_equiv_pos_as_xyz
  1  'x, y, z'
loop_
 _atom_site_type_symbol
 _atom_site_label
 _atom_site_symmetry_multiplicity
 _atom_site_fract_x
 _atom_site_fract_y
 _atom_site_fract_z
 _atom_site_occupancy
  Ca  Ca0  1  0.000000  0.000000  0.748786  1
  Ca  Ca1  1  0.000000  0.000000  0.251232  1
  Ca  Ca2  1  0.498807  0.501193  0.753373  1
  Ca  Ca3  1  0.498807  0.997617  0.753373  1
  Ca  Ca4  1  0.002383  0.501193  0.753373  1
  Ca  Ca5  1  0.499288  0.500712  0.246644  1
  Ca  Ca6  1  0.001425  0.500712  0.246644  1
  Ca  Ca7  1  0.499288  0.998575  0.246644  1
  Be  Be8  1  0.666667  0.333333  0.999263  1
  Be  Be9  1  0.666667  0.333333  0.500970  1
  Be  Be10  1  0.333333  0.666667  0.498806  1
  Si  Si11  1  0.830599  0.169401  0.999717  1
  Si  Si12  1  0.830599  0.661196  0.999717  1
  Si  Si13  1  0.338804  0.169401  0.999717  1
  Si  Si14  1  0.827497  0.172503  0.500153  1
  Si  Si15  1  0.827497  0.654995  0.500153  1
  Si  Si16  1  0.345005  0.172503  0.500153  1
  Si  Si17  1  0.172528  0.827472  0.500051  1
  Si  Si18  1  0.654946  0.827472  0.500051  1
  Si  Si19  1  0.172528  0.345054  0.500051  1
  Si  Si20  1  0.168985  0.831015  0.000125  1
  Si  Si21  1  0.662030  0.831015  0.000125  1
  Si  Si22  1  0.168985  0.337970  0.000125  1
  Rh  Rh23  1  0.333333  0.666667  0.000756  1
