# generated using pymatgen
data_Ho3FeCo6(P3Ru)2
_symmetry_space_group_name_H-M   'P 1'
_cell_length_a   3.74794400
_cell_length_b   10.59591800
_cell_length_c   12.24435900
_cell_angle_alpha   90.00000000
_cell_angle_beta   90.00000000
_cell_angle_gamma   90.00000000
_symmetry_Int_Tables_number   1
_chemical_formula_structural   Ho3FeCo6(P3Ru)2
_chemical_formula_sum   'Ho6 Fe2 Co12 P12 Ru4'
_cell_volume   486.25909382
_cell_formula_units_Z   2
loop_
 _symmetry_equiv_pos_site_id
 _symmetry_equiv_pos_as_xyz
  1  'x, y, z'
loop_
 _atom_site_type_symbol
 _atom_site_label
 _atom_site_symmetry_multiplicity
 _atom_site_fract_x
 _atom_site_fract_y
 _atom_site_fract_z
 _atom_site_occupancy
  Ho  Ho0  1  0.000000  0.500000  0.528363  1
  Ho  Ho1  1  0.500000  0.000000  0.477545  1
  Ho  Ho2  1  0.500000  0.819305  0.201374  1
  Ho  Ho3  1  0.500000  0.180695  0.201374  1
  Ho  Ho4  1  0.000000  0.681828  0.797308  1
  Ho  Ho5  1  0.000000  0.318172  0.797308  1
  Fe  Fe6  1  0.000000  0.500000  0.987012  1
  Fe  Fe7  1  0.500000  0.000000  0.011375  1
  Co  Co8  1  0.000000  0.200439  0.573879  1
  Co  Co9  1  0.000000  0.799561  0.573879  1
  Co  Co10  1  0.500000  0.879813  0.711121  1
  Co  Co11  1  0.500000  0.120187  0.711121  1
  Co  Co12  1  0.000000  0.620909  0.286590  1
  Co  Co13  1  0.000000  0.379091  0.286590  1
  Co  Co14  1  0.500000  0.331327  0.990484  1
  Co  Co15  1  0.500000  0.668673  0.990484  1
  Co  Co16  1  0.000000  0.168120  0.008055  1
  Co  Co17  1  0.000000  0.831880  0.008055  1
  Co  Co18  1  0.500000  0.500000  0.702737  1
  Co  Co19  1  0.000000  0.000000  0.296958  1
  P  P20  1  0.500000  0.309403  0.622063  1
  P  P21  1  0.500000  0.690597  0.622063  1
  P  P22  1  0.000000  0.183965  0.381576  1
  P  P23  1  0.000000  0.816035  0.381576  1
  P  P24  1  0.500000  0.500000  0.882587  1
  P  P25  1  0.000000  0.000000  0.116213  1
  P  P26  1  0.500000  0.846508  0.895067  1
  P  P27  1  0.500000  0.153492  0.895067  1
  P  P28  1  0.000000  0.653311  0.103519  1
  P  P29  1  0.000000  0.346689  0.103519  1
  P  P30  1  0.500000  0.500000  0.344593  1
  P  P31  1  0.000000  0.000000  0.651894  1
  Ru  Ru32  1  0.500000  0.295586  0.430471  1
  Ru  Ru33  1  0.500000  0.704414  0.430471  1
  Ru  Ru34  1  0.500000  0.500000  0.154718  1
  Ru  Ru35  1  0.000000  0.000000  0.842993  1
