# generated using pymatgen
data_NdY5(Ni2Rh7)2
_symmetry_space_group_name_H-M   'P 1'
_cell_length_a   5.31854300
_cell_length_b   5.31854331
_cell_length_c   16.85183800
_cell_angle_alpha   90.00000000
_cell_angle_beta   90.00000000
_cell_angle_gamma   119.99999183
_symmetry_Int_Tables_number   1
_chemical_formula_structural   NdY5(Ni2Rh7)2
_chemical_formula_sum   'Nd1 Y5 Ni4 Rh14'
_cell_volume   412.82246073
_cell_formula_units_Z   1
loop_
 _symmetry_equiv_pos_site_id
 _symmetry_equiv_pos_as_xyz
  1  'x, y, z'
loop_
 _atom_site_type_symbol
 _atom_site_label
 _atom_site_symmetry_multiplicity
 _atom_site_fract_x
 _atom_site_fract_y
 _atom_site_fract_z
 _atom_site_occupancy
  Nd  Nd0  1  0.333333  0.666667  0.750000  1
  Y  Y1  1  0.333333  0.666667  0.959498  1
  Y  Y2  1  0.666667  0.333333  0.041625  1
  Y  Y3  1  0.666667  0.333333  0.458375  1
  Y  Y4  1  0.333333  0.666667  0.540502  1
  Y  Y5  1  0.666667  0.333333  0.250000  1
  Ni  Ni6  1  0.333333  0.666667  0.250000  1
  Ni  Ni7  1  0.666667  0.333333  0.750000  1
  Ni  Ni8  1  0.000000  0.000000  0.250000  1
  Ni  Ni9  1  0.000000  0.000000  0.750000  1
  Rh  Rh10  1  0.167504  0.832496  0.369575  1
  Rh  Rh11  1  0.167504  0.335008  0.369575  1
  Rh  Rh12  1  0.664992  0.832496  0.369575  1
  Rh  Rh13  1  0.832507  0.167493  0.629265  1
  Rh  Rh14  1  0.832507  0.665014  0.629265  1
  Rh  Rh15  1  0.334986  0.167493  0.629265  1
  Rh  Rh16  1  0.832507  0.167493  0.870735  1
  Rh  Rh17  1  0.832507  0.665014  0.870735  1
  Rh  Rh18  1  0.334986  0.167493  0.870735  1
  Rh  Rh19  1  0.167504  0.832496  0.130425  1
  Rh  Rh20  1  0.167504  0.335008  0.130425  1
  Rh  Rh21  1  0.664992  0.832496  0.130425  1
  Rh  Rh22  1  0.000000  0.000000  0.499416  1
  Rh  Rh23  1  0.000000  0.000000  0.000584  1
