# generated using pymatgen
data_Sr6HoAl(BO3)6
_symmetry_space_group_name_H-M   'P 1'
_cell_length_a   7.73467125
_cell_length_b   7.73467089
_cell_length_c   7.73467085
_cell_angle_alpha   105.43428365
_cell_angle_beta   105.43428523
_cell_angle_gamma   105.43428154
_symmetry_Int_Tables_number   1
_chemical_formula_structural   Sr6HoAl(BO3)6
_chemical_formula_sum   'Sr6 Ho1 Al1 B6 O18'
_cell_volume   400.68618208
_cell_formula_units_Z   1
loop_
 _symmetry_equiv_pos_site_id
 _symmetry_equiv_pos_as_xyz
  1  'x, y, z'
loop_
 _atom_site_type_symbol
 _atom_site_label
 _atom_site_symmetry_multiplicity
 _atom_site_fract_x
 _atom_site_fract_y
 _atom_site_fract_z
 _atom_site_occupancy
  Sr  Sr0  1  0.650365  0.265979  0.164700  1
  Sr  Sr1  1  0.164700  0.650365  0.265979  1
  Sr  Sr2  1  0.734020  0.835301  0.349635  1
  Sr  Sr3  1  0.265980  0.164699  0.650365  1
  Sr  Sr4  1  0.835301  0.349635  0.734021  1
  Sr  Sr5  1  0.349635  0.734021  0.835300  1
  Ho  Ho6  1  0.000000  0.000000  0.000000  1
  Al  Al7  1  0.500000  0.500000  0.500000  1
  B  B8  1  0.298526  0.378307  0.053589  1
  B  B9  1  0.378306  0.053589  0.298526  1
  B  B10  1  0.053589  0.298526  0.378306  1
  B  B11  1  0.946411  0.701475  0.621694  1
  B  B12  1  0.621694  0.946412  0.701474  1
  B  B13  1  0.701475  0.621694  0.946412  1
  O  O14  1  0.725146  0.816215  0.014461  1
  O  O15  1  0.797905  0.544892  0.063493  1
  O  O16  1  0.985539  0.274854  0.183783  1
  O  O17  1  0.455107  0.936507  0.202094  1
  O  O18  1  0.429624  0.495718  0.238703  1
  O  O19  1  0.183784  0.985539  0.274853  1
  O  O20  1  0.495717  0.238703  0.429624  1
  O  O21  1  0.936507  0.202094  0.455108  1
  O  O22  1  0.238703  0.429624  0.495718  1
  O  O23  1  0.761297  0.570376  0.504283  1
  O  O24  1  0.063493  0.797905  0.544892  1
  O  O25  1  0.504283  0.761297  0.570376  1
  O  O26  1  0.816215  0.014460  0.725146  1
  O  O27  1  0.570376  0.504283  0.761298  1
  O  O28  1  0.544892  0.063493  0.797906  1
  O  O29  1  0.014460  0.725145  0.816216  1
  O  O30  1  0.202094  0.455107  0.936507  1
  O  O31  1  0.274854  0.183784  0.985539  1
