# generated using pymatgen
data_Er2Tm3Tl4AgPt
_symmetry_space_group_name_H-M   'P 1'
_cell_length_a   3.61125500
_cell_length_b   8.23387383
_cell_length_c   18.51000940
_cell_angle_alpha   89.65326461
_cell_angle_beta   90.00000000
_cell_angle_gamma   90.00000000
_symmetry_Int_Tables_number   1
_chemical_formula_structural   Er2Tm3Tl4AgPt
_chemical_formula_sum   'Er4 Tm6 Tl8 Ag2 Pt2'
_cell_volume   550.37798145
_cell_formula_units_Z   2
loop_
 _symmetry_equiv_pos_site_id
 _symmetry_equiv_pos_as_xyz
  1  'x, y, z'
loop_
 _atom_site_type_symbol
 _atom_site_label
 _atom_site_symmetry_multiplicity
 _atom_site_fract_x
 _atom_site_fract_y
 _atom_site_fract_z
 _atom_site_occupancy
  Er  Er0  1  0.000000  0.278468  0.719466  1
  Er  Er1  1  0.000000  0.721532  0.280534  1
  Er  Er2  1  0.000000  0.000000  0.000000  1
  Er  Er3  1  0.000000  0.500000  0.500000  1
  Tm  Tm4  1  0.000000  0.118410  0.419807  1
  Tm  Tm5  1  0.000000  0.881590  0.580193  1
  Tm  Tm6  1  0.000000  0.383777  0.913578  1
  Tm  Tm7  1  0.000000  0.616223  0.086422  1
  Tm  Tm8  1  0.000000  0.258337  0.213557  1
  Tm  Tm9  1  0.000000  0.741663  0.786443  1
  Tl  Tl10  1  0.500000  0.409240  0.354558  1
  Tl  Tl11  1  0.500000  0.590760  0.645442  1
  Tl  Tl12  1  0.500000  0.077994  0.852701  1
  Tl  Tl13  1  0.500000  0.922006  0.147299  1
  Tl  Tl14  1  0.500000  0.295789  0.060002  1
  Tl  Tl15  1  0.500000  0.704211  0.939998  1
  Tl  Tl16  1  0.500000  0.207500  0.567246  1
  Tl  Tl17  1  0.500000  0.792500  0.432754  1
  Ag  Ag18  1  0.500000  0.027499  0.300681  1
  Ag  Ag19  1  0.500000  0.972501  0.699319  1
  Pt  Pt20  1  0.500000  0.473229  0.803898  1
  Pt  Pt21  1  0.500000  0.526771  0.196102  1
