# generated using pymatgen
data_Yb(AgO2)2
_symmetry_space_group_name_H-M   'P 1'
_cell_length_a   6.57188564
_cell_length_b   6.57188556
_cell_length_c   6.57188487
_cell_angle_alpha   126.13216741
_cell_angle_beta   126.13216399
_cell_angle_gamma   79.67102455
_symmetry_Int_Tables_number   1
_chemical_formula_structural   Yb(AgO2)2
_chemical_formula_sum   'Yb2 Ag4 O8'
_cell_volume   178.87581174
_cell_formula_units_Z   2
loop_
 _symmetry_equiv_pos_site_id
 _symmetry_equiv_pos_as_xyz
  1  'x, y, z'
loop_
 _atom_site_type_symbol
 _atom_site_label
 _atom_site_symmetry_multiplicity
 _atom_site_fract_x
 _atom_site_fract_y
 _atom_site_fract_z
 _atom_site_occupancy
  Yb  Yb0  1  0.500000  0.500000  0.000000  1
  Yb  Yb1  1  0.250000  0.750000  0.500000  1
  Ag  Ag2  1  0.375000  0.125000  0.250000  1
  Ag  Ag3  1  0.875000  0.125000  0.750000  1
  Ag  Ag4  1  0.875000  0.625000  0.750000  1
  Ag  Ag5  1  0.875000  0.125000  0.250000  1
  O  O6  1  0.903137  0.357238  0.152429  1
  O  O7  1  0.204807  0.750706  0.847571  1
  O  O8  1  0.846863  0.892762  0.347571  1
  O  O9  1  0.545193  0.499294  0.652429  1
  O  O10  1  0.500706  0.153137  0.045899  1
  O  O11  1  0.107238  0.454807  0.954101  1
  O  O12  1  0.642762  0.795193  0.545899  1
  O  O13  1  0.249294  0.096863  0.454101  1
