# generated using pymatgen
data_Sr7Yb13Ag16
_symmetry_space_group_name_H-M   'P 1'
_cell_length_a   8.21291703
_cell_length_b   8.28826931
_cell_length_c   15.60374157
_cell_angle_alpha   89.90466643
_cell_angle_beta   89.87694453
_cell_angle_gamma   89.91227536
_symmetry_Int_Tables_number   1
_chemical_formula_structural   Sr7Yb13Ag16
_chemical_formula_sum   'Sr7 Yb13 Ag16'
_cell_volume   1062.15507523
_cell_formula_units_Z   1
loop_
 _symmetry_equiv_pos_site_id
 _symmetry_equiv_pos_as_xyz
  1  'x, y, z'
loop_
 _atom_site_type_symbol
 _atom_site_label
 _atom_site_symmetry_multiplicity
 _atom_site_fract_x
 _atom_site_fract_y
 _atom_site_fract_z
 _atom_site_occupancy
  Sr  Sr0  1  0.987516  0.174466  0.598112  1
  Sr  Sr1  1  0.512686  0.674451  0.403177  1
  Sr  Sr2  1  0.014140  0.825766  0.096142  1
  Sr  Sr3  1  0.513113  0.672082  0.093929  1
  Sr  Sr4  1  0.012435  0.825958  0.403328  1
  Sr  Sr5  1  0.487404  0.325774  0.597034  1
  Sr  Sr6  1  0.986555  0.175341  0.903615  1
  Yb  Yb7  1  0.325474  0.832181  0.877669  1
  Yb  Yb8  1  0.824950  0.667098  0.624114  1
  Yb  Yb9  1  0.674528  0.167746  0.377231  1
  Yb  Yb10  1  0.176188  0.332616  0.121999  1
  Yb  Yb11  1  0.672703  0.170614  0.120341  1
  Yb  Yb12  1  0.173670  0.331764  0.377552  1
  Yb  Yb13  1  0.326599  0.832025  0.623812  1
  Yb  Yb14  1  0.823352  0.666412  0.878584  1
  Yb  Yb15  1  0.482474  0.319809  0.899632  1
  Yb  Yb16  1  0.159652  0.495016  0.751293  1
  Yb  Yb17  1  0.658227  0.005128  0.750958  1
  Yb  Yb18  1  0.841226  0.504116  0.249491  1
  Yb  Yb19  1  0.341544  0.995701  0.249159  1
  Ag  Ag20  1  0.346230  0.041589  0.041584  1
  Ag  Ag21  1  0.845688  0.463499  0.456087  1
  Ag  Ag22  1  0.654329  0.963218  0.544690  1
  Ag  Ag23  1  0.163786  0.530478  0.954164  1
  Ag  Ag24  1  0.650508  0.972308  0.953031  1
  Ag  Ag25  1  0.154074  0.537044  0.544789  1
  Ag  Ag26  1  0.345946  0.036464  0.455810  1
  Ag  Ag27  1  0.849461  0.463840  0.044007  1
  Ag  Ag28  1  0.526538  0.620207  0.753638  1
  Ag  Ag29  1  0.029731  0.875181  0.750755  1
  Ag  Ag30  1  0.470852  0.374468  0.249973  1
  Ag  Ag31  1  0.970282  0.126136  0.249006  1
  Ag  Ag32  1  0.284869  0.126107  0.753294  1
  Ag  Ag33  1  0.775771  0.374958  0.753458  1
  Ag  Ag34  1  0.718583  0.877134  0.248877  1
  Ag  Ag35  1  0.218917  0.623307  0.249667  1
