# generated using pymatgen
data_YTm3Co9Si5
_symmetry_space_group_name_H-M   'P 1'
_cell_length_a   11.29717498
_cell_length_b   11.29717518
_cell_length_c   11.29717462
_cell_angle_alpha   26.46981653
_cell_angle_beta   26.46981347
_cell_angle_gamma   26.46981324
_symmetry_Int_Tables_number   1
_chemical_formula_structural   YTm3Co9Si5
_chemical_formula_sum   'Y1 Tm3 Co9 Si5'
_cell_volume   252.47969373
_cell_formula_units_Z   1
loop_
 _symmetry_equiv_pos_site_id
 _symmetry_equiv_pos_as_xyz
  1  'x, y, z'
loop_
 _atom_site_type_symbol
 _atom_site_label
 _atom_site_symmetry_multiplicity
 _atom_site_fract_x
 _atom_site_fract_y
 _atom_site_fract_z
 _atom_site_occupancy
  Y  Y0  1  0.050531  0.050531  0.050531  1
  Tm  Tm1  1  0.949169  0.949169  0.949169  1
  Tm  Tm2  1  0.851676  0.851676  0.851676  1
  Tm  Tm3  1  0.148340  0.148340  0.148340  1
  Co  Co4  1  0.608928  0.608928  0.107832  1
  Co  Co5  1  0.892617  0.391154  0.391154  1
  Co  Co6  1  0.499887  0.999753  0.499887  1
  Co  Co7  1  0.391154  0.892617  0.391154  1
  Co  Co8  1  0.499887  0.499887  0.999753  1
  Co  Co9  1  0.107832  0.608928  0.608928  1
  Co  Co10  1  0.999753  0.499887  0.499887  1
  Co  Co11  1  0.391154  0.391154  0.892617  1
  Co  Co12  1  0.608928  0.107832  0.608928  1
  Si  Si13  1  0.278814  0.278814  0.278814  1
  Si  Si14  1  0.500099  0.500099  0.500099  1
  Si  Si15  1  0.387783  0.387783  0.387783  1
  Si  Si16  1  0.721271  0.721271  0.721271  1
  Si  Si17  1  0.612177  0.612177  0.612177  1
