# generated using pymatgen
data_Er2Tm3PtPb3
_symmetry_space_group_name_H-M   'P 1'
_cell_length_a   9.12667400
_cell_length_b   9.12667267
_cell_length_c   6.76722400
_cell_angle_alpha   90.00000000
_cell_angle_beta   90.00000000
_cell_angle_gamma   120.00000482
_symmetry_Int_Tables_number   1
_chemical_formula_structural   Er2Tm3PtPb3
_chemical_formula_sum   'Er4 Tm6 Pt2 Pb6'
_cell_volume   488.16447956
_cell_formula_units_Z   2
loop_
 _symmetry_equiv_pos_site_id
 _symmetry_equiv_pos_as_xyz
  1  'x, y, z'
loop_
 _atom_site_type_symbol
 _atom_site_label
 _atom_site_symmetry_multiplicity
 _atom_site_fract_x
 _atom_site_fract_y
 _atom_site_fract_z
 _atom_site_occupancy
  Er  Er0  1  0.333333  0.666667  0.500000  1
  Er  Er1  1  0.666667  0.333333  0.500000  1
  Er  Er2  1  0.333333  0.666667  0.000000  1
  Er  Er3  1  0.666667  0.333333  0.000000  1
  Tm  Tm4  1  0.755804  0.755804  0.250000  1
  Tm  Tm5  1  0.000000  0.755804  0.750000  1
  Tm  Tm6  1  0.244196  0.000000  0.250000  1
  Tm  Tm7  1  0.244196  0.244196  0.750000  1
  Tm  Tm8  1  0.000000  0.244196  0.250000  1
  Tm  Tm9  1  0.755804  0.000000  0.750000  1
  Pt  Pt10  1  0.000000  0.000000  0.000000  1
  Pt  Pt11  1  0.000000  0.000000  0.500000  1
  Pb  Pb12  1  0.401379  0.000000  0.750000  1
  Pb  Pb13  1  0.598621  0.000000  0.250000  1
  Pb  Pb14  1  0.401379  0.401379  0.250000  1
  Pb  Pb15  1  0.000000  0.598621  0.250000  1
  Pb  Pb16  1  0.000000  0.401379  0.750000  1
  Pb  Pb17  1  0.598621  0.598621  0.750000  1
