# generated using pymatgen
data_Li12LaDy11(TeO6)8
_symmetry_space_group_name_H-M   'P 1'
_cell_length_a   10.75835090
_cell_length_b   10.78803330
_cell_length_c   10.78803262
_cell_angle_alpha   109.71102767
_cell_angle_beta   109.40697461
_cell_angle_gamma   109.40696284
_symmetry_Int_Tables_number   1
_chemical_formula_structural   Li12LaDy11(TeO6)8
_chemical_formula_sum   'Li12 La1 Dy11 Te8 O48'
_cell_volume   962.51451512
_cell_formula_units_Z   1
loop_
 _symmetry_equiv_pos_site_id
 _symmetry_equiv_pos_as_xyz
  1  'x, y, z'
loop_
 _atom_site_type_symbol
 _atom_site_label
 _atom_site_symmetry_multiplicity
 _atom_site_fract_x
 _atom_site_fract_y
 _atom_site_fract_z
 _atom_site_occupancy
  Li  Li0  1  0.250001  0.374795  0.124794  1
  Li  Li1  1  0.373792  0.749919  0.125084  1
  Li  Li2  1  0.126209  0.874916  0.250081  1
  Li  Li3  1  0.625033  0.374692  0.250542  1
  Li  Li4  1  0.126209  0.251292  0.376127  1
  Li  Li5  1  0.750001  0.126826  0.376825  1
  Li  Li6  1  0.250001  0.875206  0.625204  1
  Li  Li7  1  0.874968  0.749458  0.625311  1
  Li  Li8  1  0.874966  0.125508  0.749657  1
  Li  Li9  1  0.373790  0.623872  0.748706  1
  Li  Li10  1  0.750000  0.623175  0.873173  1
  Li  Li11  1  0.625034  0.250342  0.874492  1
  La  La12  1  0.750000  0.875000  0.125000  1
  Dy  Dy13  1  0.875645  0.251576  0.124274  1
  Dy  Dy14  1  0.875643  0.624067  0.251370  1
  Dy  Dy15  1  0.374770  0.125109  0.249813  1
  Dy  Dy16  1  0.624356  0.748630  0.375932  1
  Dy  Dy17  1  0.250002  0.625001  0.375000  1
  Dy  Dy18  1  0.750001  0.375001  0.624999  1
  Dy  Dy19  1  0.374772  0.249661  0.624959  1
  Dy  Dy20  1  0.125228  0.375043  0.750339  1
  Dy  Dy21  1  0.624357  0.875728  0.748426  1
  Dy  Dy22  1  0.249999  0.125000  0.874999  1
  Dy  Dy23  1  0.125230  0.750187  0.874890  1
  Te  Te24  1  0.001415  0.001350  0.997259  1
  Te  Te25  1  0.498584  0.002741  0.998650  1
  Te  Te26  1  0.498585  0.495844  0.999935  1
  Te  Te27  1  0.000142  0.500045  0.999842  1
  Te  Te28  1  0.001415  0.000065  0.504154  1
  Te  Te29  1  0.499858  0.000158  0.499955  1
  Te  Te30  1  0.000142  0.500098  0.500300  1
  Te  Te31  1  0.499860  0.499702  0.499903  1
  O  O32  1  0.697427  0.610325  0.023979  1
  O  O33  1  0.828774  0.405872  0.026982  1
  O  O34  1  0.200621  0.172751  0.078203  1
  O  O35  1  0.380030  0.907431  0.077768  1
  O  O36  1  0.470441  0.173127  0.092564  1
  O  O37  1  0.119969  0.922231  0.092570  1
  O  O38  1  0.522176  0.692303  0.121002  1
  O  O39  1  0.094325  0.422506  0.120636  1
  O  O40  1  0.697427  0.087102  0.173447  1
  O  O41  1  0.977825  0.098825  0.170128  1
  O  O42  1  0.620710  0.525815  0.199717  1
  O  O43  1  0.078274  0.671853  0.198883  1
  O  O44  1  0.828774  0.422901  0.301791  1
  O  O45  1  0.977824  0.878999  0.307697  1
  O  O46  1  0.421727  0.801117  0.328147  1
  O  O47  1  0.405676  0.526312  0.328181  1
  O  O48  1  0.802573  0.976020  0.389674  1
  O  O49  1  0.078275  0.406422  0.379391  1
  O  O50  1  0.578352  0.378856  0.406367  1
  O  O51  1  0.328184  0.027533  0.406304  1
  O  O52  1  0.328183  0.300653  0.421881  1
  O  O53  1  0.593466  0.120716  0.422109  1
  O  O54  1  0.879290  0.800282  0.474184  1
  O  O55  1  0.094324  0.671819  0.473689  1
  O  O56  1  0.119969  0.197738  0.527399  1
  O  O57  1  0.906536  0.328645  0.527249  1
  O  O58  1  0.405675  0.879365  0.577494  1
  O  O59  1  0.671226  0.698210  0.577100  1
  O  O60  1  0.671226  0.973017  0.594127  1
  O  O61  1  0.421727  0.620611  0.593580  1
  O  O62  1  0.921648  0.593634  0.621145  1
  O  O63  1  0.200620  0.027870  0.622417  1
  O  O64  1  0.593465  0.472751  0.671356  1
  O  O65  1  0.578353  0.199498  0.671986  1
  O  O66  1  0.029559  0.122124  0.702686  1
  O  O67  1  0.171817  0.578120  0.699349  1
  O  O68  1  0.921648  0.328015  0.800502  1
  O  O69  1  0.380031  0.472601  0.802260  1
  O  O70  1  0.029558  0.907435  0.826870  1
  O  O71  1  0.299380  0.921796  0.827248  1
  O  O72  1  0.906534  0.577890  0.879283  1
  O  O73  1  0.470442  0.297313  0.877878  1
  O  O74  1  0.879291  0.079009  0.905106  1
  O  O75  1  0.522176  0.829873  0.901175  1
  O  O76  1  0.802571  0.826551  0.912897  1
  O  O77  1  0.620710  0.094895  0.920992  1
  O  O78  1  0.299379  0.377583  0.972130  1
  O  O79  1  0.171816  0.593698  0.972468  1
