# generated using pymatgen
data_Tb2Ga9Os2Pd
_symmetry_space_group_name_H-M   'P 1'
_cell_length_a   7.59081844
_cell_length_b   7.59081751
_cell_length_c   9.59931900
_cell_angle_alpha   90.00000000
_cell_angle_beta   90.00000000
_cell_angle_gamma   119.66852441
_symmetry_Int_Tables_number   1
_chemical_formula_structural   Tb2Ga9Os2Pd
_chemical_formula_sum   'Tb4 Ga18 Os4 Pd2'
_cell_volume   480.60596593
_cell_formula_units_Z   2
loop_
 _symmetry_equiv_pos_site_id
 _symmetry_equiv_pos_as_xyz
  1  'x, y, z'
loop_
 _atom_site_type_symbol
 _atom_site_label
 _atom_site_symmetry_multiplicity
 _atom_site_fract_x
 _atom_site_fract_y
 _atom_site_fract_z
 _atom_site_occupancy
  Tb  Tb0  1  0.996530  0.668171  0.250000  1
  Tb  Tb1  1  0.003470  0.331829  0.750000  1
  Tb  Tb2  1  0.668171  0.996530  0.250000  1
  Tb  Tb3  1  0.331829  0.003470  0.750000  1
  Ga  Ga4  1  0.132118  0.132118  0.250000  1
  Ga  Ga5  1  0.867882  0.867882  0.750000  1
  Ga  Ga6  1  0.001440  0.339016  0.076776  1
  Ga  Ga7  1  0.998560  0.660984  0.923224  1
  Ga  Ga8  1  0.998560  0.660984  0.576776  1
  Ga  Ga9  1  0.339016  0.001440  0.423224  1
  Ga  Ga10  1  0.001440  0.339016  0.423224  1
  Ga  Ga11  1  0.660984  0.998560  0.576776  1
  Ga  Ga12  1  0.660984  0.998560  0.923224  1
  Ga  Ga13  1  0.339016  0.001440  0.076776  1
  Ga  Ga14  1  0.340060  0.340060  0.563920  1
  Ga  Ga15  1  0.659940  0.659940  0.436080  1
  Ga  Ga16  1  0.659940  0.659940  0.063920  1
  Ga  Ga17  1  0.340060  0.340060  0.936080  1
  Ga  Ga18  1  0.333929  0.546733  0.250000  1
  Ga  Ga19  1  0.666071  0.453267  0.750000  1
  Ga  Ga20  1  0.546733  0.333929  0.250000  1
  Ga  Ga21  1  0.453267  0.666071  0.750000  1
  Os  Os22  1  0.672551  0.327449  0.000000  1
  Os  Os23  1  0.327449  0.672551  0.000000  1
  Os  Os24  1  0.327449  0.672551  0.500000  1
  Os  Os25  1  0.672551  0.327449  0.500000  1
  Pd  Pd26  1  0.000000  0.000000  0.000000  1
  Pd  Pd27  1  0.000000  0.000000  0.500000  1
