# generated using pymatgen
data_La3TbGdPb3
_symmetry_space_group_name_H-M   'P 1'
_cell_length_a   9.39480800
_cell_length_b   9.39480989
_cell_length_c   6.89656000
_cell_angle_alpha   90.00000000
_cell_angle_beta   90.00000000
_cell_angle_gamma   120.00000038
_symmetry_Int_Tables_number   1
_chemical_formula_structural   La3TbGdPb3
_chemical_formula_sum   'La6 Tb2 Gd2 Pb6'
_cell_volume   527.15587907
_cell_formula_units_Z   2
loop_
 _symmetry_equiv_pos_site_id
 _symmetry_equiv_pos_as_xyz
  1  'x, y, z'
loop_
 _atom_site_type_symbol
 _atom_site_label
 _atom_site_symmetry_multiplicity
 _atom_site_fract_x
 _atom_site_fract_y
 _atom_site_fract_z
 _atom_site_occupancy
  La  La0  1  0.757138  0.757138  0.750603  1
  La  La1  1  0.242862  0.000000  0.750603  1
  La  La2  1  0.000000  0.242862  0.750603  1
  La  La3  1  0.242862  0.242862  0.249397  1
  La  La4  1  0.757138  0.000000  0.249397  1
  La  La5  1  0.000000  0.757138  0.249397  1
  Tb  Tb6  1  0.666667  0.333333  0.000000  1
  Tb  Tb7  1  0.333333  0.666667  0.000000  1
  Gd  Gd8  1  0.333333  0.666667  0.500000  1
  Gd  Gd9  1  0.666667  0.333333  0.500000  1
  Pb  Pb10  1  0.398403  0.398403  0.754608  1
  Pb  Pb11  1  0.601597  0.000000  0.754608  1
  Pb  Pb12  1  0.000000  0.601597  0.754608  1
  Pb  Pb13  1  0.601597  0.601597  0.245392  1
  Pb  Pb14  1  0.398403  0.000000  0.245392  1
  Pb  Pb15  1  0.000000  0.398403  0.245392  1
