# generated using pymatgen
data_La3Ho6ThSn8
_symmetry_space_group_name_H-M   'P 1'
_cell_length_a   8.19947700
_cell_length_b   8.32431595
_cell_length_c   15.69597934
_cell_angle_alpha   90.12498180
_cell_angle_beta   90.00000000
_cell_angle_gamma   90.00000000
_symmetry_Int_Tables_number   1
_chemical_formula_structural   La3Ho6ThSn8
_chemical_formula_sum   'La6 Ho12 Th2 Sn16'
_cell_volume   1071.32710434
_cell_formula_units_Z   2
loop_
 _symmetry_equiv_pos_site_id
 _symmetry_equiv_pos_as_xyz
  1  'x, y, z'
loop_
 _atom_site_type_symbol
 _atom_site_label
 _atom_site_symmetry_multiplicity
 _atom_site_fract_x
 _atom_site_fract_y
 _atom_site_fract_z
 _atom_site_occupancy
  La  La0  1  0.518549  0.320353  0.903354  1
  La  La1  1  0.018549  0.179647  0.596646  1
  La  La2  1  0.482382  0.678869  0.403306  1
  La  La3  1  0.982382  0.821131  0.096694  1
  La  La4  1  0.482824  0.679287  0.096625  1
  La  La5  1  0.982824  0.820713  0.403375  1
  Ho  Ho6  1  0.362344  0.836427  0.876357  1
  Ho  Ho7  1  0.862344  0.663573  0.623643  1
  Ho  Ho8  1  0.636552  0.163750  0.376895  1
  Ho  Ho9  1  0.136552  0.336250  0.123105  1
  Ho  Ho10  1  0.637626  0.163093  0.123021  1
  Ho  Ho11  1  0.137626  0.336907  0.376979  1
  Ho  Ho12  1  0.362820  0.836555  0.623544  1
  Ho  Ho13  1  0.862820  0.663445  0.876456  1
  Ho  Ho14  1  0.193239  0.501385  0.750322  1
  Ho  Ho15  1  0.693239  0.998615  0.749678  1
  Ho  Ho16  1  0.805759  0.497822  0.250280  1
  Ho  Ho17  1  0.305759  0.002178  0.249720  1
  Th  Th18  1  0.518153  0.320397  0.597412  1
  Th  Th19  1  0.018153  0.179603  0.902588  1
  Sn  Sn20  1  0.297560  0.041552  0.041264  1
  Sn  Sn21  1  0.797560  0.458448  0.458736  1
  Sn  Sn22  1  0.698419  0.962506  0.543767  1
  Sn  Sn23  1  0.198419  0.537494  0.956233  1
  Sn  Sn24  1  0.702115  0.961864  0.956214  1
  Sn  Sn25  1  0.202115  0.538136  0.543786  1
  Sn  Sn26  1  0.301874  0.042030  0.458093  1
  Sn  Sn27  1  0.801874  0.457970  0.041907  1
  Sn  Sn28  1  0.559602  0.623619  0.748808  1
  Sn  Sn29  1  0.059602  0.876381  0.751192  1
  Sn  Sn30  1  0.439663  0.375335  0.249828  1
  Sn  Sn31  1  0.939663  0.124665  0.250172  1
  Sn  Sn32  1  0.325462  0.142214  0.749663  1
  Sn  Sn33  1  0.825462  0.357786  0.750337  1
  Sn  Sn34  1  0.675058  0.859146  0.249984  1
  Sn  Sn35  1  0.175058  0.640854  0.250016  1
