# generated using pymatgen
data_DyTh3(MgNi2)2
_symmetry_space_group_name_H-M   'P 1'
_cell_length_a   7.60390745
_cell_length_b   7.60390745
_cell_length_c   3.68355000
_cell_angle_alpha   90.00000000
_cell_angle_beta   90.00000000
_cell_angle_gamma   90.81740854
_symmetry_Int_Tables_number   1
_chemical_formula_structural   DyTh3(MgNi2)2
_chemical_formula_sum   'Dy1 Th3 Mg2 Ni4'
_cell_volume   212.95900860
_cell_formula_units_Z   1
loop_
 _symmetry_equiv_pos_site_id
 _symmetry_equiv_pos_as_xyz
  1  'x, y, z'
loop_
 _atom_site_type_symbol
 _atom_site_label
 _atom_site_symmetry_multiplicity
 _atom_site_fract_x
 _atom_site_fract_y
 _atom_site_fract_z
 _atom_site_occupancy
  Dy  Dy0  1  0.829248  0.670752  0.500000  1
  Th  Th1  1  0.672808  0.169738  0.500000  1
  Th  Th2  1  0.330262  0.827192  0.500000  1
  Th  Th3  1  0.167454  0.332546  0.500000  1
  Mg  Mg4  1  0.997847  0.992691  0.000000  1
  Mg  Mg5  1  0.507309  0.502153  0.000000  1
  Ni  Ni6  1  0.129912  0.624540  0.000000  1
  Ni  Ni7  1  0.875460  0.370088  0.000000  1
  Ni  Ni8  1  0.618571  0.881429  0.000000  1
  Ni  Ni9  1  0.371130  0.128870  0.000000  1
