# generated using pymatgen
data_Pr6YPBr12
_symmetry_space_group_name_H-M   'P 1'
_cell_length_a   9.50953583
_cell_length_b   9.50953528
_cell_length_c   9.50953551
_cell_angle_alpha   107.69200399
_cell_angle_beta   107.69199984
_cell_angle_gamma   107.69199256
_symmetry_Int_Tables_number   1
_chemical_formula_structural   Pr6YPBr12
_chemical_formula_sum   'Pr6 Y1 P1 Br12'
_cell_volume   702.22450528
_cell_formula_units_Z   1
loop_
 _symmetry_equiv_pos_site_id
 _symmetry_equiv_pos_as_xyz
  1  'x, y, z'
loop_
 _atom_site_type_symbol
 _atom_site_label
 _atom_site_symmetry_multiplicity
 _atom_site_fract_x
 _atom_site_fract_y
 _atom_site_fract_z
 _atom_site_occupancy
  Pr  Pr0  1  0.105884  0.316297  0.029591  1
  Pr  Pr1  1  0.316297  0.029592  0.105883  1
  Pr  Pr2  1  0.029592  0.105883  0.316298  1
  Pr  Pr3  1  0.970409  0.894117  0.683703  1
  Pr  Pr4  1  0.683703  0.970409  0.894117  1
  Pr  Pr5  1  0.894116  0.683703  0.970409  1
  Y  Y6  1  0.500000  0.500000  0.500000  1
  P  P7  1  0.000000  0.000000  0.000000  1
  Br  Br8  1  0.224769  0.686602  0.075481  1
  Br  Br9  1  0.469522  0.391296  0.173369  1
  Br  Br10  1  0.686603  0.075481  0.224769  1
  Br  Br11  1  0.924520  0.775231  0.313398  1
  Br  Br12  1  0.173369  0.469522  0.391296  1
  Br  Br13  1  0.391296  0.173369  0.469522  1
  Br  Br14  1  0.608704  0.826631  0.530479  1
  Br  Br15  1  0.826632  0.530478  0.608704  1
  Br  Br16  1  0.075481  0.224769  0.686603  1
  Br  Br17  1  0.313398  0.924520  0.775231  1
  Br  Br18  1  0.530478  0.608704  0.826632  1
  Br  Br19  1  0.775231  0.313398  0.924519  1
