# generated using pymatgen
data_AcNd(Ga3Pt)2
_symmetry_space_group_name_H-M   'P 1'
_cell_length_a   6.10743600
_cell_length_b   6.10743660
_cell_length_c   6.02992300
_cell_angle_alpha   90.00000000
_cell_angle_beta   90.00000000
_cell_angle_gamma   117.80859240
_symmetry_Int_Tables_number   1
_chemical_formula_structural   AcNd(Ga3Pt)2
_chemical_formula_sum   'Ac1 Nd1 Ga6 Pt2'
_cell_volume   198.94494490
_cell_formula_units_Z   1
loop_
 _symmetry_equiv_pos_site_id
 _symmetry_equiv_pos_as_xyz
  1  'x, y, z'
loop_
 _atom_site_type_symbol
 _atom_site_label
 _atom_site_symmetry_multiplicity
 _atom_site_fract_x
 _atom_site_fract_y
 _atom_site_fract_z
 _atom_site_occupancy
  Ac  Ac0  1  0.763113  0.236887  0.250000  1
  Nd  Nd1  1  0.235421  0.764579  0.750000  1
  Ga  Ga2  1  0.654196  0.345804  0.750000  1
  Ga  Ga3  1  0.345311  0.654689  0.250000  1
  Ga  Ga4  1  0.729259  0.727618  0.995409  1
  Ga  Ga5  1  0.729259  0.727618  0.504591  1
  Ga  Ga6  1  0.272382  0.270741  0.995409  1
  Ga  Ga7  1  0.272382  0.270741  0.504591  1
  Pt  Pt8  1  0.890763  0.109237  0.750000  1
  Pt  Pt9  1  0.107912  0.892088  0.250000  1
