# generated using pymatgen
data_UNb2(Co3P2)3
_symmetry_space_group_name_H-M   'P 1'
_cell_length_a   3.60474400
_cell_length_b   10.33518200
_cell_length_c   11.80783500
_cell_angle_alpha   90.00000000
_cell_angle_beta   90.00000000
_cell_angle_gamma   90.00000000
_symmetry_Int_Tables_number   1
_chemical_formula_structural   UNb2(Co3P2)3
_chemical_formula_sum   'U2 Nb4 Co18 P12'
_cell_volume   439.90898487
_cell_formula_units_Z   2
loop_
 _symmetry_equiv_pos_site_id
 _symmetry_equiv_pos_as_xyz
  1  'x, y, z'
loop_
 _atom_site_type_symbol
 _atom_site_label
 _atom_site_symmetry_multiplicity
 _atom_site_fract_x
 _atom_site_fract_y
 _atom_site_fract_z
 _atom_site_occupancy
  U  U0  1  0.750000  0.250000  0.469214  1
  U  U1  1  0.250000  0.750000  0.530786  1
  Nb  Nb2  1  0.250000  0.930521  0.795642  1
  Nb  Nb3  1  0.250000  0.569479  0.795642  1
  Nb  Nb4  1  0.750000  0.069479  0.204358  1
  Nb  Nb5  1  0.750000  0.430521  0.204358  1
  Co  Co6  1  0.250000  0.250000  0.841203  1
  Co  Co7  1  0.750000  0.750000  0.158797  1
  Co  Co8  1  0.250000  0.250000  0.301274  1
  Co  Co9  1  0.750000  0.750000  0.698726  1
  Co  Co10  1  0.750000  0.250000  0.017969  1
  Co  Co11  1  0.250000  0.750000  0.982031  1
  Co  Co12  1  0.250000  0.418521  0.008195  1
  Co  Co13  1  0.250000  0.081479  0.008195  1
  Co  Co14  1  0.750000  0.581479  0.991805  1
  Co  Co15  1  0.750000  0.918521  0.991805  1
  Co  Co16  1  0.250000  0.450809  0.568343  1
  Co  Co17  1  0.250000  0.049191  0.568343  1
  Co  Co18  1  0.750000  0.549191  0.431657  1
  Co  Co19  1  0.750000  0.950809  0.431657  1
  Co  Co20  1  0.250000  0.876590  0.290030  1
  Co  Co21  1  0.250000  0.623410  0.290030  1
  Co  Co22  1  0.750000  0.123410  0.709970  1
  Co  Co23  1  0.750000  0.376590  0.709970  1
  P  P24  1  0.250000  0.250000  0.122676  1
  P  P25  1  0.750000  0.750000  0.877324  1
  P  P26  1  0.250000  0.250000  0.654416  1
  P  P27  1  0.750000  0.750000  0.345584  1
  P  P28  1  0.250000  0.439833  0.378797  1
  P  P29  1  0.250000  0.060167  0.378797  1
  P  P30  1  0.750000  0.560167  0.621203  1
  P  P31  1  0.750000  0.939833  0.621203  1
  P  P32  1  0.250000  0.903407  0.108961  1
  P  P33  1  0.250000  0.596593  0.108961  1
  P  P34  1  0.750000  0.096593  0.891039  1
  P  P35  1  0.750000  0.403407  0.891039  1
