# generated using pymatgen
data_La2ThSn3IrRh2
_symmetry_space_group_name_H-M   'P 1'
_cell_length_a   7.59867706
_cell_length_b   7.66657738
_cell_length_c   4.15749300
_cell_angle_alpha   90.00000000
_cell_angle_beta   90.00000000
_cell_angle_gamma   120.33539687
_symmetry_Int_Tables_number   1
_chemical_formula_structural   La2ThSn3IrRh2
_chemical_formula_sum   'La2 Th1 Sn3 Ir1 Rh2'
_cell_volume   209.03737760
_cell_formula_units_Z   1
loop_
 _symmetry_equiv_pos_site_id
 _symmetry_equiv_pos_as_xyz
  1  'x, y, z'
loop_
 _atom_site_type_symbol
 _atom_site_label
 _atom_site_symmetry_multiplicity
 _atom_site_fract_x
 _atom_site_fract_y
 _atom_site_fract_z
 _atom_site_occupancy
  La  La0  1  0.413926  0.413190  0.500000  1
  La  La1  1  0.586808  0.000823  0.500000  1
  Th  Th2  1  0.998975  0.584262  0.500000  1
  Sn  Sn3  1  0.746963  0.751223  0.000000  1
  Sn  Sn4  1  0.252811  0.003672  0.000000  1
  Sn  Sn5  1  0.000390  0.244015  0.000000  1
  Ir  Ir6  1  0.688081  0.351587  0.000000  1
  Rh  Rh7  1  0.312130  0.663699  0.000000  1
  Rh  Rh8  1  0.999915  0.987530  0.500000  1
