# generated using pymatgen
data_Ho16MgHg3PtRh3
_symmetry_space_group_name_H-M   'P 1'
_cell_length_a   9.61284764
_cell_length_b   9.59153473
_cell_length_c   9.59153638
_cell_angle_alpha   59.86042527
_cell_angle_beta   59.95264336
_cell_angle_gamma   59.95264712
_symmetry_Int_Tables_number   1
_chemical_formula_structural   Ho16MgHg3PtRh3
_chemical_formula_sum   'Ho16 Mg1 Hg3 Pt1 Rh3'
_cell_volume   624.22702885
_cell_formula_units_Z   1
loop_
 _symmetry_equiv_pos_site_id
 _symmetry_equiv_pos_as_xyz
  1  'x, y, z'
loop_
 _atom_site_type_symbol
 _atom_site_label
 _atom_site_symmetry_multiplicity
 _atom_site_fract_x
 _atom_site_fract_y
 _atom_site_fract_z
 _atom_site_occupancy
  Ho  Ho0  1  0.804805  0.191537  0.191537  1
  Ho  Ho1  1  0.185377  0.812084  0.812084  1
  Ho  Ho2  1  0.188096  0.807732  0.189539  1
  Ho  Ho3  1  0.808917  0.189069  0.809503  1
  Ho  Ho4  1  0.188096  0.189539  0.807732  1
  Ho  Ho5  1  0.808917  0.809503  0.189069  1
  Ho  Ho6  1  0.935546  0.564238  0.564238  1
  Ho  Ho7  1  0.562087  0.937135  0.937135  1
  Ho  Ho8  1  0.562857  0.937647  0.564352  1
  Ho  Ho9  1  0.935139  0.563339  0.938260  1
  Ho  Ho10  1  0.562857  0.564352  0.937647  1
  Ho  Ho11  1  0.935139  0.938260  0.563339  1
  Ho  Ho12  1  0.349362  0.347542  0.347542  1
  Ho  Ho13  1  0.354509  0.351202  0.948862  1
  Ho  Ho14  1  0.354509  0.948862  0.351202  1
  Ho  Ho15  1  0.938717  0.355712  0.355712  1
  Mg  Mg16  1  0.281309  0.572743  0.572743  1
  Hg  Hg17  1  0.582410  0.586734  0.586734  1
  Hg  Hg18  1  0.582660  0.587356  0.242576  1
  Hg  Hg19  1  0.582660  0.242576  0.587356  1
  Pt  Pt20  1  0.141207  0.144457  0.144457  1
  Rh  Rh21  1  0.141062  0.144246  0.571383  1
  Rh  Rh22  1  0.141062  0.571383  0.144246  1
  Rh  Rh23  1  0.572704  0.142752  0.142752  1
