# generated using pymatgen
data_LiMn3Ni3P4
_symmetry_space_group_name_H-M   'P 1'
_cell_length_a   6.66584100
_cell_length_b   6.66584156
_cell_length_c   3.39223300
_cell_angle_alpha   90.00000000
_cell_angle_beta   90.00000000
_cell_angle_gamma   120.00000219
_symmetry_Int_Tables_number   1
_chemical_formula_structural   LiMn3Ni3P4
_chemical_formula_sum   'Li1 Mn3 Ni3 P4'
_cell_volume   130.53477764
_cell_formula_units_Z   1
loop_
 _symmetry_equiv_pos_site_id
 _symmetry_equiv_pos_as_xyz
  1  'x, y, z'
loop_
 _atom_site_type_symbol
 _atom_site_label
 _atom_site_symmetry_multiplicity
 _atom_site_fract_x
 _atom_site_fract_y
 _atom_site_fract_z
 _atom_site_occupancy
  Li  Li0  1  0.333333  0.666667  0.000000  1
  Mn  Mn1  1  0.868786  0.131214  0.000000  1
  Mn  Mn2  1  0.868786  0.737573  0.000000  1
  Mn  Mn3  1  0.262427  0.131214  0.000000  1
  Ni  Ni4  1  0.530574  0.469426  0.500000  1
  Ni  Ni5  1  0.530574  0.061150  0.500000  1
  Ni  Ni6  1  0.938850  0.469426  0.500000  1
  P  P7  1  0.666667  0.333333  0.000000  1
  P  P8  1  0.703927  0.851964  0.500000  1
  P  P9  1  0.148036  0.296073  0.500000  1
  P  P10  1  0.148036  0.851964  0.500000  1
