# generated using pymatgen
data_LaY2Ir8Rh
_symmetry_space_group_name_H-M   'P 1'
_cell_length_a   5.36199300
_cell_length_b   5.36198705
_cell_length_c   17.48358000
_cell_angle_alpha   90.00000000
_cell_angle_beta   90.00000000
_cell_angle_gamma   119.99763850
_symmetry_Int_Tables_number   1
_chemical_formula_structural   LaY2Ir8Rh
_chemical_formula_sum   'La2 Y4 Ir16 Rh2'
_cell_volume   435.33474911
_cell_formula_units_Z   2
loop_
 _symmetry_equiv_pos_site_id
 _symmetry_equiv_pos_as_xyz
  1  'x, y, z'
loop_
 _atom_site_type_symbol
 _atom_site_label
 _atom_site_symmetry_multiplicity
 _atom_site_fract_x
 _atom_site_fract_y
 _atom_site_fract_z
 _atom_site_occupancy
  La  La0  1  0.333339  0.666695  0.750000  1
  La  La1  1  0.666661  0.333305  0.250000  1
  Y  Y2  1  0.333333  0.666671  0.959834  1
  Y  Y3  1  0.666667  0.333329  0.040166  1
  Y  Y4  1  0.666667  0.333329  0.459834  1
  Y  Y5  1  0.333333  0.666671  0.540166  1
  Ir  Ir6  1  0.166934  0.833046  0.374635  1
  Ir  Ir7  1  0.166950  0.333904  0.374616  1
  Ir  Ir8  1  0.666096  0.833035  0.374626  1
  Ir  Ir9  1  0.833066  0.166954  0.625365  1
  Ir  Ir10  1  0.833050  0.666096  0.625384  1
  Ir  Ir11  1  0.333904  0.166965  0.625374  1
  Ir  Ir12  1  0.833066  0.166954  0.874635  1
  Ir  Ir13  1  0.833050  0.666096  0.874616  1
  Ir  Ir14  1  0.333904  0.166965  0.874626  1
  Ir  Ir15  1  0.166934  0.833046  0.125365  1
  Ir  Ir16  1  0.166950  0.333904  0.125384  1
  Ir  Ir17  1  0.666096  0.833035  0.125374  1
  Ir  Ir18  1  0.333332  0.666779  0.250000  1
  Ir  Ir19  1  0.666668  0.333221  0.750000  1
  Ir  Ir20  1  0.000000  0.000000  0.500000  1
  Ir  Ir21  1  0.000000  0.000000  0.000000  1
  Rh  Rh22  1  0.000005  0.999948  0.250000  1
  Rh  Rh23  1  0.999995  0.000052  0.750000  1
