# generated using pymatgen
data_CsK23Nb4(TlAs4)4
_symmetry_space_group_name_H-M   'P 1'
_cell_length_a   19.12585958
_cell_length_b   10.58457500
_cell_length_c   7.85953304
_cell_angle_alpha   90.00000000
_cell_angle_beta   89.72870070
_cell_angle_gamma   90.00000000
_symmetry_Int_Tables_number   1
_chemical_formula_structural   CsK23Nb4(TlAs4)4
_chemical_formula_sum   'Cs1 K23 Nb4 Tl4 As16'
_cell_volume   1591.05891967
_cell_formula_units_Z   1
loop_
 _symmetry_equiv_pos_site_id
 _symmetry_equiv_pos_as_xyz
  1  'x, y, z'
loop_
 _atom_site_type_symbol
 _atom_site_label
 _atom_site_symmetry_multiplicity
 _atom_site_fract_x
 _atom_site_fract_y
 _atom_site_fract_z
 _atom_site_occupancy
  Cs  Cs0  1  0.010871  0.250000  0.060015  1
  K  K1  1  0.743004  0.546052  0.007353  1
  K  K2  1  0.743004  0.953949  0.007353  1
  K  K3  1  0.652258  0.250000  0.181156  1
  K  K4  1  0.421042  0.519976  0.221601  1
  K  K5  1  0.421042  0.980024  0.221601  1
  K  K6  1  0.920523  0.520892  0.279828  1
  K  K7  1  0.920523  0.979108  0.279828  1
  K  K8  1  0.154162  0.250000  0.321827  1
  K  K9  1  0.502602  0.250000  0.444509  1
  K  K10  1  0.243113  0.546084  0.492744  1
  K  K11  1  0.243113  0.953917  0.492744  1
  K  K12  1  0.756659  0.045693  0.506973  1
  K  K13  1  0.756659  0.454306  0.506973  1
  K  K14  1  0.497390  0.750000  0.555375  1
  K  K15  1  0.847323  0.750000  0.680379  1
  K  K16  1  0.079108  0.019048  0.720390  1
  K  K17  1  0.079108  0.480952  0.720390  1
  K  K18  1  0.578918  0.019754  0.778361  1
  K  K19  1  0.578918  0.480246  0.778361  1
  K  K20  1  0.347409  0.750000  0.818950  1
  K  K21  1  0.997468  0.750000  0.944568  1
  K  K22  1  0.257045  0.045776  0.992558  1
  K  K23  1  0.257045  0.454223  0.992558  1
  Nb  Nb24  1  0.169715  0.750000  0.104463  1
  Nb  Nb25  1  0.669197  0.750000  0.395697  1
  Nb  Nb26  1  0.330795  0.250000  0.604154  1
  Nb  Nb27  1  0.829369  0.250000  0.894344  1
  Tl  Tl28  1  0.551669  0.750000  0.057684  1
  Tl  Tl29  1  0.051706  0.750000  0.443192  1
  Tl  Tl30  1  0.947118  0.250000  0.557296  1
  Tl  Tl31  1  0.448303  0.250000  0.942206  1
  As  As32  1  0.294305  0.750000  0.203789  1
  As  As33  1  0.102463  0.557247  0.213186  1
  As  As34  1  0.102463  0.942753  0.213186  1
  As  As35  1  0.828465  0.250000  0.211600  1
  As  As36  1  0.330760  0.250000  0.287423  1
  As  As37  1  0.602007  0.556285  0.288598  1
  As  As38  1  0.602007  0.943715  0.288598  1
  As  As39  1  0.794179  0.750000  0.295729  1
  As  As40  1  0.205842  0.250000  0.704591  1
  As  As41  1  0.397894  0.056277  0.711328  1
  As  As42  1  0.397894  0.443723  0.711328  1
  As  As43  1  0.669205  0.750000  0.712322  1
  As  As44  1  0.169373  0.750000  0.787195  1
  As  As45  1  0.895913  0.055405  0.784926  1
  As  As46  1  0.895913  0.444595  0.784926  1
  As  As47  1  0.705130  0.250000  0.795841  1
