# generated using pymatgen
data_TeBrF34
_symmetry_space_group_name_H-M   'P 1'
_cell_length_a   8.83528117
_cell_length_b   8.56503527
_cell_length_c   10.17884406
_cell_angle_alpha   80.38138724
_cell_angle_beta   87.09514155
_cell_angle_gamma   65.77071054
_symmetry_Int_Tables_number   1
_chemical_formula_structural   TeBrF34
_chemical_formula_sum   'Te1 Br1 F34'
_cell_volume   692.41335669
_cell_formula_units_Z   1
loop_
 _symmetry_equiv_pos_site_id
 _symmetry_equiv_pos_as_xyz
  1  'x, y, z'
loop_
 _atom_site_type_symbol
 _atom_site_label
 _atom_site_symmetry_multiplicity
 _atom_site_fract_x
 _atom_site_fract_y
 _atom_site_fract_z
 _atom_site_occupancy
  Te  Te0  1  0.867776  0.248757  0.758255  1
  Br  Br1  1  0.132207  0.748939  0.244530  1
  F  F2  1  0.615233  0.209134  0.467719  1
  F  F3  1  0.384363  0.789439  0.535133  1
  F  F4  1  0.825700  0.715056  0.722107  1
  F  F5  1  0.171575  0.292381  0.290015  1
  F  F6  1  0.107138  0.732957  0.866005  1
  F  F7  1  0.906441  0.261114  0.137879  1
  F  F8  1  0.565221  0.137064  0.370064  1
  F  F9  1  0.439983  0.862868  0.628482  1
  F  F10  1  0.650712  0.333491  0.692035  1
  F  F11  1  0.344466  0.667551  0.308610  1
  F  F12  1  0.934815  0.072545  0.654606  1
  F  F13  1  0.068405  0.924216  0.341726  1
  F  F14  1  0.916039  0.389979  0.617865  1
  F  F15  1  0.084622  0.616451  0.384500  1
  F  F16  1  0.857135  0.804298  0.600060  1
  F  F17  1  0.166108  0.166774  0.398957  1
  F  F18  1  0.803334  0.425846  0.861117  1
  F  F19  1  0.193841  0.571592  0.147841  1
  F  F20  1  0.218001  0.689010  0.758421  1
  F  F21  1  0.779152  0.315028  0.232833  1
  F  F22  1  0.921416  0.829695  0.179007  1
  F  F23  1  0.083203  0.164548  0.827585  1
  F  F24  1  0.816807  0.107003  0.896999  1
  F  F25  1  0.181295  0.883853  0.105500  1
  F  F26  1  0.489491  0.588266  0.994845  1
  F  F27  1  0.499619  0.416644  0.002859  1
  F  F28  1  0.441951  0.100456  0.864914  1
  F  F29  1  0.548872  0.910247  0.131289  1
  F  F30  1  0.287527  0.275888  0.595047  1
  F  F31  1  0.705874  0.728189  0.398530  1
  F  F32  1  0.260245  0.411273  0.670268  1
  F  F33  1  0.734531  0.594555  0.321154  1
  F  F34  1  0.557864  0.940384  0.829671  1
  F  F35  1  0.439036  0.074507  0.163574  1
