# generated using pymatgen
data_La4Mg2CdAu10
_symmetry_space_group_name_H-M   'P 1'
_cell_length_a   8.80314115
_cell_length_b   8.80314106
_cell_length_c   10.47455400
_cell_angle_alpha   90.23830514
_cell_angle_beta   89.76168836
_cell_angle_gamma   108.23868076
_symmetry_Int_Tables_number   1
_chemical_formula_structural   La4Mg2CdAu10
_chemical_formula_sum   'La8 Mg4 Cd2 Au20'
_cell_volume   770.93802165
_cell_formula_units_Z   2
loop_
 _symmetry_equiv_pos_site_id
 _symmetry_equiv_pos_as_xyz
  1  'x, y, z'
loop_
 _atom_site_type_symbol
 _atom_site_label
 _atom_site_symmetry_multiplicity
 _atom_site_fract_x
 _atom_site_fract_y
 _atom_site_fract_z
 _atom_site_occupancy
  La  La0  1  0.705473  0.302535  0.998864  1
  La  La1  1  0.294527  0.697465  0.001136  1
  La  La2  1  0.802535  0.205473  0.501136  1
  La  La3  1  0.197465  0.794527  0.498864  1
  La  La4  1  0.298073  0.301157  0.204908  1
  La  La5  1  0.701927  0.698843  0.795092  1
  La  La6  1  0.198843  0.201927  0.704908  1
  La  La7  1  0.801157  0.798073  0.295092  1
  Mg  Mg8  1  0.486123  0.986123  0.750000  1
  Mg  Mg9  1  0.513877  0.013877  0.250000  1
  Mg  Mg10  1  0.000000  0.000000  0.000000  1
  Mg  Mg11  1  0.500000  0.500000  0.500000  1
  Cd  Cd12  1  0.012502  0.512502  0.250000  1
  Cd  Cd13  1  0.987498  0.487498  0.750000  1
  Au  Au14  1  0.097721  0.096046  0.405938  1
  Au  Au15  1  0.902279  0.903954  0.594062  1
  Au  Au16  1  0.403954  0.402279  0.905938  1
  Au  Au17  1  0.596046  0.597721  0.094062  1
  Au  Au18  1  0.879614  0.157672  0.206508  1
  Au  Au19  1  0.120386  0.842328  0.793492  1
  Au  Au20  1  0.605919  0.328989  0.705748  1
  Au  Au21  1  0.657672  0.379614  0.293492  1
  Au  Au22  1  0.394081  0.671011  0.294252  1
  Au  Au23  1  0.342328  0.620386  0.706508  1
  Au  Au24  1  0.828989  0.105919  0.794252  1
  Au  Au25  1  0.171011  0.894081  0.205748  1
  Au  Au26  1  0.932937  0.668234  0.022375  1
  Au  Au27  1  0.067063  0.331766  0.977625  1
  Au  Au28  1  0.565211  0.845112  0.521610  1
  Au  Au29  1  0.168234  0.432937  0.477625  1
  Au  Au30  1  0.434789  0.154888  0.478390  1
  Au  Au31  1  0.831766  0.567063  0.522375  1
  Au  Au32  1  0.345112  0.065211  0.978390  1
  Au  Au33  1  0.654888  0.934789  0.021610  1
