# generated using pymatgen
data_YTmPa(Co3P2)3
_symmetry_space_group_name_H-M   'P 1'
_cell_length_a   3.70366500
_cell_length_b   10.51257600
_cell_length_c   12.11877100
_cell_angle_alpha   90.00000000
_cell_angle_beta   90.00000000
_cell_angle_gamma   90.00000000
_symmetry_Int_Tables_number   1
_chemical_formula_structural   YTmPa(Co3P2)3
_chemical_formula_sum   'Y2 Tm2 Pa2 Co18 P12'
_cell_volume   471.84507348
_cell_formula_units_Z   2
loop_
 _symmetry_equiv_pos_site_id
 _symmetry_equiv_pos_as_xyz
  1  'x, y, z'
loop_
 _atom_site_type_symbol
 _atom_site_label
 _atom_site_symmetry_multiplicity
 _atom_site_fract_x
 _atom_site_fract_y
 _atom_site_fract_z
 _atom_site_occupancy
  Y  Y0  1  0.000000  0.684814  0.794987  1
  Y  Y1  1  0.000000  0.315186  0.794987  1
  Tm  Tm2  1  0.500000  0.815444  0.205197  1
  Tm  Tm3  1  0.500000  0.184556  0.205197  1
  Pa  Pa4  1  0.000000  0.500000  0.528686  1
  Pa  Pa5  1  0.500000  0.000000  0.470561  1
  Co  Co6  1  0.500000  0.500000  0.158452  1
  Co  Co7  1  0.000000  0.000000  0.841778  1
  Co  Co8  1  0.500000  0.500000  0.696146  1
  Co  Co9  1  0.000000  0.000000  0.302613  1
  Co  Co10  1  0.000000  0.500000  0.985707  1
  Co  Co11  1  0.500000  0.000000  0.016472  1
  Co  Co12  1  0.500000  0.333657  0.994508  1
  Co  Co13  1  0.500000  0.666343  0.994508  1
  Co  Co14  1  0.000000  0.165504  0.007472  1
  Co  Co15  1  0.000000  0.834496  0.007472  1
  Co  Co16  1  0.500000  0.301154  0.430853  1
  Co  Co17  1  0.500000  0.698846  0.430853  1
  Co  Co18  1  0.000000  0.198275  0.567802  1
  Co  Co19  1  0.000000  0.801725  0.567802  1
  Co  Co20  1  0.500000  0.880459  0.710412  1
  Co  Co21  1  0.500000  0.119541  0.710412  1
  Co  Co22  1  0.000000  0.620530  0.288745  1
  Co  Co23  1  0.000000  0.379470  0.288745  1
  P  P24  1  0.500000  0.500000  0.879682  1
  P  P25  1  0.000000  0.000000  0.121945  1
  P  P26  1  0.500000  0.500000  0.343306  1
  P  P27  1  0.000000  0.000000  0.656484  1
  P  P28  1  0.500000  0.306703  0.616622  1
  P  P29  1  0.500000  0.693297  0.616622  1
  P  P30  1  0.000000  0.192671  0.381526  1
  P  P31  1  0.000000  0.807329  0.381526  1
  P  P32  1  0.500000  0.848150  0.895016  1
  P  P33  1  0.500000  0.151850  0.895016  1
  P  P34  1  0.000000  0.653504  0.105944  1
  P  P35  1  0.000000  0.346496  0.105944  1
