# generated using pymatgen
data_Sc5SnBiAs
_symmetry_space_group_name_H-M   'P 1'
_cell_length_a   7.51238600
_cell_length_b   8.67153700
_cell_length_c   11.26618400
_cell_angle_alpha   90.00000000
_cell_angle_beta   90.00000000
_cell_angle_gamma   90.00000000
_symmetry_Int_Tables_number   1
_chemical_formula_structural   Sc5SnBiAs
_chemical_formula_sum   'Sc20 Sn4 Bi4 As4'
_cell_volume   733.92353743
_cell_formula_units_Z   4
loop_
 _symmetry_equiv_pos_site_id
 _symmetry_equiv_pos_as_xyz
  1  'x, y, z'
loop_
 _atom_site_type_symbol
 _atom_site_label
 _atom_site_symmetry_multiplicity
 _atom_site_fract_x
 _atom_site_fract_y
 _atom_site_fract_z
 _atom_site_occupancy
  Sc  Sc0  1  0.814394  0.943785  0.060737  1
  Sc  Sc1  1  0.314394  0.056215  0.439263  1
  Sc  Sc2  1  0.185606  0.443785  0.939263  1
  Sc  Sc3  1  0.685606  0.556215  0.560737  1
  Sc  Sc4  1  0.185321  0.054740  0.934131  1
  Sc  Sc5  1  0.685321  0.945260  0.565869  1
  Sc  Sc6  1  0.814679  0.554740  0.065869  1
  Sc  Sc7  1  0.314679  0.445260  0.434131  1
  Sc  Sc8  1  0.161980  0.742885  0.213631  1
  Sc  Sc9  1  0.661980  0.257115  0.286369  1
  Sc  Sc10  1  0.838020  0.242885  0.786369  1
  Sc  Sc11  1  0.338020  0.757115  0.713631  1
  Sc  Sc12  1  0.465293  0.749792  0.002909  1
  Sc  Sc13  1  0.965293  0.250208  0.497091  1
  Sc  Sc14  1  0.534707  0.249792  0.997091  1
  Sc  Sc15  1  0.034707  0.750208  0.502909  1
  Sc  Sc16  1  0.641905  0.743616  0.288941  1
  Sc  Sc17  1  0.141905  0.256384  0.211059  1
  Sc  Sc18  1  0.358095  0.243616  0.711059  1
  Sc  Sc19  1  0.858095  0.756384  0.788941  1
  Sn  Sn20  1  0.930989  0.509849  0.328252  1
  Sn  Sn21  1  0.430989  0.490151  0.171748  1
  Sn  Sn22  1  0.069011  0.009849  0.671748  1
  Sn  Sn23  1  0.569011  0.990151  0.828252  1
  Bi  Bi24  1  0.070664  0.489512  0.675332  1
  Bi  Bi25  1  0.570664  0.510488  0.824668  1
  Bi  Bi26  1  0.929336  0.989512  0.324668  1
  Bi  Bi27  1  0.429336  0.010488  0.175332  1
  As  As28  1  0.415383  0.750357  0.477487  1
  As  As29  1  0.915383  0.249643  0.022513  1
  As  As30  1  0.584617  0.250357  0.522513  1
  As  As31  1  0.084617  0.749643  0.977487  1
