# generated using pymatgen
data_Rb4Tm6GeBr18
_symmetry_space_group_name_H-M   'P 1'
_cell_length_a   11.02516805
_cell_length_b   11.20750585
_cell_length_c   11.31444000
_cell_angle_alpha   118.40947873
_cell_angle_beta   100.22722612
_cell_angle_gamma   103.96572442
_symmetry_Int_Tables_number   1
_chemical_formula_structural   Rb4Tm6GeBr18
_chemical_formula_sum   'Rb4 Tm6 Ge1 Br18'
_cell_volume   1121.15586536
_cell_formula_units_Z   1
loop_
 _symmetry_equiv_pos_site_id
 _symmetry_equiv_pos_as_xyz
  1  'x, y, z'
loop_
 _atom_site_type_symbol
 _atom_site_label
 _atom_site_symmetry_multiplicity
 _atom_site_fract_x
 _atom_site_fract_y
 _atom_site_fract_z
 _atom_site_occupancy
  Rb  Rb0  1  0.656867  0.537904  0.229146  1
  Rb  Rb1  1  0.343133  0.462096  0.770854  1
  Rb  Rb2  1  0.694314  0.228810  0.566556  1
  Rb  Rb3  1  0.305686  0.771190  0.433444  1
  Tm  Tm4  1  0.170559  0.063766  0.260134  1
  Tm  Tm5  1  0.829441  0.936234  0.739866  1
  Tm  Tm6  1  0.842879  0.142193  0.149397  1
  Tm  Tm7  1  0.157121  0.857807  0.850603  1
  Tm  Tm8  1  0.163687  0.269321  0.050063  1
  Tm  Tm9  1  0.836313  0.730679  0.949937  1
  Ge  Ge10  1  0.000000  0.000000  0.000000  1
  Br  Br11  1  0.009139  0.408416  0.196513  1
  Br  Br12  1  0.990861  0.591584  0.803487  1
  Br  Br13  1  0.328305  0.332809  0.309751  1
  Br  Br14  1  0.671695  0.667191  0.690249  1
  Br  Br15  1  0.330814  0.530323  0.103280  1
  Br  Br16  1  0.669186  0.469677  0.896720  1
  Br  Br17  1  0.004904  0.796638  0.209514  1
  Br  Br18  1  0.995096  0.203362  0.790486  1
  Br  Br19  1  0.697460  0.280602  0.294030  1
  Br  Br20  1  0.302540  0.719398  0.705970  1
  Br  Br21  1  0.315653  0.127781  0.903644  1
  Br  Br22  1  0.684347  0.872219  0.096356  1
  Br  Br23  1  0.015846  0.203655  0.406234  1
  Br  Br24  1  0.984154  0.796345  0.593766  1
  Br  Br25  1  0.319308  0.922088  0.109874  1
  Br  Br26  1  0.680692  0.077912  0.890126  1
  Br  Br27  1  0.341788  0.124045  0.510074  1
  Br  Br28  1  0.658212  0.875955  0.489926  1
