# generated using pymatgen
data_Li4Ac5Tl4
_symmetry_space_group_name_H-M   'P 1'
_cell_length_a   10.30894908
_cell_length_b   10.30894973
_cell_length_c   10.30895009
_cell_angle_alpha   92.21139403
_cell_angle_beta   92.21140790
_cell_angle_gamma   157.34289951
_symmetry_Int_Tables_number   1
_chemical_formula_structural   Li4Ac5Tl4
_chemical_formula_sum   'Li4 Ac5 Tl4'
_cell_volume   413.81071410
_cell_formula_units_Z   1
loop_
 _symmetry_equiv_pos_site_id
 _symmetry_equiv_pos_as_xyz
  1  'x, y, z'
loop_
 _atom_site_type_symbol
 _atom_site_label
 _atom_site_symmetry_multiplicity
 _atom_site_fract_x
 _atom_site_fract_y
 _atom_site_fract_z
 _atom_site_occupancy
  Li  Li0  1  0.597297  0.071442  0.668740  1
  Li  Li1  1  0.928558  0.597297  0.525855  1
  Li  Li2  1  0.071442  0.402703  0.474145  1
  Li  Li3  1  0.402703  0.928558  0.331260  1
  Ac  Ac4  1  0.136093  0.778044  0.914137  1
  Ac  Ac5  1  0.221956  0.136093  0.358048  1
  Ac  Ac6  1  0.863907  0.221956  0.085863  1
  Ac  Ac7  1  0.500000  0.500000  0.000000  1
  Ac  Ac8  1  0.778044  0.863907  0.641952  1
  Tl  Tl9  1  0.440793  0.248939  0.689733  1
  Tl  Tl10  1  0.559207  0.751061  0.310267  1
  Tl  Tl11  1  0.248939  0.559207  0.808146  1
  Tl  Tl12  1  0.751061  0.440793  0.191854  1
