# generated using pymatgen
data_ErTm7In3Ru
_symmetry_space_group_name_H-M   'P 1'
_cell_length_a   10.27820500
_cell_length_b   10.27820420
_cell_length_c   6.98115700
_cell_angle_alpha   90.00000000
_cell_angle_beta   90.00000000
_cell_angle_gamma   119.99999936
_symmetry_Int_Tables_number   1
_chemical_formula_structural   ErTm7In3Ru
_chemical_formula_sum   'Er2 Tm14 In6 Ru2'
_cell_volume   638.69358873
_cell_formula_units_Z   2
loop_
 _symmetry_equiv_pos_site_id
 _symmetry_equiv_pos_as_xyz
  1  'x, y, z'
loop_
 _atom_site_type_symbol
 _atom_site_label
 _atom_site_symmetry_multiplicity
 _atom_site_fract_x
 _atom_site_fract_y
 _atom_site_fract_z
 _atom_site_occupancy
  Er  Er0  1  0.000000  0.000000  0.778373  1
  Er  Er1  1  0.000000  0.000000  0.278373  1
  Tm  Tm2  1  0.532696  0.065391  0.794242  1
  Tm  Tm3  1  0.934609  0.467304  0.794242  1
  Tm  Tm4  1  0.532696  0.467304  0.794242  1
  Tm  Tm5  1  0.467304  0.934609  0.294242  1
  Tm  Tm6  1  0.065391  0.532696  0.294242  1
  Tm  Tm7  1  0.467304  0.532696  0.294242  1
  Tm  Tm8  1  0.822559  0.645117  0.498711  1
  Tm  Tm9  1  0.354883  0.177441  0.498711  1
  Tm  Tm10  1  0.822559  0.177441  0.498711  1
  Tm  Tm11  1  0.177441  0.354883  0.998711  1
  Tm  Tm12  1  0.645117  0.822559  0.998711  1
  Tm  Tm13  1  0.177441  0.822559  0.998711  1
  Tm  Tm14  1  0.666667  0.333333  0.171624  1
  Tm  Tm15  1  0.333333  0.666667  0.671624  1
  In  In16  1  0.836967  0.673936  0.039974  1
  In  In17  1  0.326064  0.163033  0.039974  1
  In  In18  1  0.836967  0.163033  0.039974  1
  In  In19  1  0.163033  0.326064  0.539974  1
  In  In20  1  0.673936  0.836967  0.539974  1
  In  In21  1  0.163033  0.836967  0.539974  1
  Ru  Ru22  1  0.666667  0.333333  0.569174  1
  Ru  Ru23  1  0.333333  0.666667  0.069174  1
