# generated using pymatgen
data_CeNdEr2(ReB6)2
_symmetry_space_group_name_H-M   'P 1'
_cell_length_a   3.71748900
_cell_length_b   9.20640935
_cell_length_c   11.62988505
_cell_angle_alpha   90.13700551
_cell_angle_beta   90.00000000
_cell_angle_gamma   90.00000000
_symmetry_Int_Tables_number   1
_chemical_formula_structural   CeNdEr2(ReB6)2
_chemical_formula_sum   'Ce2 Nd2 Er4 Re4 B24'
_cell_volume   398.02848547
_cell_formula_units_Z   2
loop_
 _symmetry_equiv_pos_site_id
 _symmetry_equiv_pos_as_xyz
  1  'x, y, z'
loop_
 _atom_site_type_symbol
 _atom_site_label
 _atom_site_symmetry_multiplicity
 _atom_site_fract_x
 _atom_site_fract_y
 _atom_site_fract_z
 _atom_site_occupancy
  Ce  Ce0  1  0.000000  0.322343  0.414233  1
  Ce  Ce1  1  0.000000  0.677657  0.585767  1
  Nd  Nd2  1  0.000000  0.823234  0.085788  1
  Nd  Nd3  1  0.000000  0.176766  0.914212  1
  Er  Er4  1  0.000000  0.943584  0.371199  1
  Er  Er5  1  0.000000  0.056416  0.628801  1
  Er  Er6  1  0.000000  0.443183  0.129864  1
  Er  Er7  1  0.000000  0.556817  0.870136  1
  Re  Re8  1  0.000000  0.637290  0.322547  1
  Re  Re9  1  0.000000  0.362710  0.677453  1
  Re  Re10  1  0.000000  0.141260  0.182761  1
  Re  Re11  1  0.000000  0.858740  0.817239  1
  B  B12  1  0.500000  0.554350  0.431636  1
  B  B13  1  0.500000  0.445650  0.568364  1
  B  B14  1  0.500000  0.055369  0.069634  1
  B  B15  1  0.500000  0.944631  0.930366  1
  B  B16  1  0.500000  0.749407  0.417762  1
  B  B17  1  0.500000  0.250593  0.582238  1
  B  B18  1  0.500000  0.250102  0.083940  1
  B  B19  1  0.500000  0.749898  0.916060  1
  B  B20  1  0.500000  0.791052  0.267095  1
  B  B21  1  0.500000  0.208948  0.732905  1
  B  B22  1  0.500000  0.291988  0.235145  1
  B  B23  1  0.500000  0.708012  0.764855  1
  B  B24  1  0.500000  0.629333  0.186813  1
  B  B25  1  0.500000  0.370667  0.813187  1
  B  B26  1  0.500000  0.131245  0.315014  1
  B  B27  1  0.500000  0.868755  0.684986  1
  B  B28  1  0.500000  0.984473  0.213962  1
  B  B29  1  0.500000  0.015527  0.786038  1
  B  B30  1  0.500000  0.483198  0.287602  1
  B  B31  1  0.500000  0.516802  0.712398  1
  B  B32  1  0.500000  0.597241  0.027045  1
  B  B33  1  0.500000  0.402759  0.972955  1
  B  B34  1  0.500000  0.102117  0.471924  1
  B  B35  1  0.500000  0.897883  0.528076  1
