# generated using pymatgen
data_Li7Ac8ZnSn8
_symmetry_space_group_name_H-M   'P 1'
_cell_length_a   9.87566400
_cell_length_b   9.88166078
_cell_length_c   8.26694808
_cell_angle_alpha   89.99449201
_cell_angle_beta   90.00000000
_cell_angle_gamma   119.97992057
_symmetry_Int_Tables_number   1
_chemical_formula_structural   Li7Ac8ZnSn8
_chemical_formula_sum   'Li7 Ac8 Zn1 Sn8'
_cell_volume   698.81130629
_cell_formula_units_Z   1
loop_
 _symmetry_equiv_pos_site_id
 _symmetry_equiv_pos_as_xyz
  1  'x, y, z'
loop_
 _atom_site_type_symbol
 _atom_site_label
 _atom_site_symmetry_multiplicity
 _atom_site_fract_x
 _atom_site_fract_y
 _atom_site_fract_z
 _atom_site_occupancy
  Li  Li0  1  0.165428  0.831901  0.284846  1
  Li  Li1  1  0.666473  0.831901  0.284846  1
  Li  Li2  1  0.832710  0.665420  0.783848  1
  Li  Li3  1  0.832393  0.166726  0.783678  1
  Li  Li4  1  0.334332  0.166726  0.783678  1
  Li  Li5  1  0.333994  0.667991  0.674920  1
  Li  Li6  1  0.667836  0.335672  0.172523  1
  Ac  Ac7  1  0.512077  0.024156  0.498939  1
  Ac  Ac8  1  0.511044  0.487526  0.495742  1
  Ac  Ac9  1  0.976481  0.487526  0.495742  1
  Ac  Ac10  1  0.488223  0.976444  0.992624  1
  Ac  Ac11  1  0.487091  0.511761  0.994573  1
  Ac  Ac12  1  0.024671  0.511761  0.994573  1
  Ac  Ac13  1  0.000084  0.000168  0.498056  1
  Ac  Ac14  1  0.000070  0.000140  0.997116  1
  Zn  Zn15  1  0.167185  0.334371  0.284688  1
  Sn  Sn16  1  0.166595  0.333191  0.728053  1
  Sn  Sn17  1  0.166524  0.833013  0.729043  1
  Sn  Sn18  1  0.666488  0.833013  0.729043  1
  Sn  Sn19  1  0.833308  0.666614  0.229030  1
  Sn  Sn20  1  0.833413  0.166766  0.228948  1
  Sn  Sn21  1  0.333354  0.166766  0.228948  1
  Sn  Sn22  1  0.333467  0.666934  0.273917  1
  Sn  Sn23  1  0.666760  0.333517  0.774599  1
