# generated using pymatgen
data_CaLa4Si2Sn
_symmetry_space_group_name_H-M   'P 1'
_cell_length_a   8.09959700
_cell_length_b   9.24933502
_cell_length_c   8.09959700
_cell_angle_alpha   115.96663593
_cell_angle_beta   90.00000000
_cell_angle_gamma   115.96663593
_symmetry_Int_Tables_number   1
_chemical_formula_structural   CaLa4Si2Sn
_chemical_formula_sum   'Ca2 La8 Si4 Sn2'
_cell_volume   476.46568051
_cell_formula_units_Z   2
loop_
 _symmetry_equiv_pos_site_id
 _symmetry_equiv_pos_as_xyz
  1  'x, y, z'
loop_
 _atom_site_type_symbol
 _atom_site_label
 _atom_site_symmetry_multiplicity
 _atom_site_fract_x
 _atom_site_fract_y
 _atom_site_fract_z
 _atom_site_occupancy
  Ca  Ca0  1  0.000000  0.000000  0.000000  1
  Ca  Ca1  1  0.500000  0.000000  0.500000  1
  La  La2  1  0.533353  0.716769  0.683418  1
  La  La3  1  0.183418  0.716769  0.033353  1
  La  La4  1  0.683418  0.716769  0.183418  1
  La  La5  1  0.033353  0.716769  0.533353  1
  La  La6  1  0.466647  0.283231  0.316582  1
  La  La7  1  0.816582  0.283231  0.966647  1
  La  La8  1  0.316582  0.283231  0.816582  1
  La  La9  1  0.966647  0.283231  0.466647  1
  Si  Si10  1  0.887042  0.000000  0.612958  1
  Si  Si11  1  0.112958  0.000000  0.387042  1
  Si  Si12  1  0.612958  0.000000  0.112958  1
  Si  Si13  1  0.387042  0.000000  0.887042  1
  Sn  Sn14  1  0.750000  0.500000  0.750000  1
  Sn  Sn15  1  0.250000  0.500000  0.250000  1
