# generated using pymatgen
data_Hf18Ta2Re6SiRu
_symmetry_space_group_name_H-M   'P 1'
_cell_length_a   8.67931000
_cell_length_b   8.67931055
_cell_length_c   8.58090900
_cell_angle_alpha   90.00000000
_cell_angle_beta   90.00000000
_cell_angle_gamma   120.00000554
_symmetry_Int_Tables_number   1
_chemical_formula_structural   Hf18Ta2Re6SiRu
_chemical_formula_sum   'Hf18 Ta2 Re6 Si1 Ru1'
_cell_volume   559.80185322
_cell_formula_units_Z   1
loop_
 _symmetry_equiv_pos_site_id
 _symmetry_equiv_pos_as_xyz
  1  'x, y, z'
loop_
 _atom_site_type_symbol
 _atom_site_label
 _atom_site_symmetry_multiplicity
 _atom_site_fract_x
 _atom_site_fract_y
 _atom_site_fract_z
 _atom_site_occupancy
  Hf  Hf0  1  0.196059  0.803941  0.452657  1
  Hf  Hf1  1  0.196059  0.392116  0.452657  1
  Hf  Hf2  1  0.607884  0.803941  0.452657  1
  Hf  Hf3  1  0.800145  0.199855  0.552908  1
  Hf  Hf4  1  0.800145  0.600290  0.552908  1
  Hf  Hf5  1  0.399710  0.199855  0.552908  1
  Hf  Hf6  1  0.800145  0.199855  0.947092  1
  Hf  Hf7  1  0.800145  0.600290  0.947092  1
  Hf  Hf8  1  0.399710  0.199855  0.947092  1
  Hf  Hf9  1  0.196059  0.803941  0.047343  1
  Hf  Hf10  1  0.196059  0.392116  0.047343  1
  Hf  Hf11  1  0.607884  0.803941  0.047343  1
  Hf  Hf12  1  0.538541  0.461459  0.250000  1
  Hf  Hf13  1  0.538541  0.077082  0.250000  1
  Hf  Hf14  1  0.922918  0.461459  0.250000  1
  Hf  Hf15  1  0.458770  0.541230  0.750000  1
  Hf  Hf16  1  0.458770  0.917540  0.750000  1
  Hf  Hf17  1  0.082460  0.541230  0.750000  1
  Ta  Ta18  1  0.000000  0.000000  0.500316  1
  Ta  Ta19  1  0.000000  0.000000  0.999684  1
  Re  Re20  1  0.886673  0.113327  0.250000  1
  Re  Re21  1  0.886673  0.773347  0.250000  1
  Re  Re22  1  0.226653  0.113327  0.250000  1
  Re  Re23  1  0.114191  0.885809  0.750000  1
  Re  Re24  1  0.114191  0.228382  0.750000  1
  Re  Re25  1  0.771618  0.885809  0.750000  1
  Si  Si26  1  0.333333  0.666667  0.250000  1
  Ru  Ru27  1  0.666667  0.333333  0.750000  1
