# generated using pymatgen
data_Eu2Ga6PdPt
_symmetry_space_group_name_H-M   'P 1'
_cell_length_a   6.15940654
_cell_length_b   6.15940650
_cell_length_c   5.95695500
_cell_angle_alpha   90.00000000
_cell_angle_beta   90.00000000
_cell_angle_gamma   117.41486449
_symmetry_Int_Tables_number   1
_chemical_formula_structural   Eu2Ga6PdPt
_chemical_formula_sum   'Eu2 Ga6 Pd1 Pt1'
_cell_volume   200.61633916
_cell_formula_units_Z   1
loop_
 _symmetry_equiv_pos_site_id
 _symmetry_equiv_pos_as_xyz
  1  'x, y, z'
loop_
 _atom_site_type_symbol
 _atom_site_label
 _atom_site_symmetry_multiplicity
 _atom_site_fract_x
 _atom_site_fract_y
 _atom_site_fract_z
 _atom_site_occupancy
  Eu  Eu0  1  0.232784  0.767216  0.750000  1
  Eu  Eu1  1  0.767549  0.232451  0.250000  1
  Ga  Ga2  1  0.664422  0.335578  0.750000  1
  Ga  Ga3  1  0.336006  0.663994  0.250000  1
  Ga  Ga4  1  0.717873  0.718211  0.000109  1
  Ga  Ga5  1  0.717873  0.718211  0.499891  1
  Ga  Ga6  1  0.281789  0.282127  0.000109  1
  Ga  Ga7  1  0.281789  0.282127  0.499891  1
  Pd  Pd8  1  0.099362  0.900638  0.250000  1
  Pt  Pt9  1  0.900552  0.099448  0.750000  1
