# generated using pymatgen
data_HoPaIr2Pb
_symmetry_space_group_name_H-M   'P 1'
_cell_length_a   7.90795600
_cell_length_b   7.79610000
_cell_length_c   3.59152600
_cell_angle_alpha   90.00000000
_cell_angle_beta   90.00000000
_cell_angle_gamma   90.00000000
_symmetry_Int_Tables_number   1
_chemical_formula_structural   HoPaIr2Pb
_chemical_formula_sum   'Ho2 Pa2 Ir4 Pb2'
_cell_volume   221.42194438
_cell_formula_units_Z   2
loop_
 _symmetry_equiv_pos_site_id
 _symmetry_equiv_pos_as_xyz
  1  'x, y, z'
loop_
 _atom_site_type_symbol
 _atom_site_label
 _atom_site_symmetry_multiplicity
 _atom_site_fract_x
 _atom_site_fract_y
 _atom_site_fract_z
 _atom_site_occupancy
  Ho  Ho0  1  0.830242  0.668212  0.500000  1
  Ho  Ho1  1  0.330242  0.831788  0.500000  1
  Pa  Pa2  1  0.670788  0.162455  0.500000  1
  Pa  Pa3  1  0.170788  0.337545  0.500000  1
  Ir  Ir4  1  0.365118  0.152630  0.000000  1
  Ir  Ir5  1  0.127817  0.604244  0.000000  1
  Ir  Ir6  1  0.627817  0.895756  0.000000  1
  Ir  Ir7  1  0.865118  0.347370  0.000000  1
  Pb  Pb8  1  0.006036  0.989543  0.000000  1
  Pb  Pb9  1  0.506036  0.510457  0.000000  1
