# generated using pymatgen
data_Ce3Pr(Al3Ir)6
_symmetry_space_group_name_H-M   'P 1'
_cell_length_a   7.62688695
_cell_length_b   7.63342242
_cell_length_c   9.50296200
_cell_angle_alpha   90.00000000
_cell_angle_beta   90.00000000
_cell_angle_gamma   119.62323237
_symmetry_Int_Tables_number   1
_chemical_formula_structural   Ce3Pr(Al3Ir)6
_chemical_formula_sum   'Ce3 Pr1 Al18 Ir6'
_cell_volume   480.94184712
_cell_formula_units_Z   1
loop_
 _symmetry_equiv_pos_site_id
 _symmetry_equiv_pos_as_xyz
  1  'x, y, z'
loop_
 _atom_site_type_symbol
 _atom_site_label
 _atom_site_symmetry_multiplicity
 _atom_site_fract_x
 _atom_site_fract_y
 _atom_site_fract_z
 _atom_site_occupancy
  Ce  Ce0  1  0.003415  0.329153  0.750000  1
  Ce  Ce1  1  0.670403  0.996747  0.250000  1
  Ce  Ce2  1  0.329631  0.004209  0.750000  1
  Pr  Pr3  1  0.995185  0.670308  0.250000  1
  Al  Al4  1  0.128515  0.130765  0.250000  1
  Al  Al5  1  0.869526  0.869807  0.750000  1
  Al  Al6  1  0.002850  0.335168  0.072883  1
  Al  Al7  1  0.997720  0.664710  0.923372  1
  Al  Al8  1  0.997720  0.664710  0.576628  1
  Al  Al9  1  0.334885  0.002587  0.426875  1
  Al  Al10  1  0.002850  0.335168  0.427117  1
  Al  Al11  1  0.664925  0.997383  0.575393  1
  Al  Al12  1  0.664925  0.997383  0.924607  1
  Al  Al13  1  0.334885  0.002587  0.073125  1
  Al  Al14  1  0.334769  0.334908  0.552240  1
  Al  Al15  1  0.665502  0.665499  0.450765  1
  Al  Al16  1  0.665502  0.665499  0.049235  1
  Al  Al17  1  0.334769  0.334908  0.947760  1
  Al  Al18  1  0.343206  0.548623  0.250000  1
  Al  Al19  1  0.658545  0.452944  0.750000  1
  Al  Al20  1  0.546053  0.337960  0.250000  1
  Al  Al21  1  0.452554  0.658001  0.750000  1
  Ir  Ir22  1  0.671209  0.327058  0.998490  1
  Ir  Ir23  1  0.328816  0.672006  0.998536  1
  Ir  Ir24  1  0.328816  0.672006  0.501464  1
  Ir  Ir25  1  0.671209  0.327058  0.501510  1
  Ir  Ir26  1  0.000810  0.001423  0.997999  1
  Ir  Ir27  1  0.000810  0.001423  0.502001  1
