# generated using pymatgen
data_Lu4Al17GaPtRh5
_symmetry_space_group_name_H-M   'P 1'
_cell_length_a   7.52589622
_cell_length_b   7.52635090
_cell_length_c   9.40878019
_cell_angle_alpha   89.98684775
_cell_angle_beta   89.97873017
_cell_angle_gamma   119.48349383
_symmetry_Int_Tables_number   1
_chemical_formula_structural   Lu4Al17GaPtRh5
_chemical_formula_sum   'Lu4 Al17 Ga1 Pt1 Rh5'
_cell_volume   463.92040037
_cell_formula_units_Z   1
loop_
 _symmetry_equiv_pos_site_id
 _symmetry_equiv_pos_as_xyz
  1  'x, y, z'
loop_
 _atom_site_type_symbol
 _atom_site_label
 _atom_site_symmetry_multiplicity
 _atom_site_fract_x
 _atom_site_fract_y
 _atom_site_fract_z
 _atom_site_occupancy
  Lu  Lu0  1  0.994529  0.671577  0.250377  1
  Lu  Lu1  1  0.004362  0.328710  0.749862  1
  Lu  Lu2  1  0.672576  0.995450  0.250110  1
  Lu  Lu3  1  0.329624  0.005277  0.749629  1
  Al  Al4  1  0.874261  0.873517  0.749705  1
  Al  Al5  1  0.003878  0.335388  0.077108  1
  Al  Al6  1  0.003305  0.668298  0.923024  1
  Al  Al7  1  0.001028  0.665026  0.575315  1
  Al  Al8  1  0.335178  0.999033  0.424672  1
  Al  Al9  1  0.000427  0.335209  0.424181  1
  Al  Al10  1  0.664997  0.999663  0.575745  1
  Al  Al11  1  0.664657  0.996190  0.922992  1
  Al  Al12  1  0.331778  0.996745  0.077030  1
  Al  Al13  1  0.332092  0.332107  0.553997  1
  Al  Al14  1  0.667632  0.667700  0.447041  1
  Al  Al15  1  0.666836  0.670139  0.055366  1
  Al  Al16  1  0.329572  0.332951  0.943585  1
  Al  Al17  1  0.339151  0.551647  0.250421  1
  Al  Al18  1  0.660945  0.452987  0.746832  1
  Al  Al19  1  0.547727  0.338677  0.253188  1
  Al  Al20  1  0.449219  0.660532  0.749611  1
  Ga  Ga21  1  0.127791  0.126874  0.250263  1
  Pt  Pt22  1  0.672031  0.327221  0.000111  1
  Rh  Rh23  1  0.327605  0.671710  0.000179  1
  Rh  Rh24  1  0.327727  0.671578  0.499838  1
  Rh  Rh25  1  0.672191  0.327136  0.499851  1
  Rh  Rh26  1  0.999414  0.999419  0.998202  1
  Rh  Rh27  1  0.999468  0.999243  0.501765  1
