# generated using pymatgen
data_Ce3In2SbIr3
_symmetry_space_group_name_H-M   'P 1'
_cell_length_a   7.52597610
_cell_length_b   7.53028722
_cell_length_c   4.06871200
_cell_angle_alpha   90.00000000
_cell_angle_beta   90.00000000
_cell_angle_gamma   119.99993609
_symmetry_Int_Tables_number   1
_chemical_formula_structural   Ce3In2SbIr3
_chemical_formula_sum   'Ce3 In2 Sb1 Ir3'
_cell_volume   199.69272242
_cell_formula_units_Z   1
loop_
 _symmetry_equiv_pos_site_id
 _symmetry_equiv_pos_as_xyz
  1  'x, y, z'
loop_
 _atom_site_type_symbol
 _atom_site_label
 _atom_site_symmetry_multiplicity
 _atom_site_fract_x
 _atom_site_fract_y
 _atom_site_fract_z
 _atom_site_occupancy
  Ce  Ce0  1  0.413120  0.410911  0.000000  1
  Ce  Ce1  1  0.586817  0.997809  0.000000  1
  Ce  Ce2  1  0.999957  0.589915  0.000000  1
  In  In3  1  0.748377  0.745390  0.500000  1
  In  In4  1  0.251517  0.996854  0.500000  1
  Sb  Sb5  1  0.999979  0.253479  0.500000  1
  Ir  Ir6  1  0.000236  0.009599  0.000000  1
  Ir  Ir7  1  0.330771  0.663228  0.500000  1
  Ir  Ir8  1  0.669225  0.332815  0.500000  1
