# generated using pymatgen
data_Cs2Ta4Nb2SnBr18
_symmetry_space_group_name_H-M   'P 1'
_cell_length_a   11.01129915
_cell_length_b   11.01447081
_cell_length_c   11.01223693
_cell_angle_alpha   54.90950918
_cell_angle_beta   54.91876402
_cell_angle_gamma   54.92860450
_symmetry_Int_Tables_number   1
_chemical_formula_structural   Cs2Ta4Nb2SnBr18
_chemical_formula_sum   'Cs2 Ta4 Nb2 Sn1 Br18'
_cell_volume   832.72857192
_cell_formula_units_Z   1
loop_
 _symmetry_equiv_pos_site_id
 _symmetry_equiv_pos_as_xyz
  1  'x, y, z'
loop_
 _atom_site_type_symbol
 _atom_site_label
 _atom_site_symmetry_multiplicity
 _atom_site_fract_x
 _atom_site_fract_y
 _atom_site_fract_z
 _atom_site_occupancy
  Cs  Cs0  1  0.723146  0.722773  0.723037  1
  Cs  Cs1  1  0.277127  0.277241  0.277130  1
  Ta  Ta2  1  0.576330  0.361409  0.690458  1
  Ta  Ta3  1  0.360955  0.690991  0.576577  1
  Ta  Ta4  1  0.690502  0.576330  0.361347  1
  Ta  Ta5  1  0.639032  0.308995  0.423383  1
  Nb  Nb6  1  0.423008  0.639702  0.307995  1
  Nb  Nb7  1  0.308009  0.423018  0.639740  1
  Sn  Sn8  1  0.000908  0.000402  0.999679  1
  Br  Br9  1  0.906248  0.359912  0.232214  1
  Br  Br10  1  0.831301  0.422342  0.564970  1
  Br  Br11  1  0.767657  0.093780  0.640184  1
  Br  Br12  1  0.093410  0.641711  0.767666  1
  Br  Br13  1  0.679444  0.172059  0.958714  1
  Br  Br14  1  0.231674  0.907057  0.361064  1
  Br  Br15  1  0.436652  0.167995  0.576636  1
  Br  Br16  1  0.641896  0.767914  0.093004  1
  Br  Br17  1  0.578626  0.433467  0.169152  1
  Br  Br18  1  0.039370  0.319220  0.829749  1
  Br  Br19  1  0.564935  0.831016  0.422337  1
  Br  Br20  1  0.360935  0.231403  0.907516  1
  Br  Br21  1  0.958817  0.679126  0.172187  1
  Br  Br22  1  0.167638  0.577746  0.434986  1
  Br  Br23  1  0.828387  0.040936  0.320599  1
  Br  Br24  1  0.422382  0.564891  0.831027  1
  Br  Br25  1  0.171982  0.959026  0.679464  1
  Br  Br26  1  0.319634  0.829537  0.039185  1
