# generated using pymatgen
data_La16Cd4Fe2CoPd
_symmetry_space_group_name_H-M   'P 1'
_cell_length_a   10.00771459
_cell_length_b   10.06559286
_cell_length_c   10.06559352
_cell_angle_alpha   59.92686784
_cell_angle_beta   59.67182890
_cell_angle_gamma   59.67182824
_symmetry_Int_Tables_number   1
_chemical_formula_structural   La16Cd4Fe2CoPd
_chemical_formula_sum   'La16 Cd4 Fe2 Co1 Pd1'
_cell_volume   712.99802027
_cell_formula_units_Z   1
loop_
 _symmetry_equiv_pos_site_id
 _symmetry_equiv_pos_as_xyz
  1  'x, y, z'
loop_
 _atom_site_type_symbol
 _atom_site_label
 _atom_site_symmetry_multiplicity
 _atom_site_fract_x
 _atom_site_fract_y
 _atom_site_fract_z
 _atom_site_occupancy
  La  La0  1  0.940057  0.941015  0.556777  1
  La  La1  1  0.561555  0.939467  0.558764  1
  La  La2  1  0.560539  0.939166  0.939166  1
  La  La3  1  0.670461  0.707585  0.310729  1
  La  La4  1  0.163893  0.147306  0.541131  1
  La  La5  1  0.310922  0.688556  0.688556  1
  La  La6  1  0.167704  0.148521  0.148521  1
  La  La7  1  0.537651  0.154985  0.154985  1
  La  La8  1  0.308259  0.691795  0.312762  1
  La  La9  1  0.308259  0.312762  0.691795  1
  La  La10  1  0.670461  0.310729  0.707585  1
  La  La11  1  0.940829  0.557773  0.557773  1
  La  La12  1  0.561555  0.558764  0.939467  1
  La  La13  1  0.163893  0.541131  0.147306  1
  La  La14  1  0.676776  0.308912  0.308912  1
  La  La15  1  0.940057  0.556777  0.941015  1
  Cd  Cd16  1  0.238877  0.919882  0.919882  1
  Cd  Cd17  1  0.922703  0.921685  0.921685  1
  Cd  Cd18  1  0.921370  0.920722  0.236746  1
  Cd  Cd19  1  0.921370  0.236746  0.920722  1
  Fe  Fe20  1  0.366747  0.359928  0.914218  1
  Fe  Fe21  1  0.366747  0.914218  0.359928  1
  Co  Co22  1  0.360584  0.360274  0.360274  1
  Pd  Pd23  1  0.918726  0.361300  0.361300  1
