# generated using pymatgen
data_U2NbBr15
_symmetry_space_group_name_H-M   'P 1'
_cell_length_a   15.05326373
_cell_length_b   15.05786387
_cell_length_c   7.02331274
_cell_angle_alpha   89.68799524
_cell_angle_beta   89.67767132
_cell_angle_gamma   86.80391363
_symmetry_Int_Tables_number   1
_chemical_formula_structural   U2NbBr15
_chemical_formula_sum   'U4 Nb2 Br30'
_cell_volume   1589.45192624
_cell_formula_units_Z   2
loop_
 _symmetry_equiv_pos_site_id
 _symmetry_equiv_pos_as_xyz
  1  'x, y, z'
loop_
 _atom_site_type_symbol
 _atom_site_label
 _atom_site_symmetry_multiplicity
 _atom_site_fract_x
 _atom_site_fract_y
 _atom_site_fract_z
 _atom_site_occupancy
  U  U0  1  0.433553  0.232602  0.474882  1
  U  U1  1  0.772244  0.561303  0.525042  1
  U  U2  1  0.560557  0.772836  0.525050  1
  U  U3  1  0.100544  0.899807  0.000076  1
  Nb  Nb4  1  0.224359  0.442077  0.475361  1
  Nb  Nb5  1  0.891389  0.108613  0.000316  1
  Br  Br6  1  0.529255  0.332526  0.248649  1
  Br  Br7  1  0.670305  0.468792  0.750458  1
  Br  Br8  1  0.468879  0.670026  0.749987  1
  Br  Br9  1  0.330258  0.517336  0.265318  1
  Br  Br10  1  0.572509  0.200075  0.698996  1
  Br  Br11  1  0.803436  0.423539  0.298833  1
  Br  Br12  1  0.868806  0.233515  0.780885  1
  Br  Br13  1  0.766512  0.131700  0.218930  1
  Br  Br14  1  0.133036  0.761114  0.227303  1
  Br  Br15  1  0.238399  0.866832  0.772495  1
  Br  Br16  1  0.998138  0.184074  0.205010  1
  Br  Br17  1  0.816291  0.002377  0.794964  1
  Br  Br18  1  0.000354  0.803508  0.779372  1
  Br  Br19  1  0.196056  0.999865  0.220402  1
  Br  Br20  1  0.045039  0.053659  0.788785  1
  Br  Br21  1  0.946515  0.955500  0.211660  1
  Br  Br22  1  0.279357  0.288124  0.266806  1
  Br  Br23  1  0.717116  0.717362  0.738095  1
  Br  Br24  1  0.099595  0.464523  0.258135  1
  Br  Br25  1  0.531072  0.909562  0.752070  1
  Br  Br26  1  0.909938  0.530213  0.751473  1
  Br  Br27  1  0.466317  0.094586  0.250293  1
  Br  Br28  1  0.148661  0.335529  0.684496  1
  Br  Br29  1  0.663743  0.864331  0.300467  1
  Br  Br30  1  0.864612  0.663640  0.300134  1
  Br  Br31  1  0.333703  0.137765  0.701018  1
  Br  Br32  1  0.378024  0.387040  0.683296  1
  Br  Br33  1  0.616174  0.616482  0.311690  1
  Br  Br34  1  0.201456  0.566948  0.691277  1
  Br  Br35  1  0.423792  0.802220  0.297973  1
