# generated using pymatgen
data_Tm8Al(B8Mo)3
_symmetry_space_group_name_H-M   'P 1'
_cell_length_a   3.61345500
_cell_length_b   9.19928787
_cell_length_c   11.55149816
_cell_angle_alpha   90.20052032
_cell_angle_beta   90.00000000
_cell_angle_gamma   90.00000000
_symmetry_Int_Tables_number   1
_chemical_formula_structural   Tm8Al(B8Mo)3
_chemical_formula_sum   'Tm8 Al1 B24 Mo3'
_cell_volume   383.98345662
_cell_formula_units_Z   1
loop_
 _symmetry_equiv_pos_site_id
 _symmetry_equiv_pos_as_xyz
  1  'x, y, z'
loop_
 _atom_site_type_symbol
 _atom_site_label
 _atom_site_symmetry_multiplicity
 _atom_site_fract_x
 _atom_site_fract_y
 _atom_site_fract_z
 _atom_site_occupancy
  Tm  Tm0  1  0.000000  0.317275  0.415079  1
  Tm  Tm1  1  0.000000  0.678268  0.589562  1
  Tm  Tm2  1  0.000000  0.825019  0.082690  1
  Tm  Tm3  1  0.000000  0.179389  0.912891  1
  Tm  Tm4  1  0.000000  0.943671  0.369968  1
  Tm  Tm5  1  0.000000  0.055854  0.628298  1
  Tm  Tm6  1  0.000000  0.440954  0.128784  1
  Tm  Tm7  1  0.000000  0.556428  0.872027  1
  Al  Al8  1  0.000000  0.637762  0.322519  1
  B  B9  1  0.500000  0.553634  0.434425  1
  B  B10  1  0.500000  0.449438  0.563398  1
  B  B11  1  0.500000  0.053111  0.065020  1
  B  B12  1  0.500000  0.948928  0.934211  1
  B  B13  1  0.500000  0.750315  0.420583  1
  B  B14  1  0.500000  0.247865  0.578523  1
  B  B15  1  0.500000  0.252264  0.079869  1
  B  B16  1  0.500000  0.749303  0.921560  1
  B  B17  1  0.500000  0.793753  0.262548  1
  B  B18  1  0.500000  0.206262  0.735651  1
  B  B19  1  0.500000  0.295973  0.238290  1
  B  B20  1  0.500000  0.705162  0.764638  1
  B  B21  1  0.500000  0.632069  0.182503  1
  B  B22  1  0.500000  0.369973  0.816171  1
  B  B23  1  0.500000  0.131199  0.317469  1
  B  B24  1  0.500000  0.868139  0.682770  1
  B  B25  1  0.500000  0.977726  0.211329  1
  B  B26  1  0.500000  0.020901  0.786978  1
  B  B27  1  0.500000  0.481597  0.288868  1
  B  B28  1  0.500000  0.521207  0.712328  1
  B  B29  1  0.500000  0.603125  0.030796  1
  B  B30  1  0.500000  0.400143  0.973103  1
  B  B31  1  0.500000  0.097532  0.471712  1
  B  B32  1  0.500000  0.894898  0.526588  1
  Mo  Mo33  1  0.000000  0.360841  0.678299  1
  Mo  Mo34  1  0.000000  0.139399  0.180633  1
  Mo  Mo35  1  0.000000  0.860626  0.819919  1
