# generated using pymatgen
data_AcFeTeO6
_symmetry_space_group_name_H-M   'P 1'
_cell_length_a   5.27664202
_cell_length_b   9.13899629
_cell_length_c   10.78324200
_cell_angle_alpha   89.99450803
_cell_angle_beta   90.00517945
_cell_angle_gamma   90.01333545
_symmetry_Int_Tables_number   1
_chemical_formula_structural   AcFeTeO6
_chemical_formula_sum   'Ac4 Fe4 Te4 O24'
_cell_volume   520.00254486
_cell_formula_units_Z   4
loop_
 _symmetry_equiv_pos_site_id
 _symmetry_equiv_pos_as_xyz
  1  'x, y, z'
loop_
 _atom_site_type_symbol
 _atom_site_label
 _atom_site_symmetry_multiplicity
 _atom_site_fract_x
 _atom_site_fract_y
 _atom_site_fract_z
 _atom_site_occupancy
  Ac  Ac0  1  0.000000  0.000000  0.500000  1
  Ac  Ac1  1  0.500000  0.500000  0.500000  1
  Ac  Ac2  1  0.000000  0.000000  0.000000  1
  Ac  Ac3  1  0.500000  0.500000  0.000000  1
  Fe  Fe4  1  0.500027  0.833340  0.749998  1
  Fe  Fe5  1  0.499973  0.166660  0.250002  1
  Fe  Fe6  1  0.000027  0.333340  0.749998  1
  Fe  Fe7  1  0.999973  0.666660  0.250002  1
  Te  Te8  1  0.500116  0.166617  0.749922  1
  Te  Te9  1  0.000116  0.666617  0.749922  1
  Te  Te10  1  0.999884  0.333383  0.250078  1
  Te  Te11  1  0.499884  0.833383  0.250078  1
  O  O12  1  0.623912  0.006129  0.646769  1
  O  O13  1  0.123912  0.506129  0.646769  1
  O  O14  1  0.678993  0.308828  0.646775  1
  O  O15  1  0.178993  0.808828  0.646775  1
  O  O16  1  0.197315  0.184981  0.646757  1
  O  O17  1  0.697315  0.684981  0.646757  1
  O  O18  1  0.178798  0.191193  0.146784  1
  O  O19  1  0.678798  0.691193  0.146784  1
  O  O20  1  0.123776  0.493936  0.146787  1
  O  O21  1  0.623776  0.993936  0.146787  1
  O  O22  1  0.697129  0.315019  0.146814  1
  O  O23  1  0.197129  0.815019  0.146814  1
  O  O24  1  0.876088  0.493871  0.353231  1
  O  O25  1  0.376088  0.993871  0.353231  1
  O  O26  1  0.821007  0.191172  0.353225  1
  O  O27  1  0.321007  0.691172  0.353225  1
  O  O28  1  0.302685  0.315019  0.353243  1
  O  O29  1  0.802685  0.815019  0.353243  1
  O  O30  1  0.321202  0.308807  0.853216  1
  O  O31  1  0.821202  0.808807  0.853216  1
  O  O32  1  0.376224  0.006064  0.853213  1
  O  O33  1  0.876224  0.506064  0.853213  1
  O  O34  1  0.802871  0.184981  0.853186  1
  O  O35  1  0.302871  0.684981  0.853186  1
