# generated using pymatgen
data_GaAg6RhF12
_symmetry_space_group_name_H-M   'P 1'
_cell_length_a   5.91170842
_cell_length_b   6.03496567
_cell_length_c   8.43983375
_cell_angle_alpha   90.04979840
_cell_angle_beta   90.72857523
_cell_angle_gamma   89.97763763
_symmetry_Int_Tables_number   1
_chemical_formula_structural   GaAg6RhF12
_chemical_formula_sum   'Ga1 Ag6 Rh1 F12'
_cell_volume   301.08310911
_cell_formula_units_Z   1
loop_
 _symmetry_equiv_pos_site_id
 _symmetry_equiv_pos_as_xyz
  1  'x, y, z'
loop_
 _atom_site_type_symbol
 _atom_site_label
 _atom_site_symmetry_multiplicity
 _atom_site_fract_x
 _atom_site_fract_y
 _atom_site_fract_z
 _atom_site_occupancy
  Ga  Ga0  1  0.000000  0.000000  0.000000  1
  Ag  Ag1  1  0.000000  0.000000  0.500000  1
  Ag  Ag2  1  0.500000  0.500000  0.000000  1
  Ag  Ag3  1  0.980166  0.560985  0.254556  1
  Ag  Ag4  1  0.019834  0.439015  0.745444  1
  Ag  Ag5  1  0.518529  0.059343  0.242988  1
  Ag  Ag6  1  0.481471  0.940657  0.757012  1
  Rh  Rh7  1  0.500000  0.500000  0.500000  1
  F  F8  1  0.850468  0.266215  0.072013  1
  F  F9  1  0.149532  0.733785  0.927987  1
  F  F10  1  0.658597  0.777520  0.424802  1
  F  F11  1  0.341403  0.222480  0.575198  1
  F  F12  1  0.117164  0.941821  0.211784  1
  F  F13  1  0.882836  0.058179  0.788216  1
  F  F14  1  0.377997  0.438346  0.279071  1
  F  F15  1  0.622003  0.561654  0.720929  1
  F  F16  1  0.730185  0.833835  0.051321  1
  F  F17  1  0.269815  0.166165  0.948679  1
  F  F18  1  0.782713  0.329007  0.445077  1
  F  F19  1  0.217287  0.670993  0.554923  1
