# generated using pymatgen
data_Lu2Zr3(In2Pt)2
_symmetry_space_group_name_H-M   'P 1'
_cell_length_a   3.53010500
_cell_length_b   7.73977800
_cell_length_c   17.71679600
_cell_angle_alpha   90.00000000
_cell_angle_beta   90.00000000
_cell_angle_gamma   90.00000000
_symmetry_Int_Tables_number   1
_chemical_formula_structural   Lu2Zr3(In2Pt)2
_chemical_formula_sum   'Lu4 Zr6 In8 Pt4'
_cell_volume   484.06235775
_cell_formula_units_Z   2
loop_
 _symmetry_equiv_pos_site_id
 _symmetry_equiv_pos_as_xyz
  1  'x, y, z'
loop_
 _atom_site_type_symbol
 _atom_site_label
 _atom_site_symmetry_multiplicity
 _atom_site_fract_x
 _atom_site_fract_y
 _atom_site_fract_z
 _atom_site_occupancy
  Lu  Lu0  1  0.000000  0.251508  0.220014  1
  Lu  Lu1  1  0.000000  0.748492  0.779986  1
  Lu  Lu2  1  0.000000  0.248492  0.720014  1
  Lu  Lu3  1  0.000000  0.751508  0.279986  1
  Zr  Zr4  1  0.000000  0.131859  0.420801  1
  Zr  Zr5  1  0.000000  0.868141  0.579199  1
  Zr  Zr6  1  0.000000  0.368141  0.920801  1
  Zr  Zr7  1  0.000000  0.631859  0.079199  1
  Zr  Zr8  1  0.000000  0.000000  0.000000  1
  Zr  Zr9  1  0.000000  0.500000  0.500000  1
  In  In10  1  0.500000  0.430236  0.352622  1
  In  In11  1  0.500000  0.569764  0.647378  1
  In  In12  1  0.500000  0.069764  0.852622  1
  In  In13  1  0.500000  0.930236  0.147378  1
  In  In14  1  0.500000  0.298155  0.063114  1
  In  In15  1  0.500000  0.701845  0.936886  1
  In  In16  1  0.500000  0.201845  0.563114  1
  In  In17  1  0.500000  0.798155  0.436886  1
  Pt  Pt18  1  0.500000  0.040231  0.307862  1
  Pt  Pt19  1  0.500000  0.959769  0.692138  1
  Pt  Pt20  1  0.500000  0.459769  0.807862  1
  Pt  Pt21  1  0.500000  0.540231  0.192138  1
