# generated using pymatgen
data_TmLu3(HfPt)4
_symmetry_space_group_name_H-M   'P 1'
_cell_length_a   4.63376300
_cell_length_b   6.96701643
_cell_length_c   8.17451315
_cell_angle_alpha   90.03676293
_cell_angle_beta   90.00000000
_cell_angle_gamma   90.00000000
_symmetry_Int_Tables_number   1
_chemical_formula_structural   TmLu3(HfPt)4
_chemical_formula_sum   'Tm1 Lu3 Hf4 Pt4'
_cell_volume   263.90186532
_cell_formula_units_Z   1
loop_
 _symmetry_equiv_pos_site_id
 _symmetry_equiv_pos_as_xyz
  1  'x, y, z'
loop_
 _atom_site_type_symbol
 _atom_site_label
 _atom_site_symmetry_multiplicity
 _atom_site_fract_x
 _atom_site_fract_y
 _atom_site_fract_z
 _atom_site_occupancy
  Tm  Tm0  1  0.250000  0.015741  0.322166  1
  Lu  Lu1  1  0.250000  0.516354  0.177487  1
  Lu  Lu2  1  0.750000  0.483426  0.822115  1
  Lu  Lu3  1  0.750000  0.983770  0.678068  1
  Hf  Hf4  1  0.250000  0.645519  0.577681  1
  Hf  Hf5  1  0.750000  0.354648  0.422870  1
  Hf  Hf6  1  0.750000  0.854094  0.076430  1
  Hf  Hf7  1  0.250000  0.145860  0.922532  1
  Pt  Pt8  1  0.250000  0.764383  0.904576  1
  Pt  Pt9  1  0.750000  0.236061  0.094871  1
  Pt  Pt10  1  0.750000  0.735277  0.405012  1
  Pt  Pt11  1  0.250000  0.264868  0.596193  1
