# generated using pymatgen
data_Dy13Ho3In4Ru3Rh
_symmetry_space_group_name_H-M   'P 1'
_cell_length_a   9.66840986
_cell_length_b   9.66700840
_cell_length_c   9.65075371
_cell_angle_alpha   59.71516048
_cell_angle_beta   59.67457579
_cell_angle_gamma   59.79056719
_symmetry_Int_Tables_number   1
_chemical_formula_structural   Dy13Ho3In4Ru3Rh
_chemical_formula_sum   'Dy13 Ho3 In4 Ru3 Rh1'
_cell_volume   633.85377934
_cell_formula_units_Z   1
loop_
 _symmetry_equiv_pos_site_id
 _symmetry_equiv_pos_as_xyz
  1  'x, y, z'
loop_
 _atom_site_type_symbol
 _atom_site_label
 _atom_site_symmetry_multiplicity
 _atom_site_fract_x
 _atom_site_fract_y
 _atom_site_fract_z
 _atom_site_occupancy
  Dy  Dy0  1  0.190263  0.190462  0.807179  1
  Dy  Dy1  1  0.597271  0.597412  0.208522  1
  Dy  Dy2  1  0.442188  0.057917  0.441320  1
  Dy  Dy3  1  0.441708  0.441089  0.059409  1
  Dy  Dy4  1  0.812477  0.188519  0.808548  1
  Dy  Dy5  1  0.191970  0.807629  0.191258  1
  Dy  Dy6  1  0.440680  0.055016  0.059101  1
  Dy  Dy7  1  0.188573  0.812749  0.808162  1
  Dy  Dy8  1  0.055312  0.440237  0.059186  1
  Dy  Dy9  1  0.809045  0.809298  0.189538  1
  Dy  Dy10  1  0.206313  0.599203  0.597276  1
  Dy  Dy11  1  0.057930  0.441639  0.441346  1
  Dy  Dy12  1  0.057540  0.057782  0.438797  1
  Ho  Ho13  1  0.806672  0.192814  0.191953  1
  Ho  Ho14  1  0.599013  0.206845  0.597395  1
  Ho  Ho15  1  0.599542  0.599261  0.597944  1
  In  In16  1  0.832030  0.832242  0.831015  1
  In  In17  1  0.832744  0.833433  0.501254  1
  In  In18  1  0.503065  0.832349  0.832002  1
  In  In19  1  0.832117  0.502430  0.832772  1
  Ru  Ru20  1  0.391575  0.831256  0.392581  1
  Ru  Ru21  1  0.389117  0.387837  0.391189  1
  Ru  Ru22  1  0.830985  0.391182  0.392500  1
  Rh  Rh23  1  0.391869  0.391398  0.829752  1
