# generated using pymatgen
data_Ba6Pr2(TeO6)3
_symmetry_space_group_name_H-M   'P 1'
_cell_length_a   10.58529352
_cell_length_b   10.58529308
_cell_length_c   10.58529337
_cell_angle_alpha   146.57769632
_cell_angle_beta   131.76860674
_cell_angle_gamma   59.94987242
_symmetry_Int_Tables_number   1
_chemical_formula_structural   Ba6Pr2(TeO6)3
_chemical_formula_sum   'Ba6 Pr2 Te3 O18'
_cell_volume   482.83123396
_cell_formula_units_Z   1
loop_
 _symmetry_equiv_pos_site_id
 _symmetry_equiv_pos_as_xyz
  1  'x, y, z'
loop_
 _atom_site_type_symbol
 _atom_site_label
 _atom_site_symmetry_multiplicity
 _atom_site_fract_x
 _atom_site_fract_y
 _atom_site_fract_z
 _atom_site_occupancy
  Ba  Ba0  1  0.781077  0.500000  0.281077  1
  Ba  Ba1  1  0.380046  0.150225  0.229821  1
  Ba  Ba2  1  0.079595  0.849775  0.229821  1
  Ba  Ba3  1  0.218923  0.500000  0.718923  1
  Ba  Ba4  1  0.920405  0.150225  0.770179  1
  Ba  Ba5  1  0.619954  0.849775  0.770179  1
  Pr  Pr6  1  0.666680  0.666680  0.000000  1
  Pr  Pr7  1  0.333320  0.333320  0.000000  1
  Te  Te8  1  0.500000  0.000000  0.500000  1
  Te  Te9  1  0.168782  0.668782  0.500000  1
  Te  Te10  1  0.831218  0.331218  0.500000  1
  O  O11  1  0.721992  0.000000  0.721992  1
  O  O12  1  0.396363  0.667609  0.728755  1
  O  O13  1  0.061147  0.332391  0.728755  1
  O  O14  1  0.576762  0.848630  0.271867  1
  O  O15  1  0.243352  0.514503  0.271151  1
  O  O16  1  0.906183  0.182069  0.275887  1
  O  O17  1  0.423238  0.695105  0.271867  1
  O  O18  1  0.093817  0.369704  0.275887  1
  O  O19  1  0.756648  0.027800  0.271151  1
  O  O20  1  0.278008  0.000000  0.278008  1
  O  O21  1  0.938853  0.667609  0.271245  1
  O  O22  1  0.603637  0.332391  0.271245  1
  O  O23  1  0.423238  0.151370  0.728133  1
  O  O24  1  0.093817  0.817931  0.724113  1
  O  O25  1  0.756648  0.485497  0.728849  1
  O  O26  1  0.576762  0.304895  0.728133  1
  O  O27  1  0.243352  0.972200  0.728849  1
  O  O28  1  0.906183  0.630297  0.724113  1
