# generated using pymatgen
data_K7Bi(SO4)6
_symmetry_space_group_name_H-M   'P 1'
_cell_length_a   9.49544632
_cell_length_b   9.49544670
_cell_length_c   9.49544779
_cell_angle_alpha   109.50442493
_cell_angle_beta   109.50442899
_cell_angle_gamma   109.50443989
_symmetry_Int_Tables_number   1
_chemical_formula_structural   K7Bi(SO4)6
_chemical_formula_sum   'K7 Bi1 S6 O24'
_cell_volume   658.24745192
_cell_formula_units_Z   1
loop_
 _symmetry_equiv_pos_site_id
 _symmetry_equiv_pos_as_xyz
  1  'x, y, z'
loop_
 _atom_site_type_symbol
 _atom_site_label
 _atom_site_symmetry_multiplicity
 _atom_site_fract_x
 _atom_site_fract_y
 _atom_site_fract_z
 _atom_site_occupancy
  K  K0  1  0.500000  0.500000  0.500000  1
  K  K1  1  0.841561  0.343258  0.691057  1
  K  K2  1  0.343258  0.691057  0.841561  1
  K  K3  1  0.691057  0.841561  0.343258  1
  K  K4  1  0.158439  0.656742  0.308943  1
  K  K5  1  0.656742  0.308943  0.158439  1
  K  K6  1  0.308943  0.158439  0.656742  1
  Bi  Bi7  1  0.000000  0.000000  0.000000  1
  S  S8  1  0.967165  0.743519  0.611153  1
  S  S9  1  0.743519  0.611153  0.967165  1
  S  S10  1  0.611153  0.967165  0.743519  1
  S  S11  1  0.032835  0.256481  0.388847  1
  S  S12  1  0.256481  0.388847  0.032835  1
  S  S13  1  0.388847  0.032835  0.256481  1
  O  O14  1  0.446199  0.914819  0.183357  1
  O  O15  1  0.914819  0.183357  0.446199  1
  O  O16  1  0.183357  0.446199  0.914819  1
  O  O17  1  0.553801  0.085181  0.816643  1
  O  O18  1  0.085181  0.816643  0.553801  1
  O  O19  1  0.816643  0.553801  0.085181  1
  O  O20  1  0.301314  0.980885  0.346507  1
  O  O21  1  0.980885  0.346507  0.301314  1
  O  O22  1  0.346507  0.301314  0.980885  1
  O  O23  1  0.698686  0.019115  0.653493  1
  O  O24  1  0.019115  0.653493  0.698686  1
  O  O25  1  0.653493  0.698686  0.019115  1
  O  O26  1  0.741510  0.978740  0.907076  1
  O  O27  1  0.978740  0.907076  0.741510  1
  O  O28  1  0.635309  0.469228  0.785396  1
  O  O29  1  0.785396  0.635309  0.469228  1
  O  O30  1  0.469228  0.785396  0.635309  1
  O  O31  1  0.364691  0.530772  0.214604  1
  O  O32  1  0.214604  0.364691  0.530772  1
  O  O33  1  0.530772  0.214604  0.364691  1
  O  O34  1  0.092924  0.258490  0.021260  1
  O  O35  1  0.021260  0.092924  0.258490  1
  O  O36  1  0.258490  0.021260  0.092924  1
  O  O37  1  0.907076  0.741510  0.978740  1
