# generated using pymatgen
data_Cs4DyNbCl12
_symmetry_space_group_name_H-M   'P 1'
_cell_length_a   12.91916095
_cell_length_b   12.91916154
_cell_length_c   12.91916100
_cell_angle_alpha   131.79378550
_cell_angle_beta   131.79378784
_cell_angle_gamma   70.55491667
_symmetry_Int_Tables_number   1
_chemical_formula_structural   Cs4DyNbCl12
_chemical_formula_sum   'Cs8 Dy2 Nb2 Cl24'
_cell_volume   1174.29194483
_cell_formula_units_Z   2
loop_
 _symmetry_equiv_pos_site_id
 _symmetry_equiv_pos_as_xyz
  1  'x, y, z'
loop_
 _atom_site_type_symbol
 _atom_site_label
 _atom_site_symmetry_multiplicity
 _atom_site_fract_x
 _atom_site_fract_y
 _atom_site_fract_z
 _atom_site_occupancy
  Cs  Cs0  1  0.375000  0.903217  0.028217  1
  Cs  Cs1  1  0.653217  0.625000  0.528217  1
  Cs  Cs2  1  0.875000  0.903217  0.528217  1
  Cs  Cs3  1  0.653217  0.125000  0.028217  1
  Cs  Cs4  1  0.875000  0.346783  0.971783  1
  Cs  Cs5  1  0.096783  0.125000  0.471783  1
  Cs  Cs6  1  0.375000  0.346783  0.471783  1
  Cs  Cs7  1  0.096783  0.625000  0.971783  1
  Dy  Dy8  1  0.000000  0.000000  0.000000  1
  Dy  Dy9  1  0.750000  0.250000  0.500000  1
  Nb  Nb10  1  0.500000  0.500000  0.000000  1
  Nb  Nb11  1  0.250000  0.750000  0.500000  1
  Cl  Cl12  1  0.728548  0.502095  0.226453  1
  Cl  Cl13  1  0.497905  0.271452  0.773547  1
  Cl  Cl14  1  0.386809  0.386809  0.000000  1
  Cl  Cl15  1  0.136809  0.636809  0.500000  1
  Cl  Cl16  1  0.363191  0.863191  0.500000  1
  Cl  Cl17  1  0.613191  0.613191  0.000000  1
  Cl  Cl18  1  0.125155  0.125155  0.000000  1
  Cl  Cl19  1  0.875155  0.375155  0.500000  1
  Cl  Cl20  1  0.624845  0.124845  0.500000  1
  Cl  Cl21  1  0.874845  0.874845  0.000000  1
  Cl  Cl22  1  0.245908  0.995884  0.250024  1
  Cl  Cl23  1  0.745884  0.995859  0.249976  1
  Cl  Cl24  1  0.497905  0.724357  0.226453  1
  Cl  Cl25  1  0.504092  0.254116  0.249976  1
  Cl  Cl26  1  0.004141  0.254116  0.750024  1
  Cl  Cl27  1  0.004116  0.254141  0.250024  1
  Cl  Cl28  1  0.004116  0.754092  0.749976  1
  Cl  Cl29  1  0.745859  0.995884  0.749976  1
  Cl  Cl30  1  0.745884  0.495908  0.750024  1
  Cl  Cl31  1  0.252095  0.525643  0.273547  1
  Cl  Cl32  1  0.252095  0.978548  0.726453  1
  Cl  Cl33  1  0.021452  0.747905  0.273547  1
  Cl  Cl34  1  0.474357  0.747905  0.726453  1
  Cl  Cl35  1  0.275643  0.502095  0.773547  1
