# generated using pymatgen
data_LaPrSm4OsBr10
_symmetry_space_group_name_H-M   'P 1'
_cell_length_a   7.64784115
_cell_length_b   9.60681691
_cell_length_c   9.46125034
_cell_angle_alpha   107.57798567
_cell_angle_beta   95.53705795
_cell_angle_gamma   106.52135222
_symmetry_Int_Tables_number   1
_chemical_formula_structural   LaPrSm4OsBr10
_chemical_formula_sum   'La1 Pr1 Sm4 Os1 Br10'
_cell_volume   622.53758776
_cell_formula_units_Z   1
loop_
 _symmetry_equiv_pos_site_id
 _symmetry_equiv_pos_as_xyz
  1  'x, y, z'
loop_
 _atom_site_type_symbol
 _atom_site_label
 _atom_site_symmetry_multiplicity
 _atom_site_fract_x
 _atom_site_fract_y
 _atom_site_fract_z
 _atom_site_occupancy
  La  La0  1  0.625130  0.548518  0.263744  1
  Pr  Pr1  1  0.374414  0.451099  0.737510  1
  Sm  Sm2  1  0.528674  0.197003  0.404259  1
  Sm  Sm3  1  0.471085  0.803164  0.596299  1
  Sm  Sm4  1  0.133228  0.358571  0.317427  1
  Sm  Sm5  1  0.866493  0.641237  0.682632  1
  Os  Os6  1  0.503394  0.501673  0.494564  1
  Br  Br7  1  0.152572  0.049788  0.230667  1
  Br  Br8  1  0.847560  0.950086  0.769597  1
  Br  Br9  1  0.242666  0.413546  0.049093  1
  Br  Br10  1  0.751927  0.584477  0.949707  1
  Br  Br11  1  0.712635  0.240620  0.156354  1
  Br  Br12  1  0.287773  0.755782  0.843815  1
  Br  Br13  1  0.052123  0.673875  0.420104  1
  Br  Br14  1  0.951556  0.327392  0.582392  1
  Br  Br15  1  0.414337  0.129062  0.669481  1
  Br  Br16  1  0.584434  0.874107  0.332355  1
