# generated using pymatgen
data_Ho6UFe22
_symmetry_space_group_name_H-M   'P 1'
_cell_length_a   8.48561500
_cell_length_b   8.48561386
_cell_length_c   8.48561500
_cell_angle_alpha   120.00000056
_cell_angle_beta   90.00000000
_cell_angle_gamma   120.00000056
_symmetry_Int_Tables_number   1
_chemical_formula_structural   Ho6UFe22
_chemical_formula_sum   'Ho6 U1 Fe22'
_cell_volume   432.05089290
_cell_formula_units_Z   1
loop_
 _symmetry_equiv_pos_site_id
 _symmetry_equiv_pos_as_xyz
  1  'x, y, z'
loop_
 _atom_site_type_symbol
 _atom_site_label
 _atom_site_symmetry_multiplicity
 _atom_site_fract_x
 _atom_site_fract_y
 _atom_site_fract_z
 _atom_site_occupancy
  Ho  Ho0  1  0.293364  0.000000  0.293364  1
  Ho  Ho1  1  0.293364  0.586728  0.293364  1
  Ho  Ho2  1  0.706637  0.000000  0.293365  1
  Ho  Ho3  1  0.706636  0.000000  0.706636  1
  Ho  Ho4  1  0.293365  0.000000  0.706637  1
  Ho  Ho5  1  0.706637  0.413272  0.706637  1
  U  U6  1  0.000000  0.000000  0.000000  1
  Fe  Fe7  1  0.500000  0.000000  0.000000  1
  Fe  Fe8  1  0.000000  0.500000  0.000000  1
  Fe  Fe9  1  0.500000  0.500000  0.000000  1
  Fe  Fe10  1  0.675079  0.350160  0.025239  1
  Fe  Fe11  1  0.367747  0.245165  0.122582  1
  Fe  Fe12  1  0.877416  0.245165  0.122582  1
  Fe  Fe13  1  0.877416  0.754833  0.122582  1
  Fe  Fe14  1  0.675079  0.350160  0.324921  1
  Fe  Fe15  1  0.675079  0.649840  0.324921  1
  Fe  Fe16  1  0.974761  0.649840  0.324921  1
  Fe  Fe17  1  0.122582  0.245165  0.367747  1
  Fe  Fe18  1  0.000000  0.000000  0.500000  1
  Fe  Fe19  1  0.000000  0.500000  0.500000  1
  Fe  Fe20  1  0.500000  0.500000  0.500000  1
  Fe  Fe21  1  0.877416  0.754833  0.632252  1
  Fe  Fe22  1  0.025239  0.350160  0.675079  1
  Fe  Fe23  1  0.324921  0.350160  0.675079  1
  Fe  Fe24  1  0.324921  0.649840  0.675079  1
  Fe  Fe25  1  0.122582  0.245165  0.877416  1
  Fe  Fe26  1  0.122582  0.754833  0.877416  1
  Fe  Fe27  1  0.632252  0.754833  0.877416  1
  Fe  Fe28  1  0.324921  0.649840  0.974761  1
