# generated using pymatgen
data_DyScMn2Co10P7
_symmetry_space_group_name_H-M   'P 1'
_cell_length_a   9.02077009
_cell_length_b   8.99822751
_cell_length_c   3.57240800
_cell_angle_alpha   90.00000000
_cell_angle_beta   90.00000000
_cell_angle_gamma   120.05547782
_symmetry_Int_Tables_number   1
_chemical_formula_structural   DyScMn2Co10P7
_chemical_formula_sum   'Dy1 Sc1 Mn2 Co10 P7'
_cell_volume   250.98583570
_cell_formula_units_Z   1
loop_
 _symmetry_equiv_pos_site_id
 _symmetry_equiv_pos_as_xyz
  1  'x, y, z'
loop_
 _atom_site_type_symbol
 _atom_site_label
 _atom_site_symmetry_multiplicity
 _atom_site_fract_x
 _atom_site_fract_y
 _atom_site_fract_z
 _atom_site_occupancy
  Dy  Dy0  1  0.666106  0.331244  0.000000  1
  Sc  Sc1  1  0.333042  0.666225  0.500000  1
  Mn  Mn2  1  0.101250  0.222195  0.500000  1
  Mn  Mn3  1  0.778590  0.878307  0.500000  1
  Co  Co4  1  0.366753  0.935736  0.000000  1
  Co  Co5  1  0.064791  0.433718  0.000000  1
  Co  Co6  1  0.567036  0.631551  0.000000  1
  Co  Co7  1  0.883958  0.724517  0.000000  1
  Co  Co8  1  0.275747  0.158099  0.000000  1
  Co  Co9  1  0.839832  0.115569  0.000000  1
  Co  Co10  1  0.953786  0.565774  0.500000  1
  Co  Co11  1  0.435990  0.387210  0.500000  1
  Co  Co12  1  0.610351  0.046958  0.500000  1
  Co  Co13  1  0.125458  0.905945  0.500000  1
  P  P14  1  0.116260  0.701523  0.000000  1
  P  P15  1  0.299694  0.416378  0.000000  1
  P  P16  1  0.581688  0.882886  0.000000  1
  P  P17  1  0.710783  0.593322  0.500000  1
  P  P18  1  0.401552  0.113497  0.500000  1
  P  P19  1  0.885879  0.288899  0.500000  1
  P  P20  1  0.001454  0.000446  0.000000  1
