# generated using pymatgen
data_RbBrOF4
_symmetry_space_group_name_H-M   'P 1'
_cell_length_a   5.97097400
_cell_length_b   6.08548900
_cell_length_c   14.71470500
_cell_angle_alpha   90.00000000
_cell_angle_beta   90.00000000
_cell_angle_gamma   90.00000000
_symmetry_Int_Tables_number   1
_chemical_formula_structural   RbBrOF4
_chemical_formula_sum   'Rb4 Br4 O4 F16'
_cell_volume   534.67788521
_cell_formula_units_Z   4
loop_
 _symmetry_equiv_pos_site_id
 _symmetry_equiv_pos_as_xyz
  1  'x, y, z'
loop_
 _atom_site_type_symbol
 _atom_site_label
 _atom_site_symmetry_multiplicity
 _atom_site_fract_x
 _atom_site_fract_y
 _atom_site_fract_z
 _atom_site_occupancy
  Rb  Rb0  1  0.750000  0.744665  0.885395  1
  Rb  Rb1  1  0.750000  0.244665  0.614605  1
  Rb  Rb2  1  0.250000  0.755335  0.385395  1
  Rb  Rb3  1  0.250000  0.255335  0.114605  1
  Br  Br4  1  0.750000  0.796655  0.151545  1
  Br  Br5  1  0.750000  0.296655  0.348455  1
  Br  Br6  1  0.250000  0.203345  0.848455  1
  Br  Br7  1  0.250000  0.703345  0.651545  1
  O  O8  1  0.250000  0.985565  0.911270  1
  O  O9  1  0.250000  0.485565  0.588730  1
  O  O10  1  0.750000  0.014435  0.088730  1
  O  O11  1  0.750000  0.514435  0.411270  1
  F  F12  1  0.025632  0.848642  0.579840  1
  F  F13  1  0.525632  0.651358  0.079840  1
  F  F14  1  0.974368  0.651358  0.079840  1
  F  F15  1  0.520790  0.912104  0.233021  1
  F  F16  1  0.474368  0.848642  0.579840  1
  F  F17  1  0.979210  0.412104  0.266979  1
  F  F18  1  0.025632  0.348642  0.920160  1
  F  F19  1  0.020790  0.587896  0.733021  1
  F  F20  1  0.974368  0.151358  0.420160  1
  F  F21  1  0.479210  0.587896  0.733021  1
  F  F22  1  0.474368  0.348642  0.920160  1
  F  F23  1  0.479210  0.087896  0.766979  1
  F  F24  1  0.520790  0.412104  0.266979  1
  F  F25  1  0.979210  0.912104  0.233021  1
  F  F26  1  0.525632  0.151358  0.420160  1
  F  F27  1  0.020790  0.087896  0.766979  1
