# generated using pymatgen
data_CaTbCe2H11
_symmetry_space_group_name_H-M   'P 1'
_cell_length_a   6.61614703
_cell_length_b   6.61614672
_cell_length_c   6.61614596
_cell_angle_alpha   132.64525170
_cell_angle_beta   133.31867169
_cell_angle_gamma   68.68392272
_symmetry_Int_Tables_number   1
_chemical_formula_structural   CaTbCe2H11
_chemical_formula_sum   'Ca1 Tb1 Ce2 H11'
_cell_volume   152.18789672
_cell_formula_units_Z   1
loop_
 _symmetry_equiv_pos_site_id
 _symmetry_equiv_pos_as_xyz
  1  'x, y, z'
loop_
 _atom_site_type_symbol
 _atom_site_label
 _atom_site_symmetry_multiplicity
 _atom_site_fract_x
 _atom_site_fract_y
 _atom_site_fract_z
 _atom_site_occupancy
  Ca  Ca0  1  0.500000  0.000000  0.500000  1
  Tb  Tb1  1  0.000000  0.500000  0.500000  1
  Ce  Ce2  1  0.260455  0.260455  0.000000  1
  Ce  Ce3  1  0.739545  0.739545  0.000000  1
  H  H4  1  0.654845  0.119944  0.009796  1
  H  H5  1  0.345155  0.354951  0.465098  1
  H  H6  1  0.110148  0.645049  0.990204  1
  H  H7  1  0.889852  0.880056  0.534902  1
  H  H8  1  0.889852  0.354951  0.009796  1
  H  H9  1  0.654845  0.645049  0.534902  1
  H  H10  1  0.345155  0.880056  0.990204  1
  H  H11  1  0.110148  0.119944  0.465098  1
  H  H12  1  0.753138  0.253138  0.500000  1
  H  H13  1  0.500000  0.500000  0.000000  1
  H  H14  1  0.246862  0.746862  0.500000  1
