# generated using pymatgen
data_La3DyHf4F28
_symmetry_space_group_name_H-M   'P 1'
_cell_length_a   5.85843727
_cell_length_b   9.31331794
_cell_length_c   12.48356600
_cell_angle_alpha   62.00638162
_cell_angle_beta   90.01742804
_cell_angle_gamma   89.97666342
_symmetry_Int_Tables_number   1
_chemical_formula_structural   La3DyHf4F28
_chemical_formula_sum   'La3 Dy1 Hf4 F28'
_cell_volume   601.43045197
_cell_formula_units_Z   1
loop_
 _symmetry_equiv_pos_site_id
 _symmetry_equiv_pos_as_xyz
  1  'x, y, z'
loop_
 _atom_site_type_symbol
 _atom_site_label
 _atom_site_symmetry_multiplicity
 _atom_site_fract_x
 _atom_site_fract_y
 _atom_site_fract_z
 _atom_site_occupancy
  La  La0  1  0.743465  0.808618  0.266889  1
  La  La1  1  0.243137  0.187856  0.233071  1
  La  La2  1  0.257200  0.182893  0.733593  1
  Dy  Dy3  1  0.757770  0.809349  0.766620  1
  Hf  Hf4  1  0.745761  0.268203  0.458466  1
  Hf  Hf5  1  0.244849  0.726497  0.038631  1
  Hf  Hf6  1  0.256340  0.726225  0.550928  1
  Hf  Hf7  1  0.755607  0.280182  0.952133  1
  F  F8  1  0.465009  0.713867  0.919887  1
  F  F9  1  0.956674  0.289329  0.576105  1
  F  F10  1  0.545237  0.292853  0.073634  1
  F  F11  1  0.045517  0.711831  0.429922  1
  F  F12  1  0.463093  0.283880  0.544078  1
  F  F13  1  0.962372  0.719241  0.946901  1
  F  F14  1  0.532996  0.715525  0.459002  1
  F  F15  1  0.037195  0.288928  0.041141  1
  F  F16  1  0.763605  0.525261  0.857982  1
  F  F17  1  0.265457  0.483716  0.642822  1
  F  F18  1  0.231615  0.484920  0.136297  1
  F  F19  1  0.734167  0.511978  0.362885  1
  F  F20  1  0.760946  0.037599  0.051450  1
  F  F21  1  0.261142  0.968345  0.449531  1
  F  F22  1  0.239566  0.969479  0.946122  1
  F  F23  1  0.740277  0.025695  0.559836  1
  F  F24  1  0.990109  0.734974  0.650504  1
  F  F25  1  0.490237  0.270032  0.854850  1
  F  F26  1  0.012389  0.267822  0.358634  1
  F  F27  1  0.508040  0.730783  0.139799  1
  F  F28  1  0.043245  0.742573  0.163952  1
  F  F29  1  0.546248  0.254854  0.332247  1
  F  F30  1  0.956757  0.260316  0.829140  1
  F  F31  1  0.468529  0.747669  0.671662  1
  F  F32  1  0.414823  0.965815  0.232042  1
  F  F33  1  0.912636  0.031835  0.267959  1
  F  F34  1  0.583933  0.017472  0.766319  1
  F  F35  1  0.064051  0.963584  0.734964  1
