# generated using pymatgen
data_Sr3LiTcO6
_symmetry_space_group_name_H-M   'P 1'
_cell_length_a   6.76728884
_cell_length_b   6.76728919
_cell_length_c   6.76728980
_cell_angle_alpha   92.44711443
_cell_angle_beta   92.44711484
_cell_angle_gamma   92.44712065
_symmetry_Int_Tables_number   1
_chemical_formula_structural   Sr3LiTcO6
_chemical_formula_sum   'Sr6 Li2 Tc2 O12'
_cell_volume   309.04331677
_cell_formula_units_Z   2
loop_
 _symmetry_equiv_pos_site_id
 _symmetry_equiv_pos_as_xyz
  1  'x, y, z'
loop_
 _atom_site_type_symbol
 _atom_site_label
 _atom_site_symmetry_multiplicity
 _atom_site_fract_x
 _atom_site_fract_y
 _atom_site_fract_z
 _atom_site_occupancy
  Sr  Sr0  1  0.105505  0.394495  0.750000  1
  Sr  Sr1  1  0.750000  0.105505  0.394495  1
  Sr  Sr2  1  0.394495  0.750000  0.105505  1
  Sr  Sr3  1  0.250000  0.894495  0.605505  1
  Sr  Sr4  1  0.605505  0.250000  0.894495  1
  Sr  Sr5  1  0.894495  0.605505  0.250000  1
  Li  Li6  1  0.250000  0.250000  0.250000  1
  Li  Li7  1  0.750000  0.750000  0.750000  1
  Tc  Tc8  1  0.500000  0.500000  0.500000  1
  Tc  Tc9  1  0.000000  0.000000  0.000000  1
  O  O10  1  0.453420  0.581473  0.780372  1
  O  O11  1  0.780372  0.453420  0.581473  1
  O  O12  1  0.581473  0.780372  0.453420  1
  O  O13  1  0.280372  0.081473  0.953420  1
  O  O14  1  0.953420  0.280372  0.081473  1
  O  O15  1  0.081473  0.953420  0.280372  1
  O  O16  1  0.546580  0.418527  0.219628  1
  O  O17  1  0.219628  0.546580  0.418527  1
  O  O18  1  0.418527  0.219628  0.546580  1
  O  O19  1  0.719628  0.918527  0.046580  1
  O  O20  1  0.046580  0.719628  0.918527  1
  O  O21  1  0.918527  0.046580  0.719628  1
