# generated using pymatgen
data_CeEr5Ru2
_symmetry_space_group_name_H-M   'P 1'
_cell_length_a   6.27391058
_cell_length_b   7.21085528
_cell_length_c   9.26594600
_cell_angle_alpha   90.00000000
_cell_angle_beta   90.00000000
_cell_angle_gamma   87.55237839
_symmetry_Int_Tables_number   1
_chemical_formula_structural   CeEr5Ru2
_chemical_formula_sum   'Ce2 Er10 Ru4'
_cell_volume   418.81137864
_cell_formula_units_Z   2
loop_
 _symmetry_equiv_pos_site_id
 _symmetry_equiv_pos_as_xyz
  1  'x, y, z'
loop_
 _atom_site_type_symbol
 _atom_site_label
 _atom_site_symmetry_multiplicity
 _atom_site_fract_x
 _atom_site_fract_y
 _atom_site_fract_z
 _atom_site_occupancy
  Ce  Ce0  1  0.847901  0.942048  0.750000  1
  Ce  Ce1  1  0.152099  0.057952  0.250000  1
  Er  Er2  1  0.670131  0.172493  0.062293  1
  Er  Er3  1  0.368462  0.534396  0.250000  1
  Er  Er4  1  0.830869  0.674855  0.066753  1
  Er  Er5  1  0.169131  0.325145  0.933247  1
  Er  Er6  1  0.329869  0.827507  0.937707  1
  Er  Er7  1  0.631538  0.465604  0.750000  1
  Er  Er8  1  0.329869  0.827507  0.562293  1
  Er  Er9  1  0.169131  0.325145  0.566753  1
  Er  Er10  1  0.830869  0.674855  0.433247  1
  Er  Er11  1  0.670131  0.172493  0.437707  1
  Ru  Ru12  1  0.966967  0.364711  0.250000  1
  Ru  Ru13  1  0.486745  0.114255  0.750000  1
  Ru  Ru14  1  0.513255  0.885745  0.250000  1
  Ru  Ru15  1  0.033033  0.635289  0.750000  1
