# generated using pymatgen
data_Pr5ErRh18
_symmetry_space_group_name_H-M   'P 1'
_cell_length_a   5.35315100
_cell_length_b   5.35315010
_cell_length_c   17.68607400
_cell_angle_alpha   90.00000000
_cell_angle_beta   90.00000000
_cell_angle_gamma   119.99999941
_symmetry_Int_Tables_number   1
_chemical_formula_structural   Pr5ErRh18
_chemical_formula_sum   'Pr5 Er1 Rh18'
_cell_volume   438.91556945
_cell_formula_units_Z   1
loop_
 _symmetry_equiv_pos_site_id
 _symmetry_equiv_pos_as_xyz
  1  'x, y, z'
loop_
 _atom_site_type_symbol
 _atom_site_label
 _atom_site_symmetry_multiplicity
 _atom_site_fract_x
 _atom_site_fract_y
 _atom_site_fract_z
 _atom_site_occupancy
  Pr  Pr0  1  0.333333  0.666666  0.040588  1
  Pr  Pr1  1  0.333333  0.666666  0.249038  1
  Pr  Pr2  1  0.333333  0.666666  0.458096  1
  Pr  Pr3  1  0.666667  0.333334  0.542971  1
  Pr  Pr4  1  0.666667  0.333334  0.751291  1
  Er  Er5  1  0.666667  0.333334  0.955963  1
  Rh  Rh6  1  0.000000  0.000000  0.999200  1
  Rh  Rh7  1  0.334251  0.167125  0.125790  1
  Rh  Rh8  1  0.832874  0.167125  0.125790  1
  Rh  Rh9  1  0.832875  0.665749  0.125790  1
  Rh  Rh10  1  0.000000  0.000000  0.248531  1
  Rh  Rh11  1  0.666667  0.333334  0.249034  1
  Rh  Rh12  1  0.333069  0.166535  0.371862  1
  Rh  Rh13  1  0.833464  0.166535  0.371862  1
  Rh  Rh14  1  0.833465  0.666931  0.371862  1
  Rh  Rh15  1  0.000000  0.000000  0.500349  1
  Rh  Rh16  1  0.166544  0.333088  0.628947  1
  Rh  Rh17  1  0.166545  0.833456  0.628947  1
  Rh  Rh18  1  0.666912  0.833456  0.628947  1
  Rh  Rh19  1  0.000000  0.000000  0.751468  1
  Rh  Rh20  1  0.333333  0.666666  0.751351  1
  Rh  Rh21  1  0.166919  0.333838  0.874109  1
  Rh  Rh22  1  0.166920  0.833081  0.874109  1
  Rh  Rh23  1  0.666162  0.833081  0.874109  1
