# generated using pymatgen
data_La2Os2Br
_symmetry_space_group_name_H-M   'P 1'
_cell_length_a   4.32708900
_cell_length_b   4.32708925
_cell_length_c   17.36067100
_cell_angle_alpha   90.00000000
_cell_angle_beta   90.00000000
_cell_angle_gamma   120.00000572
_symmetry_Int_Tables_number   1
_chemical_formula_structural   La2Os2Br
_chemical_formula_sum   'La4 Os4 Br2'
_cell_volume   281.50673814
_cell_formula_units_Z   2
loop_
 _symmetry_equiv_pos_site_id
 _symmetry_equiv_pos_as_xyz
  1  'x, y, z'
loop_
 _atom_site_type_symbol
 _atom_site_label
 _atom_site_symmetry_multiplicity
 _atom_site_fract_x
 _atom_site_fract_y
 _atom_site_fract_z
 _atom_site_occupancy
  La  La0  1  0.000000  0.000000  0.112089  1
  La  La1  1  0.000000  0.000000  0.887911  1
  La  La2  1  0.000000  0.000000  0.612089  1
  La  La3  1  0.000000  0.000000  0.387911  1
  Os  Os4  1  0.333333  0.666667  0.506240  1
  Os  Os5  1  0.666667  0.333333  0.493760  1
  Os  Os6  1  0.666667  0.333333  0.006240  1
  Os  Os7  1  0.333333  0.666667  0.993760  1
  Br  Br8  1  0.333333  0.666667  0.250000  1
  Br  Br9  1  0.666667  0.333333  0.750000  1
