# generated using pymatgen
data_Re2Tc(TeI)7
_symmetry_space_group_name_H-M   'P 1'
_cell_length_a   11.14755966
_cell_length_b   11.23919182
_cell_length_c   12.41942338
_cell_angle_alpha   86.85159606
_cell_angle_beta   104.87966484
_cell_angle_gamma   118.16164726
_symmetry_Int_Tables_number   1
_chemical_formula_structural   Re2Tc(TeI)7
_chemical_formula_sum   'Re4 Tc2 Te14 I14'
_cell_volume   1321.80397056
_cell_formula_units_Z   2
loop_
 _symmetry_equiv_pos_site_id
 _symmetry_equiv_pos_as_xyz
  1  'x, y, z'
loop_
 _atom_site_type_symbol
 _atom_site_label
 _atom_site_symmetry_multiplicity
 _atom_site_fract_x
 _atom_site_fract_y
 _atom_site_fract_z
 _atom_site_occupancy
  Re  Re0  1  0.844879  0.846618  0.908046  1
  Re  Re1  1  0.155121  0.153382  0.091954  1
  Re  Re2  1  0.113339  0.015878  0.902098  1
  Re  Re3  1  0.886661  0.984122  0.097902  1
  Tc  Tc4  1  0.937776  0.118758  0.911204  1
  Tc  Tc5  1  0.062224  0.881242  0.088796  1
  Te  Te6  1  0.848021  0.286865  0.800811  1
  Te  Te7  1  0.151979  0.713135  0.199189  1
  Te  Te8  1  0.624300  0.617544  0.797260  1
  Te  Te9  1  0.375700  0.382456  0.202740  1
  Te  Te10  1  0.292202  0.043190  0.778880  1
  Te  Te11  1  0.707798  0.956810  0.221120  1
  Te  Te12  1  0.670352  0.948448  0.917424  1
  Te  Te13  1  0.329648  0.051552  0.082576  1
  Te  Te14  1  0.019404  0.744483  0.897625  1
  Te  Te15  1  0.980596  0.255517  0.102375  1
  Te  Te16  1  0.897329  0.979518  0.723229  1
  Te  Te17  1  0.102671  0.020482  0.276771  1
  Te  Te18  1  0.206512  0.286316  0.904765  1
  Te  Te19  1  0.793488  0.713684  0.095235  1
  I  I20  1  0.391443  0.874922  0.368886  1
  I  I21  1  0.608557  0.125078  0.631114  1
  I  I22  1  0.982500  0.596003  0.355451  1
  I  I23  1  0.017500  0.403997  0.644549  1
  I  I24  1  0.359288  0.689936  0.057752  1
  I  I25  1  0.640712  0.310064  0.942248  1
  I  I26  1  0.702886  0.548267  0.623285  1
  I  I27  1  0.297114  0.451733  0.376715  1
  I  I28  1  0.143881  0.827809  0.610769  1
  I  I29  1  0.856119  0.172191  0.389231  1
  I  I30  1  0.288384  0.231240  0.623472  1
  I  I31  1  0.711616  0.768760  0.376528  1
  I  I32  1  0.433367  0.692332  0.657555  1
  I  I33  1  0.566633  0.307668  0.342445  1
