# generated using pymatgen
data_Dy3YAl13Ga5Ir6
_symmetry_space_group_name_H-M   'P 1'
_cell_length_a   7.53689809
_cell_length_b   7.53684235
_cell_length_c   9.57181500
_cell_angle_alpha   90.00000000
_cell_angle_beta   90.00000000
_cell_angle_gamma   119.58504809
_symmetry_Int_Tables_number   1
_chemical_formula_structural   Dy3YAl13Ga5Ir6
_chemical_formula_sum   'Dy3 Y1 Al13 Ga5 Ir6'
_cell_volume   472.83300830
_cell_formula_units_Z   1
loop_
 _symmetry_equiv_pos_site_id
 _symmetry_equiv_pos_as_xyz
  1  'x, y, z'
loop_
 _atom_site_type_symbol
 _atom_site_label
 _atom_site_symmetry_multiplicity
 _atom_site_fract_x
 _atom_site_fract_y
 _atom_site_fract_z
 _atom_site_occupancy
  Dy  Dy0  1  0.994903  0.669812  0.750000  1
  Dy  Dy1  1  0.669872  0.995986  0.750000  1
  Dy  Dy2  1  0.330416  0.006435  0.250000  1
  Y  Y3  1  0.001499  0.327252  0.250000  1
  Al  Al4  1  0.002123  0.334828  0.572456  1
  Al  Al5  1  0.999218  0.665518  0.427338  1
  Al  Al6  1  0.999218  0.665518  0.072662  1
  Al  Al7  1  0.334718  0.001692  0.927761  1
  Al  Al8  1  0.002123  0.334828  0.927544  1
  Al  Al9  1  0.664825  0.998023  0.072952  1
  Al  Al10  1  0.664825  0.998023  0.427048  1
  Al  Al11  1  0.334718  0.001692  0.572239  1
  Al  Al12  1  0.333801  0.334165  0.055778  1
  Al  Al13  1  0.666029  0.666058  0.946974  1
  Al  Al14  1  0.666029  0.666058  0.553026  1
  Al  Al15  1  0.333801  0.334165  0.444222  1
  Al  Al16  1  0.451597  0.661693  0.250000  1
  Ga  Ga17  1  0.128305  0.128373  0.750000  1
  Ga  Ga18  1  0.870365  0.869592  0.250000  1
  Ga  Ga19  1  0.338670  0.547070  0.750000  1
  Ga  Ga20  1  0.661583  0.454214  0.250000  1
  Ga  Ga21  1  0.547208  0.339191  0.750000  1
  Ir  Ir22  1  0.672287  0.328003  0.500325  1
  Ir  Ir23  1  0.329410  0.671804  0.497708  1
  Ir  Ir24  1  0.329410  0.671804  0.002292  1
  Ir  Ir25  1  0.672287  0.328003  0.999675  1
  Ir  Ir26  1  0.000380  0.000102  0.500104  1
  Ir  Ir27  1  0.000380  0.000102  0.999896  1
