# generated using pymatgen
data_Dy6TmCo6AgSn22
_symmetry_space_group_name_H-M   'P 1'
_cell_length_a   9.66371516
_cell_length_b   9.66371385
_cell_length_c   9.99357000
_cell_angle_alpha   90.00080198
_cell_angle_beta   89.99919653
_cell_angle_gamma   119.97893498
_symmetry_Int_Tables_number   1
_chemical_formula_structural   Dy6TmCo6AgSn22
_chemical_formula_sum   'Dy6 Tm1 Co6 Ag1 Sn22'
_cell_volume   808.40989254
_cell_formula_units_Z   1
loop_
 _symmetry_equiv_pos_site_id
 _symmetry_equiv_pos_as_xyz
  1  'x, y, z'
loop_
 _atom_site_type_symbol
 _atom_site_label
 _atom_site_symmetry_multiplicity
 _atom_site_fract_x
 _atom_site_fract_y
 _atom_site_fract_z
 _atom_site_occupancy
  Dy  Dy0  1  0.999785  0.000215  0.000181  1
  Dy  Dy1  1  0.521199  0.478801  0.693537  1
  Dy  Dy2  1  0.478757  0.957850  0.306294  1
  Dy  Dy3  1  0.521118  0.042180  0.693622  1
  Dy  Dy4  1  0.042150  0.521243  0.306294  1
  Dy  Dy5  1  0.957820  0.478882  0.693622  1
  Tm  Tm6  1  0.479646  0.520354  0.305885  1
  Co  Co7  1  0.832161  0.167839  0.196747  1
  Co  Co8  1  0.168100  0.831900  0.803506  1
  Co  Co9  1  0.831067  0.663464  0.196913  1
  Co  Co10  1  0.168034  0.336162  0.803261  1
  Co  Co11  1  0.336536  0.168933  0.196913  1
  Co  Co12  1  0.663838  0.831966  0.803261  1
  Ag  Ag13  1  0.999967  0.000033  0.499883  1
  Sn  Sn14  1  0.345685  0.000040  0.000106  1
  Sn  Sn15  1  0.654184  0.000033  0.999970  1
  Sn  Sn16  1  0.999967  0.345816  0.999970  1
  Sn  Sn17  1  0.999960  0.654315  0.000106  1
  Sn  Sn18  1  0.654102  0.654207  0.999991  1
  Sn  Sn19  1  0.345793  0.345898  0.999991  1
  Sn  Sn20  1  0.333294  0.666706  0.818697  1
  Sn  Sn21  1  0.666638  0.333362  0.181553  1
  Sn  Sn22  1  0.783024  0.216976  0.453041  1
  Sn  Sn23  1  0.216873  0.783127  0.546857  1
  Sn  Sn24  1  0.782191  0.566156  0.452865  1
  Sn  Sn25  1  0.217518  0.433891  0.546247  1
  Sn  Sn26  1  0.433844  0.217809  0.452865  1
  Sn  Sn27  1  0.566109  0.782482  0.546247  1
  Sn  Sn28  1  0.334334  0.665666  0.118581  1
  Sn  Sn29  1  0.666681  0.333319  0.882860  1
  Sn  Sn30  1  0.113818  0.886182  0.275818  1
  Sn  Sn31  1  0.885980  0.114020  0.724151  1
  Sn  Sn32  1  0.114813  0.228948  0.275882  1
  Sn  Sn33  1  0.886031  0.772069  0.724200  1
  Sn  Sn34  1  0.771052  0.885187  0.275882  1
  Sn  Sn35  1  0.227931  0.113969  0.724200  1
