# generated using pymatgen
data_Y9Lu3Ga20
_symmetry_space_group_name_H-M   'P 1'
_cell_length_a   6.08178730
_cell_length_b   9.60362600
_cell_length_c   11.55066154
_cell_angle_alpha   90.00000000
_cell_angle_beta   90.03544011
_cell_angle_gamma   90.00000000
_symmetry_Int_Tables_number   1
_chemical_formula_structural   Y9Lu3Ga20
_chemical_formula_sum   'Y9 Lu3 Ga20'
_cell_volume   674.64179226
_cell_formula_units_Z   1
loop_
 _symmetry_equiv_pos_site_id
 _symmetry_equiv_pos_as_xyz
  1  'x, y, z'
loop_
 _atom_site_type_symbol
 _atom_site_label
 _atom_site_symmetry_multiplicity
 _atom_site_fract_x
 _atom_site_fract_y
 _atom_site_fract_z
 _atom_site_occupancy
  Y  Y0  1  0.849365  0.750000  0.075866  1
  Y  Y1  1  0.891499  0.509127  0.351217  1
  Y  Y2  1  0.608427  0.991054  0.850249  1
  Y  Y3  1  0.108904  0.010222  0.648748  1
  Y  Y4  1  0.390111  0.490367  0.148873  1
  Y  Y5  1  0.108904  0.489778  0.648748  1
  Y  Y6  1  0.390111  0.009633  0.148873  1
  Y  Y7  1  0.891499  0.990873  0.351217  1
  Y  Y8  1  0.608427  0.508946  0.850249  1
  Lu  Lu9  1  0.651556  0.750000  0.575021  1
  Lu  Lu10  1  0.150988  0.250000  0.924467  1
  Lu  Lu11  1  0.349128  0.250000  0.424534  1
  Ga  Ga12  1  0.875652  0.055748  0.089441  1
  Ga  Ga13  1  0.623720  0.446384  0.589030  1
  Ga  Ga14  1  0.123568  0.552432  0.909861  1
  Ga  Ga15  1  0.376285  0.947240  0.411313  1
  Ga  Ga16  1  0.123568  0.947568  0.909861  1
  Ga  Ga17  1  0.376285  0.552760  0.411313  1
  Ga  Ga18  1  0.875652  0.444252  0.089441  1
  Ga  Ga19  1  0.623720  0.053616  0.589030  1
  Ga  Ga20  1  0.174271  0.750000  0.253278  1
  Ga  Ga21  1  0.330018  0.750000  0.750714  1
  Ga  Ga22  1  0.829915  0.250000  0.748284  1
  Ga  Ga23  1  0.670253  0.250000  0.248514  1
  Ga  Ga24  1  0.373334  0.750000  0.002442  1
  Ga  Ga25  1  0.124413  0.750000  0.504489  1
  Ga  Ga26  1  0.621896  0.250000  0.996033  1
  Ga  Ga27  1  0.876233  0.250000  0.496210  1
  Ga  Ga28  1  0.600973  0.750000  0.301611  1
  Ga  Ga29  1  0.899856  0.750000  0.797602  1
  Ga  Ga30  1  0.399815  0.250000  0.701518  1
  Ga  Ga31  1  0.101658  0.250000  0.201954  1
