# generated using pymatgen
data_DyMgGa3Os
_symmetry_space_group_name_H-M   'P 1'
_cell_length_a   5.33549800
_cell_length_b   5.33549593
_cell_length_c   8.74240000
_cell_angle_alpha   90.00000000
_cell_angle_beta   90.00000000
_cell_angle_gamma   120.00000042
_symmetry_Int_Tables_number   1
_chemical_formula_structural   DyMgGa3Os
_chemical_formula_sum   'Dy2 Mg2 Ga6 Os2'
_cell_volume   215.53165206
_cell_formula_units_Z   2
loop_
 _symmetry_equiv_pos_site_id
 _symmetry_equiv_pos_as_xyz
  1  'x, y, z'
loop_
 _atom_site_type_symbol
 _atom_site_label
 _atom_site_symmetry_multiplicity
 _atom_site_fract_x
 _atom_site_fract_y
 _atom_site_fract_z
 _atom_site_occupancy
  Dy  Dy0  1  0.333334  0.666667  0.550508  1
  Dy  Dy1  1  0.333334  0.666667  0.949492  1
  Mg  Mg2  1  0.666667  0.333333  0.043535  1
  Mg  Mg3  1  0.666667  0.333333  0.456465  1
  Ga  Ga4  1  0.164840  0.329677  0.250000  1
  Ga  Ga5  1  0.164840  0.835160  0.250000  1
  Ga  Ga6  1  0.670323  0.835160  0.250000  1
  Ga  Ga7  1  0.330919  0.165460  0.750000  1
  Ga  Ga8  1  0.834541  0.165460  0.750000  1
  Ga  Ga9  1  0.834541  0.669081  0.750000  1
  Os  Os10  1  0.000000  0.000000  0.008062  1
  Os  Os11  1  0.000000  0.000000  0.491937  1
