# generated using pymatgen
data_HoCo3P3IrRu
_symmetry_space_group_name_H-M   'P 1'
_cell_length_a   3.77304600
_cell_length_b   10.40999900
_cell_length_c   12.03053200
_cell_angle_alpha   90.00000000
_cell_angle_beta   90.00000000
_cell_angle_gamma   90.00000000
_symmetry_Int_Tables_number   1
_chemical_formula_structural   HoCo3P3IrRu
_chemical_formula_sum   'Ho4 Co12 P12 Ir4 Ru4'
_cell_volume   472.52807878
_cell_formula_units_Z   4
loop_
 _symmetry_equiv_pos_site_id
 _symmetry_equiv_pos_as_xyz
  1  'x, y, z'
loop_
 _atom_site_type_symbol
 _atom_site_label
 _atom_site_symmetry_multiplicity
 _atom_site_fract_x
 _atom_site_fract_y
 _atom_site_fract_z
 _atom_site_occupancy
  Ho  Ho0  1  0.250000  0.585889  0.711908  1
  Ho  Ho1  1  0.250000  0.914111  0.211908  1
  Ho  Ho2  1  0.750000  0.414111  0.288092  1
  Ho  Ho3  1  0.750000  0.085889  0.788092  1
  Co  Co4  1  0.250000  0.222788  0.176883  1
  Co  Co5  1  0.250000  0.277212  0.676883  1
  Co  Co6  1  0.750000  0.777212  0.823117  1
  Co  Co7  1  0.750000  0.722788  0.323117  1
  Co  Co8  1  0.250000  0.882917  0.698823  1
  Co  Co9  1  0.250000  0.617083  0.198823  1
  Co  Co10  1  0.750000  0.117083  0.301177  1
  Co  Co11  1  0.750000  0.382917  0.801177  1
  Co  Co12  1  0.250000  0.462400  0.933283  1
  Co  Co13  1  0.250000  0.037600  0.433283  1
  Co  Co14  1  0.750000  0.537600  0.066717  1
  Co  Co15  1  0.750000  0.962400  0.566717  1
  P  P16  1  0.250000  0.422822  0.111632  1
  P  P17  1  0.250000  0.077178  0.611632  1
  P  P18  1  0.750000  0.577178  0.888368  1
  P  P19  1  0.750000  0.922822  0.388368  1
  P  P20  1  0.250000  0.274496  0.861333  1
  P  P21  1  0.250000  0.225504  0.361333  1
  P  P22  1  0.750000  0.725504  0.138667  1
  P  P23  1  0.750000  0.774496  0.638667  1
  P  P24  1  0.250000  0.603136  0.380323  1
  P  P25  1  0.250000  0.896864  0.880323  1
  P  P26  1  0.750000  0.396864  0.619677  1
  P  P27  1  0.750000  0.103136  0.119677  1
  Ir  Ir28  1  0.250000  0.404705  0.480149  1
  Ir  Ir29  1  0.250000  0.095295  0.980149  1
  Ir  Ir30  1  0.750000  0.595295  0.519851  1
  Ir  Ir31  1  0.750000  0.904705  0.019851  1
  Ru  Ru32  1  0.250000  0.709579  0.983629  1
  Ru  Ru33  1  0.250000  0.790421  0.483629  1
  Ru  Ru34  1  0.750000  0.290421  0.016371  1
  Ru  Ru35  1  0.750000  0.209579  0.516371  1
