# generated using pymatgen
data_DyHo11Co5Sb
_symmetry_space_group_name_H-M   'P 1'
_cell_length_a   8.23748527
_cell_length_b   8.23746585
_cell_length_c   8.23680300
_cell_angle_alpha   110.87051146
_cell_angle_beta   110.69636141
_cell_angle_gamma   106.87990825
_symmetry_Int_Tables_number   1
_chemical_formula_structural   DyHo11Co5Sb
_chemical_formula_sum   'Dy1 Ho11 Co5 Sb1'
_cell_volume   429.58374507
_cell_formula_units_Z   1
loop_
 _symmetry_equiv_pos_site_id
 _symmetry_equiv_pos_as_xyz
  1  'x, y, z'
loop_
 _atom_site_type_symbol
 _atom_site_label
 _atom_site_symmetry_multiplicity
 _atom_site_fract_x
 _atom_site_fract_y
 _atom_site_fract_z
 _atom_site_occupancy
  Dy  Dy0  1  0.815470  0.710970  0.526441  1
  Ho  Ho1  1  0.184448  0.289032  0.473472  1
  Ho  Ho2  1  0.184554  0.710991  0.895542  1
  Ho  Ho3  1  0.815549  0.289001  0.104537  1
  Ho  Ho4  1  0.686541  0.378962  0.692463  1
  Ho  Ho5  1  0.313350  0.620980  0.307527  1
  Ho  Ho6  1  0.686546  0.994182  0.307529  1
  Ho  Ho7  1  0.313504  0.005915  0.692454  1
  Ho  Ho8  1  0.596436  0.790335  0.806235  1
  Ho  Ho9  1  0.403455  0.209605  0.193780  1
  Ho  Ho10  1  0.984182  0.790321  0.193788  1
  Ho  Ho11  1  0.015902  0.209801  0.806241  1
  Co  Co12  1  0.626545  0.000048  0.626597  1
  Co  Co13  1  0.373425  0.999999  0.373422  1
  Co  Co14  1  0.112620  0.612490  0.499956  1
  Co  Co15  1  0.887455  0.387333  0.499967  1
  Co  Co16  1  0.000026  0.000044  0.000065  1
  Sb  Sb17  1  0.499992  0.499991  0.999983  1
