# generated using pymatgen
data_Er12GaCo4Pb
_symmetry_space_group_name_H-M   'P 1'
_cell_length_a   8.27629385
_cell_length_b   8.27629270
_cell_length_c   8.27629332
_cell_angle_alpha   106.97043670
_cell_angle_beta   110.14093386
_cell_angle_gamma   111.33321686
_symmetry_Int_Tables_number   1
_chemical_formula_structural   Er12GaCo4Pb
_chemical_formula_sum   'Er12 Ga1 Co4 Pb1'
_cell_volume   435.73141056
_cell_formula_units_Z   1
loop_
 _symmetry_equiv_pos_site_id
 _symmetry_equiv_pos_as_xyz
  1  'x, y, z'
loop_
 _atom_site_type_symbol
 _atom_site_label
 _atom_site_symmetry_multiplicity
 _atom_site_fract_x
 _atom_site_fract_y
 _atom_site_fract_z
 _atom_site_occupancy
  Er  Er0  1  0.705602  0.272842  0.978444  1
  Er  Er1  1  0.294398  0.727158  0.021556  1
  Er  Er2  1  0.705602  0.727158  0.432761  1
  Er  Er3  1  0.294398  0.272842  0.567239  1
  Er  Er4  1  0.807681  0.123765  0.316084  1
  Er  Er5  1  0.807681  0.491598  0.683916  1
  Er  Er6  1  0.192319  0.876235  0.683916  1
  Er  Er7  1  0.192319  0.508402  0.316084  1
  Er  Er8  1  0.599395  0.782275  0.817119  1
  Er  Er9  1  0.965155  0.782275  0.182881  1
  Er  Er10  1  0.034845  0.217725  0.817119  1
  Er  Er11  1  0.400605  0.217725  0.182881  1
  Ga  Ga12  1  0.500000  0.500000  0.000000  1
  Co  Co13  1  0.872619  0.500000  0.372619  1
  Co  Co14  1  0.127381  0.500000  0.627381  1
  Co  Co15  1  0.000000  0.112327  0.112327  1
  Co  Co16  1  0.000000  0.887673  0.887673  1
  Pb  Pb17  1  0.500000  0.000000  0.500000  1
