# generated using pymatgen
data_Er6Al19Co2Si5Ru6
_symmetry_space_group_name_H-M   'P 1'
_cell_length_a   8.63748900
_cell_length_b   8.62765179
_cell_length_c   9.43841000
_cell_angle_alpha   90.00000000
_cell_angle_beta   90.00000000
_cell_angle_gamma   120.03772069
_symmetry_Int_Tables_number   1
_chemical_formula_structural   Er6Al19Co2Si5Ru6
_chemical_formula_sum   'Er6 Al19 Co2 Si5 Ru6'
_cell_volume   608.89777427
_cell_formula_units_Z   1
loop_
 _symmetry_equiv_pos_site_id
 _symmetry_equiv_pos_as_xyz
  1  'x, y, z'
loop_
 _atom_site_type_symbol
 _atom_site_label
 _atom_site_symmetry_multiplicity
 _atom_site_fract_x
 _atom_site_fract_y
 _atom_site_fract_z
 _atom_site_occupancy
  Er  Er0  1  0.196395  0.392791  0.250000  1
  Er  Er1  1  0.804506  0.609010  0.750000  1
  Er  Er2  1  0.605654  0.805106  0.250000  1
  Er  Er3  1  0.392083  0.196099  0.750000  1
  Er  Er4  1  0.199451  0.805106  0.250000  1
  Er  Er5  1  0.804018  0.196099  0.750000  1
  Al  Al6  1  0.161137  0.322272  0.579034  1
  Al  Al7  1  0.838579  0.677159  0.420475  1
  Al  Al8  1  0.677249  0.838735  0.577776  1
  Al  Al9  1  0.838579  0.677159  0.079525  1
  Al  Al10  1  0.322460  0.162094  0.420964  1
  Al  Al11  1  0.161137  0.322272  0.920966  1
  Al  Al12  1  0.161487  0.838735  0.577776  1
  Al  Al13  1  0.322460  0.162094  0.079036  1
  Al  Al14  1  0.839633  0.162094  0.420964  1
  Al  Al15  1  0.677249  0.838735  0.922224  1
  Al  Al16  1  0.839633  0.162094  0.079036  1
  Al  Al17  1  0.161487  0.838735  0.922224  1
  Al  Al18  1  0.437449  0.874896  0.750000  1
  Al  Al19  1  0.873071  0.433346  0.250000  1
  Al  Al20  1  0.126545  0.563502  0.750000  1
  Al  Al21  1  0.560274  0.433346  0.250000  1
  Al  Al22  1  0.436959  0.563502  0.750000  1
  Al  Al23  1  0.999938  0.999877  0.250000  1
  Al  Al24  1  0.000265  0.000530  0.750000  1
  Co  Co25  1  0.999932  0.999863  0.999638  1
  Co  Co26  1  0.999932  0.999863  0.500362  1
  Si  Si27  1  0.332614  0.665230  0.033616  1
  Si  Si28  1  0.667339  0.334677  0.963663  1
  Si  Si29  1  0.667339  0.334677  0.536337  1
  Si  Si30  1  0.332614  0.665230  0.466384  1
  Si  Si31  1  0.563114  0.126228  0.250000  1
  Ru  Ru32  1  0.500741  0.001482  0.005545  1
  Ru  Ru33  1  0.998735  0.498969  0.000699  1
  Ru  Ru34  1  0.500741  0.001482  0.494455  1
  Ru  Ru35  1  0.500234  0.498969  0.000699  1
  Ru  Ru36  1  0.998735  0.498969  0.499301  1
  Ru  Ru37  1  0.500234  0.498969  0.499301  1
