# generated using pymatgen
data_Li8Hf3NbBr24
_symmetry_space_group_name_H-M   'P 1'
_cell_length_a   6.75905700
_cell_length_b   6.75905719
_cell_length_c   26.80470500
_cell_angle_alpha   90.00000000
_cell_angle_beta   90.00000000
_cell_angle_gamma   120.00000396
_symmetry_Int_Tables_number   1
_chemical_formula_structural   Li8Hf3NbBr24
_chemical_formula_sum   'Li8 Hf3 Nb1 Br24'
_cell_volume   1060.50782290
_cell_formula_units_Z   1
loop_
 _symmetry_equiv_pos_site_id
 _symmetry_equiv_pos_as_xyz
  1  'x, y, z'
loop_
 _atom_site_type_symbol
 _atom_site_label
 _atom_site_symmetry_multiplicity
 _atom_site_fract_x
 _atom_site_fract_y
 _atom_site_fract_z
 _atom_site_occupancy
  Li  Li0  1  0.000000  0.000000  0.250094  1
  Li  Li1  1  0.000000  0.000000  0.749906  1
  Li  Li2  1  0.333333  0.666667  0.000629  1
  Li  Li3  1  0.333333  0.666667  0.499339  1
  Li  Li4  1  0.333333  0.666667  0.250051  1
  Li  Li5  1  0.666667  0.333333  0.749949  1
  Li  Li6  1  0.666667  0.333333  0.999371  1
  Li  Li7  1  0.666667  0.333333  0.500661  1
  Hf  Hf8  1  0.000000  0.000000  0.500000  1
  Hf  Hf9  1  0.333333  0.666667  0.749889  1
  Hf  Hf10  1  0.666667  0.333333  0.250111  1
  Nb  Nb11  1  0.000000  0.000000  0.000000  1
  Br  Br12  1  0.349028  0.015315  0.306750  1
  Br  Br13  1  0.333346  0.984376  0.806520  1
  Br  Br14  1  0.999567  0.315325  0.055845  1
  Br  Br15  1  0.000452  0.318074  0.556583  1
  Br  Br16  1  0.984685  0.333715  0.306750  1
  Br  Br17  1  0.015624  0.348969  0.806520  1
  Br  Br18  1  0.348969  0.333346  0.193480  1
  Br  Br19  1  0.333715  0.349028  0.693250  1
  Br  Br20  1  0.318074  0.317621  0.443417  1
  Br  Br21  1  0.315325  0.315758  0.944155  1
  Br  Br22  1  0.682379  0.000452  0.443417  1
  Br  Br23  1  0.315758  0.000433  0.055845  1
  Br  Br24  1  0.317621  0.999548  0.556583  1
  Br  Br25  1  0.684675  0.684242  0.055845  1
  Br  Br26  1  0.681926  0.682379  0.556583  1
  Br  Br27  1  0.666285  0.650972  0.306750  1
  Br  Br28  1  0.651031  0.666654  0.806520  1
  Br  Br29  1  0.984376  0.651031  0.193480  1
  Br  Br30  1  0.015315  0.666285  0.693250  1
  Br  Br31  1  0.999548  0.681926  0.443417  1
  Br  Br32  1  0.000433  0.684675  0.944155  1
  Br  Br33  1  0.684242  0.999567  0.944155  1
  Br  Br34  1  0.666654  0.015624  0.193480  1
  Br  Br35  1  0.650972  0.984685  0.693250  1
