# generated using pymatgen
data_Tb2ThZnPd5
_symmetry_space_group_name_H-M   'P 1'
_cell_length_a   8.33248701
_cell_length_b   8.33248834
_cell_length_c   13.15273000
_cell_angle_alpha   90.00000000
_cell_angle_beta   90.00000000
_cell_angle_gamma   127.83198808
_symmetry_Int_Tables_number   1
_chemical_formula_structural   Tb2ThZnPd5
_chemical_formula_sum   'Tb8 Th4 Zn4 Pd20'
_cell_volume   721.25590293
_cell_formula_units_Z   4
loop_
 _symmetry_equiv_pos_site_id
 _symmetry_equiv_pos_as_xyz
  1  'x, y, z'
loop_
 _atom_site_type_symbol
 _atom_site_label
 _atom_site_symmetry_multiplicity
 _atom_site_fract_x
 _atom_site_fract_y
 _atom_site_fract_z
 _atom_site_occupancy
  Tb  Tb0  1  0.629885  0.370115  0.460315  1
  Tb  Tb1  1  0.370115  0.629885  0.539685  1
  Tb  Tb2  1  0.629885  0.370115  0.039685  1
  Tb  Tb3  1  0.370115  0.629885  0.960315  1
  Tb  Tb4  1  0.881101  0.118899  0.948464  1
  Tb  Tb5  1  0.118899  0.881101  0.051536  1
  Tb  Tb6  1  0.881101  0.118899  0.551536  1
  Tb  Tb7  1  0.118899  0.881101  0.448464  1
  Th  Th8  1  0.933216  0.066784  0.250000  1
  Th  Th9  1  0.066784  0.933216  0.750000  1
  Th  Th10  1  0.316647  0.683353  0.250000  1
  Th  Th11  1  0.683353  0.316647  0.750000  1
  Zn  Zn12  1  0.718816  0.281184  0.250000  1
  Zn  Zn13  1  0.281184  0.718816  0.750000  1
  Zn  Zn14  1  0.534269  0.465731  0.250000  1
  Zn  Zn15  1  0.465731  0.534269  0.750000  1
  Pd  Pd16  1  0.319146  0.065915  0.250000  1
  Pd  Pd17  1  0.065915  0.319146  0.750000  1
  Pd  Pd18  1  0.680854  0.934085  0.750000  1
  Pd  Pd19  1  0.934085  0.680854  0.250000  1
  Pd  Pd20  1  0.566608  0.000488  0.395956  1
  Pd  Pd21  1  0.000488  0.566608  0.604044  1
  Pd  Pd22  1  0.566608  0.000488  0.104044  1
  Pd  Pd23  1  0.000488  0.566608  0.895956  1
  Pd  Pd24  1  0.433392  0.999512  0.604044  1
  Pd  Pd25  1  0.999512  0.433392  0.395956  1
  Pd  Pd26  1  0.433392  0.999512  0.895956  1
  Pd  Pd27  1  0.999512  0.433392  0.104044  1
  Pd  Pd28  1  0.688081  0.744849  0.393857  1
  Pd  Pd29  1  0.744849  0.688081  0.606143  1
  Pd  Pd30  1  0.688081  0.744849  0.106143  1
  Pd  Pd31  1  0.744849  0.688081  0.893857  1
  Pd  Pd32  1  0.311919  0.255151  0.606143  1
  Pd  Pd33  1  0.255151  0.311919  0.393857  1
  Pd  Pd34  1  0.311919  0.255151  0.893857  1
  Pd  Pd35  1  0.255151  0.311919  0.106143  1
