# generated using pymatgen
data_Ho2Er3Bi3C
_symmetry_space_group_name_H-M   'P 1'
_cell_length_a   6.45481400
_cell_length_b   9.08730073
_cell_length_c   9.08639800
_cell_angle_alpha   120.00328207
_cell_angle_beta   90.00000000
_cell_angle_gamma   90.00000000
_symmetry_Int_Tables_number   1
_chemical_formula_structural   Ho2Er3Bi3C
_chemical_formula_sum   'Ho4 Er6 Bi6 C2'
_cell_volume   461.55839665
_cell_formula_units_Z   2
loop_
 _symmetry_equiv_pos_site_id
 _symmetry_equiv_pos_as_xyz
  1  'x, y, z'
loop_
 _atom_site_type_symbol
 _atom_site_label
 _atom_site_symmetry_multiplicity
 _atom_site_fract_x
 _atom_site_fract_y
 _atom_site_fract_z
 _atom_site_occupancy
  Ho  Ho0  1  0.499998  0.333320  0.666639  1
  Ho  Ho1  1  0.499998  0.666681  0.333361  1
  Ho  Ho2  1  0.999998  0.666680  0.333361  1
  Ho  Ho3  1  0.999998  0.333319  0.666639  1
  Er  Er4  1  0.749999  0.206872  0.000000  1
  Er  Er5  1  0.750004  0.793029  0.793057  1
  Er  Er6  1  0.750004  0.999973  0.206943  1
  Er  Er7  1  0.249999  0.793128  0.000000  1
  Er  Er8  1  0.250004  0.206971  0.206943  1
  Er  Er9  1  0.250004  0.000027  0.793057  1
  Bi  Bi10  1  0.750002  0.598750  0.000000  1
  Bi  Bi11  1  0.749998  0.401306  0.401350  1
  Bi  Bi12  1  0.749998  0.999956  0.598650  1
  Bi  Bi13  1  0.250002  0.401250  0.000000  1
  Bi  Bi14  1  0.249998  0.598694  0.598650  1
  Bi  Bi15  1  0.249998  0.000044  0.401350  1
  C  C16  1  0.499999  0.999998  0.000000  1
  C  C17  1  0.999999  0.000002  0.000000  1
