# generated using pymatgen
data_Lu10In8TcAu3
_symmetry_space_group_name_H-M   'P 1'
_cell_length_a   3.58358700
_cell_length_b   8.11404129
_cell_length_c   18.11997162
_cell_angle_alpha   89.99195744
_cell_angle_beta   90.00000000
_cell_angle_gamma   90.00000000
_symmetry_Int_Tables_number   1
_chemical_formula_structural   Lu10In8TcAu3
_chemical_formula_sum   'Lu10 In8 Tc1 Au3'
_cell_volume   526.88116631
_cell_formula_units_Z   1
loop_
 _symmetry_equiv_pos_site_id
 _symmetry_equiv_pos_as_xyz
  1  'x, y, z'
loop_
 _atom_site_type_symbol
 _atom_site_label
 _atom_site_symmetry_multiplicity
 _atom_site_fract_x
 _atom_site_fract_y
 _atom_site_fract_z
 _atom_site_occupancy
  Lu  Lu0  1  0.000000  0.879686  0.081983  1
  Lu  Lu1  1  0.000000  0.738615  0.282209  1
  Lu  Lu2  1  0.000000  0.739943  0.782649  1
  Lu  Lu3  1  0.000000  0.383703  0.413837  1
  Lu  Lu4  1  0.000000  0.119495  0.919953  1
  Lu  Lu5  1  0.000000  0.240582  0.717047  1
  Lu  Lu6  1  0.000000  0.499384  0.000962  1
  Lu  Lu7  1  0.000000  0.274576  0.223187  1
  Lu  Lu8  1  0.000000  0.619946  0.580115  1
  Lu  Lu9  1  0.000000  0.996842  0.497766  1
  In  In10  1  0.500000  0.209461  0.065520  1
  In  In11  1  0.500000  0.421903  0.853869  1
  In  In12  1  0.500000  0.572921  0.150186  1
  In  In13  1  0.500000  0.086895  0.352736  1
  In  In14  1  0.500000  0.922849  0.645490  1
  In  In15  1  0.500000  0.790363  0.936296  1
  In  In16  1  0.500000  0.703275  0.430457  1
  In  In17  1  0.500000  0.290389  0.563415  1
  Tc  Tc18  1  0.500000  0.475828  0.303882  1
  Au  Au19  1  0.500000  0.977361  0.198096  1
  Au  Au20  1  0.500000  0.028148  0.802934  1
  Au  Au21  1  0.500000  0.527836  0.697412  1
