# generated using pymatgen
data_TbHo5Bi2(AuO5)4
_symmetry_space_group_name_H-M   'P 1'
_cell_length_a   8.52969244
_cell_length_b   8.52969245
_cell_length_c   5.71088568
_cell_angle_alpha   88.88465857
_cell_angle_beta   91.11534533
_cell_angle_gamma   89.90329037
_symmetry_Int_Tables_number   1
_chemical_formula_structural   TbHo5Bi2(AuO5)4
_chemical_formula_sum   'Tb1 Ho5 Bi2 Au4 O20'
_cell_volume   415.34090001
_cell_formula_units_Z   1
loop_
 _symmetry_equiv_pos_site_id
 _symmetry_equiv_pos_as_xyz
  1  'x, y, z'
loop_
 _atom_site_type_symbol
 _atom_site_label
 _atom_site_symmetry_multiplicity
 _atom_site_fract_x
 _atom_site_fract_y
 _atom_site_fract_z
 _atom_site_occupancy
  Tb  Tb0  1  0.651922  0.651922  0.750000  1
  Ho  Ho1  1  0.354322  0.656246  0.247338  1
  Ho  Ho2  1  0.843763  0.145313  0.747558  1
  Ho  Ho3  1  0.656246  0.354322  0.252662  1
  Ho  Ho4  1  0.848504  0.848504  0.250000  1
  Ho  Ho5  1  0.145313  0.843763  0.752442  1
  Bi  Bi6  1  0.358537  0.358537  0.750000  1
  Bi  Bi7  1  0.141080  0.141080  0.250000  1
  Au  Au8  1  0.497027  0.000185  0.408175  1
  Au  Au9  1  0.499877  0.003064  0.908399  1
  Au  Au10  1  0.000185  0.497027  0.091825  1
  Au  Au11  1  0.003064  0.499877  0.591601  1
  O  O12  1  0.106207  0.288350  0.599693  1
  O  O13  1  0.909931  0.279848  0.109329  1
  O  O14  1  0.909190  0.717447  0.608500  1
  O  O15  1  0.717447  0.909190  0.891500  1
  O  O16  1  0.220222  0.590108  0.609532  1
  O  O17  1  0.403731  0.787654  0.894205  1
  O  O18  1  0.393658  0.211506  0.400570  1
  O  O19  1  0.783648  0.592176  0.112124  1
  O  O20  1  0.279848  0.909931  0.390671  1
  O  O21  1  0.590108  0.220222  0.890468  1
  O  O22  1  0.493922  0.498790  0.000152  1
  O  O23  1  0.498790  0.493922  0.499848  1
  O  O24  1  0.787654  0.403731  0.605795  1
  O  O25  1  0.095522  0.712696  0.106291  1
  O  O26  1  0.288350  0.106207  0.900307  1
  O  O27  1  0.592176  0.783648  0.387876  1
  O  O28  1  0.211506  0.393658  0.099430  1
  O  O29  1  0.005277  0.000277  0.001163  1
  O  O30  1  0.000277  0.005277  0.498837  1
  O  O31  1  0.712696  0.095522  0.393709  1
