# generated using pymatgen
data_Ho4Lu2Al19Si5Os8
_symmetry_space_group_name_H-M   'P 1'
_cell_length_a   8.67975900
_cell_length_b   8.66966736
_cell_length_c   9.56494900
_cell_angle_alpha   89.99911643
_cell_angle_beta   90.00000000
_cell_angle_gamma   120.03850902
_symmetry_Int_Tables_number   1
_chemical_formula_structural   Ho4Lu2Al19Si5Os8
_chemical_formula_sum   'Ho4 Lu2 Al19 Si5 Os8'
_cell_volume   623.09567455
_cell_formula_units_Z   1
loop_
 _symmetry_equiv_pos_site_id
 _symmetry_equiv_pos_as_xyz
  1  'x, y, z'
loop_
 _atom_site_type_symbol
 _atom_site_label
 _atom_site_symmetry_multiplicity
 _atom_site_fract_x
 _atom_site_fract_y
 _atom_site_fract_z
 _atom_site_occupancy
  Ho  Ho0  1  0.608406  0.806204  0.250002  1
  Ho  Ho1  1  0.389614  0.195519  0.750003  1
  Ho  Ho2  1  0.197798  0.806204  0.250002  1
  Ho  Ho3  1  0.805906  0.195519  0.750003  1
  Lu  Lu4  1  0.196586  0.393171  0.250006  1
  Lu  Lu5  1  0.803792  0.607584  0.750000  1
  Al  Al6  1  0.164797  0.329593  0.577913  1
  Al  Al7  1  0.834610  0.669220  0.422241  1
  Al  Al8  1  0.670016  0.835056  0.577427  1
  Al  Al9  1  0.834604  0.669208  0.077760  1
  Al  Al10  1  0.328881  0.165669  0.421645  1
  Al  Al11  1  0.164791  0.329582  0.922093  1
  Al  Al12  1  0.165040  0.835056  0.577427  1
  Al  Al13  1  0.328877  0.165674  0.078359  1
  Al  Al14  1  0.836788  0.165669  0.421645  1
  Al  Al15  1  0.670012  0.835059  0.922575  1
  Al  Al16  1  0.836796  0.165674  0.078359  1
  Al  Al17  1  0.165046  0.835059  0.922575  1
  Al  Al18  1  0.437026  0.874050  0.750002  1
  Al  Al19  1  0.873408  0.433355  0.249994  1
  Al  Al20  1  0.127191  0.564666  0.749994  1
  Al  Al21  1  0.559946  0.433355  0.249994  1
  Al  Al22  1  0.437475  0.564666  0.749994  1
  Al  Al23  1  0.001084  0.002168  0.249996  1
  Al  Al24  1  0.999043  0.998086  0.749997  1
  Si  Si25  1  0.332309  0.664617  0.039068  1
  Si  Si26  1  0.667517  0.335032  0.959692  1
  Si  Si27  1  0.667512  0.335024  0.540307  1
  Si  Si28  1  0.332305  0.664611  0.460934  1
  Si  Si29  1  0.564034  0.128069  0.250004  1
  Os  Os30  1  0.500801  0.001602  0.006137  1
  Os  Os31  1  0.998959  0.499003  0.000474  1
  Os  Os32  1  0.500803  0.001605  0.493888  1
  Os  Os33  1  0.500044  0.499003  0.000474  1
  Os  Os34  1  0.998894  0.498963  0.499512  1
  Os  Os35  1  0.500069  0.498963  0.499512  1
  Os  Os36  1  0.999593  0.999187  0.000050  1
  Os  Os37  1  0.999626  0.999252  0.499942  1
