# generated using pymatgen
data_Ba2ScBrO3
_symmetry_space_group_name_H-M   'P 1'
_cell_length_a   4.25216200
_cell_length_b   4.25216200
_cell_length_c   15.84478600
_cell_angle_alpha   90.00000000
_cell_angle_beta   90.00000000
_cell_angle_gamma   90.00000000
_symmetry_Int_Tables_number   1
_chemical_formula_structural   Ba2ScBrO3
_chemical_formula_sum   'Ba4 Sc2 Br2 O6'
_cell_volume   286.48770082
_cell_formula_units_Z   2
loop_
 _symmetry_equiv_pos_site_id
 _symmetry_equiv_pos_as_xyz
  1  'x, y, z'
loop_
 _atom_site_type_symbol
 _atom_site_label
 _atom_site_symmetry_multiplicity
 _atom_site_fract_x
 _atom_site_fract_y
 _atom_site_fract_z
 _atom_site_occupancy
  Ba  Ba0  1  0.000000  0.500000  0.667846  1
  Ba  Ba1  1  0.500000  0.000000  0.091669  1
  Ba  Ba2  1  0.500000  0.000000  0.332154  1
  Ba  Ba3  1  0.000000  0.500000  0.908331  1
  Sc  Sc4  1  0.000000  0.500000  0.201183  1
  Sc  Sc5  1  0.500000  0.000000  0.798817  1
  Br  Br6  1  0.000000  0.500000  0.419015  1
  Br  Br7  1  0.500000  0.000000  0.580985  1
  O  O8  1  0.000000  0.500000  0.076550  1
  O  O9  1  0.500000  0.500000  0.778787  1
  O  O10  1  0.000000  0.000000  0.778787  1
  O  O11  1  0.500000  0.500000  0.221213  1
  O  O12  1  0.000000  0.000000  0.221213  1
  O  O13  1  0.500000  0.000000  0.923450  1
