# generated using pymatgen
data_Tb3Er7In4(HgPd)4
_symmetry_space_group_name_H-M   'P 1'
_cell_length_a   3.61248700
_cell_length_b   8.00237257
_cell_length_c   18.29375602
_cell_angle_alpha   89.90761237
_cell_angle_beta   90.00000000
_cell_angle_gamma   90.00000000
_symmetry_Int_Tables_number   1
_chemical_formula_structural   Tb3Er7In4(HgPd)4
_chemical_formula_sum   'Tb3 Er7 In4 Hg4 Pd4'
_cell_volume   528.84375237
_cell_formula_units_Z   1
loop_
 _symmetry_equiv_pos_site_id
 _symmetry_equiv_pos_as_xyz
  1  'x, y, z'
loop_
 _atom_site_type_symbol
 _atom_site_label
 _atom_site_symmetry_multiplicity
 _atom_site_fract_x
 _atom_site_fract_y
 _atom_site_fract_z
 _atom_site_occupancy
  Tb  Tb0  1  0.000000  0.499946  0.500012  1
  Tb  Tb1  1  0.000000  0.000028  0.999958  1
  Tb  Tb2  1  0.000000  0.742418  0.283907  1
  Er  Er3  1  0.000000  0.257553  0.716259  1
  Er  Er4  1  0.000000  0.757283  0.783737  1
  Er  Er5  1  0.000000  0.242503  0.216262  1
  Er  Er6  1  0.000000  0.608107  0.083605  1
  Er  Er7  1  0.000000  0.391535  0.915940  1
  Er  Er8  1  0.000000  0.891879  0.584221  1
  Er  Er9  1  0.000000  0.108710  0.416447  1
  In  In10  1  0.500000  0.581661  0.649576  1
  In  In11  1  0.500000  0.417071  0.350411  1
  In  In12  1  0.500000  0.919119  0.148953  1
  In  In13  1  0.500000  0.081854  0.850437  1
  Hg  Hg14  1  0.500000  0.712057  0.932665  1
  Hg  Hg15  1  0.500000  0.287623  0.067259  1
  Hg  Hg16  1  0.500000  0.788355  0.433352  1
  Hg  Hg17  1  0.500000  0.211894  0.567347  1
  Pd  Pd18  1  0.500000  0.527696  0.196969  1
  Pd  Pd19  1  0.500000  0.470246  0.802437  1
  Pd  Pd20  1  0.500000  0.970475  0.697557  1
  Pd  Pd21  1  0.500000  0.031987  0.302690  1
