# generated using pymatgen
data_TbEr3GeBi5Rh7
_symmetry_space_group_name_H-M   'P 1'
_cell_length_a   7.72031686
_cell_length_b   7.72040368
_cell_length_c   7.70197913
_cell_angle_alpha   106.92808228
_cell_angle_beta   110.68470346
_cell_angle_gamma   110.77909254
_symmetry_Int_Tables_number   1
_chemical_formula_structural   TbEr3GeBi5Rh7
_chemical_formula_sum   'Tb1 Er3 Ge1 Bi5 Rh7'
_cell_volume   353.10037555
_cell_formula_units_Z   1
loop_
 _symmetry_equiv_pos_site_id
 _symmetry_equiv_pos_as_xyz
  1  'x, y, z'
loop_
 _atom_site_type_symbol
 _atom_site_label
 _atom_site_symmetry_multiplicity
 _atom_site_fract_x
 _atom_site_fract_y
 _atom_site_fract_z
 _atom_site_occupancy
  Tb  Tb0  1  0.000000  0.985273  0.530281  1
  Er  Er1  1  0.000000  0.532560  0.982774  1
  Er  Er2  1  0.450374  0.982176  0.982741  1
  Er  Er3  1  0.549626  0.531801  0.532366  1
  Ge  Ge4  1  0.000000  0.644829  0.644045  1
  Bi  Bi5  1  0.688518  0.705132  0.015827  1
  Bi  Bi6  1  0.311482  0.016614  0.327310  1
  Bi  Bi7  1  0.000000  0.305150  0.304173  1
  Bi  Bi8  1  0.310585  0.326772  0.017400  1
  Bi  Bi9  1  0.689415  0.016187  0.706815  1
  Rh  Rh10  1  0.753901  0.258533  0.504594  1
  Rh  Rh11  1  0.753112  0.501648  0.256315  1
  Rh  Rh12  1  0.502109  0.263601  0.763437  1
  Rh  Rh13  1  0.246099  0.504632  0.750693  1
  Rh  Rh14  1  0.246888  0.748536  0.503203  1
  Rh  Rh15  1  0.497891  0.761491  0.261328  1
  Rh  Rh16  1  0.000000  0.915063  0.916697  1
