# generated using pymatgen
data_Tb4Sc16Bi11Sb
_symmetry_space_group_name_H-M   'P 1'
_cell_length_a   7.87961552
_cell_length_b   9.04839000
_cell_length_c   11.56148875
_cell_angle_alpha   90.00000000
_cell_angle_beta   90.04143584
_cell_angle_gamma   90.00000000
_symmetry_Int_Tables_number   1
_chemical_formula_structural   Tb4Sc16Bi11Sb
_chemical_formula_sum   'Tb4 Sc16 Bi11 Sb1'
_cell_volume   824.30889322
_cell_formula_units_Z   1
loop_
 _symmetry_equiv_pos_site_id
 _symmetry_equiv_pos_as_xyz
  1  'x, y, z'
loop_
 _atom_site_type_symbol
 _atom_site_label
 _atom_site_symmetry_multiplicity
 _atom_site_fract_x
 _atom_site_fract_y
 _atom_site_fract_z
 _atom_site_occupancy
  Tb  Tb0  1  0.316248  0.250000  0.218960  1
  Tb  Tb1  1  0.816133  0.250000  0.281066  1
  Tb  Tb2  1  0.680616  0.750000  0.783299  1
  Tb  Tb3  1  0.184906  0.750000  0.720417  1
  Sc  Sc4  1  0.349082  0.750000  0.217818  1
  Sc  Sc5  1  0.848372  0.750000  0.279134  1
  Sc  Sc6  1  0.651933  0.250000  0.779121  1
  Sc  Sc7  1  0.151674  0.250000  0.720978  1
  Sc  Sc8  1  0.690159  0.569125  0.061673  1
  Sc  Sc9  1  0.192827  0.932715  0.437306  1
  Sc  Sc10  1  0.308184  0.063609  0.937749  1
  Sc  Sc11  1  0.807160  0.432921  0.562606  1
  Sc  Sc12  1  0.308184  0.436391  0.937749  1
  Sc  Sc13  1  0.807160  0.067079  0.562606  1
  Sc  Sc14  1  0.690159  0.930875  0.061673  1
  Sc  Sc15  1  0.192827  0.567285  0.437306  1
  Sc  Sc16  1  0.482074  0.250000  0.488701  1
  Sc  Sc17  1  0.982386  0.250000  0.011146  1
  Sc  Sc18  1  0.518116  0.750000  0.511361  1
  Sc  Sc19  1  0.021650  0.750000  0.988529  1
  Bi  Bi20  1  0.902251  0.750000  0.532733  1
  Bi  Bi21  1  0.597974  0.250000  0.032333  1
  Bi  Bi22  1  0.098036  0.250000  0.467651  1
  Bi  Bi23  1  0.563931  0.989193  0.328786  1
  Bi  Bi24  1  0.063847  0.510576  0.171062  1
  Bi  Bi25  1  0.436045  0.489278  0.671181  1
  Bi  Bi26  1  0.935858  0.010533  0.828813  1
  Bi  Bi27  1  0.436045  0.010722  0.671181  1
  Bi  Bi28  1  0.935858  0.489467  0.828813  1
  Bi  Bi29  1  0.563931  0.510807  0.328786  1
  Bi  Bi30  1  0.063847  0.989424  0.171062  1
  Sb  Sb31  1  0.402529  0.750000  0.968401  1
