# generated using pymatgen
data_Sr3SnGePd2
_symmetry_space_group_name_H-M   'P 1'
_cell_length_a   5.98263400
_cell_length_b   8.71036400
_cell_length_c   14.24175000
_cell_angle_alpha   90.00000000
_cell_angle_beta   90.00000000
_cell_angle_gamma   90.00000000
_symmetry_Int_Tables_number   1
_chemical_formula_structural   Sr3SnGePd2
_chemical_formula_sum   'Sr12 Sn4 Ge4 Pd8'
_cell_volume   742.15069233
_cell_formula_units_Z   4
loop_
 _symmetry_equiv_pos_site_id
 _symmetry_equiv_pos_as_xyz
  1  'x, y, z'
loop_
 _atom_site_type_symbol
 _atom_site_label
 _atom_site_symmetry_multiplicity
 _atom_site_fract_x
 _atom_site_fract_y
 _atom_site_fract_z
 _atom_site_occupancy
  Sr  Sr0  1  0.141870  0.391437  0.604077  1
  Sr  Sr1  1  0.858130  0.608563  0.104077  1
  Sr  Sr2  1  0.141870  0.108563  0.395923  1
  Sr  Sr3  1  0.858130  0.891437  0.895923  1
  Sr  Sr4  1  0.858130  0.608563  0.395923  1
  Sr  Sr5  1  0.141870  0.391437  0.895923  1
  Sr  Sr6  1  0.858130  0.891437  0.604077  1
  Sr  Sr7  1  0.141870  0.108563  0.104077  1
  Sr  Sr8  1  0.651837  0.250840  0.750000  1
  Sr  Sr9  1  0.348163  0.749160  0.250000  1
  Sr  Sr10  1  0.651837  0.249160  0.250000  1
  Sr  Sr11  1  0.348163  0.750840  0.750000  1
  Sn  Sn12  1  0.637718  0.250000  0.500000  1
  Sn  Sn13  1  0.362282  0.750000  0.000000  1
  Sn  Sn14  1  0.362282  0.750000  0.500000  1
  Sn  Sn15  1  0.637718  0.250000  0.000000  1
  Ge  Ge16  1  0.165427  0.098765  0.750000  1
  Ge  Ge17  1  0.834573  0.901235  0.250000  1
  Ge  Ge18  1  0.165427  0.401235  0.250000  1
  Ge  Ge19  1  0.834573  0.598765  0.750000  1
  Pd  Pd20  1  0.375604  0.034780  0.591782  1
  Pd  Pd21  1  0.624396  0.965220  0.091782  1
  Pd  Pd22  1  0.375604  0.465220  0.408218  1
  Pd  Pd23  1  0.624396  0.534780  0.908218  1
  Pd  Pd24  1  0.624396  0.965220  0.408218  1
  Pd  Pd25  1  0.375604  0.034780  0.908218  1
  Pd  Pd26  1  0.624396  0.534780  0.591782  1
  Pd  Pd27  1  0.375604  0.465220  0.091782  1
