# generated using pymatgen
data_Ho8Tc3B24Os
_symmetry_space_group_name_H-M   'P 1'
_cell_length_a   3.66694100
_cell_length_b   9.14090190
_cell_length_c   11.52137614
_cell_angle_alpha   89.94909099
_cell_angle_beta   90.00000000
_cell_angle_gamma   90.00000000
_symmetry_Int_Tables_number   1
_chemical_formula_structural   Ho8Tc3B24Os
_chemical_formula_sum   'Ho8 Tc3 B24 Os1'
_cell_volume   386.18655901
_cell_formula_units_Z   1
loop_
 _symmetry_equiv_pos_site_id
 _symmetry_equiv_pos_as_xyz
  1  'x, y, z'
loop_
 _atom_site_type_symbol
 _atom_site_label
 _atom_site_symmetry_multiplicity
 _atom_site_fract_x
 _atom_site_fract_y
 _atom_site_fract_z
 _atom_site_occupancy
  Ho  Ho0  1  0.000000  0.323868  0.413810  1
  Ho  Ho1  1  0.000000  0.675224  0.584414  1
  Ho  Ho2  1  0.000000  0.823136  0.087342  1
  Ho  Ho3  1  0.000000  0.177724  0.914430  1
  Ho  Ho4  1  0.000000  0.942774  0.370156  1
  Ho  Ho5  1  0.000000  0.058034  0.629947  1
  Ho  Ho6  1  0.000000  0.443028  0.130070  1
  Ho  Ho7  1  0.000000  0.556813  0.869530  1
  Tc  Tc8  1  0.000000  0.638585  0.320480  1
  Tc  Tc9  1  0.000000  0.361544  0.679971  1
  Tc  Tc10  1  0.000000  0.138031  0.178246  1
  B  B11  1  0.500000  0.553058  0.432967  1
  B  B12  1  0.500000  0.446885  0.566801  1
  B  B13  1  0.500000  0.052987  0.066869  1
  B  B14  1  0.500000  0.946378  0.932992  1
  B  B15  1  0.500000  0.748590  0.419015  1
  B  B16  1  0.500000  0.251072  0.581032  1
  B  B17  1  0.500000  0.249122  0.081044  1
  B  B18  1  0.500000  0.751256  0.918690  1
  B  B19  1  0.500000  0.791999  0.265673  1
  B  B20  1  0.500000  0.208239  0.734838  1
  B  B21  1  0.500000  0.291889  0.234599  1
  B  B22  1  0.500000  0.708864  0.765452  1
  B  B23  1  0.500000  0.631185  0.185586  1
  B  B24  1  0.500000  0.368689  0.814962  1
  B  B25  1  0.500000  0.130727  0.314090  1
  B  B26  1  0.500000  0.868834  0.685686  1
  B  B27  1  0.500000  0.981900  0.211843  1
  B  B28  1  0.500000  0.016919  0.788167  1
  B  B29  1  0.500000  0.482172  0.288029  1
  B  B30  1  0.500000  0.517614  0.711785  1
  B  B31  1  0.500000  0.602229  0.028252  1
  B  B32  1  0.500000  0.398817  0.971604  1
  B  B33  1  0.500000  0.101997  0.471661  1
  B  B34  1  0.500000  0.898066  0.528765  1
  Os  Os35  1  0.000000  0.861753  0.821202  1
