# generated using pymatgen
data_Ac2Yb3Pd4
_symmetry_space_group_name_H-M   'P 1'
_cell_length_a   7.81810200
_cell_length_b   7.91679200
_cell_length_c   15.01726300
_cell_angle_alpha   90.00000000
_cell_angle_beta   90.00000000
_cell_angle_gamma   90.00000000
_symmetry_Int_Tables_number   1
_chemical_formula_structural   Ac2Yb3Pd4
_chemical_formula_sum   'Ac8 Yb12 Pd16'
_cell_volume   929.48279161
_cell_formula_units_Z   4
loop_
 _symmetry_equiv_pos_site_id
 _symmetry_equiv_pos_as_xyz
  1  'x, y, z'
loop_
 _atom_site_type_symbol
 _atom_site_label
 _atom_site_symmetry_multiplicity
 _atom_site_fract_x
 _atom_site_fract_y
 _atom_site_fract_z
 _atom_site_occupancy
  Ac  Ac0  1  0.502651  0.678031  0.598442  1
  Ac  Ac1  1  0.002651  0.821969  0.901558  1
  Ac  Ac2  1  0.497349  0.321969  0.098442  1
  Ac  Ac3  1  0.997349  0.178031  0.401558  1
  Ac  Ac4  1  0.497349  0.321969  0.401558  1
  Ac  Ac5  1  0.997349  0.178031  0.098442  1
  Ac  Ac6  1  0.502651  0.678031  0.901558  1
  Ac  Ac7  1  0.002651  0.821969  0.598442  1
  Yb  Yb8  1  0.663901  0.167191  0.624868  1
  Yb  Yb9  1  0.163901  0.332809  0.875132  1
  Yb  Yb10  1  0.336099  0.832809  0.124868  1
  Yb  Yb11  1  0.836099  0.667191  0.375132  1
  Yb  Yb12  1  0.336099  0.832809  0.375132  1
  Yb  Yb13  1  0.836099  0.667191  0.124868  1
  Yb  Yb14  1  0.663901  0.167191  0.875132  1
  Yb  Yb15  1  0.163901  0.332809  0.624868  1
  Yb  Yb16  1  0.827654  0.492961  0.750000  1
  Yb  Yb17  1  0.327654  0.007039  0.750000  1
  Yb  Yb18  1  0.172346  0.507039  0.250000  1
  Yb  Yb19  1  0.672346  0.992961  0.250000  1
  Pd  Pd20  1  0.671856  0.963246  0.460653  1
  Pd  Pd21  1  0.171856  0.536754  0.039347  1
  Pd  Pd22  1  0.328144  0.036754  0.960653  1
  Pd  Pd23  1  0.828144  0.463246  0.539347  1
  Pd  Pd24  1  0.328144  0.036754  0.539347  1
  Pd  Pd25  1  0.828144  0.463246  0.960653  1
  Pd  Pd26  1  0.671856  0.963246  0.039347  1
  Pd  Pd27  1  0.171856  0.536754  0.460653  1
  Pd  Pd28  1  0.459451  0.383521  0.750000  1
  Pd  Pd29  1  0.959451  0.116479  0.750000  1
  Pd  Pd30  1  0.540549  0.616479  0.250000  1
  Pd  Pd31  1  0.040549  0.883521  0.250000  1
  Pd  Pd32  1  0.702552  0.860795  0.750000  1
  Pd  Pd33  1  0.202552  0.639205  0.750000  1
  Pd  Pd34  1  0.297448  0.139205  0.250000  1
  Pd  Pd35  1  0.797448  0.360795  0.250000  1
