# generated using pymatgen
data_Hf2TaReW2
_symmetry_space_group_name_H-M   'P 1'
_cell_length_a   5.46192424
_cell_length_b   5.40891231
_cell_length_c   5.35528782
_cell_angle_alpha   59.66820163
_cell_angle_beta   59.85830763
_cell_angle_gamma   60.32055558
_symmetry_Int_Tables_number   1
_chemical_formula_structural   Hf2TaReW2
_chemical_formula_sum   'Hf2 Ta1 Re1 W2'
_cell_volume   111.73548377
_cell_formula_units_Z   1
loop_
 _symmetry_equiv_pos_site_id
 _symmetry_equiv_pos_as_xyz
  1  'x, y, z'
loop_
 _atom_site_type_symbol
 _atom_site_label
 _atom_site_symmetry_multiplicity
 _atom_site_fract_x
 _atom_site_fract_y
 _atom_site_fract_z
 _atom_site_occupancy
  Hf  Hf0  1  0.996442  0.000574  0.002409  1
  Hf  Hf1  1  0.253558  0.249426  0.247591  1
  Ta  Ta2  1  0.125000  0.625000  0.625000  1
  Re  Re3  1  0.625000  0.625000  0.125000  1
  W  W4  1  0.625000  0.625000  0.625000  1
  W  W5  1  0.625000  0.125000  0.625000  1
