# generated using pymatgen
data_La3HoPa2(SnRh)6
_symmetry_space_group_name_H-M   'P 1'
_cell_length_a   7.55618779
_cell_length_b   7.50619118
_cell_length_c   8.21332800
_cell_angle_alpha   90.00000000
_cell_angle_beta   90.00000000
_cell_angle_gamma   119.78147053
_symmetry_Int_Tables_number   1
_chemical_formula_structural   La3HoPa2(SnRh)6
_chemical_formula_sum   'La3 Ho1 Pa2 Sn6 Rh6'
_cell_volume   404.31913389
_cell_formula_units_Z   1
loop_
 _symmetry_equiv_pos_site_id
 _symmetry_equiv_pos_as_xyz
  1  'x, y, z'
loop_
 _atom_site_type_symbol
 _atom_site_label
 _atom_site_symmetry_multiplicity
 _atom_site_fract_x
 _atom_site_fract_y
 _atom_site_fract_z
 _atom_site_occupancy
  La  La0  1  0.583431  0.995312  0.750000  1
  La  La1  1  0.416410  0.411862  0.750000  1
  La  La2  1  0.999680  0.585909  0.750000  1
  Ho  Ho3  1  0.999514  0.595014  0.250000  1
  Pa  Pa4  1  0.588545  0.004771  0.250000  1
  Pa  Pa5  1  0.411871  0.415947  0.250000  1
  Sn  Sn6  1  0.245246  0.994041  0.006430  1
  Sn  Sn7  1  0.754581  0.748946  0.493704  1
  Sn  Sn8  1  0.000305  0.258538  0.496474  1
  Sn  Sn9  1  0.000305  0.258538  0.003526  1
  Sn  Sn10  1  0.754581  0.748946  0.006296  1
  Sn  Sn11  1  0.245246  0.994041  0.493570  1
  Rh  Rh12  1  0.649631  0.318116  0.035963  1
  Rh  Rh13  1  0.649631  0.318116  0.464037  1
  Rh  Rh14  1  0.350513  0.668561  0.037072  1
  Rh  Rh15  1  0.350513  0.668561  0.462928  1
  Rh  Rh16  1  0.000085  0.000385  0.750000  1
  Rh  Rh17  1  0.999910  0.014396  0.250000  1
