# generated using pymatgen
data_HfTi(SiTc)2
_symmetry_space_group_name_H-M   'P 1'
_cell_length_a   7.64164370
_cell_length_b   7.64252901
_cell_length_c   7.64164275
_cell_angle_alpha   126.50437964
_cell_angle_beta   128.48580672
_cell_angle_gamma   77.45251819
_symmetry_Int_Tables_number   1
_chemical_formula_structural   HfTi(SiTc)2
_chemical_formula_sum   'Hf3 Ti3 Si6 Tc6'
_cell_volume   272.37446312
_cell_formula_units_Z   3
loop_
 _symmetry_equiv_pos_site_id
 _symmetry_equiv_pos_as_xyz
  1  'x, y, z'
loop_
 _atom_site_type_symbol
 _atom_site_label
 _atom_site_symmetry_multiplicity
 _atom_site_fract_x
 _atom_site_fract_y
 _atom_site_fract_z
 _atom_site_occupancy
  Hf  Hf0  1  0.245050  0.895321  0.150271  1
  Hf  Hf1  1  0.954022  0.500370  0.046346  1
  Hf  Hf2  1  0.048273  0.087241  0.538968  1
  Ti  Ti3  1  0.447447  0.487264  0.539818  1
  Ti  Ti4  1  0.756611  0.908177  0.651566  1
  Ti  Ti5  1  0.548215  0.101473  0.053257  1
  Si  Si6  1  0.750732  0.502062  0.251332  1
  Si  Si7  1  0.172924  0.163305  0.002469  1
  Si  Si8  1  0.660835  0.163305  0.490379  1
  Si  Si9  1  0.356958  0.829451  0.520208  1
  Si  Si10  1  0.249901  0.493664  0.743763  1
  Si  Si11  1  0.809244  0.829451  0.972494  1
  Tc  Tc12  1  0.504300  0.238578  0.743023  1
  Tc  Tc13  1  0.995555  0.238578  0.234279  1
  Tc  Tc14  1  0.865158  0.496670  0.620521  1
  Tc  Tc15  1  0.624530  0.755316  0.121219  1
  Tc  Tc16  1  0.376148  0.496670  0.131511  1
  Tc  Tc17  1  0.134097  0.755316  0.630787  1
