# generated using pymatgen
data_Pr4Mg4Ir3Au
_symmetry_space_group_name_H-M   'P 1'
_cell_length_a   4.23027800
_cell_length_b   7.35827019
_cell_length_c   8.86441811
_cell_angle_alpha   90.86800112
_cell_angle_beta   90.00000000
_cell_angle_gamma   90.00000000
_symmetry_Int_Tables_number   1
_chemical_formula_structural   Pr4Mg4Ir3Au
_chemical_formula_sum   'Pr4 Mg4 Ir3 Au1'
_cell_volume   275.89576455
_cell_formula_units_Z   1
loop_
 _symmetry_equiv_pos_site_id
 _symmetry_equiv_pos_as_xyz
  1  'x, y, z'
loop_
 _atom_site_type_symbol
 _atom_site_label
 _atom_site_symmetry_multiplicity
 _atom_site_fract_x
 _atom_site_fract_y
 _atom_site_fract_z
 _atom_site_occupancy
  Pr  Pr0  1  0.750000  0.469550  0.808962  1
  Pr  Pr1  1  0.250000  0.028904  0.334622  1
  Pr  Pr2  1  0.750000  0.959659  0.682348  1
  Pr  Pr3  1  0.250000  0.554772  0.181219  1
  Mg  Mg4  1  0.250000  0.132547  0.931865  1
  Mg  Mg5  1  0.250000  0.634563  0.558478  1
  Mg  Mg6  1  0.750000  0.859656  0.059969  1
  Mg  Mg7  1  0.750000  0.366035  0.443841  1
  Ir  Ir8  1  0.250000  0.755491  0.878240  1
  Ir  Ir9  1  0.250000  0.253413  0.624589  1
  Ir  Ir10  1  0.750000  0.744186  0.374205  1
  Au  Au11  1  0.750000  0.241225  0.121661  1
