# generated using pymatgen
data_Ho2MoWC3
_symmetry_space_group_name_H-M   'P 1'
_cell_length_a   6.09327212
_cell_length_b   6.09327241
_cell_length_c   5.70811360
_cell_angle_alpha   68.67438188
_cell_angle_beta   68.67438045
_cell_angle_gamma   31.74234162
_symmetry_Int_Tables_number   1
_chemical_formula_structural   Ho2MoWC3
_chemical_formula_sum   'Ho2 Mo1 W1 C3'
_cell_volume   103.22066571
_cell_formula_units_Z   1
loop_
 _symmetry_equiv_pos_site_id
 _symmetry_equiv_pos_as_xyz
  1  'x, y, z'
loop_
 _atom_site_type_symbol
 _atom_site_label
 _atom_site_symmetry_multiplicity
 _atom_site_fract_x
 _atom_site_fract_y
 _atom_site_fract_z
 _atom_site_occupancy
  Ho  Ho0  1  0.389826  0.389826  0.826237  1
  Ho  Ho1  1  0.610140  0.610140  0.176993  1
  Mo  Mo2  1  0.844110  0.844110  0.325659  1
  W  W3  1  0.156833  0.156833  0.672081  1
  C  C4  1  0.750697  0.750697  0.736154  1
  C  C5  1  0.247733  0.247733  0.265143  1
  C  C6  1  0.000662  0.000662  0.997734  1
