# generated using pymatgen
data_Nb4CrCo5Os2
_symmetry_space_group_name_H-M   'P 1'
_cell_length_a   4.84346913
_cell_length_b   4.84346833
_cell_length_c   8.04543100
_cell_angle_alpha   90.00000000
_cell_angle_beta   90.00000000
_cell_angle_gamma   119.79007561
_symmetry_Int_Tables_number   1
_chemical_formula_structural   Nb4CrCo5Os2
_chemical_formula_sum   'Nb4 Cr1 Co5 Os2'
_cell_volume   163.79767953
_cell_formula_units_Z   1
loop_
 _symmetry_equiv_pos_site_id
 _symmetry_equiv_pos_as_xyz
  1  'x, y, z'
loop_
 _atom_site_type_symbol
 _atom_site_label
 _atom_site_symmetry_multiplicity
 _atom_site_fract_x
 _atom_site_fract_y
 _atom_site_fract_z
 _atom_site_occupancy
  Nb  Nb0  1  0.331732  0.668268  0.434334  1
  Nb  Nb1  1  0.665607  0.334393  0.572546  1
  Nb  Nb2  1  0.665607  0.334393  0.927454  1
  Nb  Nb3  1  0.331732  0.668268  0.065666  1
  Cr  Cr4  1  0.827220  0.172780  0.250000  1
  Co  Co5  1  0.834952  0.648596  0.250000  1
  Co  Co6  1  0.351404  0.165048  0.250000  1
  Co  Co7  1  0.170150  0.829850  0.750000  1
  Co  Co8  1  0.169882  0.344113  0.750000  1
  Co  Co9  1  0.655887  0.830118  0.750000  1
  Os  Os10  1  0.997914  0.002086  0.499525  1
  Os  Os11  1  0.997914  0.002086  0.000475  1
