# generated using pymatgen
data_Ho4TaOs7
_symmetry_space_group_name_H-M   'P 1'
_cell_length_a   5.28324332
_cell_length_b   5.28324275
_cell_length_c   8.94062200
_cell_angle_alpha   90.00000000
_cell_angle_beta   90.00000000
_cell_angle_gamma   117.06545777
_symmetry_Int_Tables_number   1
_chemical_formula_structural   Ho4TaOs7
_chemical_formula_sum   'Ho4 Ta1 Os7'
_cell_volume   222.22690194
_cell_formula_units_Z   1
loop_
 _symmetry_equiv_pos_site_id
 _symmetry_equiv_pos_as_xyz
  1  'x, y, z'
loop_
 _atom_site_type_symbol
 _atom_site_label
 _atom_site_symmetry_multiplicity
 _atom_site_fract_x
 _atom_site_fract_y
 _atom_site_fract_z
 _atom_site_occupancy
  Ho  Ho0  1  0.329374  0.670626  0.440099  1
  Ho  Ho1  1  0.666744  0.333256  0.568720  1
  Ho  Ho2  1  0.666744  0.333256  0.931280  1
  Ho  Ho3  1  0.329374  0.670626  0.059901  1
  Ta  Ta4  1  0.837330  0.162670  0.250000  1
  Os  Os5  1  0.997707  0.002293  0.505639  1
  Os  Os6  1  0.997707  0.002293  0.994361  1
  Os  Os7  1  0.822840  0.652495  0.250000  1
  Os  Os8  1  0.347505  0.177160  0.250000  1
  Os  Os9  1  0.174330  0.825670  0.750000  1
  Os  Os10  1  0.173419  0.343075  0.750000  1
  Os  Os11  1  0.656925  0.826581  0.750000  1
