# generated using pymatgen
data_Hf5In3P
_symmetry_space_group_name_H-M   'P 1'
_cell_length_a   5.96846800
_cell_length_b   8.54327489
_cell_length_c   8.54327700
_cell_angle_alpha   119.99680875
_cell_angle_beta   90.00000000
_cell_angle_gamma   90.00000000
_symmetry_Int_Tables_number   1
_chemical_formula_structural   Hf5In3P
_chemical_formula_sum   'Hf10 In6 P2'
_cell_volume   377.27352898
_cell_formula_units_Z   2
loop_
 _symmetry_equiv_pos_site_id
 _symmetry_equiv_pos_as_xyz
  1  'x, y, z'
loop_
 _atom_site_type_symbol
 _atom_site_label
 _atom_site_symmetry_multiplicity
 _atom_site_fract_x
 _atom_site_fract_y
 _atom_site_fract_z
 _atom_site_occupancy
  Hf  Hf0  1  0.250001  0.246891  0.000009  1
  Hf  Hf1  1  0.750002  0.753111  0.999991  1
  Hf  Hf2  1  0.250001  0.000009  0.246887  1
  Hf  Hf3  1  0.749994  0.246869  0.246869  1
  Hf  Hf4  1  0.500002  0.666668  0.333329  1
  Hf  Hf5  1  0.000000  0.666669  0.333330  1
  Hf  Hf6  1  0.500002  0.333330  0.666668  1
  Hf  Hf7  1  0.000000  0.333332  0.666671  1
  Hf  Hf8  1  0.249997  0.753131  0.753131  1
  Hf  Hf9  1  0.750002  0.999991  0.753113  1
  In  In10  1  0.750002  0.396795  0.999993  1
  In  In11  1  0.250000  0.603205  0.000007  1
  In  In12  1  0.249998  0.396753  0.396753  1
  In  In13  1  0.750002  0.999993  0.396793  1
  In  In14  1  0.250000  0.000007  0.603205  1
  In  In15  1  0.749998  0.603247  0.603247  1
  P  P16  1  0.000001  0.000002  0.000002  1
  P  P17  1  0.499998  0.999998  0.999998  1
