# generated using pymatgen
data_K2CdGaF7
_symmetry_space_group_name_H-M   'P 1'
_cell_length_a   7.98733944
_cell_length_b   7.98733988
_cell_length_c   7.98734000
_cell_angle_alpha   120.52182799
_cell_angle_beta   117.47794141
_cell_angle_gamma   91.76076769
_symmetry_Int_Tables_number   1
_chemical_formula_structural   K2CdGaF7
_chemical_formula_sum   'K4 Cd2 Ga2 F14'
_cell_volume   365.27203510
_cell_formula_units_Z   2
loop_
 _symmetry_equiv_pos_site_id
 _symmetry_equiv_pos_as_xyz
  1  'x, y, z'
loop_
 _atom_site_type_symbol
 _atom_site_label
 _atom_site_symmetry_multiplicity
 _atom_site_fract_x
 _atom_site_fract_y
 _atom_site_fract_z
 _atom_site_occupancy
  K  K0  1  0.500000  0.500000  0.000000  1
  K  K1  1  0.000000  0.000000  0.000000  1
  K  K2  1  0.000000  0.500000  0.000000  1
  K  K3  1  0.000000  0.000000  0.500000  1
  Cd  Cd4  1  0.500000  0.500000  0.500000  1
  Cd  Cd5  1  0.500000  0.000000  0.000000  1
  Ga  Ga6  1  0.000000  0.500000  0.500000  1
  Ga  Ga7  1  0.500000  0.000000  0.500000  1
  F  F8  1  0.875204  0.580455  0.294749  1
  F  F9  1  0.214293  0.919545  0.294749  1
  F  F10  1  0.174234  0.787852  0.743830  1
  F  F11  1  0.455978  0.712148  0.386381  1
  F  F12  1  0.455978  0.069597  0.743830  1
  F  F13  1  0.174234  0.430403  0.386381  1
  F  F14  1  0.825766  0.569597  0.613619  1
  F  F15  1  0.544022  0.930403  0.256170  1
  F  F16  1  0.544022  0.287852  0.613619  1
  F  F17  1  0.825766  0.212148  0.256170  1
  F  F18  1  0.367561  0.250000  0.117561  1
  F  F19  1  0.124796  0.419545  0.705251  1
  F  F20  1  0.785707  0.080455  0.705251  1
  F  F21  1  0.632439  0.750000  0.882439  1
