# generated using pymatgen
data_Ce4IrPt3Pb2
_symmetry_space_group_name_H-M   'P 1'
_cell_length_a   7.97611351
_cell_length_b   7.97611351
_cell_length_c   3.69906100
_cell_angle_alpha   90.00000000
_cell_angle_beta   90.00000000
_cell_angle_gamma   89.92947317
_symmetry_Int_Tables_number   1
_chemical_formula_structural   Ce4IrPt3Pb2
_chemical_formula_sum   'Ce4 Ir1 Pt3 Pb2'
_cell_volume   235.32811497
_cell_formula_units_Z   1
loop_
 _symmetry_equiv_pos_site_id
 _symmetry_equiv_pos_as_xyz
  1  'x, y, z'
loop_
 _atom_site_type_symbol
 _atom_site_label
 _atom_site_symmetry_multiplicity
 _atom_site_fract_x
 _atom_site_fract_y
 _atom_site_fract_z
 _atom_site_occupancy
  Ce  Ce0  1  0.665696  0.172870  0.500001  1
  Ce  Ce1  1  0.178656  0.321343  0.500001  1
  Ce  Ce2  1  0.828768  0.671233  0.500001  1
  Ce  Ce3  1  0.327129  0.834305  0.500001  1
  Ir  Ir4  1  0.370659  0.129341  0.000000  1
  Pt  Pt5  1  0.872600  0.372477  0.000000  1
  Pt  Pt6  1  0.127523  0.627400  0.000000  1
  Pt  Pt7  1  0.628291  0.871709  0.000000  1
  Pb  Pb8  1  0.001663  0.000985  0.000000  1
  Pb  Pb9  1  0.499015  0.498337  0.000000  1
