# generated using pymatgen
data_Zr8Ta12Si15Au
_symmetry_space_group_name_H-M   'P 1'
_cell_length_a   6.92868796
_cell_length_b   6.89813315
_cell_length_c   12.77829115
_cell_angle_alpha   90.09978455
_cell_angle_beta   89.80070516
_cell_angle_gamma   90.07580376
_symmetry_Int_Tables_number   1
_chemical_formula_structural   Zr8Ta12Si15Au
_chemical_formula_sum   'Zr8 Ta12 Si15 Au1'
_cell_volume   610.73342965
_cell_formula_units_Z   1
loop_
 _symmetry_equiv_pos_site_id
 _symmetry_equiv_pos_as_xyz
  1  'x, y, z'
loop_
 _atom_site_type_symbol
 _atom_site_label
 _atom_site_symmetry_multiplicity
 _atom_site_fract_x
 _atom_site_fract_y
 _atom_site_fract_z
 _atom_site_occupancy
  Zr  Zr0  1  0.999022  0.660883  0.030009  1
  Zr  Zr1  1  0.995040  0.329605  0.532362  1
  Zr  Zr2  1  0.660454  0.000884  0.970262  1
  Zr  Zr3  1  0.159707  0.498797  0.782094  1
  Zr  Zr4  1  0.833331  0.497294  0.276493  1
  Zr  Zr5  1  0.499349  0.158738  0.217340  1
  Zr  Zr6  1  0.500221  0.840732  0.720128  1
  Zr  Zr7  1  0.349333  0.003615  0.470008  1
  Ta  Ta8  1  0.358494  0.500505  0.372808  1
  Ta  Ta9  1  0.839613  0.004707  0.368528  1
  Ta  Ta10  1  0.004229  0.153439  0.125850  1
  Ta  Ta11  1  0.993230  0.847793  0.634118  1
  Ta  Ta12  1  0.653148  0.494665  0.877443  1
  Ta  Ta13  1  0.503752  0.348020  0.624129  1
  Ta  Ta14  1  0.494967  0.653232  0.122958  1
  Ta  Ta15  1  0.153520  0.004213  0.873184  1
  Ta  Ta16  1  0.661608  0.670314  0.502750  1
  Ta  Ta17  1  0.830198  0.169478  0.750558  1
  Ta  Ta18  1  0.172973  0.833904  0.246204  1
  Ta  Ta19  1  0.330418  0.330549  0.000069  1
  Si  Si20  1  0.956547  0.297854  0.936384  1
  Si  Si21  1  0.705579  0.042901  0.563188  1
  Si  Si22  1  0.199540  0.457044  0.186833  1
  Si  Si23  1  0.798421  0.543286  0.686605  1
  Si  Si24  1  0.456383  0.201384  0.813768  1
  Si  Si25  1  0.543999  0.798971  0.313643  1
  Si  Si26  1  0.299037  0.957252  0.062504  1
  Si  Si27  1  0.863881  0.791772  0.824478  1
  Si  Si28  1  0.136582  0.207082  0.323992  1
  Si  Si29  1  0.792434  0.863778  0.176754  1
  Si  Si30  1  0.292770  0.636358  0.573324  1
  Si  Si31  1  0.707394  0.365031  0.071832  1
  Si  Si32  1  0.638235  0.294674  0.428622  1
  Si  Si33  1  0.364812  0.707839  0.926582  1
  Si  Si34  1  0.208955  0.135037  0.677354  1
  Au  Au35  1  0.042822  0.698368  0.436841  1
