# generated using pymatgen
data_Ta2ZnF12
_symmetry_space_group_name_H-M   'P 1'
_cell_length_a   5.58362810
_cell_length_b   11.32147009
_cell_length_c   5.59993979
_cell_angle_alpha   57.65187193
_cell_angle_beta   57.10873545
_cell_angle_gamma   57.25466797
_symmetry_Int_Tables_number   1
_chemical_formula_structural   Ta2ZnF12
_chemical_formula_sum   'Ta2 Zn1 F12'
_cell_volume   234.96741623
_cell_formula_units_Z   1
loop_
 _symmetry_equiv_pos_site_id
 _symmetry_equiv_pos_as_xyz
  1  'x, y, z'
loop_
 _atom_site_type_symbol
 _atom_site_label
 _atom_site_symmetry_multiplicity
 _atom_site_fract_x
 _atom_site_fract_y
 _atom_site_fract_z
 _atom_site_occupancy
  Ta  Ta0  1  0.496726  0.240737  0.515926  1
  Ta  Ta1  1  0.503274  0.759263  0.484074  1
  Zn  Zn2  1  0.000000  0.500000  0.000000  1
  F  F3  1  0.136325  0.200085  0.725456  1
  F  F4  1  0.174874  0.672940  0.743334  1
  F  F5  1  0.350421  0.373639  0.166268  1
  F  F6  1  0.389056  0.861937  0.146272  1
  F  F7  1  0.737807  0.080177  0.374802  1
  F  F8  1  0.738352  0.579499  0.351822  1
  F  F9  1  0.261648  0.420501  0.648178  1
  F  F10  1  0.262193  0.919823  0.625198  1
  F  F11  1  0.610944  0.138063  0.853728  1
  F  F12  1  0.649579  0.626361  0.833732  1
  F  F13  1  0.825126  0.327060  0.256666  1
  F  F14  1  0.863675  0.799915  0.274544  1
