# generated using pymatgen
data_Sr2TcPtF12
_symmetry_space_group_name_H-M   'P 1'
_cell_length_a   5.54124557
_cell_length_b   5.51667098
_cell_length_c   10.78503000
_cell_angle_alpha   75.33937141
_cell_angle_beta   75.04335885
_cell_angle_gamma   59.62354862
_symmetry_Int_Tables_number   1
_chemical_formula_structural   Sr2TcPtF12
_chemical_formula_sum   'Sr2 Tc1 Pt1 F12'
_cell_volume   271.80643843
_cell_formula_units_Z   1
loop_
 _symmetry_equiv_pos_site_id
 _symmetry_equiv_pos_as_xyz
  1  'x, y, z'
loop_
 _atom_site_type_symbol
 _atom_site_label
 _atom_site_symmetry_multiplicity
 _atom_site_fract_x
 _atom_site_fract_y
 _atom_site_fract_z
 _atom_site_occupancy
  Sr  Sr0  1  0.498072  0.498408  0.505174  1
  Sr  Sr1  1  0.002137  0.001413  0.994811  1
  Tc  Tc2  1  0.249778  0.250179  0.250066  1
  Pt  Pt3  1  0.750376  0.749943  0.749893  1
  F  F4  1  0.491157  0.804113  0.638223  1
  F  F5  1  0.493775  0.222604  0.362300  1
  F  F6  1  0.804531  0.066570  0.637563  1
  F  F7  1  0.221603  0.921010  0.362556  1
  F  F8  1  0.696094  0.433436  0.862319  1
  F  F9  1  0.277740  0.579099  0.137586  1
  F  F10  1  0.009467  0.695838  0.861623  1
  F  F11  1  0.005287  0.277553  0.137833  1
  F  F12  1  0.581659  0.002448  0.137672  1
  F  F13  1  0.431103  0.011558  0.862448  1
  F  F14  1  0.917925  0.497798  0.362329  1
  F  F15  1  0.069295  0.488028  0.637605  1
