# generated using pymatgen
data_TbNdLu(Ga2Ni3)3
_symmetry_space_group_name_H-M   'P 1'
_cell_length_a   8.78245800
_cell_length_b   8.78245859
_cell_length_c   4.10706000
_cell_angle_alpha   90.00000000
_cell_angle_beta   90.00000000
_cell_angle_gamma   119.99999675
_symmetry_Int_Tables_number   1
_chemical_formula_structural   TbNdLu(Ga2Ni3)3
_chemical_formula_sum   'Tb1 Nd1 Lu1 Ga6 Ni9'
_cell_volume   274.34300160
_cell_formula_units_Z   1
loop_
 _symmetry_equiv_pos_site_id
 _symmetry_equiv_pos_as_xyz
  1  'x, y, z'
loop_
 _atom_site_type_symbol
 _atom_site_label
 _atom_site_symmetry_multiplicity
 _atom_site_fract_x
 _atom_site_fract_y
 _atom_site_fract_z
 _atom_site_occupancy
  Tb  Tb0  1  0.666667  0.333333  0.500000  1
  Nd  Nd1  1  0.333333  0.666667  0.500000  1
  Lu  Lu2  1  0.000000  0.000000  0.000000  1
  Ga  Ga3  1  0.481651  0.479998  0.000000  1
  Ga  Ga4  1  0.520002  0.001653  0.000000  1
  Ga  Ga5  1  0.998347  0.518349  0.000000  1
  Ga  Ga6  1  0.733439  0.732686  0.500000  1
  Ga  Ga7  1  0.267314  0.000752  0.500000  1
  Ga  Ga8  1  0.999248  0.266561  0.500000  1
  Ni  Ni9  1  0.828074  0.196884  0.000000  1
  Ni  Ni10  1  0.803116  0.631189  0.000000  1
  Ni  Ni11  1  0.368811  0.171926  0.000000  1
  Ni  Ni12  1  0.194354  0.829158  0.000000  1
  Ni  Ni13  1  0.634804  0.805646  0.000000  1
  Ni  Ni14  1  0.170842  0.365196  0.000000  1
  Ni  Ni15  1  0.290872  0.289762  0.500000  1
  Ni  Ni16  1  0.710238  0.001110  0.500000  1
  Ni  Ni17  1  0.998890  0.709128  0.500000  1
