# generated using pymatgen
data_Ho2Ti2ReSi4
_symmetry_space_group_name_H-M   'P 1'
_cell_length_a   6.92931100
_cell_length_b   6.92931100
_cell_length_c   12.76921400
_cell_angle_alpha   90.00000000
_cell_angle_beta   90.00000000
_cell_angle_gamma   90.00000000
_symmetry_Int_Tables_number   1
_chemical_formula_structural   Ho2Ti2ReSi4
_chemical_formula_sum   'Ho8 Ti8 Re4 Si16'
_cell_volume   613.11829137
_cell_formula_units_Z   4
loop_
 _symmetry_equiv_pos_site_id
 _symmetry_equiv_pos_as_xyz
  1  'x, y, z'
loop_
 _atom_site_type_symbol
 _atom_site_label
 _atom_site_symmetry_multiplicity
 _atom_site_fract_x
 _atom_site_fract_y
 _atom_site_fract_z
 _atom_site_occupancy
  Ho  Ho0  1  0.340684  0.001187  0.468876  1
  Ho  Ho1  1  0.498813  0.840684  0.718876  1
  Ho  Ho2  1  0.501187  0.159316  0.218876  1
  Ho  Ho3  1  0.840684  0.498813  0.281124  1
  Ho  Ho4  1  0.159316  0.501187  0.781124  1
  Ho  Ho5  1  0.659316  0.998813  0.968876  1
  Ho  Ho6  1  0.001187  0.340684  0.531124  1
  Ho  Ho7  1  0.998813  0.659316  0.031124  1
  Ti  Ti8  1  0.151757  0.005613  0.876197  1
  Ti  Ti9  1  0.494387  0.651757  0.126197  1
  Ti  Ti10  1  0.505613  0.348243  0.626197  1
  Ti  Ti11  1  0.651757  0.494387  0.873803  1
  Ti  Ti12  1  0.348243  0.505613  0.373803  1
  Ti  Ti13  1  0.848243  0.994387  0.376197  1
  Ti  Ti14  1  0.005613  0.151757  0.123803  1
  Ti  Ti15  1  0.994387  0.848243  0.623803  1
  Re  Re16  1  0.328019  0.328019  0.000000  1
  Re  Re17  1  0.171981  0.828019  0.250000  1
  Re  Re18  1  0.828019  0.171981  0.750000  1
  Re  Re19  1  0.671981  0.671981  0.500000  1
  Si  Si20  1  0.200350  0.130423  0.683414  1
  Si  Si21  1  0.369577  0.700350  0.933414  1
  Si  Si22  1  0.630423  0.299650  0.433414  1
  Si  Si23  1  0.700350  0.369577  0.066586  1
  Si  Si24  1  0.299650  0.630423  0.566586  1
  Si  Si25  1  0.799650  0.869577  0.183414  1
  Si  Si26  1  0.130423  0.200350  0.316586  1
  Si  Si27  1  0.869577  0.799650  0.816586  1
  Si  Si28  1  0.291607  0.952651  0.066424  1
  Si  Si29  1  0.547349  0.791607  0.316424  1
  Si  Si30  1  0.452651  0.208393  0.816424  1
  Si  Si31  1  0.791607  0.547349  0.683576  1
  Si  Si32  1  0.208393  0.452651  0.183576  1
  Si  Si33  1  0.708393  0.047349  0.566424  1
  Si  Si34  1  0.952651  0.291607  0.933576  1
  Si  Si35  1  0.047349  0.708393  0.433576  1
