# generated using pymatgen
data_Ag2Bi2IrRu3O14
_symmetry_space_group_name_H-M   'P 1'
_cell_length_a   7.21211901
_cell_length_b   7.28785074
_cell_length_c   7.28785189
_cell_angle_alpha   60.90006508
_cell_angle_beta   60.11501618
_cell_angle_gamma   60.11501167
_symmetry_Int_Tables_number   1
_chemical_formula_structural   Ag2Bi2IrRu3O14
_chemical_formula_sum   'Ag2 Bi2 Ir1 Ru3 O14'
_cell_volume   273.13505758
_cell_formula_units_Z   1
loop_
 _symmetry_equiv_pos_site_id
 _symmetry_equiv_pos_as_xyz
  1  'x, y, z'
loop_
 _atom_site_type_symbol
 _atom_site_label
 _atom_site_symmetry_multiplicity
 _atom_site_fract_x
 _atom_site_fract_y
 _atom_site_fract_z
 _atom_site_occupancy
  Ag  Ag0  1  0.625000  0.125000  0.125000  1
  Ag  Ag1  1  0.125000  0.125000  0.125000  1
  Bi  Bi2  1  0.125000  0.125000  0.625000  1
  Bi  Bi3  1  0.125000  0.625000  0.125000  1
  Ir  Ir4  1  0.125000  0.625000  0.625000  1
  Ru  Ru5  1  0.625000  0.625000  0.125000  1
  Ru  Ru6  1  0.625000  0.125000  0.625000  1
  Ru  Ru7  1  0.625000  0.625000  0.625000  1
  O  O8  1  0.259276  0.240612  0.240612  1
  O  O9  1  0.990724  0.009388  0.009388  1
  O  O10  1  0.540215  0.944595  0.564558  1
  O  O11  1  0.297453  0.688735  0.302908  1
  O  O12  1  0.540215  0.564558  0.944595  1
  O  O13  1  0.957465  0.543194  0.543194  1
  O  O14  1  0.562942  0.936748  0.936748  1
  O  O15  1  0.952547  0.947092  0.561265  1
  O  O16  1  0.952547  0.561265  0.947092  1
  O  O17  1  0.687058  0.313252  0.313252  1
  O  O18  1  0.292535  0.706806  0.706806  1
  O  O19  1  0.709785  0.305405  0.685442  1
  O  O20  1  0.297453  0.302908  0.688735  1
  O  O21  1  0.709785  0.685442  0.305405  1
