# generated using pymatgen
data_Sr5Pu5O19
_symmetry_space_group_name_H-M   'P 1'
_cell_length_a   6.77990210
_cell_length_b   7.70057735
_cell_length_c   8.78480836
_cell_angle_alpha   96.93655720
_cell_angle_beta   97.40264703
_cell_angle_gamma   107.15022249
_symmetry_Int_Tables_number   1
_chemical_formula_structural   Sr5Pu5O19
_chemical_formula_sum   'Sr5 Pu5 O19'
_cell_volume   428.45742790
_cell_formula_units_Z   1
loop_
 _symmetry_equiv_pos_site_id
 _symmetry_equiv_pos_as_xyz
  1  'x, y, z'
loop_
 _atom_site_type_symbol
 _atom_site_label
 _atom_site_symmetry_multiplicity
 _atom_site_fract_x
 _atom_site_fract_y
 _atom_site_fract_z
 _atom_site_occupancy
  Sr  Sr0  1  0.808177  0.109393  0.604561  1
  Sr  Sr1  1  0.375690  0.289826  0.795824  1
  Sr  Sr2  1  0.607063  0.703511  0.206443  1
  Sr  Sr3  1  0.997357  0.507643  0.997146  1
  Sr  Sr4  1  0.204578  0.902898  0.389896  1
  Pu  Pu5  1  0.780275  0.596917  0.602513  1
  Pu  Pu6  1  0.592784  0.201554  0.194300  1
  Pu  Pu7  1  0.988734  0.012687  0.004602  1
  Pu  Pu8  1  0.416036  0.800790  0.807877  1
  Pu  Pu9  1  0.211396  0.391423  0.395026  1
  O  O10  1  0.286886  0.013793  0.944859  1
  O  O11  1  0.439165  0.977871  0.663760  1
  O  O12  1  0.022040  0.211699  0.877352  1
  O  O13  1  0.724213  0.401407  0.728582  1
  O  O14  1  0.166583  0.189869  0.520230  1
  O  O15  1  0.379005  0.614099  0.943290  1
  O  O16  1  0.928802  0.264021  0.192515  1
  O  O17  1  0.950464  0.430852  0.487177  1
  O  O18  1  0.767102  0.840960  0.784511  1
  O  O19  1  0.561080  0.433177  0.371594  1
  O  O20  1  0.412099  0.568880  0.618969  1
  O  O21  1  0.254462  0.154016  0.216664  1
  O  O22  1  0.082208  0.690584  0.753850  1
  O  O23  1  0.618355  0.385198  0.058889  1
  O  O24  1  0.849617  0.792390  0.475903  1
  O  O25  1  0.248898  0.600539  0.279011  1
  O  O26  1  0.958875  0.804530  0.121816  1
  O  O27  1  0.577031  0.022669  0.336855  1
  O  O28  1  0.654941  0.974445  0.034225  1
