# generated using pymatgen
data_Lu4Sc(In2Pd)2
_symmetry_space_group_name_H-M   'P 1'
_cell_length_a   3.53832200
_cell_length_b   7.96212900
_cell_length_c   17.92518900
_cell_angle_alpha   90.00000000
_cell_angle_beta   90.00000000
_cell_angle_gamma   90.00000000
_symmetry_Int_Tables_number   1
_chemical_formula_structural   Lu4Sc(In2Pd)2
_chemical_formula_sum   'Lu8 Sc2 In8 Pd4'
_cell_volume   504.99875314
_cell_formula_units_Z   2
loop_
 _symmetry_equiv_pos_site_id
 _symmetry_equiv_pos_as_xyz
  1  'x, y, z'
loop_
 _atom_site_type_symbol
 _atom_site_label
 _atom_site_symmetry_multiplicity
 _atom_site_fract_x
 _atom_site_fract_y
 _atom_site_fract_z
 _atom_site_occupancy
  Lu  Lu0  1  0.000000  0.738187  0.279719  1
  Lu  Lu1  1  0.000000  0.261813  0.720281  1
  Lu  Lu2  1  0.000000  0.761813  0.779719  1
  Lu  Lu3  1  0.000000  0.238187  0.220281  1
  Lu  Lu4  1  0.000000  0.614565  0.082240  1
  Lu  Lu5  1  0.000000  0.385435  0.917760  1
  Lu  Lu6  1  0.000000  0.885435  0.582240  1
  Lu  Lu7  1  0.000000  0.114565  0.417760  1
  Sc  Sc8  1  0.000000  0.500000  0.500000  1
  Sc  Sc9  1  0.000000  0.000000  0.000000  1
  In  In10  1  0.500000  0.717123  0.933049  1
  In  In11  1  0.500000  0.282877  0.066951  1
  In  In12  1  0.500000  0.782877  0.433049  1
  In  In13  1  0.500000  0.217123  0.566951  1
  In  In14  1  0.500000  0.582358  0.646724  1
  In  In15  1  0.500000  0.417642  0.353276  1
  In  In16  1  0.500000  0.917642  0.146724  1
  In  In17  1  0.500000  0.082358  0.853276  1
  Pd  Pd18  1  0.500000  0.522336  0.195928  1
  Pd  Pd19  1  0.500000  0.477664  0.804072  1
  Pd  Pd20  1  0.500000  0.977664  0.695928  1
  Pd  Pd21  1  0.500000  0.022336  0.304072  1
