# generated using pymatgen
data_CeTh(Al5Tc)4
_symmetry_space_group_name_H-M   'P 1'
_cell_length_a   6.94313850
_cell_length_b   6.94313752
_cell_length_c   9.24096700
_cell_angle_alpha   90.00000000
_cell_angle_beta   90.00000000
_cell_angle_gamma   97.03865330
_symmetry_Int_Tables_number   1
_chemical_formula_structural   CeTh(Al5Tc)4
_chemical_formula_sum   'Ce1 Th1 Al20 Tc4'
_cell_volume   442.12355161
_cell_formula_units_Z   1
loop_
 _symmetry_equiv_pos_site_id
 _symmetry_equiv_pos_as_xyz
  1  'x, y, z'
loop_
 _atom_site_type_symbol
 _atom_site_label
 _atom_site_symmetry_multiplicity
 _atom_site_fract_x
 _atom_site_fract_y
 _atom_site_fract_z
 _atom_site_occupancy
  Ce  Ce0  1  0.126063  0.873937  0.250000  1
  Th  Th1  1  0.874289  0.125711  0.750000  1
  Al  Al2  1  0.591356  0.862691  0.250000  1
  Al  Al3  1  0.782320  0.522901  0.250000  1
  Al  Al4  1  0.158370  0.841630  0.901477  1
  Al  Al5  1  0.405129  0.136455  0.750000  1
  Al  Al6  1  0.621862  0.378138  0.956756  1
  Al  Al7  1  0.841783  0.158217  0.399057  1
  Al  Al8  1  0.772857  0.771752  0.001023  1
  Al  Al9  1  0.863545  0.594871  0.750000  1
  Al  Al10  1  0.841783  0.158217  0.100943  1
  Al  Al11  1  0.219284  0.478736  0.750000  1
  Al  Al12  1  0.158370  0.841630  0.598523  1
  Al  Al13  1  0.772857  0.771752  0.498977  1
  Al  Al14  1  0.477099  0.217680  0.250000  1
  Al  Al15  1  0.621862  0.378138  0.543244  1
  Al  Al16  1  0.228248  0.227143  0.498977  1
  Al  Al17  1  0.376787  0.623213  0.453589  1
  Al  Al18  1  0.137309  0.408644  0.250000  1
  Al  Al19  1  0.521264  0.780716  0.750000  1
  Al  Al20  1  0.376787  0.623213  0.046411  1
  Al  Al21  1  0.228248  0.227143  0.001023  1
  Tc  Tc22  1  0.501388  0.000122  0.999117  1
  Tc  Tc23  1  0.501388  0.000122  0.500883  1
  Tc  Tc24  1  0.999878  0.498612  0.999117  1
  Tc  Tc25  1  0.999878  0.498612  0.500883  1
