# generated using pymatgen
data_Hf8Co2ReAu
_symmetry_space_group_name_H-M   'P 1'
_cell_length_a   8.65707280
_cell_length_b   8.65697070
_cell_length_c   8.66460700
_cell_angle_alpha   59.97234520
_cell_angle_beta   59.97271507
_cell_angle_gamma   59.89341629
_symmetry_Int_Tables_number   1
_chemical_formula_structural   Hf8Co2ReAu
_chemical_formula_sum   'Hf16 Co4 Re2 Au2'
_cell_volume   458.60594856
_cell_formula_units_Z   2
loop_
 _symmetry_equiv_pos_site_id
 _symmetry_equiv_pos_as_xyz
  1  'x, y, z'
loop_
 _atom_site_type_symbol
 _atom_site_label
 _atom_site_symmetry_multiplicity
 _atom_site_fract_x
 _atom_site_fract_y
 _atom_site_fract_z
 _atom_site_occupancy
  Hf  Hf0  1  0.696267  0.103775  0.100010  1
  Hf  Hf1  1  0.103775  0.696298  0.099992  1
  Hf  Hf2  1  0.104939  0.104925  0.689669  1
  Hf  Hf3  1  0.104898  0.104884  0.100482  1
  Hf  Hf4  1  0.311553  0.311556  0.688462  1
  Hf  Hf5  1  0.687742  0.687739  0.312236  1
  Hf  Hf6  1  0.313406  0.675014  0.313696  1
  Hf  Hf7  1  0.675026  0.313346  0.697963  1
  Hf  Hf8  1  0.675016  0.313399  0.313688  1
  Hf  Hf9  1  0.313350  0.675026  0.697948  1
  Hf  Hf10  1  0.942771  0.942771  0.557196  1
  Hf  Hf11  1  0.548487  0.548492  0.951501  1
  Hf  Hf12  1  0.948160  0.556646  0.938926  1
  Hf  Hf13  1  0.556692  0.948128  0.556271  1
  Hf  Hf14  1  0.556647  0.948148  0.938921  1
  Hf  Hf15  1  0.948143  0.556695  0.556254  1
  Co  Co16  1  0.323015  0.895250  0.890852  1
  Co  Co17  1  0.895248  0.323012  0.890855  1
  Co  Co18  1  0.893708  0.893728  0.325074  1
  Co  Co19  1  0.893695  0.893712  0.887453  1
  Re  Re20  1  0.336324  0.336318  0.997036  1
  Re  Re21  1  0.336330  0.336326  0.330320  1
  Au  Au22  1  0.997102  0.337710  0.332596  1
  Au  Au23  1  0.337704  0.997099  0.332598  1
