# generated using pymatgen
data_Hf2SiGeOs2
_symmetry_space_group_name_H-M   'P 1'
_cell_length_a   7.67065438
_cell_length_b   7.67386485
_cell_length_c   7.67383859
_cell_angle_alpha   127.79189335
_cell_angle_beta   122.31559594
_cell_angle_gamma   81.53026958
_symmetry_Int_Tables_number   1
_chemical_formula_structural   Hf2SiGeOs2
_chemical_formula_sum   'Hf6 Si3 Ge3 Os6'
_cell_volume   290.47045464
_cell_formula_units_Z   3
loop_
 _symmetry_equiv_pos_site_id
 _symmetry_equiv_pos_as_xyz
  1  'x, y, z'
loop_
 _atom_site_type_symbol
 _atom_site_label
 _atom_site_symmetry_multiplicity
 _atom_site_fract_x
 _atom_site_fract_y
 _atom_site_fract_z
 _atom_site_occupancy
  Hf  Hf0  1  0.551300  0.101481  0.047244  1
  Hf  Hf1  1  0.443492  0.489312  0.543065  1
  Hf  Hf2  1  0.971023  0.489552  0.022763  1
  Hf  Hf3  1  0.032364  0.055570  0.528620  1
  Hf  Hf4  1  0.756485  0.916908  0.664401  1
  Hf  Hf5  1  0.246719  0.911918  0.161310  1
  Si  Si6  1  0.173699  0.163063  0.001953  1
  Si  Si7  1  0.776334  0.532393  0.255999  1
  Si  Si8  1  0.223555  0.479408  0.755381  1
  Ge  Ge9  1  0.338653  0.828207  0.500428  1
  Ge  Ge10  1  0.661482  0.162821  0.489516  1
  Ge  Ge11  1  0.826931  0.827907  0.990610  1
  Os  Os12  1  0.150431  0.748442  0.653952  1
  Os  Os13  1  0.849786  0.496598  0.589042  1
  Os  Os14  1  0.591960  0.740355  0.090468  1
  Os  Os15  1  0.402283  0.489937  0.143267  1
  Os  Os16  1  0.500417  0.254041  0.755075  1
  Os  Os17  1  0.003084  0.256088  0.250904  1
