# generated using pymatgen
data_DyEr5Si4(GeRu2)2
_symmetry_space_group_name_H-M   'P 1'
_cell_length_a   5.71793241
_cell_length_b   5.71793223
_cell_length_c   13.82632200
_cell_angle_alpha   90.00000000
_cell_angle_beta   90.00000000
_cell_angle_gamma   137.29540754
_symmetry_Int_Tables_number   1
_chemical_formula_structural   DyEr5Si4(GeRu2)2
_chemical_formula_sum   'Dy1 Er5 Si4 Ge2 Ru4'
_cell_volume   306.58744545
_cell_formula_units_Z   1
loop_
 _symmetry_equiv_pos_site_id
 _symmetry_equiv_pos_as_xyz
  1  'x, y, z'
loop_
 _atom_site_type_symbol
 _atom_site_label
 _atom_site_symmetry_multiplicity
 _atom_site_fract_x
 _atom_site_fract_y
 _atom_site_fract_z
 _atom_site_occupancy
  Dy  Dy0  1  0.644495  0.355505  0.250000  1
  Er  Er1  1  0.924581  0.075419  0.387481  1
  Er  Er2  1  0.075350  0.924650  0.612694  1
  Er  Er3  1  0.924581  0.075419  0.112519  1
  Er  Er4  1  0.075350  0.924650  0.887306  1
  Er  Er5  1  0.354983  0.645017  0.750000  1
  Si  Si6  1  0.616491  0.383509  0.461502  1
  Si  Si7  1  0.383439  0.616561  0.538853  1
  Si  Si8  1  0.616491  0.383509  0.038498  1
  Si  Si9  1  0.383439  0.616561  0.961147  1
  Ge  Ge10  1  0.338726  0.661274  0.250000  1
  Ge  Ge11  1  0.661809  0.338191  0.750000  1
  Ru  Ru12  1  0.788389  0.211611  0.920449  1
  Ru  Ru13  1  0.211744  0.788256  0.079067  1
  Ru  Ru14  1  0.788389  0.211611  0.579551  1
  Ru  Ru15  1  0.211744  0.788256  0.420933  1
