# generated using pymatgen
data_Te19Pd
_symmetry_space_group_name_H-M   'P 1'
_cell_length_a   7.96740280
_cell_length_b   8.94102754
_cell_length_c   10.12016500
_cell_angle_alpha   103.09486428
_cell_angle_beta   96.93454965
_cell_angle_gamma   107.31739481
_symmetry_Int_Tables_number   1
_chemical_formula_structural   Te19Pd
_chemical_formula_sum   'Te19 Pd1'
_cell_volume   656.48094483
_cell_formula_units_Z   1
loop_
 _symmetry_equiv_pos_site_id
 _symmetry_equiv_pos_as_xyz
  1  'x, y, z'
loop_
 _atom_site_type_symbol
 _atom_site_label
 _atom_site_symmetry_multiplicity
 _atom_site_fract_x
 _atom_site_fract_y
 _atom_site_fract_z
 _atom_site_occupancy
  Te  Te0  1  0.802113  0.575356  0.619900  1
  Te  Te1  1  0.602262  0.188126  0.191473  1
  Te  Te2  1  0.397738  0.811874  0.808527  1
  Te  Te3  1  0.603324  0.689598  0.189979  1
  Te  Te4  1  0.197887  0.424644  0.380100  1
  Te  Te5  1  0.396676  0.310402  0.810021  1
  Te  Te6  1  0.000000  0.000000  0.000000  1
  Te  Te7  1  0.199661  0.916151  0.398061  1
  Te  Te8  1  0.800339  0.083849  0.601939  1
  Te  Te9  1  0.734713  0.617843  0.921521  1
  Te  Te10  1  0.509858  0.248253  0.494276  1
  Te  Te11  1  0.704493  0.143829  0.911558  1
  Te  Te12  1  0.295507  0.856171  0.088442  1
  Te  Te13  1  0.490142  0.751747  0.505724  1
  Te  Te14  1  0.085605  0.475856  0.746566  1
  Te  Te15  1  0.265287  0.382157  0.078479  1
  Te  Te16  1  0.911967  0.030743  0.296528  1
  Te  Te17  1  0.088033  0.969257  0.703472  1
  Te  Te18  1  0.914395  0.524144  0.253434  1
  Pd  Pd19  1  0.000000  0.500000  0.000000  1
