# generated using pymatgen
data_TbYb3MnRu7
_symmetry_space_group_name_H-M   'P 1'
_cell_length_a   5.27288900
_cell_length_b   5.27288804
_cell_length_c   8.74057200
_cell_angle_alpha   90.00000000
_cell_angle_beta   90.00000000
_cell_angle_gamma   119.99999978
_symmetry_Int_Tables_number   1
_chemical_formula_structural   TbYb3MnRu7
_chemical_formula_sum   'Tb1 Yb3 Mn1 Ru7'
_cell_volume   210.45907921
_cell_formula_units_Z   1
loop_
 _symmetry_equiv_pos_site_id
 _symmetry_equiv_pos_as_xyz
  1  'x, y, z'
loop_
 _atom_site_type_symbol
 _atom_site_label
 _atom_site_symmetry_multiplicity
 _atom_site_fract_x
 _atom_site_fract_y
 _atom_site_fract_z
 _atom_site_occupancy
  Tb  Tb0  1  0.333333  0.666667  0.068130  1
  Yb  Yb1  1  0.333333  0.666667  0.435652  1
  Yb  Yb2  1  0.666667  0.333333  0.568734  1
  Yb  Yb3  1  0.666667  0.333333  0.929047  1
  Mn  Mn4  1  0.000000  0.000000  0.498525  1
  Ru  Ru5  1  0.000000  0.000000  0.999844  1
  Ru  Ru6  1  0.829584  0.170416  0.253070  1
  Ru  Ru7  1  0.829584  0.659168  0.253070  1
  Ru  Ru8  1  0.340832  0.170416  0.253070  1
  Ru  Ru9  1  0.169856  0.830144  0.746952  1
  Ru  Ru10  1  0.169856  0.339713  0.746952  1
  Ru  Ru11  1  0.660287  0.830144  0.746952  1
