# generated using pymatgen
data_YLu2Al2Ga3Ni
_symmetry_space_group_name_H-M   'P 1'
_cell_length_a   6.80169602
_cell_length_b   6.83118621
_cell_length_c   4.21736700
_cell_angle_alpha   90.00000000
_cell_angle_beta   90.00000000
_cell_angle_gamma   119.60440538
_symmetry_Int_Tables_number   1
_chemical_formula_structural   YLu2Al2Ga3Ni
_chemical_formula_sum   'Y1 Lu2 Al2 Ga3 Ni1'
_cell_volume   170.37380413
_cell_formula_units_Z   1
loop_
 _symmetry_equiv_pos_site_id
 _symmetry_equiv_pos_as_xyz
  1  'x, y, z'
loop_
 _atom_site_type_symbol
 _atom_site_label
 _atom_site_symmetry_multiplicity
 _atom_site_fract_x
 _atom_site_fract_y
 _atom_site_fract_z
 _atom_site_occupancy
  Y  Y0  1  0.589562  0.998705  0.500000  1
  Lu  Lu1  1  0.408565  0.408936  0.500000  1
  Lu  Lu2  1  0.998540  0.592034  0.500000  1
  Al  Al3  1  0.231333  0.001034  0.000000  1
  Al  Al4  1  0.002232  0.232817  0.000000  1
  Ga  Ga5  1  0.667939  0.334233  0.000000  1
  Ga  Ga6  1  0.328624  0.663675  0.000000  1
  Ga  Ga7  1  0.763685  0.762508  0.000000  1
  Ni  Ni8  1  0.009519  0.006056  0.500000  1
