# generated using pymatgen
data_SmLu(Si7Rh3)2
_symmetry_space_group_name_H-M   'P 1'
_cell_length_a   7.98893328
_cell_length_b   7.98893309
_cell_length_c   7.98893510
_cell_angle_alpha   57.07500178
_cell_angle_beta   57.07500479
_cell_angle_gamma   57.07500064
_symmetry_Int_Tables_number   1
_chemical_formula_structural   SmLu(Si7Rh3)2
_chemical_formula_sum   'Sm1 Lu1 Si14 Rh6'
_cell_volume   336.23135632
_cell_formula_units_Z   1
loop_
 _symmetry_equiv_pos_site_id
 _symmetry_equiv_pos_as_xyz
  1  'x, y, z'
loop_
 _atom_site_type_symbol
 _atom_site_label
 _atom_site_symmetry_multiplicity
 _atom_site_fract_x
 _atom_site_fract_y
 _atom_site_fract_z
 _atom_site_occupancy
  Sm  Sm0  1  0.500000  0.500000  0.500000  1
  Lu  Lu1  1  0.000000  0.000000  0.000000  1
  Si  Si2  1  0.750036  0.750036  0.750036  1
  Si  Si3  1  0.249964  0.249964  0.249964  1
  Si  Si4  1  0.852368  0.064542  0.672763  1
  Si  Si5  1  0.672763  0.852368  0.064542  1
  Si  Si6  1  0.064542  0.672763  0.852368  1
  Si  Si7  1  0.648960  0.828400  0.434234  1
  Si  Si8  1  0.434234  0.648960  0.828400  1
  Si  Si9  1  0.828400  0.434234  0.648960  1
  Si  Si10  1  0.171600  0.565766  0.351040  1
  Si  Si11  1  0.565766  0.351040  0.171600  1
  Si  Si12  1  0.351040  0.171600  0.565766  1
  Si  Si13  1  0.935458  0.327237  0.147632  1
  Si  Si14  1  0.327237  0.147632  0.935458  1
  Si  Si15  1  0.147632  0.935458  0.327237  1
  Rh  Rh16  1  0.068295  0.428395  0.751860  1
  Rh  Rh17  1  0.248140  0.931705  0.571605  1
  Rh  Rh18  1  0.571605  0.248140  0.931705  1
  Rh  Rh19  1  0.931705  0.571605  0.248140  1
  Rh  Rh20  1  0.428395  0.751860  0.068295  1
  Rh  Rh21  1  0.751860  0.068295  0.428395  1
