# generated using pymatgen
data_Ba2Cd3Pb
_symmetry_space_group_name_H-M   'P 1'
_cell_length_a   6.72580230
_cell_length_b   6.76166370
_cell_length_c   6.76166341
_cell_angle_alpha   133.88837387
_cell_angle_beta   101.90181736
_cell_angle_gamma   95.86269210
_symmetry_Int_Tables_number   1
_chemical_formula_structural   Ba2Cd3Pb
_chemical_formula_sum   'Ba2 Cd3 Pb1'
_cell_volume   203.33037367
_cell_formula_units_Z   1
loop_
 _symmetry_equiv_pos_site_id
 _symmetry_equiv_pos_as_xyz
  1  'x, y, z'
loop_
 _atom_site_type_symbol
 _atom_site_label
 _atom_site_symmetry_multiplicity
 _atom_site_fract_x
 _atom_site_fract_y
 _atom_site_fract_z
 _atom_site_occupancy
  Ba  Ba0  1  0.211624  0.457550  0.754074  1
  Ba  Ba1  1  0.791262  0.542319  0.248942  1
  Cd  Cd2  1  0.770223  0.829564  0.940658  1
  Cd  Cd3  1  0.611060  0.168913  0.442147  1
  Cd  Cd4  1  0.399004  0.842003  0.557001  1
  Pb  Pb5  1  0.216828  0.159650  0.057178  1
