# generated using pymatgen
data_Pr15Ho(CdRh)4
_symmetry_space_group_name_H-M   'P 1'
_cell_length_a   9.98706235
_cell_length_b   9.98706184
_cell_length_c   9.95575200
_cell_angle_alpha   60.10365223
_cell_angle_beta   60.10365391
_cell_angle_gamma   60.35140149
_symmetry_Int_Tables_number   1
_chemical_formula_structural   Pr15Ho(CdRh)4
_chemical_formula_sum   'Pr15 Ho1 Cd4 Rh4'
_cell_volume   705.11011219
_cell_formula_units_Z   1
loop_
 _symmetry_equiv_pos_site_id
 _symmetry_equiv_pos_as_xyz
  1  'x, y, z'
loop_
 _atom_site_type_symbol
 _atom_site_label
 _atom_site_symmetry_multiplicity
 _atom_site_fract_x
 _atom_site_fract_y
 _atom_site_fract_z
 _atom_site_occupancy
  Pr  Pr0  1  0.937041  0.937041  0.562959  1
  Pr  Pr1  1  0.563174  0.563174  0.936826  1
  Pr  Pr2  1  0.689369  0.689369  0.310631  1
  Pr  Pr3  1  0.151268  0.546675  0.151028  1
  Pr  Pr4  1  0.687709  0.310227  0.689316  1
  Pr  Pr5  1  0.151702  0.151702  0.149537  1
  Pr  Pr6  1  0.546675  0.151268  0.151028  1
  Pr  Pr7  1  0.687709  0.310227  0.312747  1
  Pr  Pr8  1  0.151702  0.151702  0.547058  1
  Pr  Pr9  1  0.310227  0.687709  0.312747  1
  Pr  Pr10  1  0.310227  0.687709  0.689316  1
  Pr  Pr11  1  0.938246  0.561924  0.564220  1
  Pr  Pr12  1  0.938246  0.561924  0.935610  1
  Pr  Pr13  1  0.561924  0.938246  0.564220  1
  Pr  Pr14  1  0.561924  0.938246  0.935610  1
  Ho  Ho15  1  0.311499  0.311499  0.688501  1
  Cd  Cd16  1  0.919919  0.919919  0.240107  1
  Cd  Cd17  1  0.240515  0.920727  0.919379  1
  Cd  Cd18  1  0.919919  0.919919  0.920055  1
  Cd  Cd19  1  0.920727  0.240515  0.919379  1
  Rh  Rh20  1  0.357603  0.357603  0.923509  1
  Rh  Rh21  1  0.358272  0.926798  0.357464  1
  Rh  Rh22  1  0.926798  0.358272  0.357464  1
  Rh  Rh23  1  0.357603  0.357603  0.361284  1
