# generated using pymatgen
data_Nd6BiO12
_symmetry_space_group_name_H-M   'P 1'
_cell_length_a   6.81468610
_cell_length_b   6.81468505
_cell_length_c   6.81468502
_cell_angle_alpha   98.89859634
_cell_angle_beta   98.89859848
_cell_angle_gamma   98.89858522
_symmetry_Int_Tables_number   1
_chemical_formula_structural   Nd6BiO12
_chemical_formula_sum   'Nd6 Bi1 O12'
_cell_volume   303.68503450
_cell_formula_units_Z   1
loop_
 _symmetry_equiv_pos_site_id
 _symmetry_equiv_pos_as_xyz
  1  'x, y, z'
loop_
 _atom_site_type_symbol
 _atom_site_label
 _atom_site_symmetry_multiplicity
 _atom_site_fract_x
 _atom_site_fract_y
 _atom_site_fract_z
 _atom_site_occupancy
  Nd  Nd0  1  0.859155  0.391205  0.697913  1
  Nd  Nd1  1  0.697913  0.859155  0.391205  1
  Nd  Nd2  1  0.391205  0.697913  0.859155  1
  Nd  Nd3  1  0.140845  0.608795  0.302087  1
  Nd  Nd4  1  0.302087  0.140845  0.608795  1
  Nd  Nd5  1  0.608795  0.302087  0.140845  1
  Bi  Bi6  1  0.000000  0.000000  0.000000  1
  O  O7  1  0.953256  0.308548  0.066212  1
  O  O8  1  0.066212  0.953256  0.308548  1
  O  O9  1  0.308548  0.066212  0.953256  1
  O  O10  1  0.046744  0.691452  0.933788  1
  O  O11  1  0.933788  0.046744  0.691452  1
  O  O12  1  0.691452  0.933788  0.046744  1
  O  O13  1  0.587478  0.177476  0.438890  1
  O  O14  1  0.438890  0.587478  0.177476  1
  O  O15  1  0.177476  0.438890  0.587478  1
  O  O16  1  0.412522  0.822524  0.561110  1
  O  O17  1  0.561110  0.412522  0.822524  1
  O  O18  1  0.822524  0.561110  0.412522  1
