# generated using pymatgen
data_Er16Co3Hg4Ru
_symmetry_space_group_name_H-M   'P 1'
_cell_length_a   9.43573865
_cell_length_b   9.43573858
_cell_length_c   9.43573934
_cell_angle_alpha   59.63044404
_cell_angle_beta   59.63044793
_cell_angle_gamma   59.63044063
_symmetry_Int_Tables_number   1
_chemical_formula_structural   Er16Co3Hg4Ru
_chemical_formula_sum   'Er16 Co3 Hg4 Ru1'
_cell_volume   589.04724751
_cell_formula_units_Z   1
loop_
 _symmetry_equiv_pos_site_id
 _symmetry_equiv_pos_as_xyz
  1  'x, y, z'
loop_
 _atom_site_type_symbol
 _atom_site_label
 _atom_site_symmetry_multiplicity
 _atom_site_fract_x
 _atom_site_fract_y
 _atom_site_fract_z
 _atom_site_occupancy
  Er  Er0  1  0.346311  0.346311  0.346311  1
  Er  Er1  1  0.351685  0.351685  0.956048  1
  Er  Er2  1  0.351685  0.956048  0.351685  1
  Er  Er3  1  0.956048  0.351685  0.351685  1
  Er  Er4  1  0.807117  0.188134  0.188134  1
  Er  Er5  1  0.186574  0.810976  0.810976  1
  Er  Er6  1  0.188134  0.807117  0.188134  1
  Er  Er7  1  0.810976  0.186574  0.810976  1
  Er  Er8  1  0.188134  0.188134  0.807117  1
  Er  Er9  1  0.810976  0.810976  0.186574  1
  Er  Er10  1  0.938763  0.562476  0.562476  1
  Er  Er11  1  0.558093  0.939748  0.939748  1
  Er  Er12  1  0.562476  0.938763  0.562476  1
  Er  Er13  1  0.939748  0.558093  0.939748  1
  Er  Er14  1  0.562476  0.562476  0.938763  1
  Er  Er15  1  0.939748  0.939748  0.558093  1
  Co  Co16  1  0.142218  0.142218  0.577986  1
  Co  Co17  1  0.142218  0.577986  0.142218  1
  Co  Co18  1  0.577986  0.142218  0.142218  1
  Hg  Hg19  1  0.583057  0.583057  0.583057  1
  Hg  Hg20  1  0.583270  0.583270  0.247416  1
  Hg  Hg21  1  0.583270  0.247416  0.583270  1
  Hg  Hg22  1  0.247416  0.583270  0.583270  1
  Ru  Ru23  1  0.141623  0.141623  0.141623  1
