# generated using pymatgen
data_Tb3Zr(MoN2)4
_symmetry_space_group_name_H-M   'P 1'
_cell_length_a   3.18676200
_cell_length_b   5.69411788
_cell_length_c   10.60128920
_cell_angle_alpha   90.33852743
_cell_angle_beta   90.00000000
_cell_angle_gamma   90.00000000
_symmetry_Int_Tables_number   1
_chemical_formula_structural   Tb3Zr(MoN2)4
_chemical_formula_sum   'Tb3 Zr1 Mo4 N8'
_cell_volume   192.36549975
_cell_formula_units_Z   1
loop_
 _symmetry_equiv_pos_site_id
 _symmetry_equiv_pos_as_xyz
  1  'x, y, z'
loop_
 _atom_site_type_symbol
 _atom_site_label
 _atom_site_symmetry_multiplicity
 _atom_site_fract_x
 _atom_site_fract_y
 _atom_site_fract_z
 _atom_site_occupancy
  Tb  Tb0  1  0.250000  0.581349  0.647802  1
  Tb  Tb1  1  0.750000  0.919317  0.146243  1
  Tb  Tb2  1  0.750000  0.420246  0.352574  1
  Zr  Zr3  1  0.250000  0.081369  0.849623  1
  Mo  Mo4  1  0.250000  0.430725  0.091217  1
  Mo  Mo5  1  0.250000  0.932604  0.406543  1
  Mo  Mo6  1  0.750000  0.563774  0.909242  1
  Mo  Mo7  1  0.750000  0.069569  0.594254  1
  N  N8  1  0.250000  0.167475  0.247090  1
  N  N9  1  0.250000  0.663882  0.248214  1
  N  N10  1  0.750000  0.847897  0.759117  1
  N  N11  1  0.750000  0.323430  0.754462  1
  N  N12  1  0.250000  0.765029  0.988456  1
  N  N13  1  0.250000  0.257409  0.508546  1
  N  N14  1  0.750000  0.234374  0.000439  1
  N  N15  1  0.750000  0.741552  0.496178  1
