# generated using pymatgen
data_Ac2Nd3(Sn5Ir2)2
_symmetry_space_group_name_H-M   'P 1'
_cell_length_a   14.31276800
_cell_length_b   14.31276800
_cell_length_c   4.72384700
_cell_angle_alpha   90.00000000
_cell_angle_beta   90.00000000
_cell_angle_gamma   90.00000000
_symmetry_Int_Tables_number   1
_chemical_formula_structural   Ac2Nd3(Sn5Ir2)2
_chemical_formula_sum   'Ac4 Nd6 Sn20 Ir8'
_cell_volume   967.70522577
_cell_formula_units_Z   2
loop_
 _symmetry_equiv_pos_site_id
 _symmetry_equiv_pos_as_xyz
  1  'x, y, z'
loop_
 _atom_site_type_symbol
 _atom_site_label
 _atom_site_symmetry_multiplicity
 _atom_site_fract_x
 _atom_site_fract_y
 _atom_site_fract_z
 _atom_site_occupancy
  Ac  Ac0  1  0.887201  0.387201  0.500000  1
  Ac  Ac1  1  0.112799  0.612799  0.500000  1
  Ac  Ac2  1  0.387201  0.112799  0.500000  1
  Ac  Ac3  1  0.612799  0.887201  0.500000  1
  Nd  Nd4  1  0.500000  0.500000  0.000000  1
  Nd  Nd5  1  0.000000  0.000000  0.000000  1
  Nd  Nd6  1  0.677328  0.177328  0.500000  1
  Nd  Nd7  1  0.322672  0.822672  0.500000  1
  Nd  Nd8  1  0.177328  0.322672  0.500000  1
  Nd  Nd9  1  0.822672  0.677328  0.500000  1
  Sn  Sn10  1  0.571171  0.071171  0.000000  1
  Sn  Sn11  1  0.428829  0.928829  0.000000  1
  Sn  Sn12  1  0.071171  0.428829  0.000000  1
  Sn  Sn13  1  0.928829  0.571171  0.000000  1
  Sn  Sn14  1  0.655384  0.697156  0.000000  1
  Sn  Sn15  1  0.344616  0.302844  0.000000  1
  Sn  Sn16  1  0.155384  0.802844  0.000000  1
  Sn  Sn17  1  0.844616  0.197156  0.000000  1
  Sn  Sn18  1  0.302844  0.655384  0.000000  1
  Sn  Sn19  1  0.697156  0.344616  0.000000  1
  Sn  Sn20  1  0.197156  0.155384  0.000000  1
  Sn  Sn21  1  0.802844  0.844616  0.000000  1
  Sn  Sn22  1  0.662044  0.506445  0.500000  1
  Sn  Sn23  1  0.337956  0.493555  0.500000  1
  Sn  Sn24  1  0.162044  0.993555  0.500000  1
  Sn  Sn25  1  0.837956  0.006445  0.500000  1
  Sn  Sn26  1  0.493555  0.662044  0.500000  1
  Sn  Sn27  1  0.506445  0.337956  0.500000  1
  Sn  Sn28  1  0.006445  0.162044  0.500000  1
  Sn  Sn29  1  0.993555  0.837956  0.500000  1
  Ir  Ir30  1  0.744680  0.528028  0.000000  1
  Ir  Ir31  1  0.255320  0.471972  0.000000  1
  Ir  Ir32  1  0.244680  0.971972  0.000000  1
  Ir  Ir33  1  0.755320  0.028028  0.000000  1
  Ir  Ir34  1  0.471972  0.744680  0.000000  1
  Ir  Ir35  1  0.528028  0.255320  0.000000  1
  Ir  Ir36  1  0.028028  0.244680  0.000000  1
  Ir  Ir37  1  0.971972  0.755320  0.000000  1
