# generated using pymatgen
data_Ce2Ho2As6Ru7
_symmetry_space_group_name_H-M   'P 1'
_cell_length_a   7.27187837
_cell_length_b   7.25334116
_cell_length_c   7.25334352
_cell_angle_alpha   109.43743910
_cell_angle_beta   109.43644779
_cell_angle_gamma   109.43643352
_symmetry_Int_Tables_number   1
_chemical_formula_structural   Ce2Ho2As6Ru7
_chemical_formula_sum   'Ce2 Ho2 As6 Ru7'
_cell_volume   294.88570548
_cell_formula_units_Z   1
loop_
 _symmetry_equiv_pos_site_id
 _symmetry_equiv_pos_as_xyz
  1  'x, y, z'
loop_
 _atom_site_type_symbol
 _atom_site_label
 _atom_site_symmetry_multiplicity
 _atom_site_fract_x
 _atom_site_fract_y
 _atom_site_fract_z
 _atom_site_occupancy
  Ce  Ce0  1  0.500000  0.000000  0.000000  1
  Ce  Ce1  1  0.500000  0.500000  0.500000  1
  Ho  Ho2  1  0.000000  0.000000  0.500000  1
  Ho  Ho3  1  0.000000  0.500000  0.000000  1
  As  As4  1  0.314087  0.996103  0.317984  1
  As  As5  1  0.000000  0.317702  0.317702  1
  As  As6  1  0.000000  0.682298  0.682298  1
  As  As7  1  0.314087  0.317984  0.996103  1
  As  As8  1  0.685913  0.682016  0.003897  1
  As  As9  1  0.685913  0.003897  0.682016  1
  Ru  Ru10  1  0.749476  0.499269  0.250208  1
  Ru  Ru11  1  0.500000  0.750000  0.250000  1
  Ru  Ru12  1  0.500000  0.250000  0.750000  1
  Ru  Ru13  1  0.749476  0.250208  0.499269  1
  Ru  Ru14  1  0.250524  0.749792  0.500731  1
  Ru  Ru15  1  0.250524  0.500731  0.749792  1
  Ru  Ru16  1  0.000000  0.000000  0.000000  1
