# generated using pymatgen
data_La20Sn7GeRh4
_symmetry_space_group_name_H-M   'P 1'
_cell_length_a   8.40917308
_cell_length_b   9.27425260
_cell_length_c   12.91672580
_cell_angle_alpha   89.97271182
_cell_angle_beta   90.05255018
_cell_angle_gamma   89.93811432
_symmetry_Int_Tables_number   1
_chemical_formula_structural   La20Sn7GeRh4
_chemical_formula_sum   'La20 Sn7 Ge1 Rh4'
_cell_volume   1007.35875807
_cell_formula_units_Z   1
loop_
 _symmetry_equiv_pos_site_id
 _symmetry_equiv_pos_as_xyz
  1  'x, y, z'
loop_
 _atom_site_type_symbol
 _atom_site_label
 _atom_site_symmetry_multiplicity
 _atom_site_fract_x
 _atom_site_fract_y
 _atom_site_fract_z
 _atom_site_occupancy
  La  La0  1  0.677970  0.470201  0.071632  1
  La  La1  1  0.179508  0.532661  0.428421  1
  La  La2  1  0.322178  0.963805  0.928349  1
  La  La3  1  0.820589  0.033324  0.571071  1
  La  La4  1  0.317477  0.531241  0.928569  1
  La  La5  1  0.821182  0.467380  0.570682  1
  La  La6  1  0.683491  0.033542  0.071819  1
  La  La7  1  0.176146  0.968337  0.424851  1
  La  La8  1  0.957105  0.756861  0.005937  1
  La  La9  1  0.450275  0.250200  0.498441  1
  La  La10  1  0.051719  0.242087  0.004024  1
  La  La11  1  0.553594  0.748878  0.499193  1
  La  La12  1  0.354619  0.755978  0.197342  1
  La  La13  1  0.865398  0.245058  0.298607  1
  La  La14  1  0.637784  0.250351  0.802958  1
  La  La15  1  0.138468  0.750175  0.698826  1
  La  La16  1  0.838979  0.755067  0.286591  1
  La  La17  1  0.329837  0.243284  0.208930  1
  La  La18  1  0.163105  0.249841  0.709988  1
  La  La19  1  0.664765  0.748882  0.792821  1
  Sn  Sn20  1  0.561693  0.493803  0.325086  1
  Sn  Sn21  1  0.063141  0.505267  0.172205  1
  Sn  Sn22  1  0.438312  0.993809  0.672054  1
  Sn  Sn23  1  0.937031  0.005779  0.828094  1
  Sn  Sn24  1  0.437124  0.506344  0.672501  1
  Sn  Sn25  1  0.937492  0.493171  0.831586  1
  Sn  Sn26  1  0.562147  0.006211  0.327176  1
  Ge  Ge27  1  0.056329  0.996561  0.173166  1
  Rh  Rh28  1  0.580078  0.752333  0.014350  1
  Rh  Rh29  1  0.078923  0.249820  0.485215  1
  Rh  Rh30  1  0.421233  0.248323  0.988045  1
  Rh  Rh31  1  0.922306  0.751427  0.511467  1
