# generated using pymatgen
data_Rb5SrNbP4
_symmetry_space_group_name_H-M   'P 1'
_cell_length_a   10.57175241
_cell_length_b   10.57175229
_cell_length_c   7.97678921
_cell_angle_alpha   87.98623545
_cell_angle_beta   87.98623878
_cell_angle_gamma   120.78241401
_symmetry_Int_Tables_number   1
_chemical_formula_structural   Rb5SrNbP4
_chemical_formula_sum   'Rb10 Sr2 Nb2 P8'
_cell_volume   763.96456071
_cell_formula_units_Z   2
loop_
 _symmetry_equiv_pos_site_id
 _symmetry_equiv_pos_as_xyz
  1  'x, y, z'
loop_
 _atom_site_type_symbol
 _atom_site_label
 _atom_site_symmetry_multiplicity
 _atom_site_fract_x
 _atom_site_fract_y
 _atom_site_fract_z
 _atom_site_occupancy
  Rb  Rb0  1  0.464207  0.526566  0.493442  1
  Rb  Rb1  1  0.062258  0.530406  0.499118  1
  Rb  Rb2  1  0.526566  0.464207  0.993442  1
  Rb  Rb3  1  0.530406  0.062258  0.999118  1
  Rb  Rb4  1  0.864586  0.142027  0.681874  1
  Rb  Rb5  1  0.289578  0.150622  0.724172  1
  Rb  Rb6  1  0.855735  0.715682  0.656373  1
  Rb  Rb7  1  0.142027  0.864586  0.181874  1
  Rb  Rb8  1  0.715682  0.855735  0.156373  1
  Rb  Rb9  1  0.150622  0.289578  0.224172  1
  Sr  Sr10  1  0.463497  0.936538  0.494921  1
  Sr  Sr11  1  0.936538  0.463497  0.994921  1
  Nb  Nb12  1  0.671513  0.329049  0.392697  1
  Nb  Nb13  1  0.329049  0.671513  0.892697  1
  P  P14  1  0.691525  0.341585  0.695095  1
  P  P15  1  0.341585  0.691525  0.195095  1
  P  P16  1  0.790063  0.199373  0.286613  1
  P  P17  1  0.412213  0.188221  0.329892  1
  P  P18  1  0.798127  0.576626  0.260092  1
  P  P19  1  0.199373  0.790063  0.786613  1
  P  P20  1  0.576626  0.798127  0.760092  1
  P  P21  1  0.188221  0.412213  0.829892  1
