# generated using pymatgen
data_Nd3Dy(In2Pd3)4
_symmetry_space_group_name_H-M   'P 1'
_cell_length_a   4.67138900
_cell_length_b   9.95060020
_cell_length_c   10.42534400
_cell_angle_alpha   89.96190492
_cell_angle_beta   90.00000000
_cell_angle_gamma   90.00000000
_symmetry_Int_Tables_number   1
_chemical_formula_structural   Nd3Dy(In2Pd3)4
_chemical_formula_sum   'Nd3 Dy1 In8 Pd12'
_cell_volume   484.60245406
_cell_formula_units_Z   1
loop_
 _symmetry_equiv_pos_site_id
 _symmetry_equiv_pos_as_xyz
  1  'x, y, z'
loop_
 _atom_site_type_symbol
 _atom_site_label
 _atom_site_symmetry_multiplicity
 _atom_site_fract_x
 _atom_site_fract_y
 _atom_site_fract_z
 _atom_site_occupancy
  Nd  Nd0  1  0.250000  0.445688  0.729066  1
  Nd  Nd1  1  0.250000  0.055111  0.228248  1
  Nd  Nd2  1  0.750000  0.554760  0.271229  1
  Dy  Dy3  1  0.750000  0.944005  0.776007  1
  In  In4  1  0.250000  0.884649  0.513625  1
  In  In5  1  0.250000  0.615687  0.013787  1
  In  In6  1  0.750000  0.115082  0.489099  1
  In  In7  1  0.750000  0.384378  0.984421  1
  In  In8  1  0.250000  0.160058  0.894670  1
  In  In9  1  0.250000  0.338584  0.396564  1
  In  In10  1  0.750000  0.838907  0.103040  1
  In  In11  1  0.750000  0.663777  0.605140  1
  Pd  Pd12  1  0.250000  0.137805  0.625544  1
  Pd  Pd13  1  0.250000  0.357518  0.122586  1
  Pd  Pd14  1  0.750000  0.857970  0.376107  1
  Pd  Pd15  1  0.750000  0.646384  0.876937  1
  Pd  Pd16  1  0.250000  0.747108  0.739939  1
  Pd  Pd17  1  0.250000  0.758193  0.240254  1
  Pd  Pd18  1  0.750000  0.256851  0.259480  1
  Pd  Pd19  1  0.750000  0.237123  0.759053  1
  Pd  Pd20  1  0.250000  0.895166  0.970482  1
  Pd  Pd21  1  0.250000  0.605437  0.474258  1
  Pd  Pd22  1  0.750000  0.103385  0.023508  1
  Pd  Pd23  1  0.750000  0.396374  0.526951  1
