# generated using pymatgen
data_Er2Sc3GaSi3
_symmetry_space_group_name_H-M   'P 1'
_cell_length_a   7.09921022
_cell_length_b   7.38447892
_cell_length_c   14.10894799
_cell_angle_alpha   89.98651170
_cell_angle_beta   89.82222494
_cell_angle_gamma   90.14437067
_symmetry_Int_Tables_number   1
_chemical_formula_structural   Er2Sc3GaSi3
_chemical_formula_sum   'Er8 Sc12 Ga4 Si12'
_cell_volume   739.64111056
_cell_formula_units_Z   4
loop_
 _symmetry_equiv_pos_site_id
 _symmetry_equiv_pos_as_xyz
  1  'x, y, z'
loop_
 _atom_site_type_symbol
 _atom_site_label
 _atom_site_symmetry_multiplicity
 _atom_site_fract_x
 _atom_site_fract_y
 _atom_site_fract_z
 _atom_site_occupancy
  Er  Er0  1  0.013192  0.175268  0.096710  1
  Er  Er1  1  0.988544  0.824665  0.901998  1
  Er  Er2  1  0.487449  0.677598  0.901718  1
  Er  Er3  1  0.988647  0.827532  0.600680  1
  Er  Er4  1  0.510395  0.320656  0.096906  1
  Er  Er5  1  0.008740  0.174968  0.400051  1
  Er  Er6  1  0.510310  0.323851  0.400079  1
  Er  Er7  1  0.491325  0.676216  0.601102  1
  Sc  Sc8  1  0.163635  0.500971  0.751834  1
  Sc  Sc9  1  0.835907  0.498538  0.249776  1
  Sc  Sc10  1  0.335582  0.001820  0.248213  1
  Sc  Sc11  1  0.664019  0.998393  0.750206  1
  Sc  Sc12  1  0.334727  0.174332  0.628478  1
  Sc  Sc13  1  0.668153  0.826945  0.373272  1
  Sc  Sc14  1  0.169335  0.673058  0.372473  1
  Sc  Sc15  1  0.668161  0.826633  0.125421  1
  Sc  Sc16  1  0.829636  0.325031  0.627096  1
  Sc  Sc17  1  0.330968  0.175513  0.874553  1
  Sc  Sc18  1  0.829437  0.323715  0.874523  1
  Sc  Sc19  1  0.172700  0.674900  0.124271  1
  Ga  Ga20  1  0.163189  0.460837  0.539700  1
  Ga  Ga21  1  0.838194  0.538934  0.462002  1
  Ga  Ga22  1  0.337809  0.960694  0.462289  1
  Ga  Ga23  1  0.838424  0.538694  0.038274  1
  Si  Si24  1  0.033725  0.115372  0.751647  1
  Si  Si25  1  0.966716  0.884743  0.248605  1
  Si  Si26  1  0.467066  0.613157  0.248034  1
  Si  Si27  1  0.534005  0.386816  0.751726  1
  Si  Si28  1  0.286614  0.870950  0.751577  1
  Si  Si29  1  0.713932  0.129088  0.248122  1
  Si  Si30  1  0.213021  0.370291  0.248144  1
  Si  Si31  1  0.787552  0.630021  0.751986  1
  Si  Si32  1  0.659209  0.036614  0.538976  1
  Si  Si33  1  0.158848  0.463590  0.960823  1
  Si  Si34  1  0.657429  0.035888  0.961294  1
  Si  Si35  1  0.343406  0.963708  0.037442  1
