# generated using pymatgen
data_Nd4Cu2PtRh
_symmetry_space_group_name_H-M   'P 1'
_cell_length_a   4.44002700
_cell_length_b   5.76950557
_cell_length_c   7.47225695
_cell_angle_alpha   89.65554911
_cell_angle_beta   90.00000000
_cell_angle_gamma   90.00000000
_symmetry_Int_Tables_number   1
_chemical_formula_structural   Nd4Cu2PtRh
_chemical_formula_sum   'Nd4 Cu2 Pt1 Rh1'
_cell_volume   191.41155758
_cell_formula_units_Z   1
loop_
 _symmetry_equiv_pos_site_id
 _symmetry_equiv_pos_as_xyz
  1  'x, y, z'
loop_
 _atom_site_type_symbol
 _atom_site_label
 _atom_site_symmetry_multiplicity
 _atom_site_fract_x
 _atom_site_fract_y
 _atom_site_fract_z
 _atom_site_occupancy
  Nd  Nd0  1  0.000000  0.118104  0.680865  1
  Nd  Nd1  1  0.000000  0.882712  0.185281  1
  Nd  Nd2  1  0.500000  0.392257  0.320946  1
  Nd  Nd3  1  0.500000  0.611736  0.813702  1
  Cu  Cu4  1  0.500000  0.881221  0.463002  1
  Cu  Cu5  1  0.500000  0.118599  0.963061  1
  Pt  Pt6  1  0.000000  0.380186  0.036428  1
  Rh  Rh7  1  0.000000  0.615183  0.536717  1
