# generated using pymatgen
data_Y9HoSi5P
_symmetry_space_group_name_H-M   'P 1'
_cell_length_a   8.42394900
_cell_length_b   8.42827703
_cell_length_c   6.32568500
_cell_angle_alpha   89.99933347
_cell_angle_beta   89.99976663
_cell_angle_gamma   119.98418422
_symmetry_Int_Tables_number   1
_chemical_formula_structural   Y9HoSi5P
_chemical_formula_sum   'Y9 Ho1 Si5 P1'
_cell_volume   389.01103021
_cell_formula_units_Z   1
loop_
 _symmetry_equiv_pos_site_id
 _symmetry_equiv_pos_as_xyz
  1  'x, y, z'
loop_
 _atom_site_type_symbol
 _atom_site_label
 _atom_site_symmetry_multiplicity
 _atom_site_fract_x
 _atom_site_fract_y
 _atom_site_fract_z
 _atom_site_occupancy
  Y  Y0  1  0.000960  0.756345  0.749958  1
  Y  Y1  1  0.000980  0.244729  0.250039  1
  Y  Y2  1  0.756207  0.755301  0.250043  1
  Y  Y3  1  0.754411  0.999969  0.749967  1
  Y  Y4  1  0.244581  0.243681  0.749962  1
  Y  Y5  1  0.244522  0.999967  0.250032  1
  Y  Y6  1  0.666199  0.332500  0.999580  1
  Y  Y7  1  0.666196  0.332486  0.500423  1
  Y  Y8  1  0.333707  0.667509  0.999609  1
  Ho  Ho9  1  0.333726  0.667506  0.500374  1
  Si  Si10  1  0.393849  0.393285  0.250129  1
  Si  Si11  1  0.000824  0.606844  0.250126  1
  Si  Si12  1  0.000269  0.393397  0.749874  1
  Si  Si13  1  0.606748  0.606733  0.749876  1
  Si  Si14  1  0.607560  0.999870  0.250121  1
  P  P15  1  0.389257  0.999879  0.749887  1
