# generated using pymatgen
data_SmTm5ZrCo17P12
_symmetry_space_group_name_H-M   'P 1'
_cell_length_a   3.70241300
_cell_length_b   10.59150800
_cell_length_c   12.29530900
_cell_angle_alpha   90.00000000
_cell_angle_beta   90.00000000
_cell_angle_gamma   90.00000000
_symmetry_Int_Tables_number   1
_chemical_formula_structural   SmTm5ZrCo17P12
_chemical_formula_sum   'Sm1 Tm5 Zr1 Co17 P12'
_cell_volume   482.14993046
_cell_formula_units_Z   1
loop_
 _symmetry_equiv_pos_site_id
 _symmetry_equiv_pos_as_xyz
  1  'x, y, z'
loop_
 _atom_site_type_symbol
 _atom_site_label
 _atom_site_symmetry_multiplicity
 _atom_site_fract_x
 _atom_site_fract_y
 _atom_site_fract_z
 _atom_site_occupancy
  Sm  Sm0  1  0.500000  0.000000  0.476729  1
  Tm  Tm1  1  0.000000  0.500000  0.529758  1
  Tm  Tm2  1  0.500000  0.821574  0.206735  1
  Tm  Tm3  1  0.500000  0.178426  0.206735  1
  Tm  Tm4  1  0.000000  0.682314  0.796084  1
  Tm  Tm5  1  0.000000  0.317686  0.796084  1
  Zr  Zr6  1  0.500000  0.500000  0.154866  1
  Co  Co7  1  0.000000  0.000000  0.837746  1
  Co  Co8  1  0.500000  0.500000  0.702968  1
  Co  Co9  1  0.000000  0.000000  0.293668  1
  Co  Co10  1  0.000000  0.500000  0.982813  1
  Co  Co11  1  0.500000  0.000000  0.013361  1
  Co  Co12  1  0.500000  0.327027  0.987726  1
  Co  Co13  1  0.500000  0.672973  0.987726  1
  Co  Co14  1  0.000000  0.161738  0.001388  1
  Co  Co15  1  0.000000  0.838262  0.001388  1
  Co  Co16  1  0.500000  0.296256  0.434568  1
  Co  Co17  1  0.500000  0.703744  0.434568  1
  Co  Co18  1  0.000000  0.204518  0.571125  1
  Co  Co19  1  0.000000  0.795482  0.571125  1
  Co  Co20  1  0.500000  0.879208  0.708654  1
  Co  Co21  1  0.500000  0.120792  0.708654  1
  Co  Co22  1  0.000000  0.622786  0.296894  1
  Co  Co23  1  0.000000  0.377214  0.296894  1
  P  P24  1  0.500000  0.500000  0.880684  1
  P  P25  1  0.000000  0.000000  0.116245  1
  P  P26  1  0.500000  0.500000  0.363393  1
  P  P27  1  0.000000  0.000000  0.656714  1
  P  P28  1  0.500000  0.310649  0.618792  1
  P  P29  1  0.500000  0.689351  0.618792  1
  P  P30  1  0.000000  0.190093  0.384877  1
  P  P31  1  0.000000  0.809907  0.384877  1
  P  P32  1  0.500000  0.851383  0.888204  1
  P  P33  1  0.500000  0.148617  0.888204  1
  P  P34  1  0.000000  0.665693  0.100480  1
  P  P35  1  0.000000  0.334307  0.100480  1
