# generated using pymatgen
data_Lu3NbB4(SbRu5)2
_symmetry_space_group_name_H-M   'P 1'
_cell_length_a   9.60013252
_cell_length_b   9.60013259
_cell_length_c   3.10792200
_cell_angle_alpha   90.00000000
_cell_angle_beta   90.00000000
_cell_angle_gamma   89.55099025
_symmetry_Int_Tables_number   1
_chemical_formula_structural   Lu3NbB4(SbRu5)2
_chemical_formula_sum   'Lu3 Nb1 B4 Sb2 Ru10'
_cell_volume   286.42520581
_cell_formula_units_Z   1
loop_
 _symmetry_equiv_pos_site_id
 _symmetry_equiv_pos_as_xyz
  1  'x, y, z'
loop_
 _atom_site_type_symbol
 _atom_site_label
 _atom_site_symmetry_multiplicity
 _atom_site_fract_x
 _atom_site_fract_y
 _atom_site_fract_z
 _atom_site_occupancy
  Lu  Lu0  1  0.174567  0.825433  0.000000  1
  Lu  Lu1  1  0.325552  0.325138  0.000000  1
  Lu  Lu2  1  0.674862  0.674448  0.000000  1
  Nb  Nb3  1  0.825932  0.174068  0.000000  1
  B  B4  1  0.622582  0.377418  0.000000  1
  B  B5  1  0.381381  0.618619  0.000000  1
  B  B6  1  0.119167  0.123383  0.000000  1
  B  B7  1  0.876617  0.880833  0.000000  1
  Sb  Sb8  1  0.495487  0.998182  0.000000  1
  Sb  Sb9  1  0.001818  0.504513  0.000000  1
  Ru  Ru10  1  0.503590  0.496410  0.500000  1
  Ru  Ru11  1  0.992012  0.007988  0.500000  1
  Ru  Ru12  1  0.584304  0.214245  0.500000  1
  Ru  Ru13  1  0.429967  0.777855  0.500000  1
  Ru  Ru14  1  0.058672  0.278547  0.500000  1
  Ru  Ru15  1  0.928221  0.724085  0.500000  1
  Ru  Ru16  1  0.275915  0.071779  0.500000  1
  Ru  Ru17  1  0.721453  0.941328  0.500000  1
  Ru  Ru18  1  0.222145  0.570033  0.500000  1
  Ru  Ru19  1  0.785755  0.415696  0.500000  1
