# generated using pymatgen
data_Tb3Dy5(Si3Ir)4
_symmetry_space_group_name_H-M   'P 1'
_cell_length_a   8.17766801
_cell_length_b   8.17766950
_cell_length_c   7.95208800
_cell_angle_alpha   90.00000000
_cell_angle_beta   90.00000000
_cell_angle_gamma   120.00531110
_symmetry_Int_Tables_number   1
_chemical_formula_structural   Tb3Dy5(Si3Ir)4
_chemical_formula_sum   'Tb3 Dy5 Si12 Ir4'
_cell_volume   460.51904328
_cell_formula_units_Z   1
loop_
 _symmetry_equiv_pos_site_id
 _symmetry_equiv_pos_as_xyz
  1  'x, y, z'
loop_
 _atom_site_type_symbol
 _atom_site_label
 _atom_site_symmetry_multiplicity
 _atom_site_fract_x
 _atom_site_fract_y
 _atom_site_fract_z
 _atom_site_occupancy
  Tb  Tb0  1  0.999995  0.000005  0.250000  1
  Tb  Tb1  1  0.000010  0.999990  0.750000  1
  Tb  Tb2  1  0.509341  0.490659  0.250000  1
  Dy  Dy3  1  0.509328  0.018626  0.250000  1
  Dy  Dy4  1  0.981374  0.490672  0.250000  1
  Dy  Dy5  1  0.490675  0.509325  0.750000  1
  Dy  Dy6  1  0.490672  0.981351  0.750000  1
  Dy  Dy7  1  0.018649  0.509328  0.750000  1
  Si  Si8  1  0.166802  0.833198  0.499322  1
  Si  Si9  1  0.166765  0.333582  0.499338  1
  Si  Si10  1  0.666418  0.833235  0.499338  1
  Si  Si11  1  0.833198  0.166802  0.500687  1
  Si  Si12  1  0.833253  0.666428  0.500734  1
  Si  Si13  1  0.333572  0.166747  0.500734  1
  Si  Si14  1  0.833198  0.166802  0.999313  1
  Si  Si15  1  0.833253  0.666428  0.999266  1
  Si  Si16  1  0.333572  0.166747  0.999266  1
  Si  Si17  1  0.166802  0.833198  0.000678  1
  Si  Si18  1  0.166765  0.333582  0.000662  1
  Si  Si19  1  0.666418  0.833235  0.000662  1
  Ir  Ir20  1  0.333274  0.666726  0.467251  1
  Ir  Ir21  1  0.666698  0.333302  0.532898  1
  Ir  Ir22  1  0.666698  0.333302  0.967102  1
  Ir  Ir23  1  0.333274  0.666726  0.032749  1
