# generated using pymatgen
data_LiMg2Ta6B20Mo
_symmetry_space_group_name_H-M   'P 1'
_cell_length_a   6.14218517
_cell_length_b   6.97340021
_cell_length_c   7.36711706
_cell_angle_alpha   94.05419257
_cell_angle_beta   101.97848150
_cell_angle_gamma   115.97669149
_symmetry_Int_Tables_number   1
_chemical_formula_structural   LiMg2Ta6B20Mo
_chemical_formula_sum   'Li1 Mg2 Ta6 B20 Mo1'
_cell_volume   272.76615574
_cell_formula_units_Z   1
loop_
 _symmetry_equiv_pos_site_id
 _symmetry_equiv_pos_as_xyz
  1  'x, y, z'
loop_
 _atom_site_type_symbol
 _atom_site_label
 _atom_site_symmetry_multiplicity
 _atom_site_fract_x
 _atom_site_fract_y
 _atom_site_fract_z
 _atom_site_occupancy
  Li  Li0  1  0.998509  0.998271  0.994254  1
  Mg  Mg1  1  0.001391  0.202130  0.605831  1
  Mg  Mg2  1  0.002493  0.605377  0.803084  1
  Ta  Ta3  1  0.501921  0.801766  0.402274  1
  Ta  Ta4  1  0.999809  0.398752  0.200396  1
  Ta  Ta5  1  0.499191  0.200564  0.599484  1
  Ta  Ta6  1  0.998750  0.798968  0.396074  1
  Ta  Ta7  1  0.501568  0.601163  0.799747  1
  Ta  Ta8  1  0.497269  0.397919  0.198151  1
  B  B9  1  0.330819  0.230498  0.867717  1
  B  B10  1  0.332621  0.632647  0.065784  1
  B  B11  1  0.165368  0.363467  0.935758  1
  B  B12  1  0.329506  0.032880  0.260705  1
  B  B13  1  0.164137  0.766861  0.129847  1
  B  B14  1  0.833988  0.232512  0.869303  1
  B  B15  1  0.164622  0.165308  0.329400  1
  B  B16  1  0.835433  0.637578  0.063076  1
  B  B17  1  0.331203  0.431592  0.467293  1
  B  B18  1  0.667619  0.366945  0.931096  1
  B  B19  1  0.833445  0.032975  0.264696  1
  B  B20  1  0.669032  0.768271  0.130720  1
  B  B21  1  0.333327  0.834213  0.668698  1
  B  B22  1  0.164561  0.565283  0.535375  1
  B  B23  1  0.666940  0.163510  0.334717  1
  B  B24  1  0.834651  0.432355  0.469677  1
  B  B25  1  0.166335  0.967859  0.734916  1
  B  B26  1  0.836074  0.835751  0.668867  1
  B  B27  1  0.668915  0.567777  0.535594  1
  B  B28  1  0.669624  0.968738  0.735266  1
  Mo  Mo29  1  0.500877  0.998069  0.002205  1
