# generated using pymatgen
data_NpPa4Mn7
_symmetry_space_group_name_H-M   'P 1'
_cell_length_a   5.30485300
_cell_length_b   5.30485322
_cell_length_c   7.93655200
_cell_angle_alpha   90.00000000
_cell_angle_beta   90.00000000
_cell_angle_gamma   119.99999241
_symmetry_Int_Tables_number   1
_chemical_formula_structural   NpPa4Mn7
_chemical_formula_sum   'Np1 Pa4 Mn7'
_cell_volume   193.42350842
_cell_formula_units_Z   1
loop_
 _symmetry_equiv_pos_site_id
 _symmetry_equiv_pos_as_xyz
  1  'x, y, z'
loop_
 _atom_site_type_symbol
 _atom_site_label
 _atom_site_symmetry_multiplicity
 _atom_site_fract_x
 _atom_site_fract_y
 _atom_site_fract_z
 _atom_site_occupancy
  Np  Np0  1  0.000000  0.000000  0.000000  1
  Pa  Pa1  1  0.666667  0.333333  0.079560  1
  Pa  Pa2  1  0.333333  0.666667  0.920440  1
  Pa  Pa3  1  0.333333  0.666667  0.553543  1
  Pa  Pa4  1  0.666667  0.333333  0.446457  1
  Mn  Mn5  1  0.665287  0.832643  0.248793  1
  Mn  Mn6  1  0.167357  0.832643  0.248793  1
  Mn  Mn7  1  0.167357  0.334713  0.248793  1
  Mn  Mn8  1  0.334713  0.167357  0.751207  1
  Mn  Mn9  1  0.832643  0.167357  0.751207  1
  Mn  Mn10  1  0.832643  0.665287  0.751207  1
  Mn  Mn11  1  0.000000  0.000000  0.500000  1
