# generated using pymatgen
data_Tm6AlZn5C2
_symmetry_space_group_name_H-M   'P 1'
_cell_length_a   9.03766675
_cell_length_b   9.03766727
_cell_length_c   9.00589500
_cell_angle_alpha   60.11622877
_cell_angle_beta   60.11622686
_cell_angle_gamma   60.19826260
_symmetry_Int_Tables_number   1
_chemical_formula_structural   Tm6AlZn5C2
_chemical_formula_sum   'Tm12 Al2 Zn10 C4'
_cell_volume   521.83605213
_cell_formula_units_Z   2
loop_
 _symmetry_equiv_pos_site_id
 _symmetry_equiv_pos_as_xyz
  1  'x, y, z'
loop_
 _atom_site_type_symbol
 _atom_site_label
 _atom_site_symmetry_multiplicity
 _atom_site_fract_x
 _atom_site_fract_y
 _atom_site_fract_z
 _atom_site_occupancy
  Tm  Tm0  1  0.446081  0.446081  0.053919  1
  Tm  Tm1  1  0.054202  0.445950  0.053537  1
  Tm  Tm2  1  0.445950  0.054202  0.053537  1
  Tm  Tm3  1  0.053685  0.053685  0.446315  1
  Tm  Tm4  1  0.445950  0.054202  0.446312  1
  Tm  Tm5  1  0.054202  0.445950  0.446312  1
  Tm  Tm6  1  0.803919  0.803919  0.196081  1
  Tm  Tm7  1  0.195798  0.804050  0.196463  1
  Tm  Tm8  1  0.804050  0.195798  0.196463  1
  Tm  Tm9  1  0.196315  0.196315  0.803685  1
  Tm  Tm10  1  0.804050  0.195798  0.803688  1
  Tm  Tm11  1  0.195798  0.804050  0.803688  1
  Al  Al12  1  0.625000  0.625000  0.125000  1
  Al  Al13  1  0.625000  0.625000  0.625000  1
  Zn  Zn14  1  0.827995  0.827995  0.517583  1
  Zn  Zn15  1  0.828837  0.516664  0.827250  1
  Zn  Zn16  1  0.516664  0.828837  0.827250  1
  Zn  Zn17  1  0.827995  0.827995  0.826428  1
  Zn  Zn18  1  0.422005  0.422005  0.732417  1
  Zn  Zn19  1  0.421163  0.733336  0.422750  1
  Zn  Zn20  1  0.733336  0.421163  0.422750  1
  Zn  Zn21  1  0.422005  0.422005  0.423572  1
  Zn  Zn22  1  0.625000  0.125000  0.625000  1
  Zn  Zn23  1  0.125000  0.625000  0.625000  1
  C  C24  1  0.125000  0.125000  0.625000  1
  C  C25  1  0.125000  0.625000  0.125000  1
  C  C26  1  0.625000  0.125000  0.125000  1
  C  C27  1  0.125000  0.125000  0.125000  1
