# generated using pymatgen
data_Tm5In2Te
_symmetry_space_group_name_H-M   'P 1'
_cell_length_a   6.44910200
_cell_length_b   8.86933024
_cell_length_c   8.87806192
_cell_angle_alpha   119.98482106
_cell_angle_beta   90.00002183
_cell_angle_gamma   89.99989770
_symmetry_Int_Tables_number   1
_chemical_formula_structural   Tm5In2Te
_chemical_formula_sum   'Tm10 In4 Te2'
_cell_volume   439.85069181
_cell_formula_units_Z   2
loop_
 _symmetry_equiv_pos_site_id
 _symmetry_equiv_pos_as_xyz
  1  'x, y, z'
loop_
 _atom_site_type_symbol
 _atom_site_label
 _atom_site_symmetry_multiplicity
 _atom_site_fract_x
 _atom_site_fract_y
 _atom_site_fract_z
 _atom_site_occupancy
  Tm  Tm0  1  0.496143  0.331536  0.668478  1
  Tm  Tm1  1  0.495959  0.667907  0.335722  1
  Tm  Tm2  1  0.004041  0.667904  0.335721  1
  Tm  Tm3  1  0.003855  0.331532  0.668479  1
  Tm  Tm4  1  0.750001  0.233083  0.993584  1
  Tm  Tm5  1  0.750000  0.767783  0.760594  1
  Tm  Tm6  1  0.750000  0.000152  0.236797  1
  Tm  Tm7  1  0.250002  0.764905  0.000994  1
  Tm  Tm8  1  0.249998  0.233462  0.234404  1
  Tm  Tm9  1  0.249999  0.999983  0.764296  1
  In  In10  1  0.749997  0.001028  0.598503  1
  In  In11  1  0.250000  0.396624  0.004254  1
  In  In12  1  0.249999  0.603599  0.607168  1
  In  In13  1  0.250001  0.000776  0.397230  1
  Te  Te14  1  0.750001  0.609865  0.003168  1
  Te  Te15  1  0.749999  0.389861  0.390608  1
