# generated using pymatgen
data_Dy11Er7(ZrIr6)2
_symmetry_space_group_name_H-M   'P 1'
_cell_length_a   10.84272909
_cell_length_b   10.86473211
_cell_length_c   6.31736604
_cell_angle_alpha   89.99005058
_cell_angle_beta   90.00749472
_cell_angle_gamma   89.98724649
_symmetry_Int_Tables_number   1
_chemical_formula_structural   Dy11Er7(ZrIr6)2
_chemical_formula_sum   'Dy11 Er7 Zr2 Ir12'
_cell_volume   744.20682669
_cell_formula_units_Z   1
loop_
 _symmetry_equiv_pos_site_id
 _symmetry_equiv_pos_as_xyz
  1  'x, y, z'
loop_
 _atom_site_type_symbol
 _atom_site_label
 _atom_site_symmetry_multiplicity
 _atom_site_fract_x
 _atom_site_fract_y
 _atom_site_fract_z
 _atom_site_occupancy
  Dy  Dy0  1  0.587779  0.206597  0.375896  1
  Dy  Dy1  1  0.412408  0.793391  0.375986  1
  Dy  Dy2  1  0.412268  0.206525  0.875897  1
  Dy  Dy3  1  0.207029  0.412051  0.623990  1
  Dy  Dy4  1  0.207063  0.587948  0.123913  1
  Dy  Dy5  1  0.792966  0.412048  0.124047  1
  Dy  Dy6  1  0.792775  0.588186  0.624184  1
  Dy  Dy7  1  0.913252  0.711104  0.124256  1
  Dy  Dy8  1  0.913327  0.288912  0.624297  1
  Dy  Dy9  1  0.086685  0.711097  0.624336  1
  Dy  Dy10  1  0.086653  0.288923  0.124332  1
  Er  Er11  1  0.289674  0.085938  0.376602  1
  Er  Er12  1  0.289885  0.913895  0.876510  1
  Er  Er13  1  0.710252  0.085647  0.876661  1
  Er  Er14  1  0.710281  0.913864  0.376677  1
  Er  Er15  1  0.587609  0.794003  0.876480  1
  Er  Er16  1  0.500136  0.500372  0.999509  1
  Er  Er17  1  0.500031  0.500067  0.499683  1
  Zr  Zr18  1  0.999969  0.999936  0.499467  1
  Zr  Zr19  1  0.000009  0.999957  0.999355  1
  Ir  Ir20  1  0.855157  0.143436  0.249314  1
  Ir  Ir21  1  0.854746  0.856426  0.749583  1
  Ir  Ir22  1  0.144761  0.143488  0.749341  1
  Ir  Ir23  1  0.144796  0.856552  0.249316  1
  Ir  Ir24  1  0.653976  0.345578  0.750340  1
  Ir  Ir25  1  0.653698  0.654826  0.249218  1
  Ir  Ir26  1  0.346025  0.345578  0.250361  1
  Ir  Ir27  1  0.346439  0.654634  0.750525  1
  Ir  Ir28  1  0.500192  0.999500  0.123269  1
  Ir  Ir29  1  0.500208  0.999524  0.624252  1
  Ir  Ir30  1  0.999935  0.499989  0.876200  1
  Ir  Ir31  1  0.000019  0.500010  0.376205  1
