# generated using pymatgen
data_Li(TaPd4)3
_symmetry_space_group_name_H-M   'P 1'
_cell_length_a   5.60379100
_cell_length_b   5.60379130
_cell_length_c   9.06070000
_cell_angle_alpha   90.00000000
_cell_angle_beta   90.00000000
_cell_angle_gamma   119.99999232
_symmetry_Int_Tables_number   1
_chemical_formula_structural   Li(TaPd4)3
_chemical_formula_sum   'Li1 Ta3 Pd12'
_cell_volume   246.40884814
_cell_formula_units_Z   1
loop_
 _symmetry_equiv_pos_site_id
 _symmetry_equiv_pos_as_xyz
  1  'x, y, z'
loop_
 _atom_site_type_symbol
 _atom_site_label
 _atom_site_symmetry_multiplicity
 _atom_site_fract_x
 _atom_site_fract_y
 _atom_site_fract_z
 _atom_site_occupancy
  Li  Li0  1  0.333333  0.666667  0.250000  1
  Ta  Ta1  1  0.000000  0.000000  0.490305  1
  Ta  Ta2  1  0.000000  0.000000  0.009695  1
  Ta  Ta3  1  0.666667  0.333333  0.750000  1
  Pd  Pd4  1  0.501186  0.498814  0.502513  1
  Pd  Pd5  1  0.501186  0.002371  0.502513  1
  Pd  Pd6  1  0.997629  0.498814  0.502513  1
  Pd  Pd7  1  0.501186  0.498814  0.997487  1
  Pd  Pd8  1  0.501186  0.002371  0.997487  1
  Pd  Pd9  1  0.997629  0.498814  0.997487  1
  Pd  Pd10  1  0.832304  0.167696  0.250000  1
  Pd  Pd11  1  0.832304  0.664606  0.250000  1
  Pd  Pd12  1  0.335394  0.167696  0.250000  1
  Pd  Pd13  1  0.165942  0.834058  0.750000  1
  Pd  Pd14  1  0.165942  0.331884  0.750000  1
  Pd  Pd15  1  0.668116  0.834058  0.750000  1
