# generated using pymatgen
data_NaThB12
_symmetry_space_group_name_H-M   'P 1'
_cell_length_a   5.84021564
_cell_length_b   5.84021564
_cell_length_c   5.84021600
_cell_angle_alpha   59.99999794
_cell_angle_beta   59.99999794
_cell_angle_gamma   59.99999863
_symmetry_Int_Tables_number   1
_chemical_formula_structural   NaThB12
_chemical_formula_sum   'Na1 Th1 B12'
_cell_volume   140.85480261
_cell_formula_units_Z   1
loop_
 _symmetry_equiv_pos_site_id
 _symmetry_equiv_pos_as_xyz
  1  'x, y, z'
loop_
 _atom_site_type_symbol
 _atom_site_label
 _atom_site_symmetry_multiplicity
 _atom_site_fract_x
 _atom_site_fract_y
 _atom_site_fract_z
 _atom_site_occupancy
  Na  Na0  1  0.000000  0.000000  0.000000  1
  Th  Th1  1  0.500000  0.500000  0.500000  1
  B  B2  1  0.399943  0.100057  0.100057  1
  B  B3  1  0.899943  0.600057  0.600057  1
  B  B4  1  0.399943  0.399943  0.100057  1
  B  B5  1  0.899943  0.899943  0.600057  1
  B  B6  1  0.100057  0.399943  0.100057  1
  B  B7  1  0.600057  0.899943  0.600057  1
  B  B8  1  0.100057  0.100057  0.399943  1
  B  B9  1  0.600057  0.600057  0.899943  1
  B  B10  1  0.399943  0.100057  0.399943  1
  B  B11  1  0.899943  0.600057  0.899943  1
  B  B12  1  0.100057  0.399943  0.399943  1
  B  B13  1  0.600057  0.899943  0.899943  1
