# generated using pymatgen
data_Cs4MnZn3F12
_symmetry_space_group_name_H-M   'P 1'
_cell_length_a   10.79914296
_cell_length_b   10.79914287
_cell_length_c   10.79914415
_cell_angle_alpha   33.78910075
_cell_angle_beta   33.78910374
_cell_angle_gamma   33.78910232
_symmetry_Int_Tables_number   1
_chemical_formula_structural   Cs4MnZn3F12
_chemical_formula_sum   'Cs4 Mn1 Zn3 F12'
_cell_volume   347.08940280
_cell_formula_units_Z   1
loop_
 _symmetry_equiv_pos_site_id
 _symmetry_equiv_pos_as_xyz
  1  'x, y, z'
loop_
 _atom_site_type_symbol
 _atom_site_label
 _atom_site_symmetry_multiplicity
 _atom_site_fract_x
 _atom_site_fract_y
 _atom_site_fract_z
 _atom_site_occupancy
  Cs  Cs0  1  0.714903  0.714903  0.714903  1
  Cs  Cs1  1  0.869998  0.869998  0.869998  1
  Cs  Cs2  1  0.285097  0.285097  0.285097  1
  Cs  Cs3  1  0.130002  0.130002  0.130002  1
  Mn  Mn4  1  0.000000  0.000000  0.000000  1
  Zn  Zn5  1  0.407456  0.407456  0.407456  1
  Zn  Zn6  1  0.592544  0.592544  0.592544  1
  Zn  Zn7  1  0.500000  0.500000  0.500000  1
  F  F8  1  0.169410  0.598549  0.598549  1
  F  F9  1  0.598549  0.598549  0.169410  1
  F  F10  1  0.703802  0.208337  0.208337  1
  F  F11  1  0.296198  0.791663  0.791663  1
  F  F12  1  0.208337  0.208337  0.703802  1
  F  F13  1  0.830590  0.401451  0.401451  1
  F  F14  1  0.791663  0.791663  0.296198  1
  F  F15  1  0.401451  0.401451  0.830590  1
  F  F16  1  0.401451  0.830590  0.401451  1
  F  F17  1  0.208337  0.703802  0.208337  1
  F  F18  1  0.791663  0.296198  0.791663  1
  F  F19  1  0.598549  0.169410  0.598549  1
