# generated using pymatgen
data_PrNd3(MoO4)6
_symmetry_space_group_name_H-M   'P 1'
_cell_length_a   7.64840225
_cell_length_b   7.64839825
_cell_length_c   10.99449301
_cell_angle_alpha   90.00368290
_cell_angle_beta   89.99629919
_cell_angle_gamma   90.02890115
_symmetry_Int_Tables_number   1
_chemical_formula_structural   PrNd3(MoO4)6
_chemical_formula_sum   'Pr1 Nd3 Mo6 O24'
_cell_volume   643.15605730
_cell_formula_units_Z   1
loop_
 _symmetry_equiv_pos_site_id
 _symmetry_equiv_pos_as_xyz
  1  'x, y, z'
loop_
 _atom_site_type_symbol
 _atom_site_label
 _atom_site_symmetry_multiplicity
 _atom_site_fract_x
 _atom_site_fract_y
 _atom_site_fract_z
 _atom_site_occupancy
  Pr  Pr0  1  0.311317  0.188683  0.261556  1
  Nd  Nd1  1  0.188928  0.688894  0.738025  1
  Nd  Nd2  1  0.811105  0.311072  0.738025  1
  Nd  Nd3  1  0.689372  0.810628  0.262075  1
  Mo  Mo4  1  0.208098  0.708593  0.356794  1
  Mo  Mo5  1  0.791406  0.291902  0.356794  1
  Mo  Mo6  1  0.708346  0.791655  0.643579  1
  Mo  Mo7  1  0.291690  0.208310  0.644445  1
  Mo  Mo8  1  0.999226  0.999494  0.999364  1
  Mo  Mo9  1  0.500505  0.500774  0.999364  1
  O  O10  1  0.998771  0.226899  0.298532  1
  O  O11  1  0.000420  0.774097  0.298607  1
  O  O12  1  0.226428  0.000200  0.702031  1
  O  O13  1  0.500426  0.726481  0.701503  1
  O  O14  1  0.773520  0.999575  0.701503  1
  O  O15  1  0.499800  0.273572  0.702031  1
  O  O16  1  0.273100  0.501229  0.298532  1
  O  O17  1  0.725903  0.499580  0.298607  1
  O  O18  1  0.185489  0.041298  0.093738  1
  O  O19  1  0.813881  0.957176  0.094873  1
  O  O20  1  0.041809  0.813715  0.904537  1
  O  O21  1  0.314289  0.542905  0.904774  1
  O  O22  1  0.957095  0.185712  0.904774  1
  O  O23  1  0.686285  0.458191  0.904538  1
  O  O24  1  0.458702  0.314510  0.093738  1
  O  O25  1  0.542824  0.686119  0.094873  1
  O  O26  1  0.629271  0.127579  0.311121  1
  O  O27  1  0.372421  0.870728  0.311121  1
  O  O28  1  0.128231  0.371769  0.689660  1
  O  O29  1  0.871631  0.628369  0.689215  1
  O  O30  1  0.196135  0.696498  0.518395  1
  O  O31  1  0.803501  0.303865  0.518395  1
  O  O32  1  0.696532  0.803469  0.481910  1
  O  O33  1  0.303542  0.196457  0.482969  1
