# generated using pymatgen
data_Li3Tm16InCo4
_symmetry_space_group_name_H-M   'P 1'
_cell_length_a   9.37522086
_cell_length_b   9.39012137
_cell_length_c   9.39012100
_cell_angle_alpha   59.99999780
_cell_angle_beta   59.94740855
_cell_angle_gamma   59.94741533
_symmetry_Int_Tables_number   1
_chemical_formula_structural   Li3Tm16InCo4
_chemical_formula_sum   'Li3 Tm16 In1 Co4'
_cell_volume   584.06775742
_cell_formula_units_Z   1
loop_
 _symmetry_equiv_pos_site_id
 _symmetry_equiv_pos_as_xyz
  1  'x, y, z'
loop_
 _atom_site_type_symbol
 _atom_site_label
 _atom_site_symmetry_multiplicity
 _atom_site_fract_x
 _atom_site_fract_y
 _atom_site_fract_z
 _atom_site_occupancy
  Li  Li0  1  0.573620  0.575176  0.575176  1
  Li  Li1  1  0.573620  0.575176  0.276026  1
  Li  Li2  1  0.573620  0.276026  0.575176  1
  Tm  Tm3  1  0.341831  0.347621  0.347621  1
  Tm  Tm4  1  0.341831  0.347621  0.962928  1
  Tm  Tm5  1  0.341831  0.962928  0.347621  1
  Tm  Tm6  1  0.974871  0.341710  0.341710  1
  Tm  Tm7  1  0.818578  0.183709  0.183709  1
  Tm  Tm8  1  0.186663  0.811936  0.811936  1
  Tm  Tm9  1  0.186663  0.811936  0.189464  1
  Tm  Tm10  1  0.818578  0.183709  0.814004  1
  Tm  Tm11  1  0.186663  0.189464  0.811936  1
  Tm  Tm12  1  0.818578  0.814004  0.183709  1
  Tm  Tm13  1  0.934818  0.563814  0.563814  1
  Tm  Tm14  1  0.561540  0.939075  0.939075  1
  Tm  Tm15  1  0.561540  0.939075  0.560311  1
  Tm  Tm16  1  0.934818  0.563814  0.937554  1
  Tm  Tm17  1  0.561540  0.560311  0.939075  1
  Tm  Tm18  1  0.934818  0.937554  0.563814  1
  In  In19  1  0.260709  0.579763  0.579763  1
  Co  Co20  1  0.145650  0.139107  0.139107  1
  Co  Co21  1  0.145650  0.139107  0.576134  1
  Co  Co22  1  0.145650  0.576134  0.139107  1
  Co  Co23  1  0.576320  0.141226  0.141226  1
