# generated using pymatgen
data_Er3Sn3Ir2Pd
_symmetry_space_group_name_H-M   'P 1'
_cell_length_a   7.56880700
_cell_length_b   7.56880663
_cell_length_c   3.86517900
_cell_angle_alpha   90.00000000
_cell_angle_beta   90.00000000
_cell_angle_gamma   119.99999725
_symmetry_Int_Tables_number   1
_chemical_formula_structural   Er3Sn3Ir2Pd
_chemical_formula_sum   'Er3 Sn3 Ir2 Pd1'
_cell_volume   191.75870852
_cell_formula_units_Z   1
loop_
 _symmetry_equiv_pos_site_id
 _symmetry_equiv_pos_as_xyz
  1  'x, y, z'
loop_
 _atom_site_type_symbol
 _atom_site_label
 _atom_site_symmetry_multiplicity
 _atom_site_fract_x
 _atom_site_fract_y
 _atom_site_fract_z
 _atom_site_occupancy
  Er  Er0  1  0.396348  0.409007  0.500000  1
  Er  Er1  1  0.590993  0.987341  0.500000  1
  Er  Er2  1  0.012659  0.603652  0.500000  1
  Sn  Sn3  1  0.739578  0.738195  0.000000  1
  Sn  Sn4  1  0.261805  0.001383  0.000000  1
  Sn  Sn5  1  0.998617  0.260422  0.000000  1
  Ir  Ir6  1  0.333333  0.666667  0.000000  1
  Ir  Ir7  1  0.000000  0.000000  0.500000  1
  Pd  Pd8  1  0.666667  0.333333  0.000000  1
