# generated using pymatgen
data_TbEr(LuPt)2
_symmetry_space_group_name_H-M   'P 1'
_cell_length_a   4.74509200
_cell_length_b   7.09229645
_cell_length_c   8.61885466
_cell_angle_alpha   89.86692528
_cell_angle_beta   90.00000000
_cell_angle_gamma   90.00000000
_symmetry_Int_Tables_number   1
_chemical_formula_structural   TbEr(LuPt)2
_chemical_formula_sum   'Tb2 Er2 Lu4 Pt4'
_cell_volume   290.05469743
_cell_formula_units_Z   2
loop_
 _symmetry_equiv_pos_site_id
 _symmetry_equiv_pos_as_xyz
  1  'x, y, z'
loop_
 _atom_site_type_symbol
 _atom_site_label
 _atom_site_symmetry_multiplicity
 _atom_site_fract_x
 _atom_site_fract_y
 _atom_site_fract_z
 _atom_site_occupancy
  Tb  Tb0  1  0.250000  0.488159  0.171809  1
  Tb  Tb1  1  0.750000  0.511841  0.828191  1
  Er  Er2  1  0.750000  0.012090  0.668979  1
  Er  Er3  1  0.250000  0.987910  0.331021  1
  Lu  Lu4  1  0.250000  0.857936  0.921676  1
  Lu  Lu5  1  0.750000  0.142064  0.078324  1
  Lu  Lu6  1  0.750000  0.644067  0.422795  1
  Lu  Lu7  1  0.250000  0.355933  0.577205  1
  Pt  Pt8  1  0.250000  0.754915  0.593407  1
  Pt  Pt9  1  0.750000  0.245085  0.406593  1
  Pt  Pt10  1  0.750000  0.746678  0.093058  1
  Pt  Pt11  1  0.250000  0.253322  0.906942  1
