# generated using pymatgen
data_Ti2V8Si6HN
_symmetry_space_group_name_H-M   'P 1'
_cell_length_a   7.18471230
_cell_length_b   7.20422540
_cell_length_c   4.85559346
_cell_angle_alpha   89.80415555
_cell_angle_beta   90.39276298
_cell_angle_gamma   119.91044178
_symmetry_Int_Tables_number   1
_chemical_formula_structural   Ti2V8Si6HN
_chemical_formula_sum   'Ti2 V8 Si6 H1 N1'
_cell_volume   217.84652707
_cell_formula_units_Z   1
loop_
 _symmetry_equiv_pos_site_id
 _symmetry_equiv_pos_as_xyz
  1  'x, y, z'
loop_
 _atom_site_type_symbol
 _atom_site_label
 _atom_site_symmetry_multiplicity
 _atom_site_fract_x
 _atom_site_fract_y
 _atom_site_fract_z
 _atom_site_occupancy
  Ti  Ti0  1  0.233833  0.000000  0.753776  1
  Ti  Ti1  1  0.766167  0.000000  0.246224  1
  V  V2  1  0.001300  0.237272  0.758446  1
  V  V3  1  0.998700  0.762728  0.241554  1
  V  V4  1  0.764028  0.762728  0.758446  1
  V  V5  1  0.235972  0.237272  0.241554  1
  V  V6  1  0.333661  0.667323  0.500000  1
  V  V7  1  0.666339  0.332677  0.500000  1
  V  V8  1  0.665583  0.331165  0.000000  1
  V  V9  1  0.334417  0.668835  0.000000  1
  Si  Si10  1  0.598526  0.000000  0.742194  1
  Si  Si11  1  0.401474  0.000000  0.257806  1
  Si  Si12  1  0.997930  0.591915  0.744010  1
  Si  Si13  1  0.002070  0.408085  0.255990  1
  Si  Si14  1  0.406015  0.408085  0.744010  1
  Si  Si15  1  0.593985  0.591915  0.255990  1
  H  H16  1  0.000000  0.000000  0.500000  1
  N  N17  1  0.000000  0.000000  0.000000  1
