# generated using pymatgen
data_Sm8Er7Tm5Si16
_symmetry_space_group_name_H-M   'P 1'
_cell_length_a   7.72185670
_cell_length_b   7.72121643
_cell_length_c   14.19667700
_cell_angle_alpha   90.03405297
_cell_angle_beta   89.97552901
_cell_angle_gamma   89.99272013
_symmetry_Int_Tables_number   1
_chemical_formula_structural   Sm8Er7Tm5Si16
_chemical_formula_sum   'Sm8 Er7 Tm5 Si16'
_cell_volume   846.43584305
_cell_formula_units_Z   1
loop_
 _symmetry_equiv_pos_site_id
 _symmetry_equiv_pos_as_xyz
  1  'x, y, z'
loop_
 _atom_site_type_symbol
 _atom_site_label
 _atom_site_symmetry_multiplicity
 _atom_site_fract_x
 _atom_site_fract_y
 _atom_site_fract_z
 _atom_site_occupancy
  Sm  Sm0  1  0.641549  0.993245  0.458333  1
  Sm  Sm1  1  0.358326  0.006868  0.958667  1
  Sm  Sm2  1  0.993311  0.641415  0.541592  1
  Sm  Sm3  1  0.493026  0.858532  0.208448  1
  Sm  Sm4  1  0.506953  0.141397  0.708371  1
  Sm  Sm5  1  0.858565  0.493335  0.791616  1
  Sm  Sm6  1  0.141454  0.506849  0.291450  1
  Sm  Sm7  1  0.006820  0.358527  0.041528  1
  Er  Er8  1  0.492232  0.360571  0.124369  1
  Er  Er9  1  0.992166  0.139417  0.625713  1
  Er  Er10  1  0.860600  0.007953  0.874375  1
  Er  Er11  1  0.139415  0.992084  0.374209  1
  Er  Er12  1  0.507882  0.639440  0.624280  1
  Er  Er13  1  0.360466  0.492321  0.875839  1
  Er  Er14  1  0.639553  0.507855  0.375602  1
  Tm  Tm15  1  0.007555  0.860433  0.125710  1
  Tm  Tm16  1  0.317478  0.317357  0.499969  1
  Tm  Tm17  1  0.182497  0.817388  0.750080  1
  Tm  Tm18  1  0.817542  0.182234  0.249943  1
  Tm  Tm19  1  0.682559  0.682729  0.000049  1
  Si  Si20  1  0.291475  0.938300  0.561983  1
  Si  Si21  1  0.708806  0.061434  0.062174  1
  Si  Si22  1  0.938343  0.291324  0.437949  1
  Si  Si23  1  0.438279  0.208457  0.311984  1
  Si  Si24  1  0.561625  0.791545  0.812052  1
  Si  Si25  1  0.208607  0.438347  0.688023  1
  Si  Si26  1  0.791670  0.561977  0.187833  1
  Si  Si27  1  0.061587  0.708982  0.938314  1
  Si  Si28  1  0.797072  0.847015  0.687781  1
  Si  Si29  1  0.202778  0.152331  0.187362  1
  Si  Si30  1  0.847233  0.797033  0.311850  1
  Si  Si31  1  0.347102  0.702987  0.437691  1
  Si  Si32  1  0.652954  0.297166  0.937733  1
  Si  Si33  1  0.703069  0.347018  0.562202  1
  Si  Si34  1  0.296405  0.653126  0.062604  1
  Si  Si35  1  0.153044  0.203006  0.812323  1
