# generated using pymatgen
data_Ta6Be17Ni6
_symmetry_space_group_name_H-M   'P 1'
_cell_length_a   7.52231328
_cell_length_b   7.53317121
_cell_length_c   7.53317000
_cell_angle_alpha   59.99999652
_cell_angle_beta   59.95223675
_cell_angle_gamma   59.95223633
_symmetry_Int_Tables_number   1
_chemical_formula_structural   Ta6Be17Ni6
_chemical_formula_sum   'Ta6 Be17 Ni6'
_cell_volume   301.63247592
_cell_formula_units_Z   1
loop_
 _symmetry_equiv_pos_site_id
 _symmetry_equiv_pos_as_xyz
  1  'x, y, z'
loop_
 _atom_site_type_symbol
 _atom_site_label
 _atom_site_symmetry_multiplicity
 _atom_site_fract_x
 _atom_site_fract_y
 _atom_site_fract_z
 _atom_site_occupancy
  Ta  Ta0  1  0.705771  0.297197  0.297197  1
  Ta  Ta1  1  0.294229  0.702803  0.702803  1
  Ta  Ta2  1  0.294229  0.702803  0.300167  1
  Ta  Ta3  1  0.705771  0.297197  0.699833  1
  Ta  Ta4  1  0.294229  0.300167  0.702803  1
  Ta  Ta5  1  0.705771  0.699833  0.297197  1
  Be  Be6  1  0.325844  0.327013  0.327013  1
  Be  Be7  1  0.674156  0.672987  0.672987  1
  Be  Be8  1  0.325844  0.327013  0.020128  1
  Be  Be9  1  0.325844  0.020128  0.327013  1
  Be  Be10  1  0.674156  0.672987  0.979872  1
  Be  Be11  1  0.674156  0.979872  0.672987  1
  Be  Be12  1  0.025454  0.324848  0.324848  1
  Be  Be13  1  0.974546  0.675152  0.675152  1
  Be  Be14  1  0.500000  0.000000  0.000000  1
  Be  Be15  1  0.000000  0.500000  0.500000  1
  Be  Be16  1  0.000000  0.500000  0.000000  1
  Be  Be17  1  0.500000  0.000000  0.500000  1
  Be  Be18  1  0.000000  0.000000  0.500000  1
  Be  Be19  1  0.500000  0.500000  0.000000  1
  Be  Be20  1  0.000000  0.000000  0.000000  1
  Be  Be21  1  0.635312  0.121563  0.121563  1
  Be  Be22  1  0.364688  0.878437  0.878437  1
  Ni  Ni23  1  0.125680  0.119606  0.119606  1
  Ni  Ni24  1  0.874320  0.880395  0.880394  1
  Ni  Ni25  1  0.125680  0.119606  0.635108  1
  Ni  Ni26  1  0.125680  0.635108  0.119605  1
  Ni  Ni27  1  0.874320  0.880395  0.364892  1
  Ni  Ni28  1  0.874320  0.364892  0.880394  1
