# generated using pymatgen
data_Tb3Si2Ni3
_symmetry_space_group_name_H-M   'P 1'
_cell_length_a   5.52308000
_cell_length_b   7.33581900
_cell_length_c   14.38823200
_cell_angle_alpha   90.00000000
_cell_angle_beta   90.00000000
_cell_angle_gamma   90.00000000
_symmetry_Int_Tables_number   1
_chemical_formula_structural   Tb3Si2Ni3
_chemical_formula_sum   'Tb12 Si8 Ni12'
_cell_volume   582.95814292
_cell_formula_units_Z   4
loop_
 _symmetry_equiv_pos_site_id
 _symmetry_equiv_pos_as_xyz
  1  'x, y, z'
loop_
 _atom_site_type_symbol
 _atom_site_label
 _atom_site_symmetry_multiplicity
 _atom_site_fract_x
 _atom_site_fract_y
 _atom_site_fract_z
 _atom_site_occupancy
  Tb  Tb0  1  0.876144  0.838755  0.750000  1
  Tb  Tb1  1  0.856340  0.529092  0.391478  1
  Tb  Tb2  1  0.356340  0.970908  0.608522  1
  Tb  Tb3  1  0.143660  0.470908  0.891478  1
  Tb  Tb4  1  0.643660  0.029093  0.108522  1
  Tb  Tb5  1  0.123856  0.161245  0.250000  1
  Tb  Tb6  1  0.143660  0.470908  0.608522  1
  Tb  Tb7  1  0.643660  0.029093  0.391478  1
  Tb  Tb8  1  0.376144  0.661245  0.250000  1
  Tb  Tb9  1  0.356340  0.970908  0.891478  1
  Tb  Tb10  1  0.623856  0.338755  0.750000  1
  Tb  Tb11  1  0.856340  0.529092  0.108522  1
  Si  Si12  1  0.641040  0.627254  0.901719  1
  Si  Si13  1  0.858960  0.127254  0.598281  1
  Si  Si14  1  0.141040  0.872746  0.098281  1
  Si  Si15  1  0.141040  0.872746  0.401719  1
  Si  Si16  1  0.641040  0.627254  0.598281  1
  Si  Si17  1  0.858960  0.127254  0.901719  1
  Si  Si18  1  0.358960  0.372746  0.098281  1
  Si  Si19  1  0.358960  0.372746  0.401719  1
  Ni  Ni20  1  0.597723  0.334758  0.964604  1
  Ni  Ni21  1  0.097723  0.165242  0.464604  1
  Ni  Ni22  1  0.097723  0.165242  0.035396  1
  Ni  Ni23  1  0.420372  0.683450  0.750000  1
  Ni  Ni24  1  0.902277  0.834758  0.964604  1
  Ni  Ni25  1  0.579628  0.316550  0.250000  1
  Ni  Ni26  1  0.902277  0.834758  0.535396  1
  Ni  Ni27  1  0.920372  0.816550  0.250000  1
  Ni  Ni28  1  0.597723  0.334758  0.535396  1
  Ni  Ni29  1  0.402277  0.665242  0.464604  1
  Ni  Ni30  1  0.079628  0.183450  0.750000  1
  Ni  Ni31  1  0.402277  0.665242  0.035396  1
