# generated using pymatgen
data_Y5Tm5Si5Ge
_symmetry_space_group_name_H-M   'P 1'
_cell_length_a   8.40047610
_cell_length_b   8.40654582
_cell_length_c   6.29156600
_cell_angle_alpha   90.00000000
_cell_angle_beta   90.00000000
_cell_angle_gamma   120.03125604
_symmetry_Int_Tables_number   1
_chemical_formula_structural   Y5Tm5Si5Ge
_chemical_formula_sum   'Y5 Tm5 Si5 Ge1'
_cell_volume   384.65732167
_cell_formula_units_Z   1
loop_
 _symmetry_equiv_pos_site_id
 _symmetry_equiv_pos_as_xyz
  1  'x, y, z'
loop_
 _atom_site_type_symbol
 _atom_site_label
 _atom_site_symmetry_multiplicity
 _atom_site_fract_x
 _atom_site_fract_y
 _atom_site_fract_z
 _atom_site_occupancy
  Y  Y0  1  0.757559  0.756909  0.250000  1
  Y  Y1  1  0.242994  0.998270  0.250000  1
  Y  Y2  1  0.998913  0.244419  0.250000  1
  Y  Y3  1  0.243204  0.243015  0.750000  1
  Y  Y4  1  0.756413  0.999757  0.750000  1
  Tm  Tm5  1  0.667659  0.333627  0.500809  1
  Tm  Tm6  1  0.332862  0.667397  0.500804  1
  Tm  Tm7  1  0.332862  0.667397  0.999196  1
  Tm  Tm8  1  0.667659  0.333627  0.999191  1
  Tm  Tm9  1  0.999948  0.755455  0.750000  1
  Si  Si10  1  0.604866  0.999900  0.250000  1
  Si  Si11  1  0.999965  0.604720  0.250000  1
  Si  Si12  1  0.606666  0.605540  0.750000  1
  Si  Si13  1  0.393489  0.998920  0.750000  1
  Si  Si14  1  0.000040  0.396208  0.750000  1
  Ge  Ge15  1  0.394902  0.394841  0.250000  1
