# generated using pymatgen
data_Hf6Al6IrPd5
_symmetry_space_group_name_H-M   'P 1'
_cell_length_a   7.23867700
_cell_length_b   7.23867660
_cell_length_c   6.93803000
_cell_angle_alpha   90.00000000
_cell_angle_beta   90.00000000
_cell_angle_gamma   119.99999725
_symmetry_Int_Tables_number   1
_chemical_formula_structural   Hf6Al6IrPd5
_chemical_formula_sum   'Hf6 Al6 Ir1 Pd5'
_cell_volume   314.83658257
_cell_formula_units_Z   1
loop_
 _symmetry_equiv_pos_site_id
 _symmetry_equiv_pos_as_xyz
  1  'x, y, z'
loop_
 _atom_site_type_symbol
 _atom_site_label
 _atom_site_symmetry_multiplicity
 _atom_site_fract_x
 _atom_site_fract_y
 _atom_site_fract_z
 _atom_site_occupancy
  Hf  Hf0  1  0.603343  0.591446  0.253890  1
  Hf  Hf1  1  0.020909  0.411684  0.745667  1
  Hf  Hf2  1  0.408554  0.011898  0.253890  1
  Hf  Hf3  1  0.988102  0.396657  0.253890  1
  Hf  Hf4  1  0.390775  0.979091  0.745667  1
  Hf  Hf5  1  0.588316  0.609225  0.745667  1
  Al  Al6  1  0.261353  0.259722  0.498513  1
  Al  Al7  1  0.740278  0.001630  0.498513  1
  Al  Al8  1  0.998370  0.738647  0.498513  1
  Al  Al9  1  0.739590  0.004497  0.999596  1
  Al  Al10  1  0.264907  0.260410  0.999596  1
  Al  Al11  1  0.995503  0.735093  0.999596  1
  Ir  Ir12  1  0.333333  0.666667  0.483881  1
  Pd  Pd13  1  0.000000  0.000000  0.750137  1
  Pd  Pd14  1  0.000000  0.000000  0.247482  1
  Pd  Pd15  1  0.333333  0.666667  0.025615  1
  Pd  Pd16  1  0.666667  0.333333  0.527393  1
  Pd  Pd17  1  0.666667  0.333333  0.972498  1
