# generated using pymatgen
data_Tm3ZrAl16(GaIr3)2
_symmetry_space_group_name_H-M   'P 1'
_cell_length_a   7.50608609
_cell_length_b   7.50474202
_cell_length_c   9.41552700
_cell_angle_alpha   90.00000000
_cell_angle_beta   90.00000000
_cell_angle_gamma   119.36592239
_symmetry_Int_Tables_number   1
_chemical_formula_structural   Tm3ZrAl16(GaIr3)2
_chemical_formula_sum   'Tm3 Zr1 Al16 Ga2 Ir6'
_cell_volume   462.23639669
_cell_formula_units_Z   1
loop_
 _symmetry_equiv_pos_site_id
 _symmetry_equiv_pos_as_xyz
  1  'x, y, z'
loop_
 _atom_site_type_symbol
 _atom_site_label
 _atom_site_symmetry_multiplicity
 _atom_site_fract_x
 _atom_site_fract_y
 _atom_site_fract_z
 _atom_site_occupancy
  Tm  Tm0  1  0.005392  0.322979  0.750000  1
  Tm  Tm1  1  0.677801  0.995401  0.250000  1
  Tm  Tm2  1  0.324256  0.006065  0.750000  1
  Zr  Zr3  1  0.995550  0.675307  0.250000  1
  Al  Al4  1  0.001034  0.338790  0.077979  1
  Al  Al5  1  0.998881  0.663896  0.927579  1
  Al  Al6  1  0.998881  0.663896  0.572421  1
  Al  Al7  1  0.334096  0.998967  0.421230  1
  Al  Al8  1  0.001034  0.338790  0.422021  1
  Al  Al9  1  0.663223  0.998029  0.574713  1
  Al  Al10  1  0.663223  0.998029  0.925287  1
  Al  Al11  1  0.334096  0.998967  0.078770  1
  Al  Al12  1  0.333535  0.333579  0.555586  1
  Al  Al13  1  0.667561  0.665710  0.442317  1
  Al  Al14  1  0.667561  0.665710  0.057683  1
  Al  Al15  1  0.333535  0.333579  0.944414  1
  Al  Al16  1  0.335430  0.553209  0.250000  1
  Al  Al17  1  0.661346  0.449541  0.750000  1
  Al  Al18  1  0.557814  0.342990  0.250000  1
  Al  Al19  1  0.448251  0.661041  0.750000  1
  Ga  Ga20  1  0.134830  0.132822  0.250000  1
  Ga  Ga21  1  0.864175  0.863822  0.750000  1
  Ir  Ir22  1  0.671856  0.327886  0.000370  1
  Ir  Ir23  1  0.328089  0.672006  0.000840  1
  Ir  Ir24  1  0.328089  0.672006  0.499160  1
  Ir  Ir25  1  0.671856  0.327886  0.499630  1
  Ir  Ir26  1  0.999302  0.999552  0.000952  1
  Ir  Ir27  1  0.999302  0.999552  0.499048  1
