# generated using pymatgen
data_Hf15ThBi18
_symmetry_space_group_name_H-M   'P 1'
_cell_length_a   10.87002000
_cell_length_b   10.87002000
_cell_length_c   7.65303800
_cell_angle_alpha   90.00000000
_cell_angle_beta   90.00000000
_cell_angle_gamma   90.00000000
_symmetry_Int_Tables_number   1
_chemical_formula_structural   Hf15ThBi18
_chemical_formula_sum   'Hf15 Th1 Bi18'
_cell_volume   904.26257321
_cell_formula_units_Z   1
loop_
 _symmetry_equiv_pos_site_id
 _symmetry_equiv_pos_as_xyz
  1  'x, y, z'
loop_
 _atom_site_type_symbol
 _atom_site_label
 _atom_site_symmetry_multiplicity
 _atom_site_fract_x
 _atom_site_fract_y
 _atom_site_fract_z
 _atom_site_occupancy
  Hf  Hf0  1  0.000640  0.000640  0.000934  1
  Hf  Hf1  1  0.499360  0.000640  0.000934  1
  Hf  Hf2  1  0.000640  0.499360  0.000934  1
  Hf  Hf3  1  0.499360  0.499360  0.000934  1
  Hf  Hf4  1  0.750000  0.105569  0.152158  1
  Hf  Hf5  1  0.750000  0.394430  0.152158  1
  Hf  Hf6  1  0.105569  0.750000  0.152158  1
  Hf  Hf7  1  0.394430  0.750000  0.152158  1
  Hf  Hf8  1  0.250000  0.250000  0.433294  1
  Hf  Hf9  1  0.750000  0.750000  0.565224  1
  Hf  Hf10  1  0.604622  0.249999  0.846138  1
  Hf  Hf11  1  0.895379  0.250000  0.846138  1
  Hf  Hf12  1  0.249999  0.604622  0.846138  1
  Hf  Hf13  1  0.250000  0.895379  0.846138  1
  Hf  Hf14  1  0.250000  0.250000  0.921727  1
  Th  Th15  1  0.750000  0.750000  0.079734  1
  Bi  Bi16  1  0.250000  0.016175  0.196418  1
  Bi  Bi17  1  0.016175  0.250000  0.196418  1
  Bi  Bi18  1  0.483824  0.249999  0.196418  1
  Bi  Bi19  1  0.249999  0.483824  0.196418  1
  Bi  Bi20  1  0.578862  0.578862  0.357715  1
  Bi  Bi21  1  0.921138  0.578862  0.357715  1
  Bi  Bi22  1  0.921138  0.921138  0.357715  1
  Bi  Bi23  1  0.578862  0.921138  0.357715  1
  Bi  Bi24  1  0.750000  0.250000  0.496650  1
  Bi  Bi25  1  0.250000  0.750000  0.496650  1
  Bi  Bi26  1  0.415093  0.084907  0.650901  1
  Bi  Bi27  1  0.084907  0.084907  0.650901  1
  Bi  Bi28  1  0.084907  0.415093  0.650901  1
  Bi  Bi29  1  0.415093  0.415093  0.650901  1
  Bi  Bi30  1  0.750000  0.509356  0.797418  1
  Bi  Bi31  1  0.509356  0.750000  0.797418  1
  Bi  Bi32  1  0.990644  0.750000  0.797418  1
  Bi  Bi33  1  0.750000  0.990644  0.797418  1
