# generated using pymatgen
data_Zr4Ga7Ir6
_symmetry_space_group_name_H-M   'P 1'
_cell_length_a   7.12666661
_cell_length_b   7.12666501
_cell_length_c   7.12666600
_cell_angle_alpha   109.04598846
_cell_angle_beta   109.04599254
_cell_angle_gamma   110.32507419
_symmetry_Int_Tables_number   1
_chemical_formula_structural   Zr4Ga7Ir6
_chemical_formula_sum   'Zr4 Ga7 Ir6'
_cell_volume   278.58954309
_cell_formula_units_Z   1
loop_
 _symmetry_equiv_pos_site_id
 _symmetry_equiv_pos_as_xyz
  1  'x, y, z'
loop_
 _atom_site_type_symbol
 _atom_site_label
 _atom_site_symmetry_multiplicity
 _atom_site_fract_x
 _atom_site_fract_y
 _atom_site_fract_z
 _atom_site_occupancy
  Zr  Zr0  1  0.004386  0.995614  0.500000  1
  Zr  Zr1  1  0.004386  0.504386  0.008770  1
  Zr  Zr2  1  0.495614  0.995614  0.991230  1
  Zr  Zr3  1  0.495614  0.504386  0.500000  1
  Ga  Ga4  1  0.750000  0.250000  0.500000  1
  Ga  Ga5  1  0.686613  0.686613  0.000000  1
  Ga  Ga6  1  0.296258  0.993081  0.303177  1
  Ga  Ga7  1  0.006919  0.310096  0.303177  1
  Ga  Ga8  1  0.313387  0.313387  0.000000  1
  Ga  Ga9  1  0.689904  0.993081  0.696823  1
  Ga  Ga10  1  0.006919  0.703742  0.696823  1
  Ir  Ir11  1  0.746695  0.490617  0.256078  1
  Ir  Ir12  1  0.509383  0.253305  0.743922  1
  Ir  Ir13  1  0.234539  0.490617  0.743922  1
  Ir  Ir14  1  0.250000  0.750000  0.500000  1
  Ir  Ir15  1  0.509383  0.765461  0.256078  1
  Ir  Ir16  1  0.000000  0.000000  0.000000  1
