# generated using pymatgen
data_Ho11LuGa9Si9Ge2
_symmetry_space_group_name_H-M   'P 1'
_cell_length_a   5.93415318
_cell_length_b   5.93415377
_cell_length_c   18.60647300
_cell_angle_alpha   90.00000000
_cell_angle_beta   90.00000000
_cell_angle_gamma   102.89449181
_symmetry_Int_Tables_number   1
_chemical_formula_structural   Ho11LuGa9Si9Ge2
_chemical_formula_sum   'Ho11 Lu1 Ga9 Si9 Ge2'
_cell_volume   638.68894205
_cell_formula_units_Z   1
loop_
 _symmetry_equiv_pos_site_id
 _symmetry_equiv_pos_as_xyz
  1  'x, y, z'
loop_
 _atom_site_type_symbol
 _atom_site_label
 _atom_site_symmetry_multiplicity
 _atom_site_fract_x
 _atom_site_fract_y
 _atom_site_fract_z
 _atom_site_occupancy
  Ho  Ho0  1  0.659888  0.659888  0.500000  1
  Ho  Ho1  1  0.341243  0.341243  0.250379  1
  Ho  Ho2  1  0.341243  0.341243  0.749621  1
  Ho  Ho3  1  0.200476  0.802234  0.128014  1
  Ho  Ho4  1  0.198760  0.801753  0.625062  1
  Ho  Ho5  1  0.200476  0.802234  0.871986  1
  Ho  Ho6  1  0.198760  0.801753  0.374938  1
  Ho  Ho7  1  0.802234  0.200476  0.128014  1
  Ho  Ho8  1  0.801753  0.198760  0.625062  1
  Ho  Ho9  1  0.801753  0.198760  0.374938  1
  Ho  Ho10  1  0.802234  0.200476  0.871986  1
  Lu  Lu11  1  0.652369  0.652369  0.000000  1
  Ga  Ga12  1  0.317805  0.317805  0.902404  1
  Ga  Ga13  1  0.323198  0.323198  0.402234  1
  Ga  Ga14  1  0.677966  0.677966  0.347994  1
  Ga  Ga15  1  0.677603  0.677603  0.848356  1
  Ga  Ga16  1  0.317805  0.317805  0.097596  1
  Ga  Ga17  1  0.323198  0.323198  0.597766  1
  Ga  Ga18  1  0.677603  0.677603  0.151644  1
  Ga  Ga19  1  0.677966  0.677966  0.652006  1
  Ga  Ga20  1  0.038093  0.038093  0.000000  1
  Si  Si21  1  0.483990  0.088173  0.500000  1
  Si  Si22  1  0.912870  0.517353  0.250402  1
  Si  Si23  1  0.912870  0.517353  0.749598  1
  Si  Si24  1  0.517353  0.912870  0.250402  1
  Si  Si25  1  0.517353  0.912870  0.749598  1
  Si  Si26  1  0.088173  0.483990  0.500000  1
  Si  Si27  1  0.052070  0.052070  0.500000  1
  Si  Si28  1  0.949244  0.949244  0.250689  1
  Si  Si29  1  0.949244  0.949244  0.749311  1
  Ge  Ge30  1  0.498619  0.085792  0.000000  1
  Ge  Ge31  1  0.085792  0.498619  0.000000  1
