# generated using pymatgen
data_Gd9U3S20
_symmetry_space_group_name_H-M   'P 1'
_cell_length_a   7.40371255
_cell_length_b   8.05692500
_cell_length_c   11.77857500
_cell_angle_alpha   90.00000000
_cell_angle_beta   90.15629280
_cell_angle_gamma   90.00000000
_symmetry_Int_Tables_number   1
_chemical_formula_structural   Gd9U3S20
_chemical_formula_sum   'Gd9 U3 S20'
_cell_volume   702.60300899
_cell_formula_units_Z   1
loop_
 _symmetry_equiv_pos_site_id
 _symmetry_equiv_pos_as_xyz
  1  'x, y, z'
loop_
 _atom_site_type_symbol
 _atom_site_label
 _atom_site_symmetry_multiplicity
 _atom_site_fract_x
 _atom_site_fract_y
 _atom_site_fract_z
 _atom_site_occupancy
  Gd  Gd0  1  0.925746  0.750000  0.494559  1
  Gd  Gd1  1  0.477600  0.998297  0.321981  1
  Gd  Gd2  1  0.981020  0.996361  0.178650  1
  Gd  Gd3  1  0.520116  0.500457  0.676928  1
  Gd  Gd4  1  0.023172  0.498932  0.822560  1
  Gd  Gd5  1  0.520116  0.999543  0.676928  1
  Gd  Gd6  1  0.023172  0.001068  0.822560  1
  Gd  Gd7  1  0.477600  0.501703  0.321981  1
  Gd  Gd8  1  0.981020  0.503639  0.178650  1
  U  U9  1  0.428774  0.250000  0.010750  1
  U  U10  1  0.062399  0.250000  0.506153  1
  U  U11  1  0.575408  0.750000  0.986853  1
  S  S12  1  0.173671  0.750000  0.310823  1
  S  S13  1  0.668201  0.250000  0.187520  1
  S  S14  1  0.828542  0.250000  0.685696  1
  S  S15  1  0.329198  0.750000  0.812084  1
  S  S16  1  0.539503  0.750000  0.498570  1
  S  S17  1  0.043266  0.250000  0.000451  1
  S  S18  1  0.451530  0.250000  0.498452  1
  S  S19  1  0.959534  0.750000  0.000982  1
  S  S20  1  0.801334  0.750000  0.721323  1
  S  S21  1  0.306671  0.250000  0.787660  1
  S  S22  1  0.197504  0.250000  0.283384  1
  S  S23  1  0.696088  0.750000  0.213681  1
  S  S24  1  0.163182  0.531913  0.600694  1
  S  S25  1  0.663186  0.455748  0.903502  1
  S  S26  1  0.838304  0.046113  0.401126  1
  S  S27  1  0.339739  0.956734  0.095089  1
  S  S28  1  0.838304  0.453887  0.401126  1
  S  S29  1  0.339739  0.543266  0.095089  1
  S  S30  1  0.163182  0.968087  0.600694  1
  S  S31  1  0.663186  0.044252  0.903502  1
