# generated using pymatgen
data_Y6BiO12
_symmetry_space_group_name_H-M   'P 1'
_cell_length_a   6.59265200
_cell_length_b   6.59265203
_cell_length_c   6.59265194
_cell_angle_alpha   99.06245276
_cell_angle_beta   99.06245188
_cell_angle_gamma   99.06245428
_symmetry_Int_Tables_number   1
_chemical_formula_structural   Y6BiO12
_chemical_formula_sum   'Y6 Bi1 O12'
_cell_volume   274.50098122
_cell_formula_units_Z   1
loop_
 _symmetry_equiv_pos_site_id
 _symmetry_equiv_pos_as_xyz
  1  'x, y, z'
loop_
 _atom_site_type_symbol
 _atom_site_label
 _atom_site_symmetry_multiplicity
 _atom_site_fract_x
 _atom_site_fract_y
 _atom_site_fract_z
 _atom_site_occupancy
  Y  Y0  1  0.392461  0.692975  0.859285  1
  Y  Y1  1  0.859285  0.392461  0.692975  1
  Y  Y2  1  0.692975  0.859285  0.392461  1
  Y  Y3  1  0.607539  0.307025  0.140715  1
  Y  Y4  1  0.140715  0.607539  0.307025  1
  Y  Y5  1  0.307025  0.140715  0.607539  1
  Bi  Bi6  1  0.000000  0.000000  0.000000  1
  O  O7  1  0.178592  0.433084  0.584830  1
  O  O8  1  0.584830  0.178592  0.433084  1
  O  O9  1  0.433084  0.584830  0.178592  1
  O  O10  1  0.821408  0.566916  0.415170  1
  O  O11  1  0.415170  0.821408  0.566916  1
  O  O12  1  0.566916  0.415170  0.821408  1
  O  O13  1  0.927212  0.051865  0.685379  1
  O  O14  1  0.948135  0.314621  0.072788  1
  O  O15  1  0.314621  0.072788  0.948135  1
  O  O16  1  0.072788  0.948135  0.314621  1
  O  O17  1  0.051865  0.685379  0.927212  1
  O  O18  1  0.685379  0.927212  0.051865  1
