# generated using pymatgen
data_Hf10ZnCuSnSb5
_symmetry_space_group_name_H-M   'P 1'
_cell_length_a   8.59693321
_cell_length_b   8.59693389
_cell_length_c   5.77205407
_cell_angle_alpha   90.00897028
_cell_angle_beta   90.00896623
_cell_angle_gamma   120.09016212
_symmetry_Int_Tables_number   1
_chemical_formula_structural   Hf10ZnCuSnSb5
_chemical_formula_sum   'Hf10 Zn1 Cu1 Sn1 Sb5'
_cell_volume   369.10748557
_cell_formula_units_Z   1
loop_
 _symmetry_equiv_pos_site_id
 _symmetry_equiv_pos_as_xyz
  1  'x, y, z'
loop_
 _atom_site_type_symbol
 _atom_site_label
 _atom_site_symmetry_multiplicity
 _atom_site_fract_x
 _atom_site_fract_y
 _atom_site_fract_z
 _atom_site_occupancy
  Hf  Hf0  1  0.666958  0.333134  0.999466  1
  Hf  Hf1  1  0.333134  0.666958  0.999466  1
  Hf  Hf2  1  0.333224  0.666987  0.500576  1
  Hf  Hf3  1  0.666987  0.333224  0.500576  1
  Hf  Hf4  1  0.733734  0.733734  0.751875  1
  Hf  Hf5  1  0.267280  0.999729  0.752011  1
  Hf  Hf6  1  0.999729  0.267280  0.752011  1
  Hf  Hf7  1  0.265432  0.265432  0.247854  1
  Hf  Hf8  1  0.733616  0.999882  0.248131  1
  Hf  Hf9  1  0.999882  0.733616  0.248131  1
  Zn  Zn10  1  0.000684  0.000684  0.501313  1
  Cu  Cu11  1  0.001001  0.001001  0.998316  1
  Sn  Sn12  1  0.384326  0.384326  0.749406  1
  Sb  Sb13  1  0.614921  0.999938  0.749469  1
  Sb  Sb14  1  0.999938  0.614921  0.749469  1
  Sb  Sb15  1  0.613474  0.613474  0.250546  1
  Sb  Sb16  1  0.385367  0.000310  0.250691  1
  Sb  Sb17  1  0.000310  0.385367  0.250691  1
