# generated using pymatgen
data_Ba10RePN10
_symmetry_space_group_name_H-M   'P 1'
_cell_length_a   8.05416532
_cell_length_b   8.05416518
_cell_length_c   9.49728561
_cell_angle_alpha   76.05066374
_cell_angle_beta   76.05066323
_cell_angle_gamma   95.93555283
_symmetry_Int_Tables_number   1
_chemical_formula_structural   Ba10RePN10
_chemical_formula_sum   'Ba10 Re1 P1 N10'
_cell_volume   571.68704165
_cell_formula_units_Z   1
loop_
 _symmetry_equiv_pos_site_id
 _symmetry_equiv_pos_as_xyz
  1  'x, y, z'
loop_
 _atom_site_type_symbol
 _atom_site_label
 _atom_site_symmetry_multiplicity
 _atom_site_fract_x
 _atom_site_fract_y
 _atom_site_fract_z
 _atom_site_occupancy
  Ba  Ba0  1  0.383936  0.398679  0.380083  1
  Ba  Ba1  1  0.601321  0.616064  0.619917  1
  Ba  Ba2  1  0.668594  0.670688  0.007376  1
  Ba  Ba3  1  0.329312  0.331406  0.992624  1
  Ba  Ba4  1  0.933101  0.913007  0.205978  1
  Ba  Ba5  1  0.086993  0.066899  0.794022  1
  Ba  Ba6  1  0.552444  0.084159  0.754681  1
  Ba  Ba7  1  0.915841  0.447556  0.245319  1
  Ba  Ba8  1  0.423894  0.895505  0.244030  1
  Ba  Ba9  1  0.104495  0.576106  0.755970  1
  Re  Re10  1  0.757248  0.242752  0.000000  1
  P  P11  1  0.242732  0.757268  0.000000  1
  N  N12  1  0.653208  0.650670  0.310521  1
  N  N13  1  0.349330  0.346792  0.689479  1
  N  N14  1  0.716084  0.018095  0.988301  1
  N  N15  1  0.981905  0.283916  0.011699  1
  N  N16  1  0.279680  0.967108  0.004654  1
  N  N17  1  0.032892  0.720320  0.995346  1
  N  N18  1  0.379192  0.728463  0.845384  1
  N  N19  1  0.271537  0.620808  0.154615  1
  N  N20  1  0.604681  0.268423  0.168678  1
  N  N21  1  0.731577  0.395319  0.831321  1
