# generated using pymatgen
data_Te19Rh
_symmetry_space_group_name_H-M   'P 1'
_cell_length_a   9.30258116
_cell_length_b   9.30257965
_cell_length_c   9.30258162
_cell_angle_alpha   86.09311327
_cell_angle_beta   86.09310447
_cell_angle_gamma   86.09310547
_symmetry_Int_Tables_number   1
_chemical_formula_structural   Te19Rh
_chemical_formula_sum   'Te19 Rh1'
_cell_volume   799.65765579
_cell_formula_units_Z   1
loop_
 _symmetry_equiv_pos_site_id
 _symmetry_equiv_pos_as_xyz
  1  'x, y, z'
loop_
 _atom_site_type_symbol
 _atom_site_label
 _atom_site_symmetry_multiplicity
 _atom_site_fract_x
 _atom_site_fract_y
 _atom_site_fract_z
 _atom_site_occupancy
  Te  Te0  1  0.500000  0.500000  0.500000  1
  Te  Te1  1  0.884382  0.068831  0.749731  1
  Te  Te2  1  0.068831  0.749731  0.884382  1
  Te  Te3  1  0.749731  0.884382  0.068831  1
  Te  Te4  1  0.115618  0.931169  0.250269  1
  Te  Te5  1  0.931169  0.250269  0.115618  1
  Te  Te6  1  0.250269  0.115618  0.931169  1
  Te  Te7  1  0.489794  0.835447  0.487631  1
  Te  Te8  1  0.835447  0.487631  0.489794  1
  Te  Te9  1  0.487631  0.489794  0.835447  1
  Te  Te10  1  0.510206  0.164553  0.512369  1
  Te  Te11  1  0.164553  0.512369  0.510206  1
  Te  Te12  1  0.512369  0.510206  0.164553  1
  Te  Te13  1  0.632520  0.222671  0.168198  1
  Te  Te14  1  0.222671  0.168198  0.632520  1
  Te  Te15  1  0.168198  0.632520  0.222671  1
  Te  Te16  1  0.367480  0.777329  0.831802  1
  Te  Te17  1  0.777329  0.831802  0.367480  1
  Te  Te18  1  0.831802  0.367480  0.777329  1
  Rh  Rh19  1  0.000000  0.000000  0.000000  1
