# generated using pymatgen
data_Ba4Tb2AlCoO10
_symmetry_space_group_name_H-M   'P 1'
_cell_length_a   6.13680200
_cell_length_b   7.89046138
_cell_length_c   12.62709907
_cell_angle_alpha   91.18103801
_cell_angle_beta   90.00000000
_cell_angle_gamma   90.00000000
_symmetry_Int_Tables_number   1
_chemical_formula_structural   Ba4Tb2AlCoO10
_chemical_formula_sum   'Ba8 Tb4 Al2 Co2 O20'
_cell_volume   611.30201296
_cell_formula_units_Z   2
loop_
 _symmetry_equiv_pos_site_id
 _symmetry_equiv_pos_as_xyz
  1  'x, y, z'
loop_
 _atom_site_type_symbol
 _atom_site_label
 _atom_site_symmetry_multiplicity
 _atom_site_fract_x
 _atom_site_fract_y
 _atom_site_fract_z
 _atom_site_occupancy
  Ba  Ba0  1  0.762872  0.484506  0.355465  1
  Ba  Ba1  1  0.737128  0.984506  0.855465  1
  Ba  Ba2  1  0.235993  0.511546  0.642720  1
  Ba  Ba3  1  0.264007  0.011546  0.142720  1
  Ba  Ba4  1  0.757983  0.999202  0.377424  1
  Ba  Ba5  1  0.742017  0.499202  0.877424  1
  Ba  Ba6  1  0.242675  0.005883  0.619212  1
  Ba  Ba7  1  0.257325  0.505883  0.119212  1
  Tb  Tb8  1  0.746589  0.261555  0.629309  1
  Tb  Tb9  1  0.753411  0.761555  0.129309  1
  Tb  Tb10  1  0.253312  0.736683  0.373828  1
  Tb  Tb11  1  0.246688  0.236683  0.873828  1
  Al  Al12  1  0.738448  0.746134  0.584560  1
  Al  Al13  1  0.761552  0.246134  0.084560  1
  Co  Co14  1  0.261127  0.253977  0.410120  1
  Co  Co15  1  0.238873  0.753977  0.910120  1
  O  O16  1  0.760474  0.958790  0.638148  1
  O  O17  1  0.739526  0.458790  0.138148  1
  O  O18  1  0.239663  0.029747  0.366059  1
  O  O19  1  0.260337  0.529747  0.866059  1
  O  O20  1  0.735507  0.067664  0.168902  1
  O  O21  1  0.764493  0.567664  0.668902  1
  O  O22  1  0.266456  0.944937  0.830924  1
  O  O23  1  0.233544  0.444937  0.330924  1
  O  O24  1  0.548981  0.747636  0.274086  1
  O  O25  1  0.951019  0.247636  0.774086  1
  O  O26  1  0.449193  0.253915  0.726850  1
  O  O27  1  0.050807  0.753915  0.226850  1
  O  O28  1  0.547120  0.230265  0.986463  1
  O  O29  1  0.952880  0.730265  0.486463  1
  O  O30  1  0.462580  0.769758  0.016055  1
  O  O31  1  0.037420  0.269758  0.516055  1
  O  O32  1  0.024093  0.235696  0.021515  1
  O  O33  1  0.475907  0.735696  0.521515  1
  O  O34  1  0.962670  0.762105  0.978361  1
  O  O35  1  0.537330  0.262105  0.478361  1
