# generated using pymatgen
data_U6TiIr5Pt16
_symmetry_space_group_name_H-M   'P 1'
_cell_length_a   5.82146227
_cell_length_b   5.82146129
_cell_length_c   16.53476935
_cell_angle_alpha   90.40619691
_cell_angle_beta   89.59380211
_cell_angle_gamma   119.85973374
_symmetry_Int_Tables_number   1
_chemical_formula_structural   U6TiIr5Pt16
_chemical_formula_sum   'U6 Ti1 Ir5 Pt16'
_cell_volume   485.94867893
_cell_formula_units_Z   1
loop_
 _symmetry_equiv_pos_site_id
 _symmetry_equiv_pos_as_xyz
  1  'x, y, z'
loop_
 _atom_site_type_symbol
 _atom_site_label
 _atom_site_symmetry_multiplicity
 _atom_site_fract_x
 _atom_site_fract_y
 _atom_site_fract_z
 _atom_site_occupancy
  U  U0  1  0.002778  0.997222  0.716599  1
  U  U1  1  0.667290  0.332710  0.866652  1
  U  U2  1  0.332668  0.667332  0.133195  1
  U  U3  1  0.999970  0.000030  0.279174  1
  U  U4  1  0.663850  0.336150  0.432050  1
  U  U5  1  0.333310  0.666690  0.572985  1
  Ti  Ti6  1  0.999684  0.000316  0.999754  1
  Ir  Ir7  1  0.834008  0.667407  0.572885  1
  Ir  Ir8  1  0.332593  0.165992  0.572885  1
  Ir  Ir9  1  0.500402  0.999668  0.999361  1
  Ir  Ir10  1  0.499665  0.500335  0.999208  1
  Ir  Ir11  1  0.000332  0.499598  0.999361  1
  Pt  Pt12  1  0.170140  0.337973  0.860674  1
  Pt  Pt13  1  0.164660  0.332612  0.427382  1
  Pt  Pt14  1  0.165702  0.834298  0.428638  1
  Pt  Pt15  1  0.502776  0.003002  0.717499  1
  Pt  Pt16  1  0.667388  0.835340  0.427382  1
  Pt  Pt17  1  0.169727  0.830273  0.861741  1
  Pt  Pt18  1  0.662027  0.829860  0.860674  1
  Pt  Pt19  1  0.829735  0.170265  0.137608  1
  Pt  Pt20  1  0.834436  0.165564  0.573057  1
  Pt  Pt21  1  0.502359  0.497641  0.715991  1
  Pt  Pt22  1  0.340097  0.170821  0.137775  1
  Pt  Pt23  1  0.829179  0.659903  0.137775  1
  Pt  Pt24  1  0.498246  0.501754  0.283651  1
  Pt  Pt25  1  0.499081  0.999102  0.284271  1
  Pt  Pt26  1  0.000898  0.500919  0.284271  1
  Pt  Pt27  1  0.996998  0.497224  0.717499  1
