# generated using pymatgen
data_KCuRhF6
_symmetry_space_group_name_H-M   'P 1'
_cell_length_a   10.33234700
_cell_length_b   6.91285308
_cell_length_c   7.44857631
_cell_angle_alpha   86.08034077
_cell_angle_beta   90.00000000
_cell_angle_gamma   90.00000000
_symmetry_Int_Tables_number   1
_chemical_formula_structural   KCuRhF6
_chemical_formula_sum   'K4 Cu4 Rh4 F24'
_cell_volume   530.77752617
_cell_formula_units_Z   4
loop_
 _symmetry_equiv_pos_site_id
 _symmetry_equiv_pos_as_xyz
  1  'x, y, z'
loop_
 _atom_site_type_symbol
 _atom_site_label
 _atom_site_symmetry_multiplicity
 _atom_site_fract_x
 _atom_site_fract_y
 _atom_site_fract_z
 _atom_site_occupancy
  K  K0  1  0.112817  0.504225  0.242597  1
  K  K1  1  0.887183  0.495775  0.757403  1
  K  K2  1  0.612817  0.995775  0.757403  1
  K  K3  1  0.387183  0.004225  0.242597  1
  Cu  Cu4  1  0.734084  0.182434  0.253364  1
  Cu  Cu5  1  0.234084  0.317566  0.746636  1
  Cu  Cu6  1  0.265916  0.817566  0.746636  1
  Cu  Cu7  1  0.765916  0.682434  0.253364  1
  Rh  Rh8  1  0.000000  0.000000  0.500000  1
  Rh  Rh9  1  0.500000  0.500000  0.000000  1
  Rh  Rh10  1  0.000000  0.000000  0.000000  1
  Rh  Rh11  1  0.500000  0.500000  0.500000  1
  F  F12  1  0.941126  0.734810  0.443127  1
  F  F13  1  0.975280  0.895210  0.755844  1
  F  F14  1  0.818413  0.101178  0.490596  1
  F  F15  1  0.167588  0.858440  0.033957  1
  F  F16  1  0.832412  0.141560  0.966043  1
  F  F17  1  0.326763  0.077697  0.757708  1
  F  F18  1  0.475280  0.604790  0.244156  1
  F  F19  1  0.524720  0.395210  0.755844  1
  F  F20  1  0.558874  0.234810  0.443127  1
  F  F21  1  0.058874  0.265190  0.556873  1
  F  F22  1  0.332412  0.358440  0.033957  1
  F  F23  1  0.318413  0.398822  0.509404  1
  F  F24  1  0.173237  0.577697  0.757708  1
  F  F25  1  0.667588  0.641560  0.966043  1
  F  F26  1  0.410542  0.749376  0.924901  1
  F  F27  1  0.024720  0.104790  0.244156  1
  F  F28  1  0.181587  0.898822  0.509404  1
  F  F29  1  0.681587  0.601178  0.490596  1
  F  F30  1  0.826763  0.422303  0.242292  1
  F  F31  1  0.089458  0.249376  0.924901  1
  F  F32  1  0.673237  0.922303  0.242292  1
  F  F33  1  0.589458  0.250624  0.075099  1
  F  F34  1  0.910542  0.750624  0.075099  1
  F  F35  1  0.441126  0.765190  0.556873  1
