# generated using pymatgen
data_PrGa4Ni9
_symmetry_space_group_name_H-M   'P 1'
_cell_length_a   8.15049072
_cell_length_b   8.15049125
_cell_length_c   8.15049110
_cell_angle_alpha   120.89236035
_cell_angle_beta   120.89236294
_cell_angle_gamma   88.46121301
_symmetry_Int_Tables_number   1
_chemical_formula_structural   PrGa4Ni9
_chemical_formula_sum   'Pr2 Ga8 Ni18'
_cell_volume   377.54500927
_cell_formula_units_Z   2
loop_
 _symmetry_equiv_pos_site_id
 _symmetry_equiv_pos_as_xyz
  1  'x, y, z'
loop_
 _atom_site_type_symbol
 _atom_site_label
 _atom_site_symmetry_multiplicity
 _atom_site_fract_x
 _atom_site_fract_y
 _atom_site_fract_z
 _atom_site_occupancy
  Pr  Pr0  1  0.250000  0.250000  0.000000  1
  Pr  Pr1  1  0.750000  0.750000  0.000000  1
  Ga  Ga2  1  0.799752  0.299752  0.855774  1
  Ga  Ga3  1  0.443979  0.943979  0.144226  1
  Ga  Ga4  1  0.700248  0.556021  0.500000  1
  Ga  Ga5  1  0.056021  0.200248  0.500000  1
  Ga  Ga6  1  0.200248  0.700248  0.144226  1
  Ga  Ga7  1  0.556021  0.056021  0.855774  1
  Ga  Ga8  1  0.943979  0.799752  0.500000  1
  Ga  Ga9  1  0.299752  0.443979  0.500000  1
  Ni  Ni10  1  0.296500  0.796500  0.736170  1
  Ni  Ni11  1  0.060330  0.560330  0.263830  1
  Ni  Ni12  1  0.203500  0.939670  0.500000  1
  Ni  Ni13  1  0.439670  0.703500  0.500000  1
  Ni  Ni14  1  0.703500  0.203500  0.263830  1
  Ni  Ni15  1  0.939670  0.439670  0.736170  1
  Ni  Ni16  1  0.560330  0.296500  0.500000  1
  Ni  Ni17  1  0.796500  0.060330  0.500000  1
  Ni  Ni18  1  0.500000  0.000000  0.500000  1
  Ni  Ni19  1  0.000000  0.500000  0.500000  1
  Ni  Ni20  1  0.203705  0.066162  0.269867  1
  Ni  Ni21  1  0.796295  0.933838  0.730133  1
  Ni  Ni22  1  0.296295  0.566162  0.862458  1
  Ni  Ni23  1  0.703705  0.433838  0.137542  1
  Ni  Ni24  1  0.433838  0.296295  0.730133  1
  Ni  Ni25  1  0.566162  0.703705  0.269867  1
  Ni  Ni26  1  0.933838  0.203705  0.137542  1
  Ni  Ni27  1  0.066162  0.796295  0.862458  1
