# generated using pymatgen
data_YbTh3(Ge2Ir)4
_symmetry_space_group_name_H-M   'P 1'
_cell_length_a   9.50100183
_cell_length_b   9.50100065
_cell_length_c   9.50100123
_cell_angle_alpha   153.14271073
_cell_angle_beta   123.56331291
_cell_angle_gamma   63.57712766
_symmetry_Int_Tables_number   1
_chemical_formula_structural   YbTh3(Ge2Ir)4
_chemical_formula_sum   'Yb1 Th3 Ge8 Ir4'
_cell_volume   320.19888685
_cell_formula_units_Z   1
loop_
 _symmetry_equiv_pos_site_id
 _symmetry_equiv_pos_as_xyz
  1  'x, y, z'
loop_
 _atom_site_type_symbol
 _atom_site_label
 _atom_site_symmetry_multiplicity
 _atom_site_fract_x
 _atom_site_fract_y
 _atom_site_fract_z
 _atom_site_occupancy
  Yb  Yb0  1  0.706595  0.206595  0.500000  1
  Th  Th1  1  0.292418  0.792418  0.500000  1
  Th  Th2  1  0.272739  0.000806  0.271932  1
  Th  Th3  1  0.728875  0.000806  0.728068  1
  Ge  Ge4  1  0.582217  0.582217  0.000000  1
  Ge  Ge5  1  0.947826  0.799045  0.148781  1
  Ge  Ge6  1  0.650265  0.799045  0.851219  1
  Ge  Ge7  1  0.036560  0.198756  0.837804  1
  Ge  Ge8  1  0.919612  0.419612  0.500000  1
  Ge  Ge9  1  0.425232  0.425232  0.000000  1
  Ge  Ge10  1  0.076027  0.576027  0.500000  1
  Ge  Ge11  1  0.360952  0.198756  0.162196  1
  Ir  Ir12  1  0.901061  0.645789  0.255271  1
  Ir  Ir13  1  0.102088  0.354552  0.747535  1
  Ir  Ir14  1  0.607015  0.354552  0.252465  1
  Ir  Ir15  1  0.390519  0.645789  0.744729  1
