# generated using pymatgen
data_TbDy(LuSb)3
_symmetry_space_group_name_H-M   'P 1'
_cell_length_a   7.97221100
_cell_length_b   9.15986800
_cell_length_c   11.65278600
_cell_angle_alpha   90.00000000
_cell_angle_beta   90.00000000
_cell_angle_gamma   90.00000000
_symmetry_Int_Tables_number   1
_chemical_formula_structural   TbDy(LuSb)3
_chemical_formula_sum   'Tb4 Dy4 Lu12 Sb12'
_cell_volume   850.93771097
_cell_formula_units_Z   4
loop_
 _symmetry_equiv_pos_site_id
 _symmetry_equiv_pos_as_xyz
  1  'x, y, z'
loop_
 _atom_site_type_symbol
 _atom_site_label
 _atom_site_symmetry_multiplicity
 _atom_site_fract_x
 _atom_site_fract_y
 _atom_site_fract_z
 _atom_site_occupancy
  Tb  Tb0  1  0.315077  0.250000  0.219379  1
  Tb  Tb1  1  0.815077  0.250000  0.280621  1
  Tb  Tb2  1  0.684923  0.750000  0.780621  1
  Tb  Tb3  1  0.184923  0.750000  0.719379  1
  Dy  Dy4  1  0.352021  0.750000  0.215573  1
  Dy  Dy5  1  0.852021  0.750000  0.284427  1
  Dy  Dy6  1  0.647979  0.250000  0.784427  1
  Dy  Dy7  1  0.147979  0.250000  0.715573  1
  Lu  Lu8  1  0.691226  0.563228  0.059101  1
  Lu  Lu9  1  0.191226  0.936772  0.440899  1
  Lu  Lu10  1  0.308774  0.063228  0.940899  1
  Lu  Lu11  1  0.808774  0.436772  0.559101  1
  Lu  Lu12  1  0.308774  0.436772  0.940899  1
  Lu  Lu13  1  0.808774  0.063228  0.559101  1
  Lu  Lu14  1  0.691226  0.936772  0.059101  1
  Lu  Lu15  1  0.191226  0.563228  0.440899  1
  Lu  Lu16  1  0.474849  0.250000  0.488865  1
  Lu  Lu17  1  0.974849  0.250000  0.011135  1
  Lu  Lu18  1  0.525151  0.750000  0.511135  1
  Lu  Lu19  1  0.025151  0.750000  0.988865  1
  Sb  Sb20  1  0.405629  0.750000  0.958697  1
  Sb  Sb21  1  0.905629  0.750000  0.541303  1
  Sb  Sb22  1  0.594371  0.250000  0.041303  1
  Sb  Sb23  1  0.094371  0.250000  0.458697  1
  Sb  Sb24  1  0.565337  0.995116  0.328715  1
  Sb  Sb25  1  0.065337  0.504884  0.171285  1
  Sb  Sb26  1  0.434663  0.495116  0.671285  1
  Sb  Sb27  1  0.934663  0.004884  0.828715  1
  Sb  Sb28  1  0.434663  0.004884  0.671285  1
  Sb  Sb29  1  0.934663  0.495116  0.828715  1
  Sb  Sb30  1  0.565337  0.504884  0.328715  1
  Sb  Sb31  1  0.065337  0.995116  0.171285  1
