# generated using pymatgen
data_Na3WF8
_symmetry_space_group_name_H-M   'P 1'
_cell_length_a   6.47915039
_cell_length_b   6.47914972
_cell_length_c   11.41312147
_cell_angle_alpha   62.20978453
_cell_angle_beta   62.20978749
_cell_angle_gamma   49.42256064
_symmetry_Int_Tables_number   1
_chemical_formula_structural   Na3WF8
_chemical_formula_sum   'Na6 W2 F16'
_cell_volume   312.31799959
_cell_formula_units_Z   2
loop_
 _symmetry_equiv_pos_site_id
 _symmetry_equiv_pos_as_xyz
  1  'x, y, z'
loop_
 _atom_site_type_symbol
 _atom_site_label
 _atom_site_symmetry_multiplicity
 _atom_site_fract_x
 _atom_site_fract_y
 _atom_site_fract_z
 _atom_site_occupancy
  Na  Na0  1  0.287531  0.275763  0.602571  1
  Na  Na1  1  0.724237  0.712469  0.897429  1
  Na  Na2  1  0.712469  0.724237  0.397429  1
  Na  Na3  1  0.275763  0.287531  0.102571  1
  Na  Na4  1  0.000000  0.000000  0.500000  1
  Na  Na5  1  0.000000  0.000000  0.000000  1
  W  W6  1  0.563858  0.436142  0.750000  1
  W  W7  1  0.436142  0.563858  0.250000  1
  F  F8  1  0.626384  0.111720  0.714619  1
  F  F9  1  0.888280  0.373616  0.785381  1
  F  F10  1  0.373616  0.888280  0.285381  1
  F  F11  1  0.111720  0.626384  0.214619  1
  F  F12  1  0.205655  0.449965  0.860744  1
  F  F13  1  0.550035  0.794345  0.639256  1
  F  F14  1  0.794345  0.550035  0.139256  1
  F  F15  1  0.449965  0.205655  0.360744  1
  F  F16  1  0.658834  0.375587  0.389739  1
  F  F17  1  0.624413  0.341166  0.110261  1
  F  F18  1  0.341166  0.624413  0.610261  1
  F  F19  1  0.375587  0.658834  0.889739  1
  F  F20  1  0.108868  0.672209  0.418517  1
  F  F21  1  0.327791  0.891132  0.081483  1
  F  F22  1  0.891132  0.327791  0.581483  1
  F  F23  1  0.672209  0.108868  0.918517  1
