# generated using pymatgen
data_Yb5Ho3(Si3Ag)4
_symmetry_space_group_name_H-M   'P 1'
_cell_length_a   8.35920545
_cell_length_b   8.35921202
_cell_length_c   8.10396500
_cell_angle_alpha   89.99991306
_cell_angle_beta   90.00000080
_cell_angle_gamma   120.51075265
_symmetry_Int_Tables_number   1
_chemical_formula_structural   Yb5Ho3(Si3Ag)4
_chemical_formula_sum   'Yb5 Ho3 Si12 Ag4'
_cell_volume   487.86567781
_cell_formula_units_Z   1
loop_
 _symmetry_equiv_pos_site_id
 _symmetry_equiv_pos_as_xyz
  1  'x, y, z'
loop_
 _atom_site_type_symbol
 _atom_site_label
 _atom_site_symmetry_multiplicity
 _atom_site_fract_x
 _atom_site_fract_y
 _atom_site_fract_z
 _atom_site_occupancy
  Yb  Yb0  1  0.502328  0.004208  0.250001  1
  Yb  Yb1  1  0.497351  0.995541  0.750002  1
  Yb  Yb2  1  0.995797  0.497677  0.250000  1
  Yb  Yb3  1  0.004461  0.502652  0.750002  1
  Yb  Yb4  1  0.502150  0.497853  0.249999  1
  Ho  Ho5  1  0.498092  0.501881  0.749989  1
  Ho  Ho6  1  0.999900  0.000105  0.249994  1
  Ho  Ho7  1  0.000029  0.999950  0.750008  1
  Si  Si8  1  0.161862  0.322005  0.999464  1
  Si  Si9  1  0.838221  0.678120  0.996097  1
  Si  Si10  1  0.677999  0.838139  0.999462  1
  Si  Si11  1  0.838222  0.678121  0.503904  1
  Si  Si12  1  0.321880  0.161780  0.996097  1
  Si  Si13  1  0.161858  0.322001  0.500534  1
  Si  Si14  1  0.160983  0.839018  0.001426  1
  Si  Si15  1  0.321879  0.161779  0.503903  1
  Si  Si16  1  0.838968  0.161033  0.996261  1
  Si  Si17  1  0.678001  0.838143  0.500535  1
  Si  Si18  1  0.838968  0.161033  0.503743  1
  Si  Si19  1  0.160983  0.839017  0.498577  1
  Ag  Ag20  1  0.332966  0.667039  0.003208  1
  Ag  Ag21  1  0.667068  0.332934  0.991646  1
  Ag  Ag22  1  0.667070  0.332933  0.508355  1
  Ag  Ag23  1  0.332966  0.667038  0.496795  1
