# generated using pymatgen
data_Cs4Mn5AgSe8
_symmetry_space_group_name_H-M   'P 1'
_cell_length_a   10.04565507
_cell_length_b   10.07406372
_cell_length_c   10.04565459
_cell_angle_alpha   143.88523391
_cell_angle_beta   105.58341179
_cell_angle_gamma   85.49527001
_symmetry_Int_Tables_number   1
_chemical_formula_structural   Cs4Mn5AgSe8
_chemical_formula_sum   'Cs4 Mn5 Ag1 Se8'
_cell_volume   559.74550870
_cell_formula_units_Z   1
loop_
 _symmetry_equiv_pos_site_id
 _symmetry_equiv_pos_as_xyz
  1  'x, y, z'
loop_
 _atom_site_type_symbol
 _atom_site_label
 _atom_site_symmetry_multiplicity
 _atom_site_fract_x
 _atom_site_fract_y
 _atom_site_fract_z
 _atom_site_occupancy
  Cs  Cs0  1  0.124257  0.240622  0.360033  1
  Cs  Cs1  1  0.379918  0.731729  0.105976  1
  Cs  Cs2  1  0.619410  0.259378  0.883635  1
  Cs  Cs3  1  0.874247  0.768271  0.648189  1
  Mn  Mn4  1  0.981889  0.750000  0.231889  1
  Mn  Mn5  1  0.481522  0.250000  0.231522  1
  Mn  Mn6  1  0.748412  0.250000  0.498412  1
  Mn  Mn7  1  0.258388  0.750000  0.508388  1
  Mn  Mn8  1  0.021809  0.250000  0.771809  1
  Ag  Ag9  1  0.520983  0.750000  0.770983  1
  Se  Se10  1  0.213763  0.062886  0.584752  1
  Se  Se11  1  0.274288  0.893249  0.865194  1
  Se  Se12  1  0.021867  0.437114  0.150877  1
  Se  Se13  1  0.471946  0.606751  0.381040  1
  Se  Se14  1  0.788617  0.934518  0.414935  1
  Se  Se15  1  0.720443  0.150669  0.168494  1
  Se  Se16  1  0.980416  0.565482  0.854099  1
  Se  Se17  1  0.517825  0.349331  0.569772  1
