# generated using pymatgen
data_TbHf4Pa3(ReB6)4
_symmetry_space_group_name_H-M   'P 1'
_cell_length_a   3.62577000
_cell_length_b   9.03348201
_cell_length_c   11.40376171
_cell_angle_alpha   89.94946346
_cell_angle_beta   90.00000000
_cell_angle_gamma   90.00000000
_symmetry_Int_Tables_number   1
_chemical_formula_structural   TbHf4Pa3(ReB6)4
_chemical_formula_sum   'Tb1 Hf4 Pa3 Re4 B24'
_cell_volume   373.51100314
_cell_formula_units_Z   1
loop_
 _symmetry_equiv_pos_site_id
 _symmetry_equiv_pos_as_xyz
  1  'x, y, z'
loop_
 _atom_site_type_symbol
 _atom_site_label
 _atom_site_symmetry_multiplicity
 _atom_site_fract_x
 _atom_site_fract_y
 _atom_site_fract_z
 _atom_site_occupancy
  Tb  Tb0  1  0.000000  0.679150  0.587125  1
  Hf  Hf1  1  0.000000  0.445636  0.126024  1
  Hf  Hf2  1  0.000000  0.555156  0.873595  1
  Hf  Hf3  1  0.000000  0.944322  0.375328  1
  Hf  Hf4  1  0.000000  0.054157  0.625660  1
  Pa  Pa5  1  0.000000  0.822790  0.086407  1
  Pa  Pa6  1  0.000000  0.177064  0.913516  1
  Pa  Pa7  1  0.000000  0.323153  0.413669  1
  Re  Re8  1  0.000000  0.140824  0.179587  1
  Re  Re9  1  0.000000  0.860306  0.821525  1
  Re  Re10  1  0.000000  0.641520  0.317837  1
  Re  Re11  1  0.000000  0.357481  0.680998  1
  B  B12  1  0.500000  0.054098  0.066170  1
  B  B13  1  0.500000  0.946272  0.934301  1
  B  B14  1  0.500000  0.553629  0.432661  1
  B  B15  1  0.500000  0.444904  0.566454  1
  B  B16  1  0.500000  0.252579  0.080137  1
  B  B17  1  0.500000  0.747324  0.919063  1
  B  B18  1  0.500000  0.752085  0.419187  1
  B  B19  1  0.500000  0.247313  0.580122  1
  B  B20  1  0.500000  0.295983  0.235258  1
  B  B21  1  0.500000  0.704745  0.764700  1
  B  B22  1  0.500000  0.796178  0.265269  1
  B  B23  1  0.500000  0.204198  0.734989  1
  B  B24  1  0.500000  0.130757  0.317601  1
  B  B25  1  0.500000  0.869460  0.683280  1
  B  B26  1  0.500000  0.631386  0.182673  1
  B  B27  1  0.500000  0.369002  0.816841  1
  B  B28  1  0.500000  0.480916  0.285592  1
  B  B29  1  0.500000  0.518255  0.714366  1
  B  B30  1  0.500000  0.981267  0.215715  1
  B  B31  1  0.500000  0.018079  0.784616  1
  B  B32  1  0.500000  0.100307  0.472807  1
  B  B33  1  0.500000  0.899471  0.527578  1
  B  B34  1  0.500000  0.601042  0.027171  1
  B  B35  1  0.500000  0.399189  0.972175  1
