# generated using pymatgen
data_TmCdGaPt3
_symmetry_space_group_name_H-M   'P 1'
_cell_length_a   5.55045969
_cell_length_b   5.55045881
_cell_length_c   5.17630200
_cell_angle_alpha   57.57864549
_cell_angle_beta   57.57863909
_cell_angle_gamma   59.99999080
_symmetry_Int_Tables_number   1
_chemical_formula_structural   TmCdGaPt3
_chemical_formula_sum   'Tm1 Cd1 Ga1 Pt3'
_cell_volume   108.45706272
_cell_formula_units_Z   1
loop_
 _symmetry_equiv_pos_site_id
 _symmetry_equiv_pos_as_xyz
  1  'x, y, z'
loop_
 _atom_site_type_symbol
 _atom_site_label
 _atom_site_symmetry_multiplicity
 _atom_site_fract_x
 _atom_site_fract_y
 _atom_site_fract_z
 _atom_site_occupancy
  Tm  Tm0  1  0.502618  0.502618  0.492144  1
  Cd  Cd1  1  0.752642  0.752642  0.742077  1
  Ga  Ga2  1  0.123406  0.123406  0.629783  1
  Pt  Pt3  1  0.123389  0.123389  0.128665  1
  Pt  Pt4  1  0.624557  0.123389  0.128665  1
  Pt  Pt5  1  0.123389  0.624557  0.128665  1
