# generated using pymatgen
data_Tb2PrU(Al3Ir)6
_symmetry_space_group_name_H-M   'P 1'
_cell_length_a   7.60072996
_cell_length_b   7.59905148
_cell_length_c   9.49133400
_cell_angle_alpha   90.00000000
_cell_angle_beta   90.00000000
_cell_angle_gamma   119.47871001
_symmetry_Int_Tables_number   1
_chemical_formula_structural   Tb2PrU(Al3Ir)6
_chemical_formula_sum   'Tb2 Pr1 U1 Al18 Ir6'
_cell_volume   477.23246989
_cell_formula_units_Z   1
loop_
 _symmetry_equiv_pos_site_id
 _symmetry_equiv_pos_as_xyz
  1  'x, y, z'
loop_
 _atom_site_type_symbol
 _atom_site_label
 _atom_site_symmetry_multiplicity
 _atom_site_fract_x
 _atom_site_fract_y
 _atom_site_fract_z
 _atom_site_occupancy
  Tb  Tb0  1  0.671644  0.995939  0.250000  1
  Tb  Tb1  1  0.327898  0.005609  0.750000  1
  Pr  Pr2  1  0.994856  0.669675  0.250000  1
  U  U3  1  0.003180  0.328265  0.750000  1
  Al  Al4  1  0.128370  0.130108  0.250000  1
  Al  Al5  1  0.868645  0.870701  0.750000  1
  Al  Al6  1  0.001812  0.333593  0.071610  1
  Al  Al7  1  0.999263  0.665903  0.921966  1
  Al  Al8  1  0.999263  0.665903  0.578034  1
  Al  Al9  1  0.336742  0.002587  0.427257  1
  Al  Al10  1  0.001812  0.333593  0.428390  1
  Al  Al11  1  0.662441  0.997549  0.575492  1
  Al  Al12  1  0.662441  0.997549  0.924508  1
  Al  Al13  1  0.336742  0.002587  0.072743  1
  Al  Al14  1  0.335129  0.333853  0.552520  1
  Al  Al15  1  0.666116  0.667309  0.451205  1
  Al  Al16  1  0.666116  0.667309  0.048795  1
  Al  Al17  1  0.335129  0.333853  0.947480  1
  Al  Al18  1  0.342932  0.549393  0.250000  1
  Al  Al19  1  0.659813  0.451628  0.750000  1
  Al  Al20  1  0.545778  0.336525  0.250000  1
  Al  Al21  1  0.451044  0.658441  0.750000  1
  Ir  Ir22  1  0.672014  0.327840  0.997282  1
  Ir  Ir23  1  0.328387  0.670978  0.997821  1
  Ir  Ir24  1  0.328387  0.670978  0.502179  1
  Ir  Ir25  1  0.672014  0.327840  0.502718  1
  Ir  Ir26  1  0.001015  0.002246  0.996731  1
  Ir  Ir27  1  0.001015  0.002246  0.503269  1
