# generated using pymatgen
data_HoMnNbB2Ru5
_symmetry_space_group_name_H-M   'P 1'
_cell_length_a   9.41349615
_cell_length_b   9.41349530
_cell_length_c   3.05222800
_cell_angle_alpha   90.00000000
_cell_angle_beta   90.00000000
_cell_angle_gamma   90.92527186
_symmetry_Int_Tables_number   1
_chemical_formula_structural   HoMnNbB2Ru5
_chemical_formula_sum   'Ho2 Mn2 Nb2 B4 Ru10'
_cell_volume   270.43456491
_cell_formula_units_Z   2
loop_
 _symmetry_equiv_pos_site_id
 _symmetry_equiv_pos_as_xyz
  1  'x, y, z'
loop_
 _atom_site_type_symbol
 _atom_site_label
 _atom_site_symmetry_multiplicity
 _atom_site_fract_x
 _atom_site_fract_y
 _atom_site_fract_z
 _atom_site_occupancy
  Ho  Ho0  1  0.822686  0.677314  0.000000  1
  Ho  Ho1  1  0.177314  0.322686  0.000000  1
  Mn  Mn2  1  0.500000  0.500000  0.000000  1
  Mn  Mn3  1  0.000000  0.000000  0.000000  1
  Nb  Nb4  1  0.324095  0.824095  0.000000  1
  Nb  Nb5  1  0.675905  0.175905  0.000000  1
  B  B6  1  0.622475  0.877525  0.000000  1
  B  B7  1  0.377525  0.122475  0.000000  1
  B  B8  1  0.123755  0.623755  0.000000  1
  B  B9  1  0.876245  0.376245  0.000000  1
  Ru  Ru10  1  0.558816  0.719071  0.500000  1
  Ru  Ru11  1  0.441184  0.280929  0.500000  1
  Ru  Ru12  1  0.080924  0.788929  0.500000  1
  Ru  Ru13  1  0.919076  0.211071  0.500000  1
  Ru  Ru14  1  0.288929  0.580924  0.500000  1
  Ru  Ru15  1  0.711071  0.419076  0.500000  1
  Ru  Ru16  1  0.219071  0.058816  0.500000  1
  Ru  Ru17  1  0.780929  0.941184  0.500000  1
  Ru  Ru18  1  0.500000  0.000000  0.500000  1
  Ru  Ru19  1  0.000000  0.500000  0.500000  1
