# generated using pymatgen
data_Lu10Al3Re
_symmetry_space_group_name_H-M   'P 1'
_cell_length_a   9.23746300
_cell_length_b   9.23746494
_cell_length_c   9.57047800
_cell_angle_alpha   90.00000000
_cell_angle_beta   90.00000000
_cell_angle_gamma   120.00000379
_symmetry_Int_Tables_number   1
_chemical_formula_structural   Lu10Al3Re
_chemical_formula_sum   'Lu20 Al6 Re2'
_cell_volume   707.24479410
_cell_formula_units_Z   2
loop_
 _symmetry_equiv_pos_site_id
 _symmetry_equiv_pos_as_xyz
  1  'x, y, z'
loop_
 _atom_site_type_symbol
 _atom_site_label
 _atom_site_symmetry_multiplicity
 _atom_site_fract_x
 _atom_site_fract_y
 _atom_site_fract_z
 _atom_site_occupancy
  Lu  Lu0  1  0.000000  0.000000  0.500000  1
  Lu  Lu1  1  0.000000  0.000000  0.000000  1
  Lu  Lu2  1  0.206440  0.793560  0.443764  1
  Lu  Lu3  1  0.206440  0.412880  0.443764  1
  Lu  Lu4  1  0.587120  0.793560  0.443764  1
  Lu  Lu5  1  0.793560  0.206440  0.556236  1
  Lu  Lu6  1  0.793560  0.587120  0.556236  1
  Lu  Lu7  1  0.412880  0.206440  0.556236  1
  Lu  Lu8  1  0.793560  0.206440  0.943764  1
  Lu  Lu9  1  0.793560  0.587120  0.943764  1
  Lu  Lu10  1  0.412880  0.206440  0.943764  1
  Lu  Lu11  1  0.206440  0.793560  0.056236  1
  Lu  Lu12  1  0.206440  0.412880  0.056236  1
  Lu  Lu13  1  0.587120  0.793560  0.056236  1
  Lu  Lu14  1  0.536242  0.463758  0.250000  1
  Lu  Lu15  1  0.536242  0.072485  0.250000  1
  Lu  Lu16  1  0.927515  0.463758  0.250000  1
  Lu  Lu17  1  0.463758  0.536242  0.750000  1
  Lu  Lu18  1  0.463758  0.927515  0.750000  1
  Lu  Lu19  1  0.072485  0.536242  0.750000  1
  Al  Al20  1  0.890383  0.109617  0.250000  1
  Al  Al21  1  0.890383  0.780765  0.250000  1
  Al  Al22  1  0.219235  0.109617  0.250000  1
  Al  Al23  1  0.109617  0.890383  0.750000  1
  Al  Al24  1  0.109617  0.219235  0.750000  1
  Al  Al25  1  0.780765  0.890383  0.750000  1
  Re  Re26  1  0.333333  0.666667  0.250000  1
  Re  Re27  1  0.666667  0.333333  0.750000  1
