# generated using pymatgen
data_PrSm2Y(CCl)2
_symmetry_space_group_name_H-M   'P 1'
_cell_length_a   3.72620300
_cell_length_b   3.72620235
_cell_length_c   14.13465200
_cell_angle_alpha   90.00000000
_cell_angle_beta   90.00000000
_cell_angle_gamma   119.99999686
_symmetry_Int_Tables_number   1
_chemical_formula_structural   PrSm2Y(CCl)2
_chemical_formula_sum   'Pr1 Sm2 Y1 C2 Cl2'
_cell_volume   169.96077897
_cell_formula_units_Z   1
loop_
 _symmetry_equiv_pos_site_id
 _symmetry_equiv_pos_as_xyz
  1  'x, y, z'
loop_
 _atom_site_type_symbol
 _atom_site_label
 _atom_site_symmetry_multiplicity
 _atom_site_fract_x
 _atom_site_fract_y
 _atom_site_fract_z
 _atom_site_occupancy
  Pr  Pr0  1  0.333333  0.666667  0.597407  1
  Sm  Sm1  1  0.666667  0.333333  0.403241  1
  Sm  Sm2  1  0.666667  0.333333  0.092461  1
  Y  Y3  1  0.333333  0.666667  0.907178  1
  C  C4  1  0.000000  0.000000  0.995438  1
  C  C5  1  0.000000  0.000000  0.494775  1
  Cl  Cl6  1  0.333333  0.666667  0.245930  1
  Cl  Cl7  1  0.666667  0.333333  0.763570  1
