# generated using pymatgen
data_CeDyEr6(Si3Rh)4
_symmetry_space_group_name_H-M   'P 1'
_cell_length_a   8.16141200
_cell_length_b   8.16141189
_cell_length_c   7.86666000
_cell_angle_alpha   90.00000000
_cell_angle_beta   90.00000000
_cell_angle_gamma   120.00000043
_symmetry_Int_Tables_number   1
_chemical_formula_structural   CeDyEr6(Si3Rh)4
_chemical_formula_sum   'Ce1 Dy1 Er6 Si12 Rh4'
_cell_volume   453.78653886
_cell_formula_units_Z   1
loop_
 _symmetry_equiv_pos_site_id
 _symmetry_equiv_pos_as_xyz
  1  'x, y, z'
loop_
 _atom_site_type_symbol
 _atom_site_label
 _atom_site_symmetry_multiplicity
 _atom_site_fract_x
 _atom_site_fract_y
 _atom_site_fract_z
 _atom_site_occupancy
  Ce  Ce0  1  0.000000  0.000000  0.250000  1
  Dy  Dy1  1  0.000000  0.000000  0.750000  1
  Er  Er2  1  0.492136  0.507864  0.250000  1
  Er  Er3  1  0.492136  0.984273  0.250000  1
  Er  Er4  1  0.015727  0.507864  0.250000  1
  Er  Er5  1  0.508790  0.491210  0.750000  1
  Er  Er6  1  0.982420  0.491210  0.750000  1
  Er  Er7  1  0.508790  0.017580  0.750000  1
  Si  Si8  1  0.833122  0.166878  0.502167  1
  Si  Si9  1  0.833122  0.666244  0.502167  1
  Si  Si10  1  0.333756  0.166878  0.502167  1
  Si  Si11  1  0.833122  0.166878  0.997833  1
  Si  Si12  1  0.833122  0.666244  0.997833  1
  Si  Si13  1  0.333756  0.166878  0.997833  1
  Si  Si14  1  0.167553  0.832447  0.000324  1
  Si  Si15  1  0.664896  0.832447  0.000324  1
  Si  Si16  1  0.167553  0.335104  0.000324  1
  Si  Si17  1  0.167553  0.832447  0.499676  1
  Si  Si18  1  0.664896  0.832447  0.499676  1
  Si  Si19  1  0.167553  0.335104  0.499676  1
  Rh  Rh20  1  0.666667  0.333333  0.468995  1
  Rh  Rh21  1  0.666667  0.333333  0.031005  1
  Rh  Rh22  1  0.333333  0.666667  0.962653  1
  Rh  Rh23  1  0.333333  0.666667  0.537347  1
