# generated using pymatgen
data_Dy5TaMnO12
_symmetry_space_group_name_H-M   'P 1'
_cell_length_a   6.84977147
_cell_length_b   6.84973103
_cell_length_c   7.28092761
_cell_angle_alpha   74.46669154
_cell_angle_beta   74.46678975
_cell_angle_gamma   50.83682555
_symmetry_Int_Tables_number   1
_chemical_formula_structural   Dy5TaMnO12
_chemical_formula_sum   'Dy5 Ta1 Mn1 O12'
_cell_volume   252.96053746
_cell_formula_units_Z   1
loop_
 _symmetry_equiv_pos_site_id
 _symmetry_equiv_pos_as_xyz
  1  'x, y, z'
loop_
 _atom_site_type_symbol
 _atom_site_label
 _atom_site_symmetry_multiplicity
 _atom_site_fract_x
 _atom_site_fract_y
 _atom_site_fract_z
 _atom_site_occupancy
  Dy  Dy0  1  0.291121  0.311297  0.360145  1
  Dy  Dy1  1  0.688678  0.708872  0.639872  1
  Dy  Dy2  1  0.300550  0.312028  0.832204  1
  Dy  Dy3  1  0.687956  0.699437  0.167799  1
  Dy  Dy4  1  0.004884  0.995101  0.500005  1
  Ta  Ta5  1  0.774252  0.225733  0.000006  1
  Mn  Mn6  1  0.259498  0.740751  0.999922  1
  O  O7  1  0.898273  0.431789  0.916943  1
  O  O8  1  0.421886  0.900306  0.917635  1
  O  O9  1  0.099679  0.578101  0.082373  1
  O  O10  1  0.568199  0.101714  0.083068  1
  O  O11  1  0.092130  0.598863  0.574748  1
  O  O12  1  0.595949  0.101498  0.574483  1
  O  O13  1  0.898490  0.404036  0.425523  1
  O  O14  1  0.401122  0.907856  0.425259  1
  O  O15  1  0.010706  0.989021  0.815069  1
  O  O16  1  0.010969  0.989280  0.184939  1
  O  O17  1  0.497427  0.501758  0.817801  1
  O  O18  1  0.498231  0.502560  0.182206  1
