# generated using pymatgen
data_Tb7Ho4In(Hg2Pd)4
_symmetry_space_group_name_H-M   'P 1'
_cell_length_a   13.08761447
_cell_length_b   13.08761456
_cell_length_c   3.72710100
_cell_angle_alpha   90.00000000
_cell_angle_beta   90.00000000
_cell_angle_gamma   112.82395244
_symmetry_Int_Tables_number   1
_chemical_formula_structural   Tb7Ho4In(Hg2Pd)4
_chemical_formula_sum   'Tb7 Ho4 In1 Hg8 Pd4'
_cell_volume   588.41297838
_cell_formula_units_Z   1
loop_
 _symmetry_equiv_pos_site_id
 _symmetry_equiv_pos_as_xyz
  1  'x, y, z'
loop_
 _atom_site_type_symbol
 _atom_site_label
 _atom_site_symmetry_multiplicity
 _atom_site_fract_x
 _atom_site_fract_y
 _atom_site_fract_z
 _atom_site_occupancy
  Tb  Tb0  1  0.166775  0.833225  0.000000  1
  Tb  Tb1  1  0.833225  0.166775  0.000000  1
  Tb  Tb2  1  0.371135  0.628865  0.000000  1
  Tb  Tb3  1  0.628865  0.371135  0.000000  1
  Tb  Tb4  1  0.297313  0.297313  0.000000  1
  Tb  Tb5  1  0.702687  0.702687  0.000000  1
  Tb  Tb6  1  0.000000  0.000000  0.000000  1
  Ho  Ho7  1  0.414872  0.076015  0.000000  1
  Ho  Ho8  1  0.585128  0.923985  0.000000  1
  Ho  Ho9  1  0.076015  0.414872  0.000000  1
  Ho  Ho10  1  0.923985  0.585128  0.000000  1
  In  In11  1  0.500000  0.500000  0.500000  1
  Hg  Hg12  1  0.370581  0.845754  0.500000  1
  Hg  Hg13  1  0.629419  0.154246  0.500000  1
  Hg  Hg14  1  0.845756  0.370581  0.500000  1
  Hg  Hg15  1  0.154244  0.629419  0.500000  1
  Hg  Hg16  1  0.214219  0.063954  0.500000  1
  Hg  Hg17  1  0.785781  0.936046  0.500000  1
  Hg  Hg18  1  0.063953  0.214218  0.500000  1
  Hg  Hg19  1  0.936047  0.785782  0.500000  1
  Pd  Pd20  1  0.448360  0.249766  0.500000  1
  Pd  Pd21  1  0.551640  0.750234  0.500000  1
  Pd  Pd22  1  0.249767  0.448360  0.500000  1
  Pd  Pd23  1  0.750233  0.551640  0.500000  1
