# generated using pymatgen
data_KAu2(SO4)4
_symmetry_space_group_name_H-M   'P 1'
_cell_length_a   6.84143767
_cell_length_b   6.84143827
_cell_length_c   9.33879432
_cell_angle_alpha   73.69468200
_cell_angle_beta   73.69468295
_cell_angle_gamma   86.30629090
_symmetry_Int_Tables_number   1
_chemical_formula_structural   KAu2(SO4)4
_chemical_formula_sum   'K1 Au2 S4 O16'
_cell_volume   402.60134716
_cell_formula_units_Z   1
loop_
 _symmetry_equiv_pos_site_id
 _symmetry_equiv_pos_as_xyz
  1  'x, y, z'
loop_
 _atom_site_type_symbol
 _atom_site_label
 _atom_site_symmetry_multiplicity
 _atom_site_fract_x
 _atom_site_fract_y
 _atom_site_fract_z
 _atom_site_occupancy
  K  K0  1  0.000000  0.000000  0.000000  1
  Au  Au1  1  0.000000  0.000000  0.500000  1
  Au  Au2  1  0.500000  0.500000  0.500000  1
  S  S3  1  0.086944  0.588216  0.724576  1
  S  S4  1  0.588216  0.086944  0.724576  1
  S  S5  1  0.913056  0.411784  0.275424  1
  S  S6  1  0.411784  0.913056  0.275424  1
  O  O7  1  0.322639  0.628373  0.661968  1
  O  O8  1  0.628373  0.322639  0.661968  1
  O  O9  1  0.677361  0.371627  0.338032  1
  O  O10  1  0.371627  0.677361  0.338032  1
  O  O11  1  0.021922  0.690498  0.845002  1
  O  O12  1  0.690498  0.021922  0.845002  1
  O  O13  1  0.978078  0.309502  0.154998  1
  O  O14  1  0.309502  0.978078  0.154998  1
  O  O15  1  0.997500  0.692254  0.584710  1
  O  O16  1  0.692254  0.997500  0.584710  1
  O  O17  1  0.002500  0.307746  0.415290  1
  O  O18  1  0.307746  0.002500  0.415290  1
  O  O19  1  0.039312  0.374882  0.759590  1
  O  O20  1  0.374882  0.039312  0.759590  1
  O  O21  1  0.960688  0.625118  0.240410  1
  O  O22  1  0.625118  0.960688  0.240410  1
