# generated using pymatgen
data_DyY4Mn2O12
_symmetry_space_group_name_H-M   'P 1'
_cell_length_a   6.82203389
_cell_length_b   6.82214377
_cell_length_c   7.25165701
_cell_angle_alpha   74.54056291
_cell_angle_beta   74.54039417
_cell_angle_gamma   50.04411265
_symmetry_Int_Tables_number   1
_chemical_formula_structural   DyY4Mn2O12
_chemical_formula_sum   'Dy1 Y4 Mn2 O12'
_cell_volume   247.25923393
_cell_formula_units_Z   1
loop_
 _symmetry_equiv_pos_site_id
 _symmetry_equiv_pos_as_xyz
  1  'x, y, z'
loop_
 _atom_site_type_symbol
 _atom_site_label
 _atom_site_symmetry_multiplicity
 _atom_site_fract_x
 _atom_site_fract_y
 _atom_site_fract_z
 _atom_site_occupancy
  Dy  Dy0  1  0.692416  0.692459  0.164645  1
  Y  Y1  1  0.305262  0.305267  0.356597  1
  Y  Y2  1  0.694769  0.694773  0.643405  1
  Y  Y3  1  0.307679  0.307691  0.835079  1
  Y  Y4  1  0.999961  0.999959  0.500019  1
  Mn  Mn5  1  0.753970  0.246039  0.000084  1
  Mn  Mn6  1  0.246124  0.753871  0.000081  1
  O  O7  1  0.900890  0.421518  0.919403  1
  O  O8  1  0.421465  0.900896  0.919413  1
  O  O9  1  0.097757  0.579237  0.081207  1
  O  O10  1  0.579220  0.097763  0.081210  1
  O  O11  1  0.097208  0.598180  0.574532  1
  O  O12  1  0.598176  0.097209  0.574534  1
  O  O13  1  0.902363  0.402404  0.424926  1
  O  O14  1  0.402393  0.902377  0.424926  1
  O  O15  1  0.999923  0.999886  0.822517  1
  O  O16  1  0.000142  0.000090  0.177456  1
  O  O17  1  0.499965  0.500015  0.820458  1
  O  O18  1  0.500316  0.500367  0.179509  1
