# generated using pymatgen
data_Ca8DyPaIr4
_symmetry_space_group_name_H-M   'P 1'
_cell_length_a   6.69426993
_cell_length_b   7.36344642
_cell_length_c   8.76213014
_cell_angle_alpha   97.37824920
_cell_angle_beta   112.45763830
_cell_angle_gamma   89.99999296
_symmetry_Int_Tables_number   1
_chemical_formula_structural   Ca8DyPaIr4
_chemical_formula_sum   'Ca8 Dy1 Pa1 Ir4'
_cell_volume   395.28317212
_cell_formula_units_Z   1
loop_
 _symmetry_equiv_pos_site_id
 _symmetry_equiv_pos_as_xyz
  1  'x, y, z'
loop_
 _atom_site_type_symbol
 _atom_site_label
 _atom_site_symmetry_multiplicity
 _atom_site_fract_x
 _atom_site_fract_y
 _atom_site_fract_z
 _atom_site_occupancy
  Ca  Ca0  1  0.804826  0.077182  0.824194  1
  Ca  Ca1  1  0.980633  0.422818  0.175806  1
  Ca  Ca2  1  0.198442  0.918891  0.175409  1
  Ca  Ca3  1  0.023032  0.581109  0.824591  1
  Ca  Ca4  1  0.199204  0.184491  0.560207  1
  Ca  Ca5  1  0.638995  0.315509  0.439793  1
  Ca  Ca6  1  0.794958  0.816757  0.430816  1
  Ca  Ca7  1  0.364143  0.683243  0.569184  1
  Dy  Dy8  1  0.566389  0.750000  0.000000  1
  Pa  Pa9  1  0.439624  0.250000  0.000000  1
  Ir  Ir10  1  0.587562  0.417981  0.802166  1
  Ir  Ir11  1  0.785394  0.082019  0.197834  1
  Ir  Ir12  1  0.403728  0.550715  0.190660  1
  Ir  Ir13  1  0.213069  0.949285  0.809340  1
