# generated using pymatgen
data_TbHo(ThH5)6
_symmetry_space_group_name_H-M   'P 1'
_cell_length_a   7.83560504
_cell_length_b   7.83298346
_cell_length_c   7.79781201
_cell_angle_alpha   109.44331416
_cell_angle_beta   109.45531237
_cell_angle_gamma   109.67314946
_symmetry_Int_Tables_number   1
_chemical_formula_structural   TbHo(ThH5)6
_chemical_formula_sum   'Tb1 Ho1 Th6 H30'
_cell_volume   367.70420561
_cell_formula_units_Z   1
loop_
 _symmetry_equiv_pos_site_id
 _symmetry_equiv_pos_as_xyz
  1  'x, y, z'
loop_
 _atom_site_type_symbol
 _atom_site_label
 _atom_site_symmetry_multiplicity
 _atom_site_fract_x
 _atom_site_fract_y
 _atom_site_fract_z
 _atom_site_occupancy
  Tb  Tb0  1  0.915140  0.915959  0.916430  1
  Ho  Ho1  1  0.498795  0.999710  0.083858  1
  Th  Th2  1  0.993735  0.079433  0.494851  1
  Th  Th3  1  0.085304  0.505193  0.001217  1
  Th  Th4  1  0.999086  0.584380  0.504863  1
  Th  Th5  1  0.583813  0.503561  0.998975  1
  Th  Th6  1  0.504057  0.998681  0.587535  1
  Th  Th7  1  0.416947  0.411041  0.412505  1
  H  H8  1  0.650096  0.963970  0.368897  1
  H  H9  1  0.217713  0.316203  0.846233  1
  H  H10  1  0.186813  0.403638  0.534760  1
  H  H11  1  0.096243  0.280710  0.125924  1
  H  H12  1  0.283024  0.122759  0.093303  1
  H  H13  1  0.125349  0.093605  0.277522  1
  H  H14  1  0.470523  0.154282  0.875064  1
  H  H15  1  0.718909  0.350660  0.813191  1
  H  H16  1  0.627444  0.379689  0.250900  1
  H  H17  1  0.250390  0.624262  0.376358  1
  H  H18  1  0.749579  0.872723  0.126729  1
  H  H19  1  0.123994  0.746326  0.873453  1
  H  H20  1  0.374012  0.247875  0.623729  1
  H  H21  1  0.876292  0.129188  0.748882  1
  H  H22  1  0.780831  0.594026  0.630194  1
  H  H23  1  0.317864  0.849406  0.220899  1
  H  H24  1  0.373723  0.658954  0.967254  1
  H  H25  1  0.963475  0.368314  0.650810  1
  H  H26  1  0.537105  0.185568  0.405386  1
  H  H27  1  0.405745  0.537528  0.186875  1
  H  H28  1  0.840017  0.216672  0.311467  1
  H  H29  1  0.906303  0.690441  0.033478  1
  H  H30  1  0.812661  0.717472  0.349188  1
  H  H31  1  0.151975  0.868900  0.465197  1
  H  H32  1  0.687529  0.029897  0.907215  1
  H  H33  1  0.348295  0.816905  0.724050  1
  H  H34  1  0.871538  0.469965  0.153705  1
  H  H35  1  0.630667  0.779700  0.593497  1
  H  H36  1  0.595831  0.627401  0.778560  1
  H  H37  1  0.029183  0.905006  0.687050  1
