# generated using pymatgen
data_Er5Lu5In8CoPt3
_symmetry_space_group_name_H-M   'P 1'
_cell_length_a   3.57904900
_cell_length_b   8.01805825
_cell_length_c   17.94316521
_cell_angle_alpha   89.90944208
_cell_angle_beta   90.00000000
_cell_angle_gamma   90.00000000
_symmetry_Int_Tables_number   1
_chemical_formula_structural   Er5Lu5In8CoPt3
_chemical_formula_sum   'Er5 Lu5 In8 Co1 Pt3'
_cell_volume   514.91478782
_cell_formula_units_Z   1
loop_
 _symmetry_equiv_pos_site_id
 _symmetry_equiv_pos_as_xyz
  1  'x, y, z'
loop_
 _atom_site_type_symbol
 _atom_site_label
 _atom_site_symmetry_multiplicity
 _atom_site_fract_x
 _atom_site_fract_y
 _atom_site_fract_z
 _atom_site_occupancy
  Er  Er0  1  0.000000  0.757805  0.779142  1
  Er  Er1  1  0.000000  0.256901  0.720622  1
  Er  Er2  1  0.000000  0.756055  0.279863  1
  Er  Er3  1  0.000000  0.999703  0.001146  1
  Er  Er4  1  0.000000  0.500693  0.498647  1
  Lu  Lu5  1  0.000000  0.112763  0.408117  1
  Lu  Lu6  1  0.000000  0.883535  0.584346  1
  Lu  Lu7  1  0.000000  0.383199  0.915066  1
  Lu  Lu8  1  0.000000  0.617276  0.087949  1
  Lu  Lu9  1  0.000000  0.233925  0.224126  1
  In  In10  1  0.500000  0.420105  0.350879  1
  In  In11  1  0.500000  0.577239  0.647627  1
  In  In12  1  0.500000  0.076878  0.852135  1
  In  In13  1  0.500000  0.929022  0.152304  1
  In  In14  1  0.500000  0.293014  0.067568  1
  In  In15  1  0.500000  0.707046  0.934858  1
  In  In16  1  0.500000  0.206504  0.564198  1
  In  In17  1  0.500000  0.797424  0.430243  1
  Co  Co18  1  0.500000  0.021454  0.305098  1
  Pt  Pt19  1  0.500000  0.974488  0.694572  1
  Pt  Pt20  1  0.500000  0.474597  0.805038  1
  Pt  Pt21  1  0.500000  0.520374  0.196455  1
