# generated using pymatgen
data_Ta12Re6Tc5W
_symmetry_space_group_name_H-M   'P 1'
_cell_length_a   4.51325100
_cell_length_b   6.40381900
_cell_length_c   13.62599900
_cell_angle_alpha   90.00000000
_cell_angle_beta   89.99974278
_cell_angle_gamma   90.00000000
_symmetry_Int_Tables_number   1
_chemical_formula_structural   Ta12Re6Tc5W
_chemical_formula_sum   'Ta12 Re6 Tc5 W1'
_cell_volume   393.81920228
_cell_formula_units_Z   1
loop_
 _symmetry_equiv_pos_site_id
 _symmetry_equiv_pos_as_xyz
  1  'x, y, z'
loop_
 _atom_site_type_symbol
 _atom_site_label
 _atom_site_symmetry_multiplicity
 _atom_site_fract_x
 _atom_site_fract_y
 _atom_site_fract_z
 _atom_site_occupancy
  Ta  Ta0  1  0.500000  0.248989  0.000000  1
  Ta  Ta1  1  0.500000  0.751011  0.000000  1
  Ta  Ta2  1  0.999985  0.249738  0.166533  1
  Ta  Ta3  1  0.999985  0.750262  0.166533  1
  Ta  Ta4  1  0.500004  0.249944  0.333272  1
  Ta  Ta5  1  0.500004  0.750057  0.333272  1
  Ta  Ta6  1  0.000000  0.250267  0.500000  1
  Ta  Ta7  1  0.000000  0.749734  0.500000  1
  Ta  Ta8  1  0.499997  0.249944  0.666728  1
  Ta  Ta9  1  0.499997  0.750057  0.666728  1
  Ta  Ta10  1  0.000015  0.249738  0.833467  1
  Ta  Ta11  1  0.000015  0.750262  0.833467  1
  Re  Re12  1  0.000000  0.000000  0.000000  1
  Re  Re13  1  0.499991  0.500000  0.167573  1
  Re  Re14  1  0.999990  0.000000  0.333833  1
  Re  Re15  1  0.500001  0.500000  0.500000  1
  Re  Re16  1  0.000010  0.000000  0.666167  1
  Re  Re17  1  0.500010  0.500000  0.832427  1
  Tc  Tc18  1  0.500023  0.000000  0.167138  1
  Tc  Tc19  1  0.999972  0.500000  0.333952  1
  Tc  Tc20  1  0.500001  0.000000  0.500000  1
  Tc  Tc21  1  0.000028  0.500000  0.666048  1
  Tc  Tc22  1  0.499979  0.000000  0.832863  1
  W  W23  1  0.000000  0.500000  0.000000  1
