# generated using pymatgen
data_Tb15Er5(SnBi)8
_symmetry_space_group_name_H-M   'P 1'
_cell_length_a   8.17262346
_cell_length_b   8.21196033
_cell_length_c   15.66806731
_cell_angle_alpha   90.00705833
_cell_angle_beta   89.97813231
_cell_angle_gamma   90.03186467
_symmetry_Int_Tables_number   1
_chemical_formula_structural   Tb15Er5(SnBi)8
_chemical_formula_sum   'Tb15 Er5 Sn8 Bi8'
_cell_volume   1051.53482370
_cell_formula_units_Z   1
loop_
 _symmetry_equiv_pos_site_id
 _symmetry_equiv_pos_as_xyz
  1  'x, y, z'
loop_
 _atom_site_type_symbol
 _atom_site_label
 _atom_site_symmetry_multiplicity
 _atom_site_fract_x
 _atom_site_fract_y
 _atom_site_fract_z
 _atom_site_occupancy
  Tb  Tb0  1  0.886684  0.661986  0.623447  1
  Tb  Tb1  1  0.613241  0.161861  0.376718  1
  Tb  Tb2  1  0.113380  0.338083  0.123144  1
  Tb  Tb3  1  0.613342  0.161931  0.123395  1
  Tb  Tb4  1  0.113280  0.338178  0.376743  1
  Tb  Tb5  1  0.386763  0.838161  0.623400  1
  Tb  Tb6  1  0.886762  0.661771  0.876745  1
  Tb  Tb7  1  0.553212  0.327746  0.889929  1
  Tb  Tb8  1  0.053369  0.172080  0.610210  1
  Tb  Tb9  1  0.446793  0.672212  0.389921  1
  Tb  Tb10  1  0.946744  0.827649  0.110138  1
  Tb  Tb11  1  0.446846  0.672332  0.109909  1
  Tb  Tb12  1  0.946802  0.827764  0.389901  1
  Tb  Tb13  1  0.553165  0.327807  0.610249  1
  Tb  Tb14  1  0.053430  0.171951  0.889802  1
  Er  Er15  1  0.386154  0.838560  0.875923  1
  Er  Er16  1  0.218120  0.498305  0.750081  1
  Er  Er17  1  0.717543  0.001652  0.750162  1
  Er  Er18  1  0.782061  0.501829  0.250039  1
  Er  Er19  1  0.282069  0.998043  0.249911  1
  Sn  Sn20  1  0.581872  0.627151  0.750598  1
  Sn  Sn21  1  0.083010  0.873504  0.750373  1
  Sn  Sn22  1  0.417523  0.373740  0.250000  1
  Sn  Sn23  1  0.917596  0.126258  0.249935  1
  Sn  Sn24  1  0.357190  0.143707  0.750287  1
  Sn  Sn25  1  0.857116  0.355702  0.750052  1
  Sn  Sn26  1  0.642988  0.855726  0.250006  1
  Sn  Sn27  1  0.142974  0.644207  0.249998  1
  Bi  Bi28  1  0.271236  0.019805  0.044163  1
  Bi  Bi29  1  0.770646  0.479500  0.455104  1
  Bi  Bi30  1  0.729376  0.979461  0.544967  1
  Bi  Bi31  1  0.229970  0.522061  0.954828  1
  Bi  Bi32  1  0.727943  0.978834  0.954932  1
  Bi  Bi33  1  0.229285  0.520471  0.544992  1
  Bi  Bi34  1  0.270725  0.020518  0.455093  1
  Bi  Bi35  1  0.770788  0.479454  0.044906  1
