# generated using pymatgen
data_CaPr3(PPd)4
_symmetry_space_group_name_H-M   'P 1'
_cell_length_a   4.24208200
_cell_length_b   7.96420676
_cell_length_c   7.29014300
_cell_angle_alpha   89.93733885
_cell_angle_beta   90.00000000
_cell_angle_gamma   90.00000000
_symmetry_Int_Tables_number   1
_chemical_formula_structural   CaPr3(PPd)4
_chemical_formula_sum   'Ca1 Pr3 P4 Pd4'
_cell_volume   246.29600827
_cell_formula_units_Z   1
loop_
 _symmetry_equiv_pos_site_id
 _symmetry_equiv_pos_as_xyz
  1  'x, y, z'
loop_
 _atom_site_type_symbol
 _atom_site_label
 _atom_site_symmetry_multiplicity
 _atom_site_fract_x
 _atom_site_fract_y
 _atom_site_fract_z
 _atom_site_occupancy
  Ca  Ca0  1  0.250000  0.999172  0.248522  1
  Pr  Pr1  1  0.250000  0.499559  0.250691  1
  Pr  Pr2  1  0.750000  0.500966  0.749048  1
  Pr  Pr3  1  0.750000  0.000557  0.751825  1
  P  P4  1  0.250000  0.746421  0.919190  1
  P  P5  1  0.750000  0.255322  0.081860  1
  P  P6  1  0.750000  0.744565  0.418361  1
  P  P7  1  0.250000  0.252711  0.580582  1
  Pd  Pd8  1  0.250000  0.756553  0.582031  1
  Pd  Pd9  1  0.750000  0.240495  0.416043  1
  Pd  Pd10  1  0.750000  0.756404  0.084137  1
  Pd  Pd11  1  0.250000  0.247274  0.917711  1
