# generated using pymatgen
data_TmLu7Sb20
_symmetry_space_group_name_H-M   'P 1'
_cell_length_a   4.19146400
_cell_length_b   13.06126014
_cell_length_c   14.44678106
_cell_angle_alpha   78.54629807
_cell_angle_beta   90.00000000
_cell_angle_gamma   90.00000000
_symmetry_Int_Tables_number   1
_chemical_formula_structural   TmLu7Sb20
_chemical_formula_sum   'Tm1 Lu7 Sb20'
_cell_volume   775.15020826
_cell_formula_units_Z   1
loop_
 _symmetry_equiv_pos_site_id
 _symmetry_equiv_pos_as_xyz
  1  'x, y, z'
loop_
 _atom_site_type_symbol
 _atom_site_label
 _atom_site_symmetry_multiplicity
 _atom_site_fract_x
 _atom_site_fract_y
 _atom_site_fract_z
 _atom_site_occupancy
  Tm  Tm0  1  0.750000  0.045938  0.641372  1
  Lu  Lu1  1  0.250000  0.395653  0.770514  1
  Lu  Lu2  1  0.750000  0.604871  0.229478  1
  Lu  Lu3  1  0.250000  0.661140  0.856225  1
  Lu  Lu4  1  0.750000  0.338359  0.144112  1
  Lu  Lu5  1  0.250000  0.668878  0.576148  1
  Lu  Lu6  1  0.750000  0.330801  0.423512  1
  Lu  Lu7  1  0.250000  0.954118  0.359588  1
  Sb  Sb8  1  0.250000  0.144217  0.778055  1
  Sb  Sb9  1  0.750000  0.856966  0.222599  1
  Sb  Sb10  1  0.250000  0.143874  0.483514  1
  Sb  Sb11  1  0.750000  0.856011  0.515779  1
  Sb  Sb12  1  0.250000  0.153812  0.169227  1
  Sb  Sb13  1  0.750000  0.845622  0.830623  1
  Sb  Sb14  1  0.250000  0.420613  0.975770  1
  Sb  Sb15  1  0.750000  0.579120  0.024488  1
  Sb  Sb16  1  0.750000  0.029329  0.912590  1
  Sb  Sb17  1  0.250000  0.970381  0.087217  1
  Sb  Sb18  1  0.750000  0.139221  0.321664  1
  Sb  Sb19  1  0.250000  0.859910  0.678010  1
  Sb  Sb20  1  0.750000  0.278497  0.936588  1
  Sb  Sb21  1  0.250000  0.721434  0.063440  1
  Sb  Sb22  1  0.750000  0.285169  0.653407  1
  Sb  Sb23  1  0.250000  0.715674  0.346561  1
  Sb  Sb24  1  0.750000  0.576707  0.734324  1
  Sb  Sb25  1  0.250000  0.423407  0.265601  1
  Sb  Sb26  1  0.750000  0.571813  0.447074  1
  Sb  Sb27  1  0.250000  0.428463  0.552518  1
