# generated using pymatgen
data_Dy3Y5(ErBi)12
_symmetry_space_group_name_H-M   'P 1'
_cell_length_a   8.24503401
_cell_length_b   9.47231000
_cell_length_c   12.05034402
_cell_angle_alpha   90.00000000
_cell_angle_beta   89.99313899
_cell_angle_gamma   90.00000000
_symmetry_Int_Tables_number   1
_chemical_formula_structural   Dy3Y5(ErBi)12
_chemical_formula_sum   'Dy3 Y5 Er12 Bi12'
_cell_volume   941.12605486
_cell_formula_units_Z   1
loop_
 _symmetry_equiv_pos_site_id
 _symmetry_equiv_pos_as_xyz
  1  'x, y, z'
loop_
 _atom_site_type_symbol
 _atom_site_label
 _atom_site_symmetry_multiplicity
 _atom_site_fract_x
 _atom_site_fract_y
 _atom_site_fract_z
 _atom_site_occupancy
  Dy  Dy0  1  0.186545  0.750000  0.718646  1
  Dy  Dy1  1  0.686685  0.750000  0.781443  1
  Dy  Dy2  1  0.813303  0.250000  0.281448  1
  Y  Y3  1  0.313610  0.250000  0.218734  1
  Y  Y4  1  0.354029  0.750000  0.215617  1
  Y  Y5  1  0.853799  0.750000  0.284422  1
  Y  Y6  1  0.646155  0.250000  0.784355  1
  Y  Y7  1  0.145955  0.250000  0.715686  1
  Er  Er8  1  0.025548  0.750000  0.988520  1
  Er  Er9  1  0.525639  0.750000  0.511450  1
  Er  Er10  1  0.974176  0.250000  0.011319  1
  Er  Er11  1  0.474566  0.250000  0.488783  1
  Er  Er12  1  0.306597  0.435439  0.940249  1
  Er  Er13  1  0.806650  0.064642  0.559559  1
  Er  Er14  1  0.693377  0.935311  0.059526  1
  Er  Er15  1  0.193429  0.564635  0.440451  1
  Er  Er16  1  0.693377  0.564689  0.059526  1
  Er  Er17  1  0.193429  0.935365  0.440451  1
  Er  Er18  1  0.306597  0.064561  0.940249  1
  Er  Er19  1  0.806650  0.435358  0.559559  1
  Bi  Bi20  1  0.433776  0.003765  0.673316  1
  Bi  Bi21  1  0.933773  0.496224  0.826678  1
  Bi  Bi22  1  0.566247  0.503834  0.326790  1
  Bi  Bi23  1  0.066158  0.996179  0.173244  1
  Bi  Bi24  1  0.566247  0.996166  0.326790  1
  Bi  Bi25  1  0.066158  0.503821  0.173244  1
  Bi  Bi26  1  0.433776  0.496235  0.673316  1
  Bi  Bi27  1  0.933773  0.003776  0.826678  1
  Bi  Bi28  1  0.408228  0.750000  0.957782  1
  Bi  Bi29  1  0.908244  0.750000  0.542229  1
  Bi  Bi30  1  0.591711  0.250000  0.042092  1
  Bi  Bi31  1  0.091794  0.250000  0.457845  1
