# generated using pymatgen
data_TbEr7Sc12Si11Ge5
_symmetry_space_group_name_H-M   'P 1'
_cell_length_a   7.11757153
_cell_length_b   7.37531205
_cell_length_c   14.01011632
_cell_angle_alpha   90.00402574
_cell_angle_beta   89.18155112
_cell_angle_gamma   90.06447609
_symmetry_Int_Tables_number   1
_chemical_formula_structural   TbEr7Sc12Si11Ge5
_chemical_formula_sum   'Tb1 Er7 Sc12 Si11 Ge5'
_cell_volume   735.37590420
_cell_formula_units_Z   1
loop_
 _symmetry_equiv_pos_site_id
 _symmetry_equiv_pos_as_xyz
  1  'x, y, z'
loop_
 _atom_site_type_symbol
 _atom_site_label
 _atom_site_symmetry_multiplicity
 _atom_site_fract_x
 _atom_site_fract_y
 _atom_site_fract_z
 _atom_site_occupancy
  Tb  Tb0  1  0.009584  0.174875  0.096377  1
  Er  Er1  1  0.991811  0.824553  0.902823  1
  Er  Er2  1  0.490688  0.676562  0.902702  1
  Er  Er3  1  0.996833  0.821588  0.598760  1
  Er  Er4  1  0.506272  0.323124  0.096899  1
  Er  Er5  1  0.002895  0.178319  0.400986  1
  Er  Er6  1  0.502428  0.321775  0.401236  1
  Er  Er7  1  0.497082  0.678112  0.598881  1
  Sc  Sc8  1  0.169672  0.501488  0.750694  1
  Sc  Sc9  1  0.830409  0.498888  0.250767  1
  Sc  Sc10  1  0.330939  0.001507  0.249522  1
  Sc  Sc11  1  0.669333  0.998231  0.750741  1
  Sc  Sc12  1  0.342230  0.171539  0.626568  1
  Sc  Sc13  1  0.657791  0.828958  0.373380  1
  Sc  Sc14  1  0.157650  0.671168  0.373553  1
  Sc  Sc15  1  0.662831  0.825563  0.125778  1
  Sc  Sc16  1  0.842261  0.328500  0.626492  1
  Sc  Sc17  1  0.335993  0.176297  0.874754  1
  Sc  Sc18  1  0.836474  0.322380  0.875043  1
  Sc  Sc19  1  0.165946  0.676470  0.124473  1
  Si  Si20  1  0.040863  0.115372  0.750955  1
  Si  Si21  1  0.959342  0.883358  0.248864  1
  Si  Si22  1  0.459034  0.615713  0.248938  1
  Si  Si23  1  0.541658  0.383958  0.751198  1
  Si  Si24  1  0.292116  0.871027  0.751012  1
  Si  Si25  1  0.707283  0.129553  0.249166  1
  Si  Si26  1  0.207685  0.371677  0.248979  1
  Si  Si27  1  0.792605  0.628683  0.751435  1
  Si  Si28  1  0.165453  0.464368  0.959709  1
  Si  Si29  1  0.659479  0.034776  0.960627  1
  Si  Si30  1  0.341330  0.964435  0.038982  1
  Ge  Ge31  1  0.179374  0.459943  0.540818  1
  Ge  Ge32  1  0.820570  0.540033  0.459314  1
  Ge  Ge33  1  0.320986  0.959888  0.459233  1
  Ge  Ge34  1  0.834069  0.537360  0.039676  1
  Ge  Ge35  1  0.679035  0.039957  0.540664  1
