# generated using pymatgen
data_KRbCr2P2(O4F)2
_symmetry_space_group_name_H-M   'P 1'
_cell_length_a   6.43128300
_cell_length_b   10.71823100
_cell_length_c   12.95030400
_cell_angle_alpha   90.00000000
_cell_angle_beta   90.00000000
_cell_angle_gamma   90.00000000
_symmetry_Int_Tables_number   1
_chemical_formula_structural   KRbCr2P2(O4F)2
_chemical_formula_sum   'K4 Rb4 Cr8 P8 O32 F8'
_cell_volume   892.69005514
_cell_formula_units_Z   4
loop_
 _symmetry_equiv_pos_site_id
 _symmetry_equiv_pos_as_xyz
  1  'x, y, z'
loop_
 _atom_site_type_symbol
 _atom_site_label
 _atom_site_symmetry_multiplicity
 _atom_site_fract_x
 _atom_site_fract_y
 _atom_site_fract_z
 _atom_site_occupancy
  K  K0  1  0.775336  0.947772  0.380811  1
  K  K1  1  0.224665  0.447781  0.619185  1
  K  K2  1  0.724666  0.947770  0.880813  1
  K  K3  1  0.275343  0.447782  0.119187  1
  Rb  Rb4  1  0.189434  0.690138  0.396545  1
  Rb  Rb5  1  0.810563  0.190140  0.603457  1
  Rb  Rb6  1  0.310574  0.690136  0.896546  1
  Rb  Rb7  1  0.689434  0.190137  0.103454  1
  Cr  Cr8  1  0.996589  0.748826  0.114736  1
  Cr  Cr9  1  0.003420  0.248837  0.885255  1
  Cr  Cr10  1  0.503379  0.748808  0.614742  1
  Cr  Cr11  1  0.496578  0.248830  0.385252  1
  Cr  Cr12  1  0.751110  0.499248  0.252479  1
  Cr  Cr13  1  0.248931  0.999266  0.747528  1
  Cr  Cr14  1  0.748909  0.499257  0.752479  1
  Cr  Cr15  1  0.251080  0.999262  0.247520  1
  P  P16  1  0.670947  0.497492  0.500801  1
  P  P17  1  0.329047  0.997479  0.499194  1
  P  P18  1  0.829038  0.497491  0.000799  1
  P  P19  1  0.170964  0.997488  0.999204  1
  P  P20  1  0.502566  0.748666  0.182085  1
  P  P21  1  0.497453  0.248669  0.817920  1
  P  P22  1  0.997448  0.748668  0.682081  1
  P  P23  1  0.002575  0.248659  0.317919  1
  O  O24  1  0.031052  0.879458  0.010406  1
  O  O25  1  0.310551  0.275183  0.889646  1
  O  O26  1  0.810527  0.775167  0.610357  1
  O  O27  1  0.189450  0.275178  0.389637  1
  O  O28  1  0.308270  0.719148  0.114949  1
  O  O29  1  0.691730  0.219156  0.885048  1
  O  O30  1  0.191703  0.719139  0.614950  1
  O  O31  1  0.808266  0.219148  0.385047  1
  O  O32  1  0.517986  0.608232  0.516435  1
  O  O33  1  0.482021  0.108233  0.483564  1
  O  O34  1  0.982016  0.608240  0.016434  1
  O  O35  1  0.017980  0.108239  0.983569  1
  O  O36  1  0.531054  0.379462  0.489592  1
  O  O37  1  0.468938  0.879455  0.510397  1
  O  O38  1  0.968946  0.379467  0.989594  1
  O  O39  1  0.689452  0.775177  0.110357  1
  O  O40  1  0.809649  0.518318  0.405039  1
  O  O41  1  0.190335  0.018318  0.594968  1
  O  O42  1  0.690357  0.518317  0.905042  1
  O  O43  1  0.458766  0.861592  0.254639  1
  O  O44  1  0.809444  0.479369  0.598081  1
  O  O45  1  0.190557  0.979369  0.401930  1
  O  O46  1  0.690554  0.479367  0.098081  1
  O  O47  1  0.309460  0.979364  0.901921  1
  O  O48  1  0.043199  0.135499  0.245038  1
  O  O49  1  0.956803  0.635488  0.754964  1
  O  O50  1  0.456807  0.135492  0.745038  1
  O  O51  1  0.543201  0.635488  0.254961  1
  O  O52  1  0.958774  0.361592  0.245355  1
  O  O53  1  0.041233  0.861594  0.754641  1
  O  O54  1  0.541232  0.361593  0.745362  1
  O  O55  1  0.309630  0.018315  0.094954  1
  F  F56  1  0.025597  0.874852  0.227521  1
  F  F57  1  0.974401  0.374844  0.772486  1
  F  F58  1  0.474418  0.874844  0.727529  1
  F  F59  1  0.525594  0.374837  0.272485  1
  F  F60  1  0.475680  0.119722  0.274156  1
  F  F61  1  0.524309  0.619710  0.725835  1
  F  F62  1  0.024335  0.119718  0.774159  1
  F  F63  1  0.975678  0.619714  0.225837  1
