# generated using pymatgen
data_La2Dy6S11
_symmetry_space_group_name_H-M   'P 1'
_cell_length_a   6.73704600
_cell_length_b   6.73704594
_cell_length_c   35.74575000
_cell_angle_alpha   90.00000000
_cell_angle_beta   90.00000000
_cell_angle_gamma   146.56226974
_symmetry_Int_Tables_number   1
_chemical_formula_structural   La2Dy6S11
_chemical_formula_sum   'La4 Dy12 S22'
_cell_volume   894.00300893
_cell_formula_units_Z   2
loop_
 _symmetry_equiv_pos_site_id
 _symmetry_equiv_pos_as_xyz
  1  'x, y, z'
loop_
 _atom_site_type_symbol
 _atom_site_label
 _atom_site_symmetry_multiplicity
 _atom_site_fract_x
 _atom_site_fract_y
 _atom_site_fract_z
 _atom_site_occupancy
  La  La0  1  0.505205  0.494795  0.247699  1
  La  La1  1  0.494795  0.505205  0.747699  1
  La  La2  1  0.741035  0.258965  0.940233  1
  La  La3  1  0.258965  0.741035  0.440233  1
  Dy  Dy4  1  0.756345  0.243655  0.317510  1
  Dy  Dy5  1  0.240333  0.759667  0.680578  1
  Dy  Dy6  1  0.759667  0.240333  0.180578  1
  Dy  Dy7  1  0.243655  0.756345  0.817510  1
  Dy  Dy8  1  0.982668  0.017332  0.866080  1
  Dy  Dy9  1  0.021352  0.978648  0.132710  1
  Dy  Dy10  1  0.978648  0.021352  0.632710  1
  Dy  Dy11  1  0.017332  0.982668  0.366080  1
  Dy  Dy12  1  0.001267  0.998733  0.502755  1
  Dy  Dy13  1  0.998733  0.001267  0.002755  1
  Dy  Dy14  1  0.255913  0.744087  0.057676  1
  Dy  Dy15  1  0.744087  0.255913  0.557676  1
  S  S16  1  0.884382  0.115618  0.797376  1
  S  S17  1  0.120132  0.879868  0.201012  1
  S  S18  1  0.879868  0.120132  0.701012  1
  S  S19  1  0.115618  0.884382  0.297376  1
  S  S20  1  0.922630  0.077370  0.432659  1
  S  S21  1  0.095676  0.904324  0.570212  1
  S  S22  1  0.904324  0.095676  0.070212  1
  S  S23  1  0.077370  0.922630  0.932659  1
  S  S24  1  0.842091  0.157909  0.249559  1
  S  S25  1  0.157909  0.842091  0.749559  1
  S  S26  1  0.391748  0.608252  0.338263  1
  S  S27  1  0.599989  0.400011  0.663574  1
  S  S28  1  0.400011  0.599989  0.163574  1
  S  S29  1  0.608252  0.391748  0.838263  1
  S  S30  1  0.644688  0.355312  0.486436  1
  S  S31  1  0.356993  0.643007  0.517845  1
  S  S32  1  0.643007  0.356993  0.017845  1
  S  S33  1  0.355312  0.644688  0.986436  1
  S  S34  1  0.658480  0.341520  0.386944  1
  S  S35  1  0.338141  0.661859  0.610880  1
  S  S36  1  0.661859  0.338141  0.110880  1
  S  S37  1  0.341520  0.658480  0.886944  1
