# generated using pymatgen
data_Tm6IrOs
_symmetry_space_group_name_H-M   'P 1'
_cell_length_a   7.24269176
_cell_length_b   8.90404800
_cell_length_c   6.32047061
_cell_angle_alpha   90.00000000
_cell_angle_beta   89.94863800
_cell_angle_gamma   90.00000000
_symmetry_Int_Tables_number   1
_chemical_formula_structural   Tm6IrOs
_chemical_formula_sum   'Tm12 Ir2 Os2'
_cell_volume   407.60240384
_cell_formula_units_Z   2
loop_
 _symmetry_equiv_pos_site_id
 _symmetry_equiv_pos_as_xyz
  1  'x, y, z'
loop_
 _atom_site_type_symbol
 _atom_site_label
 _atom_site_symmetry_multiplicity
 _atom_site_fract_x
 _atom_site_fract_y
 _atom_site_fract_z
 _atom_site_occupancy
  Tm  Tm0  1  0.036009  0.250000  0.622962  1
  Tm  Tm1  1  0.963991  0.750000  0.377038  1
  Tm  Tm2  1  0.464961  0.750000  0.125848  1
  Tm  Tm3  1  0.535039  0.250000  0.874152  1
  Tm  Tm4  1  0.174531  0.060851  0.169599  1
  Tm  Tm5  1  0.825469  0.939149  0.830401  1
  Tm  Tm6  1  0.321153  0.937071  0.674824  1
  Tm  Tm7  1  0.825469  0.560851  0.830401  1
  Tm  Tm8  1  0.678847  0.062929  0.325176  1
  Tm  Tm9  1  0.174531  0.439149  0.169599  1
  Tm  Tm10  1  0.678847  0.437071  0.325176  1
  Tm  Tm11  1  0.321153  0.562929  0.674824  1
  Ir  Ir12  1  0.386012  0.250000  0.460969  1
  Ir  Ir13  1  0.613988  0.750000  0.539031  1
  Os  Os14  1  0.115571  0.750000  0.965363  1
  Os  Os15  1  0.884429  0.250000  0.034637  1
