# generated using pymatgen
data_Er9Tm3Co4BiRu
_symmetry_space_group_name_H-M   'P 1'
_cell_length_a   8.23291999
_cell_length_b   8.23476709
_cell_length_c   8.23291899
_cell_angle_alpha   110.70927326
_cell_angle_beta   111.17307318
_cell_angle_gamma   106.56147437
_symmetry_Int_Tables_number   1
_chemical_formula_structural   Er9Tm3Co4BiRu
_chemical_formula_sum   'Er9 Tm3 Co4 Bi1 Ru1'
_cell_volume   428.88679203
_cell_formula_units_Z   1
loop_
 _symmetry_equiv_pos_site_id
 _symmetry_equiv_pos_as_xyz
  1  'x, y, z'
loop_
 _atom_site_type_symbol
 _atom_site_label
 _atom_site_symmetry_multiplicity
 _atom_site_fract_x
 _atom_site_fract_y
 _atom_site_fract_z
 _atom_site_occupancy
  Er  Er0  1  0.284108  0.182735  0.467035  1
  Er  Er1  1  0.716097  0.817290  0.533255  1
  Er  Er2  1  0.284035  0.817290  0.101193  1
  Er  Er3  1  0.715701  0.182735  0.898628  1
  Er  Er4  1  0.619364  0.311025  0.308138  1
  Er  Er5  1  0.380931  0.689104  0.692131  1
  Er  Er6  1  0.002886  0.311025  0.691661  1
  Er  Er7  1  0.996973  0.689104  0.308173  1
  Er  Er8  1  0.212351  0.408657  0.196307  1
  Tm  Tm9  1  0.787783  0.591613  0.803829  1
  Tm  Tm10  1  0.212235  0.015857  0.803621  1
  Tm  Tm11  1  0.787682  0.983858  0.196176  1
  Co  Co12  1  0.999830  0.374891  0.375061  1
  Co  Co13  1  0.000068  0.625120  0.625052  1
  Co  Co14  1  0.388782  0.888929  0.500148  1
  Co  Co15  1  0.611373  0.111356  0.499983  1
  Bi  Bi16  1  0.500114  0.500024  0.999910  1
  Ru  Ru17  1  0.999687  0.999386  0.999699  1
