# generated using pymatgen
data_CeY(Be12Ni)2
_symmetry_space_group_name_H-M   'P 1'
_cell_length_a   7.29190992
_cell_length_b   7.34209835
_cell_length_c   7.26482278
_cell_angle_alpha   59.89399024
_cell_angle_beta   59.82681469
_cell_angle_gamma   59.53160470
_symmetry_Int_Tables_number   1
_chemical_formula_structural   CeY(Be12Ni)2
_chemical_formula_sum   'Ce1 Y1 Be24 Ni2'
_cell_volume   273.46207661
_cell_formula_units_Z   1
loop_
 _symmetry_equiv_pos_site_id
 _symmetry_equiv_pos_as_xyz
  1  'x, y, z'
loop_
 _atom_site_type_symbol
 _atom_site_label
 _atom_site_symmetry_multiplicity
 _atom_site_fract_x
 _atom_site_fract_y
 _atom_site_fract_z
 _atom_site_occupancy
  Ce  Ce0  1  0.997875  0.002119  0.997890  1
  Y  Y1  1  0.500241  0.499756  0.500260  1
  Be  Be2  1  0.317124  0.539169  0.182763  1
  Be  Be3  1  0.182814  0.960911  0.317153  1
  Be  Be4  1  0.041889  0.685624  0.457742  1
  Be  Be5  1  0.457742  0.814733  0.041876  1
  Be  Be6  1  0.683483  0.035451  0.815868  1
  Be  Be7  1  0.815850  0.465175  0.683474  1
  Be  Be8  1  0.956754  0.544902  0.311740  1
  Be  Be9  1  0.542848  0.953193  0.189996  1
  Be  Be10  1  0.190014  0.313948  0.542861  1
  Be  Be11  1  0.311731  0.186602  0.956819  1
  Be  Be12  1  0.461540  0.034242  0.686587  1
  Be  Be13  1  0.038460  0.464902  0.813891  1
  Be  Be14  1  0.813893  0.682740  0.038402  1
  Be  Be15  1  0.686581  0.817668  0.461504  1
  Be  Be16  1  0.312215  0.957762  0.542941  1
  Be  Be17  1  0.187764  0.542403  0.956457  1
  Be  Be18  1  0.542960  0.187150  0.312173  1
  Be  Be19  1  0.956395  0.313300  0.187830  1
  Be  Be20  1  0.687054  0.461943  0.038620  1
  Be  Be21  1  0.814148  0.038110  0.461487  1
  Be  Be22  1  0.038668  0.812361  0.687045  1
  Be  Be23  1  0.461437  0.686329  0.814108  1
  Be  Be24  1  0.250103  0.249886  0.250163  1
  Be  Be25  1  0.749480  0.750534  0.749446  1
  Ni  Ni26  1  0.548620  0.308154  0.952278  1
  Ni  Ni27  1  0.952315  0.190934  0.548627  1
