# generated using pymatgen
data_Y12TlNi5
_symmetry_space_group_name_H-M   'P 1'
_cell_length_a   8.36724300
_cell_length_b   8.36761317
_cell_length_c   8.36724200
_cell_angle_alpha   107.17984089
_cell_angle_beta   109.77333974
_cell_angle_gamma   111.48752083
_symmetry_Int_Tables_number   1
_chemical_formula_structural   Y12TlNi5
_chemical_formula_sum   'Y12 Tl1 Ni5'
_cell_volume   450.33340071
_cell_formula_units_Z   1
loop_
 _symmetry_equiv_pos_site_id
 _symmetry_equiv_pos_as_xyz
  1  'x, y, z'
loop_
 _atom_site_type_symbol
 _atom_site_label
 _atom_site_symmetry_multiplicity
 _atom_site_fract_x
 _atom_site_fract_y
 _atom_site_fract_z
 _atom_site_occupancy
  Y  Y0  1  0.478165  0.295458  0.182714  1
  Y  Y1  1  0.112743  0.295458  0.817292  1
  Y  Y2  1  0.887257  0.704542  0.182708  1
  Y  Y3  1  0.521835  0.704542  0.817286  1
  Y  Y4  1  0.305335  0.627493  0.322158  1
  Y  Y5  1  0.305369  0.983243  0.677873  1
  Y  Y6  1  0.694665  0.372507  0.677842  1
  Y  Y7  1  0.694631  0.016757  0.322127  1
  Y  Y8  1  0.190566  0.211704  0.402272  1
  Y  Y9  1  0.809434  0.788296  0.597728  1
  Y  Y10  1  0.190568  0.788296  0.978860  1
  Y  Y11  1  0.809432  0.211704  0.021140  1
  Tl  Tl12  1  0.000000  0.500000  0.500000  1
  Ni  Ni13  1  0.500003  0.623660  0.123657  1
  Ni  Ni14  1  0.499997  0.376340  0.876343  1
  Ni  Ni15  1  0.365849  0.000000  0.365849  1
  Ni  Ni16  1  0.634151  0.000000  0.634151  1
  Ni  Ni17  1  0.000000  0.000000  0.000000  1
