# generated using pymatgen
data_Y(Ga3Pd)3
_symmetry_space_group_name_H-M   'P 1'
_cell_length_a   10.48621647
_cell_length_b   10.48621686
_cell_length_c   10.48621824
_cell_angle_alpha   42.33041920
_cell_angle_beta   42.33042596
_cell_angle_gamma   42.33041962
_symmetry_Int_Tables_number   1
_chemical_formula_structural   Y(Ga3Pd)3
_chemical_formula_sum   'Y2 Ga18 Pd6'
_cell_volume   473.30389245
_cell_formula_units_Z   2
loop_
 _symmetry_equiv_pos_site_id
 _symmetry_equiv_pos_as_xyz
  1  'x, y, z'
loop_
 _atom_site_type_symbol
 _atom_site_label
 _atom_site_symmetry_multiplicity
 _atom_site_fract_x
 _atom_site_fract_y
 _atom_site_fract_z
 _atom_site_occupancy
  Y  Y0  1  0.166872  0.166872  0.166872  1
  Y  Y1  1  0.833128  0.833128  0.833128  1
  Ga  Ga2  1  0.109294  0.437588  0.767801  1
  Ga  Ga3  1  0.437588  0.767801  0.109294  1
  Ga  Ga4  1  0.562412  0.890706  0.232199  1
  Ga  Ga5  1  0.951177  0.951177  0.951177  1
  Ga  Ga6  1  0.048823  0.048823  0.048823  1
  Ga  Ga7  1  0.296353  0.703647  0.500000  1
  Ga  Ga8  1  0.890706  0.232199  0.562412  1
  Ga  Ga9  1  0.384395  0.384395  0.384395  1
  Ga  Ga10  1  0.500000  0.296353  0.703647  1
  Ga  Ga11  1  0.232199  0.562412  0.890706  1
  Ga  Ga12  1  0.714986  0.714986  0.714986  1
  Ga  Ga13  1  0.615605  0.615605  0.615605  1
  Ga  Ga14  1  0.334708  0.000000  0.665292  1
  Ga  Ga15  1  0.703647  0.500000  0.296353  1
  Ga  Ga16  1  0.665292  0.334708  0.000000  1
  Ga  Ga17  1  0.285014  0.285014  0.285014  1
  Ga  Ga18  1  0.000000  0.665292  0.334708  1
  Ga  Ga19  1  0.767801  0.109294  0.437588  1
  Pd  Pd20  1  0.419202  0.077537  0.760160  1
  Pd  Pd21  1  0.580798  0.239840  0.922463  1
  Pd  Pd22  1  0.077537  0.760160  0.419202  1
  Pd  Pd23  1  0.760160  0.419202  0.077537  1
  Pd  Pd24  1  0.922463  0.580798  0.239840  1
  Pd  Pd25  1  0.239840  0.922463  0.580798  1
