# generated using pymatgen
data_Dy2Y3Ti2Co17P12
_symmetry_space_group_name_H-M   'P 1'
_cell_length_a   12.12144317
_cell_length_b   12.07889564
_cell_length_c   3.68365000
_cell_angle_alpha   90.00000000
_cell_angle_beta   90.00000000
_cell_angle_gamma   119.88218248
_symmetry_Int_Tables_number   1
_chemical_formula_structural   Dy2Y3Ti2Co17P12
_chemical_formula_sum   'Dy2 Y3 Ti2 Co17 P12'
_cell_volume   467.63275582
_cell_formula_units_Z   1
loop_
 _symmetry_equiv_pos_site_id
 _symmetry_equiv_pos_as_xyz
  1  'x, y, z'
loop_
 _atom_site_type_symbol
 _atom_site_label
 _atom_site_symmetry_multiplicity
 _atom_site_fract_x
 _atom_site_fract_y
 _atom_site_fract_z
 _atom_site_occupancy
  Dy  Dy0  1  0.334184  0.666708  0.000000  1
  Dy  Dy1  1  0.999978  0.810445  0.500000  1
  Y  Y2  1  0.665775  0.332449  0.000000  1
  Y  Y3  1  0.185207  0.184206  0.500000  1
  Y  Y4  1  0.814741  0.999044  0.500000  1
  Ti  Ti5  1  0.561122  0.560824  0.000000  1
  Ti  Ti6  1  0.438839  0.999460  0.000000  1
  Co  Co7  1  0.000226  0.448713  0.000000  1
  Co  Co8  1  0.825169  0.203080  0.000000  1
  Co  Co9  1  0.803381  0.622594  0.000000  1
  Co  Co10  1  0.374268  0.177330  0.000000  1
  Co  Co11  1  0.196708  0.819140  0.000000  1
  Co  Co12  1  0.625434  0.803094  0.000000  1
  Co  Co13  1  0.174994  0.378048  0.000000  1
  Co  Co14  1  0.645133  0.125422  0.500000  1
  Co  Co15  1  0.875209  0.515625  0.500000  1
  Co  Co16  1  0.480566  0.355979  0.500000  1
  Co  Co17  1  0.125062  0.640456  0.500000  1
  Co  Co18  1  0.519100  0.875141  0.500000  1
  Co  Co19  1  0.354806  0.480616  0.500000  1
  Co  Co20  1  0.719297  0.718376  0.500000  1
  Co  Co21  1  0.280617  0.998827  0.500000  1
  Co  Co22  1  0.000119  0.285552  0.500000  1
  Co  Co23  1  0.000026  0.001648  0.000000  1
  P  P24  1  0.358138  0.361394  0.000000  1
  P  P25  1  0.641806  0.003163  0.000000  1
  P  P26  1  0.000024  0.631922  0.000000  1
  P  P27  1  0.835390  0.314941  0.500000  1
  P  P28  1  0.687851  0.519373  0.500000  1
  P  P29  1  0.478723  0.166842  0.500000  1
  P  P30  1  0.312203  0.831317  0.500000  1
  P  P31  1  0.520989  0.688176  0.500000  1
  P  P32  1  0.164895  0.479772  0.500000  1
  P  P33  1  0.821926  0.820134  0.000000  1
  P  P34  1  0.178033  0.998071  0.000000  1
  P  P35  1  0.000061  0.182117  0.000000  1
