# generated using pymatgen
data_Yb2Y2MnRu7
_symmetry_space_group_name_H-M   'P 1'
_cell_length_a   5.29944600
_cell_length_b   5.29944475
_cell_length_c   8.74031400
_cell_angle_alpha   90.00000000
_cell_angle_beta   90.00000000
_cell_angle_gamma   119.99999530
_symmetry_Int_Tables_number   1
_chemical_formula_structural   Yb2Y2MnRu7
_chemical_formula_sum   'Yb2 Y2 Mn1 Ru7'
_cell_volume   212.57810321
_cell_formula_units_Z   1
loop_
 _symmetry_equiv_pos_site_id
 _symmetry_equiv_pos_as_xyz
  1  'x, y, z'
loop_
 _atom_site_type_symbol
 _atom_site_label
 _atom_site_symmetry_multiplicity
 _atom_site_fract_x
 _atom_site_fract_y
 _atom_site_fract_z
 _atom_site_occupancy
  Yb  Yb0  1  0.666667  0.333333  0.936241  1
  Yb  Yb1  1  0.333333  0.666667  0.063759  1
  Y  Y2  1  0.333333  0.666667  0.427345  1
  Y  Y3  1  0.666667  0.333333  0.572655  1
  Mn  Mn4  1  0.000000  0.000000  0.000000  1
  Ru  Ru5  1  0.000000  0.000000  0.500000  1
  Ru  Ru6  1  0.828990  0.171010  0.247883  1
  Ru  Ru7  1  0.828990  0.657978  0.247883  1
  Ru  Ru8  1  0.342022  0.171010  0.247883  1
  Ru  Ru9  1  0.171010  0.828990  0.752117  1
  Ru  Ru10  1  0.171010  0.342022  0.752117  1
  Ru  Ru11  1  0.657978  0.828990  0.752117  1
