# generated using pymatgen
data_HoNp3F15
_symmetry_space_group_name_H-M   'P 1'
_cell_length_a   8.58948353
_cell_length_b   8.58948299
_cell_length_c   8.60024242
_cell_angle_alpha   79.47659623
_cell_angle_beta   79.47659447
_cell_angle_gamma   100.05806388
_symmetry_Int_Tables_number   1
_chemical_formula_structural   HoNp3F15
_chemical_formula_sum   'Ho2 Np6 F30'
_cell_volume   598.98577909
_cell_formula_units_Z   2
loop_
 _symmetry_equiv_pos_site_id
 _symmetry_equiv_pos_as_xyz
  1  'x, y, z'
loop_
 _atom_site_type_symbol
 _atom_site_label
 _atom_site_symmetry_multiplicity
 _atom_site_fract_x
 _atom_site_fract_y
 _atom_site_fract_z
 _atom_site_occupancy
  Ho  Ho0  1  0.177318  0.822682  0.250000  1
  Ho  Ho1  1  0.822682  0.177318  0.750000  1
  Np  Np2  1  0.748654  0.251346  0.250000  1
  Np  Np3  1  0.251346  0.748654  0.750000  1
  Np  Np4  1  0.756521  0.677543  0.674507  1
  Np  Np5  1  0.322457  0.243479  0.825493  1
  Np  Np6  1  0.243479  0.322457  0.325493  1
  Np  Np7  1  0.677543  0.756521  0.174507  1
  F  F8  1  0.322570  0.347138  0.050477  1
  F  F9  1  0.945032  0.813941  0.158244  1
  F  F10  1  0.843535  0.447750  0.681904  1
  F  F11  1  0.447750  0.843535  0.181904  1
  F  F12  1  0.813941  0.945032  0.658244  1
  F  F13  1  0.347138  0.322570  0.550476  1
  F  F14  1  0.677430  0.652862  0.949523  1
  F  F15  1  0.054968  0.186059  0.841756  1
  F  F16  1  0.156465  0.552250  0.318096  1
  F  F17  1  0.552250  0.156465  0.818096  1
  F  F18  1  0.186059  0.054968  0.341756  1
  F  F19  1  0.652862  0.677430  0.449523  1
  F  F20  1  0.777553  0.277404  0.990745  1
  F  F21  1  0.012969  0.278823  0.215563  1
  F  F22  1  0.780707  0.511806  0.221719  1
  F  F23  1  0.511806  0.780707  0.721719  1
  F  F24  1  0.278823  0.012969  0.715563  1
  F  F25  1  0.277404  0.777553  0.490745  1
  F  F26  1  0.222447  0.722596  0.009255  1
  F  F27  1  0.987031  0.721177  0.784437  1
  F  F28  1  0.219293  0.488194  0.778281  1
  F  F29  1  0.488194  0.219293  0.278281  1
  F  F30  1  0.721177  0.987031  0.284437  1
  F  F31  1  0.722596  0.222447  0.509255  1
  F  F32  1  0.466918  0.533082  0.250000  1
  F  F33  1  0.751701  0.965885  0.965491  1
  F  F34  1  0.034115  0.248299  0.534509  1
  F  F35  1  0.248299  0.034115  0.034509  1
  F  F36  1  0.965885  0.751701  0.465491  1
  F  F37  1  0.533082  0.466918  0.750000  1
