# generated using pymatgen
data_Er2Tm(In2Rh)2
_symmetry_space_group_name_H-M   'P 1'
_cell_length_a   7.91900001
_cell_length_b   7.92361909
_cell_length_c   3.70717400
_cell_angle_alpha   90.00000000
_cell_angle_beta   90.00000000
_cell_angle_gamma   119.97643204
_symmetry_Int_Tables_number   1
_chemical_formula_structural   Er2Tm(In2Rh)2
_chemical_formula_sum   'Er2 Tm1 In4 Rh2'
_cell_volume   201.49794681
_cell_formula_units_Z   1
loop_
 _symmetry_equiv_pos_site_id
 _symmetry_equiv_pos_as_xyz
  1  'x, y, z'
loop_
 _atom_site_type_symbol
 _atom_site_label
 _atom_site_symmetry_multiplicity
 _atom_site_fract_x
 _atom_site_fract_y
 _atom_site_fract_z
 _atom_site_occupancy
  Er  Er0  1  0.411721  0.034946  0.000000  1
  Er  Er1  1  0.965053  0.377139  0.000000  1
  Tm  Tm2  1  0.624150  0.588071  0.000000  1
  In  In3  1  0.740006  0.998235  0.500001  1
  In  In4  1  0.258344  0.259843  0.500001  1
  In  In5  1  0.333485  0.666495  0.500001  1
  In  In6  1  0.000964  0.741092  0.500001  1
  Rh  Rh7  1  0.000114  0.999457  0.000000  1
  Rh  Rh8  1  0.666164  0.334722  0.500001  1
