# generated using pymatgen
data_Tb7Nd2Ho(In2Pt)4
_symmetry_space_group_name_H-M   'P 1'
_cell_length_a   3.65690100
_cell_length_b   8.22488408
_cell_length_c   18.46480742
_cell_angle_alpha   90.05875361
_cell_angle_beta   90.00000000
_cell_angle_gamma   90.00000000
_symmetry_Int_Tables_number   1
_chemical_formula_structural   Tb7Nd2Ho(In2Pt)4
_chemical_formula_sum   'Tb7 Nd2 Ho1 In8 Pt4'
_cell_volume   555.37655652
_cell_formula_units_Z   1
loop_
 _symmetry_equiv_pos_site_id
 _symmetry_equiv_pos_as_xyz
  1  'x, y, z'
loop_
 _atom_site_type_symbol
 _atom_site_label
 _atom_site_symmetry_multiplicity
 _atom_site_fract_x
 _atom_site_fract_y
 _atom_site_fract_z
 _atom_site_occupancy
  Tb  Tb0  1  0.000000  0.118880  0.414160  1
  Tb  Tb1  1  0.000000  0.880997  0.585759  1
  Tb  Tb2  1  0.000000  0.380998  0.914248  1
  Tb  Tb3  1  0.000000  0.619023  0.085867  1
  Tb  Tb4  1  0.000000  0.242191  0.219754  1
  Tb  Tb5  1  0.000000  0.757817  0.780244  1
  Tb  Tb6  1  0.000000  0.257867  0.719754  1
  Nd  Nd7  1  0.000000  0.000013  0.000030  1
  Nd  Nd8  1  0.000000  0.499983  0.499981  1
  Ho  Ho9  1  0.000000  0.742393  0.280094  1
  In  In10  1  0.500000  0.422536  0.348531  1
  In  In11  1  0.500000  0.577768  0.651408  1
  In  In12  1  0.500000  0.077767  0.848591  1
  In  In13  1  0.500000  0.922019  0.151563  1
  In  In14  1  0.500000  0.298331  0.067803  1
  In  In15  1  0.500000  0.701737  0.932207  1
  In  In16  1  0.500000  0.201758  0.567788  1
  In  In17  1  0.500000  0.798121  0.432020  1
  Pt  Pt18  1  0.500000  0.023286  0.303406  1
  Pt  Pt19  1  0.500000  0.975754  0.696510  1
  Pt  Pt20  1  0.500000  0.475766  0.803486  1
  Pt  Pt21  1  0.500000  0.524997  0.196797  1
