# generated using pymatgen
data_Tb3U(TcB4)4
_symmetry_space_group_name_H-M   'P 1'
_cell_length_a   3.60974100
_cell_length_b   5.95574757
_cell_length_c   11.52454811
_cell_angle_alpha   90.00966879
_cell_angle_beta   90.00000000
_cell_angle_gamma   90.00000000
_symmetry_Int_Tables_number   1
_chemical_formula_structural   Tb3U(TcB4)4
_chemical_formula_sum   'Tb3 U1 Tc4 B16'
_cell_volume   247.76287009
_cell_formula_units_Z   1
loop_
 _symmetry_equiv_pos_site_id
 _symmetry_equiv_pos_as_xyz
  1  'x, y, z'
loop_
 _atom_site_type_symbol
 _atom_site_label
 _atom_site_symmetry_multiplicity
 _atom_site_fract_x
 _atom_site_fract_y
 _atom_site_fract_z
 _atom_site_occupancy
  Tb  Tb0  1  0.000000  0.371354  0.650161  1
  Tb  Tb1  1  0.000000  0.126830  0.149180  1
  Tb  Tb2  1  0.000000  0.873931  0.849582  1
  U  U3  1  0.000000  0.628091  0.350630  1
  Tc  Tc4  1  0.000000  0.632032  0.091671  1
  Tc  Tc5  1  0.000000  0.366151  0.912682  1
  Tc  Tc6  1  0.000000  0.138703  0.406612  1
  Tc  Tc7  1  0.000000  0.860608  0.586652  1
  B  B8  1  0.500000  0.785715  0.187369  1
  B  B9  1  0.500000  0.212879  0.815280  1
  B  B10  1  0.500000  0.291873  0.314997  1
  B  B11  1  0.500000  0.714296  0.685538  1
  B  B12  1  0.500000  0.862561  0.032325  1
  B  B13  1  0.500000  0.135922  0.968931  1
  B  B14  1  0.500000  0.366193  0.467203  1
  B  B15  1  0.500000  0.635934  0.529687  1
  B  B16  1  0.500000  0.886306  0.452602  1
  B  B17  1  0.500000  0.112795  0.546434  1
  B  B18  1  0.500000  0.386664  0.046903  1
  B  B19  1  0.500000  0.612644  0.953738  1
  B  B20  1  0.500000  0.971590  0.308612  1
  B  B21  1  0.500000  0.023949  0.691272  1
  B  B22  1  0.500000  0.479628  0.193694  1
  B  B23  1  0.500000  0.523350  0.808247  1
