# generated using pymatgen
data_SmLu5Si2Os
_symmetry_space_group_name_H-M   'P 1'
_cell_length_a   7.59734900
_cell_length_b   7.59882170
_cell_length_c   4.30051000
_cell_angle_alpha   90.00000000
_cell_angle_beta   90.00000000
_cell_angle_gamma   119.99358478
_symmetry_Int_Tables_number   1
_chemical_formula_structural   SmLu5Si2Os
_chemical_formula_sum   'Sm1 Lu5 Si2 Os1'
_cell_volume   215.02402942
_cell_formula_units_Z   1
loop_
 _symmetry_equiv_pos_site_id
 _symmetry_equiv_pos_as_xyz
  1  'x, y, z'
loop_
 _atom_site_type_symbol
 _atom_site_label
 _atom_site_symmetry_multiplicity
 _atom_site_fract_x
 _atom_site_fract_y
 _atom_site_fract_z
 _atom_site_occupancy
  Sm  Sm0  1  0.405879  0.000000  0.000000  1
  Lu  Lu1  1  0.000905  0.401991  0.000000  1
  Lu  Lu2  1  0.598914  0.598009  0.000000  1
  Lu  Lu3  1  0.750074  0.000000  0.499999  1
  Lu  Lu4  1  0.249773  0.251664  0.499999  1
  Lu  Lu5  1  0.998109  0.748336  0.499999  1
  Si  Si6  1  0.670308  0.339453  0.499999  1
  Si  Si7  1  0.330856  0.660548  0.499999  1
  Os  Os8  1  0.995183  0.000000  0.000000  1
