# generated using pymatgen
data_Lu4Ga2As4Rh7
_symmetry_space_group_name_H-M   'P 1'
_cell_length_a   7.21991972
_cell_length_b   7.20854582
_cell_length_c   7.20854466
_cell_angle_alpha   109.72105775
_cell_angle_beta   109.31476420
_cell_angle_gamma   109.31475639
_symmetry_Int_Tables_number   1
_chemical_formula_structural   Lu4Ga2As4Rh7
_chemical_formula_sum   'Lu4 Ga2 As4 Rh7'
_cell_volume   289.02667129
_cell_formula_units_Z   1
loop_
 _symmetry_equiv_pos_site_id
 _symmetry_equiv_pos_as_xyz
  1  'x, y, z'
loop_
 _atom_site_type_symbol
 _atom_site_label
 _atom_site_symmetry_multiplicity
 _atom_site_fract_x
 _atom_site_fract_y
 _atom_site_fract_z
 _atom_site_occupancy
  Lu  Lu0  1  0.484729  0.484692  0.484692  1
  Lu  Lu1  1  0.997505  0.498752  0.998752  1
  Lu  Lu2  1  0.484729  0.000038  0.000038  1
  Lu  Lu3  1  0.997505  0.998752  0.498752  1
  Ga  Ga4  1  0.686394  0.993010  0.693384  1
  Ga  Ga5  1  0.686394  0.693384  0.993010  1
  As  As6  1  0.324803  0.329012  0.995792  1
  As  As7  1  0.991396  0.682693  0.682693  1
  As  As8  1  0.991396  0.308702  0.308702  1
  As  As9  1  0.324803  0.995792  0.329012  1
  Rh  Rh10  1  0.505265  0.752633  0.252633  1
  Rh  Rh11  1  0.752161  0.249385  0.502776  1
  Rh  Rh12  1  0.248353  0.746013  0.502339  1
  Rh  Rh13  1  0.248353  0.502339  0.746013  1
  Rh  Rh14  1  0.018789  0.009395  0.009395  1
  Rh  Rh15  1  0.505265  0.252633  0.752633  1
  Rh  Rh16  1  0.752161  0.502776  0.249385  1
