# generated using pymatgen
data_Tb10CuPb6Se
_symmetry_space_group_name_H-M   'P 1'
_cell_length_a   9.26745001
_cell_length_b   9.26741312
_cell_length_c   6.70947000
_cell_angle_alpha   89.99885488
_cell_angle_beta   89.99902480
_cell_angle_gamma   119.99626806
_symmetry_Int_Tables_number   1
_chemical_formula_structural   Tb10CuPb6Se
_chemical_formula_sum   'Tb10 Cu1 Pb6 Se1'
_cell_volume   499.06136792
_cell_formula_units_Z   1
loop_
 _symmetry_equiv_pos_site_id
 _symmetry_equiv_pos_as_xyz
  1  'x, y, z'
loop_
 _atom_site_type_symbol
 _atom_site_label
 _atom_site_symmetry_multiplicity
 _atom_site_fract_x
 _atom_site_fract_y
 _atom_site_fract_z
 _atom_site_occupancy
  Tb  Tb0  1  0.253309  0.000005  0.249123  1
  Tb  Tb1  1  0.746691  0.999995  0.750877  1
  Tb  Tb2  1  0.000004  0.253309  0.249122  1
  Tb  Tb3  1  0.999996  0.746691  0.750878  1
  Tb  Tb4  1  0.746692  0.746693  0.249122  1
  Tb  Tb5  1  0.253308  0.253307  0.750878  1
  Tb  Tb6  1  0.333351  0.666655  0.000000  1
  Tb  Tb7  1  0.666649  0.333345  0.000000  1
  Tb  Tb8  1  0.666673  0.333333  0.500000  1
  Tb  Tb9  1  0.333327  0.666667  0.500000  1
  Cu  Cu10  1  0.000000  0.000000  0.500000  1
  Pb  Pb11  1  0.609032  0.000010  0.249720  1
  Pb  Pb12  1  0.390968  0.999990  0.750280  1
  Pb  Pb13  1  0.000006  0.609031  0.249719  1
  Pb  Pb14  1  0.999994  0.390969  0.750281  1
  Pb  Pb15  1  0.390973  0.390977  0.249724  1
  Pb  Pb16  1  0.609027  0.609023  0.750276  1
  Se  Se17  1  0.000000  0.000000  0.000000  1
