# generated using pymatgen
data_Th3Al2GaNi3
_symmetry_space_group_name_H-M   'P 1'
_cell_length_a   7.02930393
_cell_length_b   7.06765048
_cell_length_c   4.07878300
_cell_angle_alpha   90.00000000
_cell_angle_beta   90.00000000
_cell_angle_gamma   120.18061582
_symmetry_Int_Tables_number   1
_chemical_formula_structural   Th3Al2GaNi3
_chemical_formula_sum   'Th3 Al2 Ga1 Ni3'
_cell_volume   175.16822086
_cell_formula_units_Z   1
loop_
 _symmetry_equiv_pos_site_id
 _symmetry_equiv_pos_as_xyz
  1  'x, y, z'
loop_
 _atom_site_type_symbol
 _atom_site_label
 _atom_site_symmetry_multiplicity
 _atom_site_fract_x
 _atom_site_fract_y
 _atom_site_fract_z
 _atom_site_occupancy
  Th  Th0  1  0.000000  0.423011  0.500000  1
  Th  Th1  1  0.580835  0.580488  0.500000  1
  Th  Th2  1  0.419165  0.999653  0.500000  1
  Al  Al3  1  0.229495  0.230112  0.000000  1
  Al  Al4  1  0.770505  0.000616  0.000000  1
  Ga  Ga5  1  0.000000  0.765747  0.000000  1
  Ni  Ni6  1  0.337473  0.665556  0.000000  1
  Ni  Ni7  1  0.662527  0.328082  0.000000  1
  Ni  Ni8  1  0.000000  0.006736  0.500000  1
