# generated using pymatgen
data_Sr2V3Zn4AsO16
_symmetry_space_group_name_H-M   'P 1'
_cell_length_a   8.78291419
_cell_length_b   9.93473454
_cell_length_c   9.44377115
_cell_angle_alpha   89.90258004
_cell_angle_beta   91.35178790
_cell_angle_gamma   89.76336390
_symmetry_Int_Tables_number   1
_chemical_formula_structural   Sr2V3Zn4AsO16
_chemical_formula_sum   'Sr4 V6 Zn8 As2 O32'
_cell_volume   823.78726105
_cell_formula_units_Z   2
loop_
 _symmetry_equiv_pos_site_id
 _symmetry_equiv_pos_as_xyz
  1  'x, y, z'
loop_
 _atom_site_type_symbol
 _atom_site_label
 _atom_site_symmetry_multiplicity
 _atom_site_fract_x
 _atom_site_fract_y
 _atom_site_fract_z
 _atom_site_occupancy
  Sr  Sr0  1  0.750526  0.584453  0.117174  1
  Sr  Sr1  1  0.248713  0.084592  0.383659  1
  Sr  Sr2  1  0.753239  0.916072  0.615474  1
  Sr  Sr3  1  0.246455  0.415055  0.884936  1
  V  V4  1  0.950491  0.203196  0.058762  1
  V  V5  1  0.440873  0.419522  0.247388  1
  V  V6  1  0.559556  0.918663  0.252531  1
  V  V7  1  0.049403  0.702831  0.440191  1
  V  V8  1  0.951683  0.297166  0.560455  1
  V  V9  1  0.441668  0.080588  0.747030  1
  Zn  Zn10  1  0.572235  0.188746  0.043954  1
  Zn  Zn11  1  0.930871  0.927837  0.227686  1
  Zn  Zn12  1  0.071569  0.427584  0.269763  1
  Zn  Zn13  1  0.426637  0.687844  0.456724  1
  Zn  Zn14  1  0.573456  0.312947  0.545521  1
  Zn  Zn15  1  0.926513  0.573959  0.728688  1
  Zn  Zn16  1  0.075126  0.070839  0.771823  1
  Zn  Zn17  1  0.423411  0.807987  0.953562  1
  As  As18  1  0.558979  0.580451  0.751447  1
  As  As19  1  0.049964  0.797252  0.941215  1
  O  O20  1  0.218146  0.864811  0.001264  1
  O  O21  1  0.916082  0.797250  0.072493  1
  O  O22  1  0.567867  0.375570  0.115733  1
  O  O23  1  0.927745  0.369629  0.114961  1
  O  O24  1  0.566945  0.797859  0.119171  1
  O  O25  1  0.261652  0.436540  0.162628  1
  O  O26  1  0.483456  0.068276  0.186472  1
  O  O27  1  0.026273  0.102469  0.196977  1
  O  O28  1  0.973909  0.601890  0.302613  1
  O  O29  1  0.516108  0.568629  0.313512  1
  O  O30  1  0.740186  0.934297  0.334615  1
  O  O31  1  0.430716  0.298677  0.381063  1
  O  O32  1  0.073207  0.868867  0.383765  1
  O  O33  1  0.435534  0.875473  0.387072  1
  O  O34  1  0.084576  0.297642  0.424169  1
  O  O35  1  0.779885  0.362164  0.501693  1
  O  O36  1  0.220608  0.636634  0.499349  1
  O  O37  1  0.915184  0.703836  0.575107  1
  O  O38  1  0.568853  0.124769  0.615615  1
  O  O39  1  0.930115  0.130636  0.617704  1
  O  O40  1  0.571659  0.700755  0.620949  1
  O  O41  1  0.263086  0.063886  0.661632  1
  O  O42  1  0.480607  0.434337  0.685863  1
  O  O43  1  0.025278  0.399767  0.697771  1
  O  O44  1  0.976003  0.896515  0.804872  1
  O  O45  1  0.515975  0.931254  0.814752  1
  O  O46  1  0.734634  0.564380  0.836199  1
  O  O47  1  0.429750  0.202124  0.879689  1
  O  O48  1  0.067943  0.632282  0.886752  1
  O  O49  1  0.433292  0.620573  0.883133  1
  O  O50  1  0.084350  0.202740  0.923491  1
  O  O51  1  0.779008  0.137882  0.000936  1
