# generated using pymatgen
data_Yb4NbAl2RuO12
_symmetry_space_group_name_H-M   'P 1'
_cell_length_a   5.30906230
_cell_length_b   5.42996710
_cell_length_c   7.56741196
_cell_angle_alpha   90.44934967
_cell_angle_beta   90.10835818
_cell_angle_gamma   89.96324656
_symmetry_Int_Tables_number   1
_chemical_formula_structural   Yb4NbAl2RuO12
_chemical_formula_sum   'Yb4 Nb1 Al2 Ru1 O12'
_cell_volume   218.14646469
_cell_formula_units_Z   1
loop_
 _symmetry_equiv_pos_site_id
 _symmetry_equiv_pos_as_xyz
  1  'x, y, z'
loop_
 _atom_site_type_symbol
 _atom_site_label
 _atom_site_symmetry_multiplicity
 _atom_site_fract_x
 _atom_site_fract_y
 _atom_site_fract_z
 _atom_site_occupancy
  Yb  Yb0  1  0.510003  0.552499  0.254219  1
  Yb  Yb1  1  0.986873  0.047336  0.256020  1
  Yb  Yb2  1  0.489997  0.447501  0.745781  1
  Yb  Yb3  1  0.013127  0.952664  0.743980  1
  Nb  Nb4  1  0.000000  0.500000  0.000000  1
  Al  Al5  1  0.000000  0.500000  0.500000  1
  Al  Al6  1  0.500000  0.000000  0.000000  1
  Ru  Ru7  1  0.500000  0.000000  0.500000  1
  O  O8  1  0.414756  0.978363  0.247526  1
  O  O9  1  0.078802  0.480415  0.258454  1
  O  O10  1  0.585244  0.021637  0.752474  1
  O  O11  1  0.921198  0.519585  0.741546  1
  O  O12  1  0.786813  0.799313  0.042507  1
  O  O13  1  0.708568  0.295662  0.456131  1
  O  O14  1  0.201983  0.210723  0.543801  1
  O  O15  1  0.301257  0.712815  0.958428  1
  O  O16  1  0.213187  0.200687  0.957493  1
  O  O17  1  0.291432  0.704338  0.543869  1
  O  O18  1  0.798017  0.789277  0.456199  1
  O  O19  1  0.698743  0.287185  0.041572  1
