# generated using pymatgen
data_Ho17Sc3Si15Pt
_symmetry_space_group_name_H-M   'P 1'
_cell_length_a   7.29568004
_cell_length_b   7.60902783
_cell_length_c   14.46371423
_cell_angle_alpha   89.77930677
_cell_angle_beta   89.63357054
_cell_angle_gamma   90.14715289
_symmetry_Int_Tables_number   1
_chemical_formula_structural   Ho17Sc3Si15Pt
_chemical_formula_sum   'Ho17 Sc3 Si15 Pt1'
_cell_volume   802.89956159
_cell_formula_units_Z   1
loop_
 _symmetry_equiv_pos_site_id
 _symmetry_equiv_pos_as_xyz
  1  'x, y, z'
loop_
 _atom_site_type_symbol
 _atom_site_label
 _atom_site_symmetry_multiplicity
 _atom_site_fract_x
 _atom_site_fract_y
 _atom_site_fract_z
 _atom_site_occupancy
  Ho  Ho0  1  0.352686  0.010405  0.752180  1
  Ho  Ho1  1  0.976305  0.814864  0.100008  1
  Ho  Ho2  1  0.476198  0.684001  0.401343  1
  Ho  Ho3  1  0.528085  0.324296  0.901698  1
  Ho  Ho4  1  0.025331  0.184813  0.597420  1
  Ho  Ho5  1  0.024515  0.185896  0.901691  1
  Ho  Ho6  1  0.526574  0.318051  0.596643  1
  Ho  Ho7  1  0.477682  0.682410  0.101530  1
  Ho  Ho8  1  0.973379  0.817142  0.400512  1
  Ho  Ho9  1  0.682623  0.813178  0.880162  1
  Ho  Ho10  1  0.177684  0.678949  0.622236  1
  Ho  Ho11  1  0.817934  0.333885  0.123025  1
  Ho  Ho12  1  0.316190  0.175316  0.373234  1
  Ho  Ho13  1  0.321098  0.177811  0.126735  1
  Ho  Ho14  1  0.819420  0.322813  0.374436  1
  Ho  Ho15  1  0.175245  0.670544  0.877341  1
  Ho  Ho16  1  0.682752  0.821547  0.622847  1
  Sc  Sc17  1  0.650845  0.990182  0.249141  1
  Sc  Sc18  1  0.151742  0.513144  0.249339  1
  Sc  Sc19  1  0.844854  0.484921  0.753859  1
  Si  Si20  1  0.772636  0.637728  0.252514  1
  Si  Si21  1  0.272317  0.864531  0.250742  1
  Si  Si22  1  0.733988  0.130446  0.748737  1
  Si  Si23  1  0.227048  0.372515  0.746075  1
  Si  Si24  1  0.012821  0.097982  0.249051  1
  Si  Si25  1  0.516649  0.403518  0.252016  1
  Si  Si26  1  0.476746  0.601243  0.746386  1
  Si  Si27  1  0.978411  0.898675  0.748518  1
  Si  Si28  1  0.351288  0.971827  0.538046  1
  Si  Si29  1  0.649893  0.028610  0.043670  1
  Si  Si30  1  0.149920  0.470308  0.458360  1
  Si  Si31  1  0.157350  0.473468  0.044902  1
  Si  Si32  1  0.646723  0.029642  0.457852  1
  Si  Si33  1  0.350369  0.967187  0.963811  1
  Si  Si34  1  0.851232  0.528880  0.539172  1
  Pt  Pt35  1  0.851468  0.519275  0.954768  1
