# generated using pymatgen
data_Tm4Fe5P12Ru4Rh11
_symmetry_space_group_name_H-M   'P 1'
_cell_length_a   3.82592500
_cell_length_b   10.65213544
_cell_length_c   12.33831656
_cell_angle_alpha   89.85746017
_cell_angle_beta   90.00000000
_cell_angle_gamma   90.00000000
_symmetry_Int_Tables_number   1
_chemical_formula_structural   Tm4Fe5P12Ru4Rh11
_chemical_formula_sum   'Tm4 Fe5 P12 Ru4 Rh11'
_cell_volume   502.83754431
_cell_formula_units_Z   1
loop_
 _symmetry_equiv_pos_site_id
 _symmetry_equiv_pos_as_xyz
  1  'x, y, z'
loop_
 _atom_site_type_symbol
 _atom_site_label
 _atom_site_symmetry_multiplicity
 _atom_site_fract_x
 _atom_site_fract_y
 _atom_site_fract_z
 _atom_site_occupancy
  Tm  Tm0  1  0.250000  0.578870  0.710520  1
  Tm  Tm1  1  0.250000  0.916202  0.207478  1
  Tm  Tm2  1  0.750000  0.416178  0.292253  1
  Tm  Tm3  1  0.750000  0.087296  0.791525  1
  Fe  Fe4  1  0.750000  0.381583  0.801528  1
  Fe  Fe5  1  0.250000  0.462661  0.933466  1
  Fe  Fe6  1  0.250000  0.037408  0.435314  1
  Fe  Fe7  1  0.750000  0.538551  0.062677  1
  Fe  Fe8  1  0.750000  0.962270  0.565634  1
  P  P9  1  0.250000  0.427701  0.105065  1
  P  P10  1  0.250000  0.074051  0.606631  1
  P  P11  1  0.750000  0.562803  0.887018  1
  P  P12  1  0.750000  0.926570  0.394086  1
  P  P13  1  0.250000  0.275978  0.866025  1
  P  P14  1  0.250000  0.230496  0.371923  1
  P  P15  1  0.750000  0.730179  0.127029  1
  P  P16  1  0.750000  0.768997  0.629709  1
  P  P17  1  0.250000  0.599570  0.390687  1
  P  P18  1  0.250000  0.900400  0.889834  1
  P  P19  1  0.750000  0.399374  0.620195  1
  P  P20  1  0.750000  0.102646  0.108846  1
  Ru  Ru21  1  0.250000  0.713909  0.990143  1
  Ru  Ru22  1  0.250000  0.786642  0.489979  1
  Ru  Ru23  1  0.750000  0.290676  0.009050  1
  Ru  Ru24  1  0.750000  0.213546  0.513038  1
  Rh  Rh25  1  0.250000  0.406863  0.483661  1
  Rh  Rh26  1  0.250000  0.096499  0.981185  1
  Rh  Rh27  1  0.750000  0.591414  0.518296  1
  Rh  Rh28  1  0.750000  0.909069  0.014573  1
  Rh  Rh29  1  0.250000  0.231451  0.176771  1
  Rh  Rh30  1  0.250000  0.271628  0.678175  1
  Rh  Rh31  1  0.750000  0.765015  0.822961  1
  Rh  Rh32  1  0.750000  0.730762  0.322285  1
  Rh  Rh33  1  0.250000  0.886925  0.702543  1
  Rh  Rh34  1  0.250000  0.612515  0.201535  1
  Rh  Rh35  1  0.750000  0.113298  0.298360  1
