# generated using pymatgen
data_Y12AlInSi4
_symmetry_space_group_name_H-M   'P 1'
_cell_length_a   8.52224817
_cell_length_b   8.52224887
_cell_length_c   8.52224897
_cell_angle_alpha   111.98174625
_cell_angle_beta   111.29317090
_cell_angle_gamma   105.22134091
_symmetry_Int_Tables_number   1
_chemical_formula_structural   Y12AlInSi4
_chemical_formula_sum   'Y12 Al1 In1 Si4'
_cell_volume   474.51006445
_cell_formula_units_Z   1
loop_
 _symmetry_equiv_pos_site_id
 _symmetry_equiv_pos_as_xyz
  1  'x, y, z'
loop_
 _atom_site_type_symbol
 _atom_site_label
 _atom_site_symmetry_multiplicity
 _atom_site_fract_x
 _atom_site_fract_y
 _atom_site_fract_z
 _atom_site_occupancy
  Y  Y0  1  0.436952  0.237480  0.199472  1
  Y  Y1  1  0.563048  0.762520  0.800528  1
  Y  Y2  1  0.038008  0.237480  0.800528  1
  Y  Y3  1  0.961992  0.762520  0.199472  1
  Y  Y4  1  0.181392  0.272665  0.454056  1
  Y  Y5  1  0.818608  0.727335  0.545944  1
  Y  Y6  1  0.181392  0.727335  0.908728  1
  Y  Y7  1  0.818608  0.272665  0.091272  1
  Y  Y8  1  0.320360  0.619019  0.298660  1
  Y  Y9  1  0.679640  0.380981  0.701340  1
  Y  Y10  1  0.320360  0.021700  0.701340  1
  Y  Y11  1  0.679640  0.978300  0.298660  1
  Al  Al12  1  0.000000  0.000000  0.000000  1
  In  In13  1  0.500000  0.500000  0.000000  1
  Si  Si14  1  0.367021  0.000000  0.367021  1
  Si  Si15  1  0.632979  0.000000  0.632979  1
  Si  Si16  1  0.115726  0.615726  0.500000  1
  Si  Si17  1  0.884274  0.384274  0.500000  1
