# generated using pymatgen
data_Ca7Sm(Sb2O5)4
_symmetry_space_group_name_H-M   'P 1'
_cell_length_a   5.88590900
_cell_length_b   7.38639631
_cell_length_c   14.27781500
_cell_angle_alpha   89.91941320
_cell_angle_beta   90.00000000
_cell_angle_gamma   90.00000000
_symmetry_Int_Tables_number   1
_chemical_formula_structural   Ca7Sm(Sb2O5)4
_chemical_formula_sum   'Ca7 Sm1 Sb8 O20'
_cell_volume   620.73676646
_cell_formula_units_Z   1
loop_
 _symmetry_equiv_pos_site_id
 _symmetry_equiv_pos_as_xyz
  1  'x, y, z'
loop_
 _atom_site_type_symbol
 _atom_site_label
 _atom_site_symmetry_multiplicity
 _atom_site_fract_x
 _atom_site_fract_y
 _atom_site_fract_z
 _atom_site_occupancy
  Ca  Ca0  1  0.250000  0.629080  0.065974  1
  Ca  Ca1  1  0.750000  0.623638  0.448455  1
  Ca  Ca2  1  0.750000  0.875226  0.947105  1
  Ca  Ca3  1  0.250000  0.873588  0.562700  1
  Ca  Ca4  1  0.250000  0.121350  0.053918  1
  Ca  Ca5  1  0.750000  0.126248  0.436410  1
  Ca  Ca6  1  0.250000  0.376109  0.550921  1
  Sm  Sm7  1  0.750000  0.373903  0.938908  1
  Sb  Sb8  1  0.250000  0.610948  0.821543  1
  Sb  Sb9  1  0.750000  0.630715  0.684059  1
  Sb  Sb10  1  0.250000  0.882583  0.322560  1
  Sb  Sb11  1  0.750000  0.865962  0.181780  1
  Sb  Sb12  1  0.250000  0.138493  0.816149  1
  Sb  Sb13  1  0.750000  0.116655  0.677699  1
  Sb  Sb14  1  0.250000  0.370629  0.315162  1
  Sb  Sb15  1  0.750000  0.385684  0.178911  1
  O  O16  1  0.250000  0.628980  0.264603  1
  O  O17  1  0.006078  0.624285  0.918886  1
  O  O18  1  0.493922  0.624285  0.918886  1
  O  O19  1  0.509686  0.617078  0.588045  1
  O  O20  1  0.990314  0.617078  0.588045  1
  O  O21  1  0.490736  0.867660  0.418086  1
  O  O22  1  0.250000  0.873492  0.775364  1
  O  O23  1  0.509173  0.880168  0.085076  1
  O  O24  1  0.009264  0.867660  0.418086  1
  O  O25  1  0.990827  0.880168  0.085076  1
  O  O26  1  0.750000  0.128002  0.228917  1
  O  O27  1  0.509513  0.133031  0.582084  1
  O  O28  1  0.990487  0.133031  0.582084  1
  O  O29  1  0.006655  0.125625  0.914119  1
  O  O30  1  0.493345  0.125625  0.914119  1
  O  O31  1  0.750000  0.371579  0.738324  1
  O  O32  1  0.009274  0.381474  0.410868  1
  O  O33  1  0.490726  0.381474  0.410868  1
  O  O34  1  0.514641  0.369249  0.078105  1
  O  O35  1  0.985359  0.369249  0.078105  1
