# generated using pymatgen
data_Mn2Co12(Ni3B2)3
_symmetry_space_group_name_H-M   'P 1'
_cell_length_a   7.40704592
_cell_length_b   7.40748937
_cell_length_c   7.40628000
_cell_angle_alpha   60.00540055
_cell_angle_beta   60.00342051
_cell_angle_gamma   59.99781653
_symmetry_Int_Tables_number   1
_chemical_formula_structural   Mn2Co12(Ni3B2)3
_chemical_formula_sum   'Mn2 Co12 Ni9 B6'
_cell_volume   287.35779567
_cell_formula_units_Z   1
loop_
 _symmetry_equiv_pos_site_id
 _symmetry_equiv_pos_as_xyz
  1  'x, y, z'
loop_
 _atom_site_type_symbol
 _atom_site_label
 _atom_site_symmetry_multiplicity
 _atom_site_fract_x
 _atom_site_fract_y
 _atom_site_fract_z
 _atom_site_occupancy
  Mn  Mn0  1  0.249986  0.250015  0.249999  1
  Mn  Mn1  1  0.750014  0.749985  0.750001  1
  Co  Co2  1  0.660783  0.000002  0.999987  1
  Co  Co3  1  0.660783  0.000002  0.339228  1
  Co  Co4  1  0.660750  0.339248  0.000001  1
  Co  Co5  1  0.000001  0.660787  0.339224  1
  Co  Co6  1  0.000001  0.660787  0.999988  1
  Co  Co7  1  0.339250  0.660752  0.999999  1
  Co  Co8  1  0.999999  0.339213  0.660776  1
  Co  Co9  1  0.339217  0.999998  0.660772  1
  Co  Co10  1  0.000000  0.000000  0.660757  1
  Co  Co11  1  0.339217  0.999998  0.000013  1
  Co  Co12  1  0.999999  0.339213  0.000012  1
  Co  Co13  1  0.000000  0.000000  0.339243  1
  Ni  Ni14  1  0.000000  0.000000  0.000000  1
  Ni  Ni15  1  0.851017  0.382959  0.383012  1
  Ni  Ni16  1  0.382970  0.851022  0.383004  1
  Ni  Ni17  1  0.383010  0.383004  0.851016  1
  Ni  Ni18  1  0.383010  0.383004  0.382970  1
  Ni  Ni19  1  0.148983  0.617041  0.616988  1
  Ni  Ni20  1  0.617030  0.148978  0.616996  1
  Ni  Ni21  1  0.616990  0.616996  0.148984  1
  Ni  Ni22  1  0.616990  0.616996  0.617030  1
  B  B23  1  0.728108  0.271899  0.271878  1
  B  B24  1  0.728108  0.271899  0.728115  1
  B  B25  1  0.728094  0.728076  0.271915  1
  B  B26  1  0.271892  0.728101  0.728122  1
  B  B27  1  0.271892  0.728101  0.271885  1
  B  B28  1  0.271906  0.271924  0.728085  1
