# generated using pymatgen
data_Na4ScSi5P7Ir19
_symmetry_space_group_name_H-M   'P 1'
_cell_length_a   12.68316273
_cell_length_b   12.69545289
_cell_length_c   3.95556900
_cell_angle_alpha   90.00000000
_cell_angle_beta   90.00000000
_cell_angle_gamma   120.20320737
_symmetry_Int_Tables_number   1
_chemical_formula_structural   Na4ScSi5P7Ir19
_chemical_formula_sum   'Na4 Sc1 Si5 P7 Ir19'
_cell_volume   550.45577007
_cell_formula_units_Z   1
loop_
 _symmetry_equiv_pos_site_id
 _symmetry_equiv_pos_as_xyz
  1  'x, y, z'
loop_
 _atom_site_type_symbol
 _atom_site_label
 _atom_site_symmetry_multiplicity
 _atom_site_fract_x
 _atom_site_fract_y
 _atom_site_fract_z
 _atom_site_occupancy
  Na  Na0  1  0.333304  0.666580  0.000000  1
  Na  Na1  1  0.820890  0.999612  0.500000  1
  Na  Na2  1  0.000585  0.821392  0.500000  1
  Na  Na3  1  0.177882  0.178479  0.500000  1
  Sc  Sc4  1  0.668535  0.335252  0.000000  1
  Si  Si5  1  0.168385  0.483836  0.500000  1
  Si  Si6  1  0.515829  0.684092  0.500000  1
  Si  Si7  1  0.317042  0.831863  0.500000  1
  Si  Si8  1  0.688980  0.519823  0.500000  1
  Si  Si9  1  0.829274  0.311745  0.500000  1
  P  P10  1  0.179540  0.999937  0.000000  1
  P  P11  1  0.997837  0.177741  0.000000  1
  P  P12  1  0.821830  0.821032  0.000000  1
  P  P13  1  0.482134  0.175430  0.500000  1
  P  P14  1  0.633842  0.994201  0.000000  1
  P  P15  1  0.003096  0.636931  0.000000  1
  P  P16  1  0.361072  0.365750  0.000000  1
  Ir  Ir17  1  0.452339  0.996948  0.000000  1
  Ir  Ir18  1  0.995084  0.449538  0.000000  1
  Ir  Ir19  1  0.548787  0.544053  0.000000  1
  Ir  Ir20  1  0.358181  0.479816  0.500000  1
  Ir  Ir21  1  0.521262  0.878047  0.500000  1
  Ir  Ir22  1  0.123629  0.642152  0.500000  1
  Ir  Ir23  1  0.868731  0.508800  0.500000  1
  Ir  Ir24  1  0.633516  0.135259  0.500000  1
  Ir  Ir25  1  0.492427  0.359860  0.500000  1
  Ir  Ir26  1  0.179284  0.375139  0.000000  1
  Ir  Ir27  1  0.624505  0.803932  0.000000  1
  Ir  Ir28  1  0.194537  0.819952  0.000000  1
  Ir  Ir29  1  0.810229  0.624895  0.000000  1
  Ir  Ir30  1  0.810944  0.189066  0.000000  1
  Ir  Ir31  1  0.380768  0.185232  0.000000  1
  Ir  Ir32  1  0.288306  0.004886  0.500000  1
  Ir  Ir33  1  0.997095  0.280060  0.500000  1
  Ir  Ir34  1  0.719047  0.718172  0.500000  1
  Ir  Ir35  1  0.001273  0.000499  0.000000  1
