# generated using pymatgen
data_Hf4Mn5CrRe2
_symmetry_space_group_name_H-M   'P 1'
_cell_length_a   5.09185800
_cell_length_b   5.00368571
_cell_length_c   8.27163000
_cell_angle_alpha   90.00000000
_cell_angle_beta   90.00000000
_cell_angle_gamma   120.58464576
_symmetry_Int_Tables_number   1
_chemical_formula_structural   Hf4Mn5CrRe2
_chemical_formula_sum   'Hf4 Mn5 Cr1 Re2'
_cell_volume   181.42587358
_cell_formula_units_Z   1
loop_
 _symmetry_equiv_pos_site_id
 _symmetry_equiv_pos_as_xyz
  1  'x, y, z'
loop_
 _atom_site_type_symbol
 _atom_site_label
 _atom_site_symmetry_multiplicity
 _atom_site_fract_x
 _atom_site_fract_y
 _atom_site_fract_z
 _atom_site_occupancy
  Hf  Hf0  1  0.333565  0.667131  0.062092  1
  Hf  Hf1  1  0.667035  0.334070  0.563947  1
  Hf  Hf2  1  0.667035  0.334070  0.936053  1
  Hf  Hf3  1  0.333565  0.667131  0.437908  1
  Mn  Mn4  1  0.172573  0.823935  0.750000  1
  Mn  Mn5  1  0.651364  0.823935  0.750000  1
  Mn  Mn6  1  0.345305  0.175230  0.250000  1
  Mn  Mn7  1  0.829923  0.175230  0.250000  1
  Mn  Mn8  1  0.174143  0.348284  0.750000  1
  Cr  Cr9  1  0.823546  0.647095  0.250000  1
  Re  Re10  1  0.000973  0.001945  0.998298  1
  Re  Re11  1  0.000973  0.001945  0.501702  1
