# generated using pymatgen
data_FeCo2P3PbO12
_symmetry_space_group_name_H-M   'P 1'
_cell_length_a   9.16263255
_cell_length_b   9.16263253
_cell_length_c   9.16263359
_cell_angle_alpha   137.26786963
_cell_angle_beta   109.71796601
_cell_angle_gamma   85.87545935
_symmetry_Int_Tables_number   1
_chemical_formula_structural   FeCo2P3PbO12
_chemical_formula_sum   'Fe2 Co4 P6 Pb2 O24'
_cell_volume   472.37960297
_cell_formula_units_Z   2
loop_
 _symmetry_equiv_pos_site_id
 _symmetry_equiv_pos_as_xyz
  1  'x, y, z'
loop_
 _atom_site_type_symbol
 _atom_site_label
 _atom_site_symmetry_multiplicity
 _atom_site_fract_x
 _atom_site_fract_y
 _atom_site_fract_z
 _atom_site_occupancy
  Fe  Fe0  1  0.000000  0.000000  0.000000  1
  Fe  Fe1  1  0.500000  0.500000  0.000000  1
  Co  Co2  1  0.617311  0.617311  0.500000  1
  Co  Co3  1  0.382689  0.382689  0.500000  1
  Co  Co4  1  0.117311  0.617311  0.000000  1
  Co  Co5  1  0.882689  0.382689  0.000000  1
  P  P6  1  0.322574  0.822574  0.000000  1
  P  P7  1  0.750000  0.655031  0.905031  1
  P  P8  1  0.177426  0.177426  0.500000  1
  P  P9  1  0.677426  0.177426  0.000000  1
  P  P10  1  0.250000  0.344969  0.094969  1
  P  P11  1  0.822574  0.822574  0.500000  1
  Pb  Pb12  1  0.750000  0.147891  0.397891  1
  Pb  Pb13  1  0.250000  0.852109  0.602109  1
  O  O14  1  0.576130  0.931795  0.780059  1
  O  O15  1  0.076130  0.296071  0.644335  1
  O  O16  1  0.844167  0.882349  0.038182  1
  O  O17  1  0.348264  0.703929  0.780059  1
  O  O18  1  0.142048  0.208299  0.343271  1
  O  O19  1  0.344167  0.305985  0.961818  1
  O  O20  1  0.634971  0.701224  0.343271  1
  O  O21  1  0.857952  0.791701  0.656729  1
  O  O22  1  0.367978  0.487264  0.355242  1
  O  O23  1  0.151736  0.931795  0.355665  1
  O  O24  1  0.642048  0.298776  0.933748  1
  O  O25  1  0.632022  0.512736  0.644758  1
  O  O26  1  0.865029  0.208299  0.066252  1
  O  O27  1  0.848264  0.068205  0.644335  1
  O  O28  1  0.357952  0.701224  0.066252  1
  O  O29  1  0.365029  0.298776  0.656729  1
  O  O30  1  0.655833  0.694015  0.038182  1
  O  O31  1  0.923870  0.703929  0.355665  1
  O  O32  1  0.155833  0.117650  0.961818  1
  O  O33  1  0.867978  0.512736  0.880714  1
  O  O34  1  0.132022  0.487264  0.119286  1
  O  O35  1  0.134971  0.791701  0.933748  1
  O  O36  1  0.651736  0.296071  0.219941  1
  O  O37  1  0.423870  0.068205  0.219941  1
