# generated using pymatgen
data_LiHf6Fe(Si3Rh)4
_symmetry_space_group_name_H-M   'P 1'
_cell_length_a   9.93390775
_cell_length_b   9.87954295
_cell_length_c   9.87516422
_cell_angle_alpha   148.77193548
_cell_angle_beta   133.43409369
_cell_angle_gamma   57.15423185
_symmetry_Int_Tables_number   1
_chemical_formula_structural   LiHf6Fe(Si3Rh)4
_chemical_formula_sum   'Li1 Hf6 Fe1 Si12 Rh4'
_cell_volume   362.19437340
_cell_formula_units_Z   1
loop_
 _symmetry_equiv_pos_site_id
 _symmetry_equiv_pos_as_xyz
  1  'x, y, z'
loop_
 _atom_site_type_symbol
 _atom_site_label
 _atom_site_symmetry_multiplicity
 _atom_site_fract_x
 _atom_site_fract_y
 _atom_site_fract_z
 _atom_site_occupancy
  Li  Li0  1  0.500000  0.500000  0.500000  1
  Hf  Hf1  1  0.849759  0.595388  0.257929  1
  Hf  Hf2  1  0.150241  0.404612  0.742071  1
  Hf  Hf3  1  0.660974  0.408364  0.259046  1
  Hf  Hf4  1  0.339026  0.591636  0.740954  1
  Hf  Hf5  1  0.138944  0.149723  0.010055  1
  Hf  Hf6  1  0.861056  0.850277  0.989945  1
  Fe  Fe7  1  0.000000  0.000000  0.500000  1
  Si  Si8  1  0.483302  0.142626  0.358593  1
  Si  Si9  1  0.516698  0.857374  0.641407  1
  Si  Si10  1  0.211404  0.873698  0.370499  1
  Si  Si11  1  0.788596  0.126302  0.629501  1
  Si  Si12  1  0.712057  0.734387  0.041781  1
  Si  Si13  1  0.287943  0.265613  0.958219  1
  Si  Si14  1  0.502659  0.722509  0.221110  1
  Si  Si15  1  0.497341  0.277491  0.778890  1
  Si  Si16  1  0.000209  0.270518  0.272680  1
  Si  Si17  1  0.197537  0.726695  0.512371  1
  Si  Si18  1  0.999791  0.729482  0.727320  1
  Si  Si19  1  0.802463  0.273305  0.487629  1
  Rh  Rh20  1  0.748365  0.009587  0.749736  1
  Rh  Rh21  1  0.500000  0.000000  0.000000  1
  Rh  Rh22  1  0.251635  0.990413  0.250264  1
  Rh  Rh23  1  0.000000  0.500000  0.000000  1
