# generated using pymatgen
data_Pr4NdHo3(Si3Rh)4
_symmetry_space_group_name_H-M   'P 1'
_cell_length_a   8.25100400
_cell_length_b   8.25100444
_cell_length_c   8.22819900
_cell_angle_alpha   90.00000000
_cell_angle_beta   90.00000000
_cell_angle_gamma   120.00000626
_symmetry_Int_Tables_number   1
_chemical_formula_structural   Pr4NdHo3(Si3Rh)4
_chemical_formula_sum   'Pr4 Nd1 Ho3 Si12 Rh4'
_cell_volume   485.11980978
_cell_formula_units_Z   1
loop_
 _symmetry_equiv_pos_site_id
 _symmetry_equiv_pos_as_xyz
  1  'x, y, z'
loop_
 _atom_site_type_symbol
 _atom_site_label
 _atom_site_symmetry_multiplicity
 _atom_site_fract_x
 _atom_site_fract_y
 _atom_site_fract_z
 _atom_site_occupancy
  Pr  Pr0  1  0.000000  0.000000  0.250000  1
  Pr  Pr1  1  0.504356  0.495644  0.250000  1
  Pr  Pr2  1  0.504356  0.008714  0.250000  1
  Pr  Pr3  1  0.991286  0.495644  0.250000  1
  Nd  Nd4  1  0.000000  0.000000  0.750000  1
  Ho  Ho5  1  0.492594  0.507406  0.750000  1
  Ho  Ho6  1  0.492594  0.985188  0.750000  1
  Ho  Ho7  1  0.014812  0.507406  0.750000  1
  Si  Si8  1  0.166712  0.833288  0.508309  1
  Si  Si9  1  0.166712  0.333424  0.508309  1
  Si  Si10  1  0.666576  0.833288  0.508309  1
  Si  Si11  1  0.831471  0.168529  0.506530  1
  Si  Si12  1  0.831471  0.662944  0.506530  1
  Si  Si13  1  0.337056  0.168529  0.506530  1
  Si  Si14  1  0.831471  0.168529  0.993470  1
  Si  Si15  1  0.831471  0.662944  0.993470  1
  Si  Si16  1  0.337056  0.168529  0.993470  1
  Si  Si17  1  0.166712  0.833288  0.991691  1
  Si  Si18  1  0.166712  0.333424  0.991691  1
  Si  Si19  1  0.666576  0.833288  0.991691  1
  Rh  Rh20  1  0.333333  0.666667  0.496647  1
  Rh  Rh21  1  0.666667  0.333333  0.546698  1
  Rh  Rh22  1  0.666667  0.333333  0.953302  1
  Rh  Rh23  1  0.333333  0.666667  0.003353  1
