# generated using pymatgen
data_ErTmMnIr3
_symmetry_space_group_name_H-M   'P 1'
_cell_length_a   5.15131286
_cell_length_b   5.15131500
_cell_length_c   5.15131468
_cell_angle_alpha   63.87989074
_cell_angle_beta   63.87987918
_cell_angle_gamma   63.87988485
_symmetry_Int_Tables_number   1
_chemical_formula_structural   ErTmMnIr3
_chemical_formula_sum   'Er1 Tm1 Mn1 Ir3'
_cell_volume   104.92584604
_cell_formula_units_Z   1
loop_
 _symmetry_equiv_pos_site_id
 _symmetry_equiv_pos_as_xyz
  1  'x, y, z'
loop_
 _atom_site_type_symbol
 _atom_site_label
 _atom_site_symmetry_multiplicity
 _atom_site_fract_x
 _atom_site_fract_y
 _atom_site_fract_z
 _atom_site_occupancy
  Er  Er0  1  0.998704  0.998704  0.998704  1
  Tm  Tm1  1  0.251535  0.251535  0.251535  1
  Mn  Mn2  1  0.624987  0.624987  0.624987  1
  Ir  Ir3  1  0.624961  0.624961  0.124850  1
  Ir  Ir4  1  0.624961  0.124850  0.624961  1
  Ir  Ir5  1  0.124850  0.624961  0.624961  1
