# generated using pymatgen
data_Yb6Si24OsRu7
_symmetry_space_group_name_H-M   'P 1'
_cell_length_a   10.15808451
_cell_length_b   10.15808573
_cell_length_c   8.15928802
_cell_angle_alpha   89.99201465
_cell_angle_beta   89.99201771
_cell_angle_gamma   132.60714705
_symmetry_Int_Tables_number   1
_chemical_formula_structural   Yb6Si24OsRu7
_chemical_formula_sum   'Yb6 Si24 Os1 Ru7'
_cell_volume   619.67105484
_cell_formula_units_Z   1
loop_
 _symmetry_equiv_pos_site_id
 _symmetry_equiv_pos_as_xyz
  1  'x, y, z'
loop_
 _atom_site_type_symbol
 _atom_site_label
 _atom_site_symmetry_multiplicity
 _atom_site_fract_x
 _atom_site_fract_y
 _atom_site_fract_z
 _atom_site_occupancy
  Yb  Yb0  1  0.499845  0.500155  0.500000  1
  Yb  Yb1  1  0.000063  0.999937  0.000000  1
  Yb  Yb2  1  0.502087  0.002022  0.749953  1
  Yb  Yb3  1  0.997978  0.497913  0.250047  1
  Yb  Yb4  1  0.497859  0.997839  0.249948  1
  Yb  Yb5  1  0.002161  0.502141  0.750052  1
  Si  Si6  1  0.794547  0.205453  0.500000  1
  Si  Si7  1  0.294382  0.705618  0.000000  1
  Si  Si8  1  0.205733  0.794267  0.500000  1
  Si  Si9  1  0.705667  0.294333  0.000000  1
  Si  Si10  1  0.332527  0.332662  0.832453  1
  Si  Si11  1  0.667338  0.667473  0.167547  1
  Si  Si12  1  0.167391  0.167140  0.332348  1
  Si  Si13  1  0.832860  0.832609  0.667652  1
  Si  Si14  1  0.124556  0.891433  0.730548  1
  Si  Si15  1  0.108567  0.875444  0.269452  1
  Si  Si16  1  0.608231  0.375634  0.229772  1
  Si  Si17  1  0.624366  0.391769  0.770228  1
  Si  Si18  1  0.874730  0.107686  0.268994  1
  Si  Si19  1  0.892314  0.125270  0.731006  1
  Si  Si20  1  0.391892  0.624750  0.769539  1
  Si  Si21  1  0.375250  0.608108  0.230461  1
  Si  Si22  1  0.346009  0.113071  0.507490  1
  Si  Si23  1  0.886929  0.653991  0.492510  1
  Si  Si24  1  0.386164  0.152862  0.007182  1
  Si  Si25  1  0.847138  0.613836  0.992818  1
  Si  Si26  1  0.652659  0.885837  0.491857  1
  Si  Si27  1  0.114163  0.347341  0.508143  1
  Si  Si28  1  0.613768  0.846919  0.992504  1
  Si  Si29  1  0.153081  0.386232  0.007496  1
  Os  Os30  1  0.669432  0.330568  0.500000  1
  Ru  Ru31  1  0.169558  0.830442  0.000000  1
  Ru  Ru32  1  0.330503  0.669497  0.500000  1
  Ru  Ru33  1  0.830444  0.169556  0.000000  1
  Ru  Ru34  1  0.125062  0.125350  0.624749  1
  Ru  Ru35  1  0.874650  0.874938  0.375251  1
  Ru  Ru36  1  0.374633  0.374538  0.124756  1
  Ru  Ru37  1  0.625462  0.625367  0.875244  1
