# generated using pymatgen
data_Sm4GeBi5Rh7
_symmetry_space_group_name_H-M   'P 1'
_cell_length_a   7.79644153
_cell_length_b   7.79648595
_cell_length_c   7.79648683
_cell_angle_alpha   106.95143627
_cell_angle_beta   110.74490523
_cell_angle_gamma   110.74489700
_symmetry_Int_Tables_number   1
_chemical_formula_structural   Sm4GeBi5Rh7
_chemical_formula_sum   'Sm4 Ge1 Bi5 Rh7'
_cell_volume   364.29505576
_cell_formula_units_Z   1
loop_
 _symmetry_equiv_pos_site_id
 _symmetry_equiv_pos_as_xyz
  1  'x, y, z'
loop_
 _atom_site_type_symbol
 _atom_site_label
 _atom_site_symmetry_multiplicity
 _atom_site_fract_x
 _atom_site_fract_y
 _atom_site_fract_z
 _atom_site_occupancy
  Sm  Sm0  1  0.000003  0.986000  0.530247  1
  Sm  Sm1  1  0.000003  0.530247  0.986000  1
  Sm  Sm2  1  0.455750  0.985994  0.985994  1
  Sm  Sm3  1  0.544247  0.530246  0.530246  1
  Ge  Ge4  1  0.999997  0.642227  0.642227  1
  Bi  Bi5  1  0.686827  0.703083  0.016258  1
  Bi  Bi6  1  0.313173  0.016256  0.329429  1
  Bi  Bi7  1  0.000002  0.307371  0.307371  1
  Bi  Bi8  1  0.313173  0.329429  0.016256  1
  Bi  Bi9  1  0.686827  0.016258  0.703083  1
  Rh  Rh10  1  0.754333  0.257250  0.502910  1
  Rh  Rh11  1  0.754333  0.502910  0.257250  1
  Rh  Rh12  1  0.500003  0.262965  0.762960  1
  Rh  Rh13  1  0.245662  0.502912  0.748578  1
  Rh  Rh14  1  0.245662  0.748578  0.502912  1
  Rh  Rh15  1  0.500003  0.762960  0.262965  1
  Rh  Rh16  1  0.000002  0.915314  0.915314  1
