# generated using pymatgen
data_Rb5Fe6(Ni2As5)2
_symmetry_space_group_name_H-M   'P 1'
_cell_length_a   9.27873000
_cell_length_b   9.25955110
_cell_length_c   9.29026801
_cell_angle_alpha   124.22566424
_cell_angle_beta   124.24398050
_cell_angle_gamma   82.89492635
_symmetry_Int_Tables_number   1
_chemical_formula_structural   Rb5Fe6(Ni2As5)2
_chemical_formula_sum   'Rb5 Fe6 Ni4 As10'
_cell_volume   523.40329786
_cell_formula_units_Z   1
loop_
 _symmetry_equiv_pos_site_id
 _symmetry_equiv_pos_as_xyz
  1  'x, y, z'
loop_
 _atom_site_type_symbol
 _atom_site_label
 _atom_site_symmetry_multiplicity
 _atom_site_fract_x
 _atom_site_fract_y
 _atom_site_fract_z
 _atom_site_occupancy
  Rb  Rb0  1  0.001402  0.999531  0.999250  1
  Rb  Rb1  1  0.400542  0.799774  0.201992  1
  Rb  Rb2  1  0.800164  0.599956  0.400000  1
  Rb  Rb3  1  0.197634  0.398471  0.598108  1
  Rb  Rb4  1  0.600061  0.202084  0.800609  1
  Fe  Fe5  1  0.549904  0.849997  0.899922  1
  Fe  Fe6  1  0.650478  0.548080  0.697407  1
  Fe  Fe7  1  0.050087  0.350029  0.900064  1
  Fe  Fe8  1  0.450808  0.153091  0.102696  1
  Fe  Fe9  1  0.852007  0.949188  0.302313  1
  Fe  Fe10  1  0.246993  0.749538  0.497752  1
  Ni  Ni11  1  0.948072  0.649957  0.097907  1
  Ni  Ni12  1  0.349792  0.451993  0.301826  1
  Ni  Ni13  1  0.750021  0.248051  0.498109  1
  Ni  Ni14  1  0.152006  0.050211  0.702033  1
  As  As15  1  0.942034  0.542633  0.798487  1
  As  As16  1  0.344647  0.344736  0.003089  1
  As  As17  1  0.742039  0.138058  0.193788  1
  As  As18  1  0.143285  0.943418  0.400781  1
  As  As19  1  0.544748  0.749333  0.607694  1
  As  As20  1  0.650943  0.657615  0.994943  1
  As  As21  1  0.055600  0.457612  0.199485  1
  As  As22  1  0.456797  0.256531  0.399193  1
  As  As23  1  0.857735  0.055102  0.598965  1
  As  As24  1  0.262204  0.855016  0.803589  1
