# generated using pymatgen
data_Tm12MnIn2FeIr
_symmetry_space_group_name_H-M   'P 1'
_cell_length_a   8.28062586
_cell_length_b   8.28062685
_cell_length_c   8.28062533
_cell_angle_alpha   108.58556140
_cell_angle_beta   108.58555317
_cell_angle_gamma   111.25744706
_symmetry_Int_Tables_number   1
_chemical_formula_structural   Tm12MnIn2FeIr
_chemical_formula_sum   'Tm12 Mn1 In2 Fe1 Ir1'
_cell_volume   436.76701912
_cell_formula_units_Z   1
loop_
 _symmetry_equiv_pos_site_id
 _symmetry_equiv_pos_as_xyz
  1  'x, y, z'
loop_
 _atom_site_type_symbol
 _atom_site_label
 _atom_site_symmetry_multiplicity
 _atom_site_fract_x
 _atom_site_fract_y
 _atom_site_fract_z
 _atom_site_occupancy
  Tm  Tm0  1  0.192848  0.431349  0.238499  1
  Tm  Tm1  1  0.807265  0.569117  0.761853  1
  Tm  Tm2  1  0.192848  0.954350  0.761501  1
  Tm  Tm3  1  0.954350  0.192848  0.761501  1
  Tm  Tm4  1  0.807265  0.045410  0.238147  1
  Tm  Tm5  1  0.045410  0.807265  0.238147  1
  Tm  Tm6  1  0.431349  0.192848  0.238499  1
  Tm  Tm7  1  0.569117  0.807265  0.761853  1
  Tm  Tm8  1  0.307504  0.307504  0.616494  1
  Tm  Tm9  1  0.691009  0.691009  0.383506  1
  Tm  Tm10  1  0.691009  0.307504  0.000000  1
  Tm  Tm11  1  0.307504  0.691009  0.000000  1
  Mn  Mn12  1  0.388524  0.388524  0.000000  1
  In  In13  1  0.999371  0.499371  0.500000  1
  In  In14  1  0.499371  0.999371  0.500000  1
  Fe  Fe15  1  0.615282  0.615282  0.000000  1
  Ir  Ir16  1  0.999973  0.999973  0.000000  1
