# generated using pymatgen
data_Tb3Ho3Al24(Os3Rh)2
_symmetry_space_group_name_H-M   'P 1'
_cell_length_a   8.83099695
_cell_length_b   8.79780599
_cell_length_c   9.59336200
_cell_angle_alpha   90.00000000
_cell_angle_beta   90.00000000
_cell_angle_gamma   119.74933625
_symmetry_Int_Tables_number   1
_chemical_formula_structural   Tb3Ho3Al24(Os3Rh)2
_chemical_formula_sum   'Tb3 Ho3 Al24 Os6 Rh2'
_cell_volume   647.10836215
_cell_formula_units_Z   1
loop_
 _symmetry_equiv_pos_site_id
 _symmetry_equiv_pos_as_xyz
  1  'x, y, z'
loop_
 _atom_site_type_symbol
 _atom_site_label
 _atom_site_symmetry_multiplicity
 _atom_site_fract_x
 _atom_site_fract_y
 _atom_site_fract_z
 _atom_site_occupancy
  Tb  Tb0  1  0.384059  0.196059  0.750000  1
  Tb  Tb1  1  0.186902  0.802680  0.250000  1
  Tb  Tb2  1  0.813232  0.197512  0.750000  1
  Ho  Ho3  1  0.193793  0.389007  0.250000  1
  Ho  Ho4  1  0.806351  0.611117  0.750000  1
  Ho  Ho5  1  0.614644  0.802807  0.250000  1
  Al  Al6  1  0.332651  0.666570  0.020727  1
  Al  Al7  1  0.667676  0.333717  0.979714  1
  Al  Al8  1  0.667676  0.333717  0.520286  1
  Al  Al9  1  0.332651  0.666570  0.479273  1
  Al  Al10  1  0.165016  0.328491  0.575502  1
  Al  Al11  1  0.834951  0.671795  0.424126  1
  Al  Al12  1  0.673862  0.835182  0.576790  1
  Al  Al13  1  0.834951  0.671795  0.075874  1
  Al  Al14  1  0.326223  0.164920  0.422607  1
  Al  Al15  1  0.165016  0.328491  0.924498  1
  Al  Al16  1  0.162257  0.835279  0.576251  1
  Al  Al17  1  0.326223  0.164920  0.077393  1
  Al  Al18  1  0.837571  0.164314  0.423457  1
  Al  Al19  1  0.673862  0.835182  0.923210  1
  Al  Al20  1  0.837571  0.164314  0.076543  1
  Al  Al21  1  0.162257  0.835279  0.923749  1
  Al  Al22  1  0.560198  0.119831  0.250000  1
  Al  Al23  1  0.439962  0.879618  0.750000  1
  Al  Al24  1  0.874982  0.436740  0.250000  1
  Al  Al25  1  0.125058  0.563308  0.750000  1
  Al  Al26  1  0.561631  0.436936  0.250000  1
  Al  Al27  1  0.438641  0.563635  0.750000  1
  Al  Al28  1  0.997942  0.999103  0.250000  1
  Al  Al29  1  0.001061  0.000447  0.750000  1
  Os  Os30  1  0.000149  0.500081  0.000100  1
  Os  Os31  1  0.500162  0.500345  0.000303  1
  Os  Os32  1  0.000149  0.500081  0.499900  1
  Os  Os33  1  0.500162  0.500345  0.499697  1
  Os  Os34  1  0.000066  0.000025  0.000048  1
  Os  Os35  1  0.000066  0.000025  0.499952  1
  Rh  Rh36  1  0.500189  0.999880  0.000193  1
  Rh  Rh37  1  0.500189  0.999880  0.499807  1
