# generated using pymatgen
data_CaDy5Si24OsRu7
_symmetry_space_group_name_H-M   'P 1'
_cell_length_a   10.13493328
_cell_length_b   10.13493408
_cell_length_c   8.14607510
_cell_angle_alpha   89.98984014
_cell_angle_beta   89.98983886
_cell_angle_gamma   132.59931647
_symmetry_Int_Tables_number   1
_chemical_formula_structural   CaDy5Si24OsRu7
_chemical_formula_sum   'Ca1 Dy5 Si24 Os1 Ru7'
_cell_volume   615.92814876
_cell_formula_units_Z   1
loop_
 _symmetry_equiv_pos_site_id
 _symmetry_equiv_pos_as_xyz
  1  'x, y, z'
loop_
 _atom_site_type_symbol
 _atom_site_label
 _atom_site_symmetry_multiplicity
 _atom_site_fract_x
 _atom_site_fract_y
 _atom_site_fract_z
 _atom_site_occupancy
  Ca  Ca0  1  0.499874  0.500126  0.500000  1
  Dy  Dy1  1  0.000126  0.999874  0.000000  1
  Dy  Dy2  1  0.502089  0.002398  0.749972  1
  Dy  Dy3  1  0.997602  0.497911  0.250028  1
  Dy  Dy4  1  0.497805  0.997429  0.249946  1
  Dy  Dy5  1  0.002571  0.502195  0.750054  1
  Si  Si6  1  0.796576  0.203424  0.500000  1
  Si  Si7  1  0.295250  0.704750  0.000000  1
  Si  Si8  1  0.204067  0.795933  0.500000  1
  Si  Si9  1  0.704794  0.295206  0.000000  1
  Si  Si10  1  0.333786  0.333954  0.832048  1
  Si  Si11  1  0.666046  0.666214  0.167952  1
  Si  Si12  1  0.168700  0.168430  0.334163  1
  Si  Si13  1  0.831570  0.831300  0.665837  1
  Si  Si14  1  0.123265  0.889554  0.728938  1
  Si  Si15  1  0.110446  0.876735  0.271062  1
  Si  Si16  1  0.611105  0.377964  0.228847  1
  Si  Si17  1  0.622036  0.388895  0.771153  1
  Si  Si18  1  0.875564  0.109058  0.270374  1
  Si  Si19  1  0.890942  0.124436  0.729626  1
  Si  Si20  1  0.388638  0.622259  0.770489  1
  Si  Si21  1  0.377741  0.611362  0.229511  1
  Si  Si22  1  0.345581  0.113567  0.505747  1
  Si  Si23  1  0.886433  0.654419  0.494253  1
  Si  Si24  1  0.388159  0.154695  0.005056  1
  Si  Si25  1  0.845305  0.611841  0.994944  1
  Si  Si26  1  0.652784  0.885251  0.492858  1
  Si  Si27  1  0.114749  0.347216  0.507142  1
  Si  Si28  1  0.611702  0.845090  0.995010  1
  Si  Si29  1  0.154910  0.388298  0.004990  1
  Os  Os30  1  0.671180  0.328820  0.500000  1
  Ru  Ru31  1  0.169787  0.830213  0.000000  1
  Ru  Ru32  1  0.328895  0.671105  0.500000  1
  Ru  Ru33  1  0.830168  0.169832  0.000000  1
  Ru  Ru34  1  0.124793  0.125021  0.628198  1
  Ru  Ru35  1  0.874979  0.875207  0.371802  1
  Ru  Ru36  1  0.372790  0.372809  0.125222  1
  Ru  Ru37  1  0.627191  0.627210  0.874778  1
