# generated using pymatgen
data_Pr4C4N
_symmetry_space_group_name_H-M   'P 1'
_cell_length_a   3.86219300
_cell_length_b   6.87923200
_cell_length_c   12.46903800
_cell_angle_alpha   90.00000000
_cell_angle_beta   90.00000000
_cell_angle_gamma   90.00000000
_symmetry_Int_Tables_number   1
_chemical_formula_structural   Pr4C4N
_chemical_formula_sum   'Pr8 C8 N2'
_cell_volume   331.28889399
_cell_formula_units_Z   2
loop_
 _symmetry_equiv_pos_site_id
 _symmetry_equiv_pos_as_xyz
  1  'x, y, z'
loop_
 _atom_site_type_symbol
 _atom_site_label
 _atom_site_symmetry_multiplicity
 _atom_site_fract_x
 _atom_site_fract_y
 _atom_site_fract_z
 _atom_site_occupancy
  Pr  Pr0  1  0.000000  0.254077  0.542420  1
  Pr  Pr1  1  0.000000  0.745923  0.457580  1
  Pr  Pr2  1  0.000000  0.754077  0.957580  1
  Pr  Pr3  1  0.000000  0.245923  0.042420  1
  Pr  Pr4  1  0.500000  0.107328  0.805695  1
  Pr  Pr5  1  0.500000  0.892672  0.194305  1
  Pr  Pr6  1  0.500000  0.607328  0.694305  1
  Pr  Pr7  1  0.500000  0.392672  0.305695  1
  C  C8  1  0.000000  0.363773  0.736899  1
  C  C9  1  0.000000  0.636227  0.263101  1
  C  C10  1  0.000000  0.863773  0.763101  1
  C  C11  1  0.000000  0.136227  0.236899  1
  C  C12  1  0.000000  0.404223  0.840895  1
  C  C13  1  0.000000  0.595777  0.159105  1
  C  C14  1  0.000000  0.095777  0.340895  1
  C  C15  1  0.000000  0.904223  0.659105  1
  N  N16  1  0.500000  0.500000  0.500000  1
  N  N17  1  0.500000  0.000000  0.000000  1
