# generated using pymatgen
data_MgMn3(SiPd5)2
_symmetry_space_group_name_H-M   'P 1'
_cell_length_a   4.10696400
_cell_length_b   5.46554607
_cell_length_c   10.63782817
_cell_angle_alpha   89.92759702
_cell_angle_beta   90.00000000
_cell_angle_gamma   90.00000000
_symmetry_Int_Tables_number   1
_chemical_formula_structural   MgMn3(SiPd5)2
_chemical_formula_sum   'Mg1 Mn3 Si2 Pd10'
_cell_volume   238.78502070
_cell_formula_units_Z   1
loop_
 _symmetry_equiv_pos_site_id
 _symmetry_equiv_pos_as_xyz
  1  'x, y, z'
loop_
 _atom_site_type_symbol
 _atom_site_label
 _atom_site_symmetry_multiplicity
 _atom_site_fract_x
 _atom_site_fract_y
 _atom_site_fract_z
 _atom_site_occupancy
  Mg  Mg0  1  0.500000  0.660230  0.356879  1
  Mn  Mn1  1  0.500000  0.164418  0.142590  1
  Mn  Mn2  1  0.500000  0.835579  0.857525  1
  Mn  Mn3  1  0.500000  0.336164  0.642482  1
  Si  Si4  1  0.000000  0.002825  0.500432  1
  Si  Si5  1  0.000000  0.500757  0.000017  1
  Pd  Pd6  1  0.500000  0.174358  0.398709  1
  Pd  Pd7  1  0.500000  0.823803  0.603011  1
  Pd  Pd8  1  0.500000  0.321689  0.898180  1
  Pd  Pd9  1  0.500000  0.679643  0.099859  1
  Pd  Pd10  1  0.000000  0.415639  0.231337  1
  Pd  Pd11  1  0.000000  0.583118  0.767494  1
  Pd  Pd12  1  0.000000  0.083437  0.733572  1
  Pd  Pd13  1  0.000000  0.918607  0.266174  1
  Pd  Pd14  1  0.000000  0.001006  0.999919  1
  Pd  Pd15  1  0.000000  0.498726  0.501819  1
