# generated using pymatgen
data_DyCu4
_symmetry_space_group_name_H-M   'P 1'
_cell_length_a   5.01854008
_cell_length_b   5.01853926
_cell_length_c   10.57100476
_cell_angle_alpha   94.84957640
_cell_angle_beta   94.84959102
_cell_angle_gamma   119.64990264
_symmetry_Int_Tables_number   1
_chemical_formula_structural   DyCu4
_chemical_formula_sum   'Dy3 Cu12'
_cell_volume   228.08234756
_cell_formula_units_Z   3
loop_
 _symmetry_equiv_pos_site_id
 _symmetry_equiv_pos_as_xyz
  1  'x, y, z'
loop_
 _atom_site_type_symbol
 _atom_site_label
 _atom_site_symmetry_multiplicity
 _atom_site_fract_x
 _atom_site_fract_y
 _atom_site_fract_z
 _atom_site_occupancy
  Dy  Dy0  1  0.000000  0.000000  0.000000  1
  Dy  Dy1  1  0.134255  0.134255  0.357819  1
  Dy  Dy2  1  0.865745  0.865745  0.642181  1
  Cu  Cu3  1  0.662916  0.337085  0.000000  1
  Cu  Cu4  1  0.337085  0.662916  0.000000  1
  Cu  Cu5  1  0.569110  0.067451  0.195815  1
  Cu  Cu6  1  0.067451  0.569110  0.195815  1
  Cu  Cu7  1  0.570621  0.570621  0.202191  1
  Cu  Cu8  1  0.808518  0.471648  0.405796  1
  Cu  Cu9  1  0.471648  0.808518  0.405796  1
  Cu  Cu10  1  0.528354  0.191483  0.594204  1
  Cu  Cu11  1  0.191483  0.528354  0.594204  1
  Cu  Cu12  1  0.429378  0.429378  0.797809  1
  Cu  Cu13  1  0.932548  0.430889  0.804186  1
  Cu  Cu14  1  0.430889  0.932548  0.804186  1
