# generated using pymatgen
data_Cs2V6AgF21
_symmetry_space_group_name_H-M   'P 1'
_cell_length_a   7.63553702
_cell_length_b   7.63553658
_cell_length_c   10.90433200
_cell_angle_alpha   69.65269110
_cell_angle_beta   69.65269234
_cell_angle_gamma   60.04554952
_symmetry_Int_Tables_number   1
_chemical_formula_structural   Cs2V6AgF21
_chemical_formula_sum   'Cs2 V6 Ag1 F21'
_cell_volume   504.44902065
_cell_formula_units_Z   1
loop_
 _symmetry_equiv_pos_site_id
 _symmetry_equiv_pos_as_xyz
  1  'x, y, z'
loop_
 _atom_site_type_symbol
 _atom_site_label
 _atom_site_symmetry_multiplicity
 _atom_site_fract_x
 _atom_site_fract_y
 _atom_site_fract_z
 _atom_site_occupancy
  Cs  Cs0  1  0.130617  0.134347  0.605578  1
  Cs  Cs1  1  0.865653  0.869383  0.394422  1
  V  V2  1  0.456044  0.912906  0.197833  1
  V  V3  1  0.087094  0.543956  0.802167  1
  V  V4  1  0.957712  0.412091  0.195538  1
  V  V5  1  0.456216  0.412268  0.196143  1
  V  V6  1  0.587732  0.543784  0.803857  1
  V  V7  1  0.587909  0.042288  0.804462  1
  Ag  Ag8  1  0.508011  0.491989  0.500000  1
  F  F9  1  0.687022  0.572409  0.615459  1
  F  F10  1  0.427591  0.312978  0.384541  1
  F  F11  1  0.154128  0.490477  0.214554  1
  F  F12  1  0.509523  0.845872  0.785446  1
  F  F13  1  0.867042  0.454193  0.824369  1
  F  F14  1  0.515443  0.953366  0.001312  1
  F  F15  1  0.758456  0.339029  0.175145  1
  F  F16  1  0.132442  0.595947  0.612316  1
  F  F17  1  0.886238  0.831422  0.803970  1
  F  F18  1  0.745109  0.709470  0.196822  1
  F  F19  1  0.660971  0.241544  0.824855  1
  F  F20  1  0.486536  0.513464  0.000000  1
  F  F21  1  0.879456  0.337500  0.384093  1
  F  F22  1  0.308386  0.632934  0.781389  1
  F  F23  1  0.404053  0.867558  0.387684  1
  F  F24  1  0.290530  0.254891  0.803178  1
  F  F25  1  0.545807  0.132958  0.175631  1
  F  F26  1  0.367066  0.691614  0.218611  1
  F  F27  1  0.168578  0.113762  0.196030  1
  F  F28  1  0.046634  0.484557  0.998688  1
  F  F29  1  0.662500  0.120544  0.615907  1
