# generated using pymatgen
data_Sm2Er3Tm3(Si3Rh)4
_symmetry_space_group_name_H-M   'P 1'
_cell_length_a   8.16240800
_cell_length_b   8.16240827
_cell_length_c   7.89438300
_cell_angle_alpha   90.00000000
_cell_angle_beta   90.00000000
_cell_angle_gamma   119.99999889
_symmetry_Int_Tables_number   1
_chemical_formula_structural   Sm2Er3Tm3(Si3Rh)4
_chemical_formula_sum   'Sm2 Er3 Tm3 Si12 Rh4'
_cell_volume   455.49691749
_cell_formula_units_Z   1
loop_
 _symmetry_equiv_pos_site_id
 _symmetry_equiv_pos_as_xyz
  1  'x, y, z'
loop_
 _atom_site_type_symbol
 _atom_site_label
 _atom_site_symmetry_multiplicity
 _atom_site_fract_x
 _atom_site_fract_y
 _atom_site_fract_z
 _atom_site_occupancy
  Sm  Sm0  1  0.000000  0.000000  0.250000  1
  Sm  Sm1  1  0.000000  0.000000  0.750000  1
  Er  Er2  1  0.507842  0.492158  0.750000  1
  Er  Er3  1  0.984315  0.492158  0.750000  1
  Er  Er4  1  0.507842  0.015685  0.750000  1
  Tm  Tm5  1  0.492332  0.507668  0.250000  1
  Tm  Tm6  1  0.492332  0.984663  0.250000  1
  Tm  Tm7  1  0.015337  0.507668  0.250000  1
  Si  Si8  1  0.832004  0.167996  0.501474  1
  Si  Si9  1  0.832004  0.664008  0.501474  1
  Si  Si10  1  0.335992  0.167996  0.501474  1
  Si  Si11  1  0.832004  0.167996  0.998526  1
  Si  Si12  1  0.832004  0.664008  0.998526  1
  Si  Si13  1  0.335992  0.167996  0.998526  1
  Si  Si14  1  0.167919  0.832081  0.002543  1
  Si  Si15  1  0.664162  0.832081  0.002543  1
  Si  Si16  1  0.167919  0.335838  0.002543  1
  Si  Si17  1  0.167919  0.832081  0.497457  1
  Si  Si18  1  0.664162  0.832081  0.497457  1
  Si  Si19  1  0.167919  0.335838  0.497457  1
  Rh  Rh20  1  0.666667  0.333333  0.465614  1
  Rh  Rh21  1  0.666667  0.333333  0.034386  1
  Rh  Rh22  1  0.333333  0.666667  0.969137  1
  Rh  Rh23  1  0.333333  0.666667  0.530863  1
