# generated using pymatgen
data_Ac3(NbN3)2
_symmetry_space_group_name_H-M   'P 1'
_cell_length_a   4.16724691
_cell_length_b   4.16724791
_cell_length_c   10.87644353
_cell_angle_alpha   101.04454243
_cell_angle_beta   101.04454520
_cell_angle_gamma   89.99998699
_symmetry_Int_Tables_number   1
_chemical_formula_structural   Ac3(NbN3)2
_chemical_formula_sum   'Ac3 Nb2 N6'
_cell_volume   181.81583063
_cell_formula_units_Z   1
loop_
 _symmetry_equiv_pos_site_id
 _symmetry_equiv_pos_as_xyz
  1  'x, y, z'
loop_
 _atom_site_type_symbol
 _atom_site_label
 _atom_site_symmetry_multiplicity
 _atom_site_fract_x
 _atom_site_fract_y
 _atom_site_fract_z
 _atom_site_occupancy
  Ac  Ac0  1  0.000000  0.000000  0.000000  1
  Ac  Ac1  1  0.179101  0.179101  0.358202  1
  Ac  Ac2  1  0.820900  0.820900  0.641798  1
  Nb  Nb3  1  0.601578  0.601578  0.203155  1
  Nb  Nb4  1  0.398423  0.398423  0.796844  1
  N  N5  1  0.585625  0.085624  0.171247  1
  N  N6  1  0.085624  0.585625  0.171247  1
  N  N7  1  0.695313  0.695313  0.390624  1
  N  N8  1  0.304688  0.304688  0.609376  1
  N  N9  1  0.914377  0.414376  0.828752  1
  N  N10  1  0.414376  0.914377  0.828752  1
