# generated using pymatgen
data_SrYb2Sm(Al3Pd)6
_symmetry_space_group_name_H-M   'P 1'
_cell_length_a   7.69811582
_cell_length_b   7.68142687
_cell_length_c   9.56869000
_cell_angle_alpha   90.00000000
_cell_angle_beta   90.00000000
_cell_angle_gamma   119.49132117
_symmetry_Int_Tables_number   1
_chemical_formula_structural   SrYb2Sm(Al3Pd)6
_chemical_formula_sum   'Sr1 Yb2 Sm1 Al18 Pd6'
_cell_volume   492.50746125
_cell_formula_units_Z   1
loop_
 _symmetry_equiv_pos_site_id
 _symmetry_equiv_pos_as_xyz
  1  'x, y, z'
loop_
 _atom_site_type_symbol
 _atom_site_label
 _atom_site_symmetry_multiplicity
 _atom_site_fract_x
 _atom_site_fract_y
 _atom_site_fract_z
 _atom_site_occupancy
  Sr  Sr0  1  0.671658  0.996535  0.250000  1
  Yb  Yb1  1  0.994411  0.669720  0.250000  1
  Yb  Yb2  1  0.004069  0.330142  0.750000  1
  Sm  Sm3  1  0.329934  0.002546  0.750000  1
  Al  Al4  1  0.136201  0.133773  0.250000  1
  Al  Al5  1  0.871643  0.868542  0.750000  1
  Al  Al6  1  0.004929  0.338325  0.071392  1
  Al  Al7  1  0.998145  0.663439  0.923078  1
  Al  Al8  1  0.998145  0.663439  0.576922  1
  Al  Al9  1  0.331433  0.000705  0.426775  1
  Al  Al10  1  0.004929  0.338325  0.428608  1
  Al  Al11  1  0.666800  0.999633  0.580442  1
  Al  Al12  1  0.666800  0.999633  0.919558  1
  Al  Al13  1  0.331433  0.000705  0.073225  1
  Al  Al14  1  0.332506  0.332850  0.557909  1
  Al  Al15  1  0.666041  0.663585  0.450767  1
  Al  Al16  1  0.666041  0.663585  0.049233  1
  Al  Al17  1  0.332506  0.332850  0.942091  1
  Al  Al18  1  0.335437  0.542839  0.250000  1
  Al  Al19  1  0.657560  0.452986  0.750000  1
  Al  Al20  1  0.545065  0.345070  0.250000  1
  Al  Al21  1  0.454302  0.660922  0.750000  1
  Pd  Pd22  1  0.671488  0.327784  0.998937  1
  Pd  Pd23  1  0.328138  0.671810  0.998257  1
  Pd  Pd24  1  0.328138  0.671810  0.501743  1
  Pd  Pd25  1  0.671488  0.327784  0.501063  1
  Pd  Pd26  1  0.000379  0.000329  0.998704  1
  Pd  Pd27  1  0.000379  0.000329  0.501296  1
