# generated using pymatgen
data_TmZr2UN4
_symmetry_space_group_name_H-M   'P 1'
_cell_length_a   5.75908600
_cell_length_b   5.75908580
_cell_length_c   5.75908602
_cell_angle_alpha   131.46300478
_cell_angle_beta   131.46266577
_cell_angle_gamma   71.07876083
_symmetry_Int_Tables_number   1
_chemical_formula_structural   TmZr2UN4
_chemical_formula_sum   'Tm1 Zr2 U1 N4'
_cell_volume   105.02870147
_cell_formula_units_Z   1
loop_
 _symmetry_equiv_pos_site_id
 _symmetry_equiv_pos_as_xyz
  1  'x, y, z'
loop_
 _atom_site_type_symbol
 _atom_site_label
 _atom_site_symmetry_multiplicity
 _atom_site_fract_x
 _atom_site_fract_y
 _atom_site_fract_z
 _atom_site_occupancy
  Tm  Tm0  1  0.499998  0.499998  0.000000  1
  Zr  Zr1  1  0.000002  0.000002  0.000000  1
  Zr  Zr2  1  0.750022  0.250022  0.500000  1
  U  U3  1  0.250000  0.750000  0.500000  1
  N  N4  1  0.751531  0.751531  0.000000  1
  N  N5  1  0.248463  0.248463  0.000000  1
  N  N6  1  0.006586  0.506586  0.500000  1
  N  N7  1  0.493397  0.993397  0.500000  1
