# generated using pymatgen
data_LiHoPa2(Al8Pt3)3
_symmetry_space_group_name_H-M   'P 1'
_cell_length_a   7.54321208
_cell_length_b   7.55060593
_cell_length_c   13.10806427
_cell_angle_alpha   84.50769407
_cell_angle_beta   78.91050769
_cell_angle_gamma   59.96197246
_symmetry_Int_Tables_number   1
_chemical_formula_structural   LiHoPa2(Al8Pt3)3
_chemical_formula_sum   'Li1 Ho1 Pa2 Al24 Pt9'
_cell_volume   634.24177668
_cell_formula_units_Z   1
loop_
 _symmetry_equiv_pos_site_id
 _symmetry_equiv_pos_as_xyz
  1  'x, y, z'
loop_
 _atom_site_type_symbol
 _atom_site_label
 _atom_site_symmetry_multiplicity
 _atom_site_fract_x
 _atom_site_fract_y
 _atom_site_fract_z
 _atom_site_occupancy
  Li  Li0  1  0.739567  0.500525  0.792529  1
  Ho  Ho1  1  0.267833  0.502445  0.190140  1
  Pa  Pa2  1  0.395884  0.167949  0.805033  1
  Pa  Pa3  1  0.605008  0.830412  0.193389  1
  Al  Al4  1  0.685294  0.825057  0.939820  1
  Al  Al5  1  0.313852  0.166725  0.055577  1
  Al  Al6  1  0.145502  0.832230  0.562706  1
  Al  Al7  1  0.854385  0.167547  0.440067  1
  Al  Al8  1  0.479889  0.167763  0.558398  1
  Al  Al9  1  0.519212  0.832259  0.442536  1
  Al  Al10  1  0.214649  0.168442  0.330379  1
  Al  Al11  1  0.784193  0.825183  0.674483  1
  Al  Al12  1  0.441487  0.510181  0.675980  1
  Al  Al13  1  0.562322  0.490379  0.330231  1
  Al  Al14  1  0.098649  0.166069  0.673793  1
  Al  Al15  1  0.892060  0.839828  0.331187  1
  Al  Al16  1  0.364972  0.497221  0.939235  1
  Al  Al17  1  0.651275  0.498106  0.049415  1
  Al  Al18  1  0.011395  0.175793  0.947450  1
  Al  Al19  1  0.986634  0.833016  0.044209  1
  Al  Al20  1  0.184141  0.500786  0.442077  1
  Al  Al21  1  0.813322  0.499856  0.561019  1
  Al  Al22  1  0.735828  0.163624  0.183231  1
  Al  Al23  1  0.263176  0.840648  0.819081  1
  Al  Al24  1  0.064289  0.627510  0.818011  1
  Al  Al25  1  0.936284  0.369349  0.184669  1
  Al  Al26  1  0.850231  0.043331  0.819067  1
  Al  Al27  1  0.142070  0.960860  0.183919  1
  Pt  Pt28  1  0.123079  0.490881  0.640411  1
  Pt  Pt29  1  0.879136  0.508909  0.361207  1
  Pt  Pt30  1  0.655640  0.166933  0.003061  1
  Pt  Pt31  1  0.341005  0.829554  0.002415  1
  Pt  Pt32  1  0.536883  0.165905  0.361056  1
  Pt  Pt33  1  0.458634  0.837451  0.639801  1
  Pt  Pt34  1  0.777057  0.172098  0.639307  1
  Pt  Pt35  1  0.221760  0.824794  0.362173  1
  Pt  Pt36  1  0.003405  0.500382  0.002939  1
