# generated using pymatgen
data_Er20Pd7Rh5
_symmetry_space_group_name_H-M   'P 1'
_cell_length_a   11.03881802
_cell_length_b   11.03881804
_cell_length_c   6.33221100
_cell_angle_alpha   90.00361770
_cell_angle_beta   90.00361770
_cell_angle_gamma   90.09759993
_symmetry_Int_Tables_number   1
_chemical_formula_structural   Er20Pd7Rh5
_chemical_formula_sum   'Er20 Pd7 Rh5'
_cell_volume   771.61363707
_cell_formula_units_Z   1
loop_
 _symmetry_equiv_pos_site_id
 _symmetry_equiv_pos_as_xyz
  1  'x, y, z'
loop_
 _atom_site_type_symbol
 _atom_site_label
 _atom_site_symmetry_multiplicity
 _atom_site_fract_x
 _atom_site_fract_y
 _atom_site_fract_z
 _atom_site_occupancy
  Er  Er0  1  0.296104  0.087624  0.373804  1
  Er  Er1  1  0.294554  0.912579  0.873793  1
  Er  Er2  1  0.707957  0.089352  0.879079  1
  Er  Er3  1  0.706880  0.915850  0.371789  1
  Er  Er4  1  0.587831  0.795258  0.872152  1
  Er  Er5  1  0.592065  0.204573  0.372997  1
  Er  Er6  1  0.413017  0.795314  0.372899  1
  Er  Er7  1  0.413442  0.204628  0.872750  1
  Er  Er8  1  0.204742  0.412169  0.627848  1
  Er  Er9  1  0.204686  0.586983  0.127101  1
  Er  Er10  1  0.795427  0.407935  0.127003  1
  Er  Er11  1  0.795372  0.586558  0.627250  1
  Er  Er12  1  0.912376  0.703896  0.126196  1
  Er  Er13  1  0.910648  0.292043  0.620921  1
  Er  Er14  1  0.087421  0.705446  0.626207  1
  Er  Er15  1  0.084150  0.293120  0.128211  1
  Er  Er16  1  0.998331  0.002235  0.499394  1
  Er  Er17  1  0.997765  0.001669  0.000606  1
  Er  Er18  1  0.500136  0.499981  0.000330  1
  Er  Er19  1  0.500019  0.499864  0.499670  1
  Pd  Pd20  1  0.844620  0.845126  0.750602  1
  Pd  Pd21  1  0.154874  0.155380  0.749398  1
  Pd  Pd22  1  0.153499  0.846501  0.250000  1
  Pd  Pd23  1  0.653869  0.346131  0.750000  1
  Pd  Pd24  1  0.654146  0.655321  0.250783  1
  Pd  Pd25  1  0.344679  0.345854  0.249217  1
  Pd  Pd26  1  0.345854  0.654146  0.750000  1
  Rh  Rh27  1  0.846059  0.153941  0.250000  1
  Rh  Rh28  1  0.499226  0.999735  0.122121  1
  Rh  Rh29  1  0.499469  0.999483  0.623634  1
  Rh  Rh30  1  0.000517  0.500531  0.876366  1
  Rh  Rh31  1  0.000265  0.500774  0.377879  1
