# generated using pymatgen
data_Zr5ScCoTe2
_symmetry_space_group_name_H-M   'P 1'
_cell_length_a   3.63050700
_cell_length_b   7.84575027
_cell_length_c   7.84574894
_cell_angle_alpha   120.28308973
_cell_angle_beta   90.00000000
_cell_angle_gamma   90.00000000
_symmetry_Int_Tables_number   1
_chemical_formula_structural   Zr5ScCoTe2
_chemical_formula_sum   'Zr5 Sc1 Co1 Te2'
_cell_volume   192.98379716
_cell_formula_units_Z   1
loop_
 _symmetry_equiv_pos_site_id
 _symmetry_equiv_pos_as_xyz
  1  'x, y, z'
loop_
 _atom_site_type_symbol
 _atom_site_label
 _atom_site_symmetry_multiplicity
 _atom_site_fract_x
 _atom_site_fract_y
 _atom_site_fract_z
 _atom_site_occupancy
  Zr  Zr0  1  0.500000  0.761998  0.761998  1
  Zr  Zr1  1  0.500000  0.999092  0.239451  1
  Zr  Zr2  1  0.500000  0.239451  0.999092  1
  Zr  Zr3  1  0.000000  0.000510  0.599015  1
  Zr  Zr4  1  0.000000  0.599015  0.000510  1
  Sc  Sc5  1  0.000000  0.399084  0.399084  1
  Co  Co6  1  0.000000  0.001007  0.001007  1
  Te  Te7  1  0.500000  0.665583  0.334260  1
  Te  Te8  1  0.500000  0.334260  0.665583  1
