# generated using pymatgen
data_Dy3YSi4RuRh
_symmetry_space_group_name_H-M   'P 1'
_cell_length_a   5.71157735
_cell_length_b   5.71157693
_cell_length_c   10.12332121
_cell_angle_alpha   63.11339871
_cell_angle_beta   63.11339075
_cell_angle_gamma   43.30987366
_symmetry_Int_Tables_number   1
_chemical_formula_structural   Dy3YSi4RuRh
_chemical_formula_sum   'Dy3 Y1 Si4 Ru1 Rh1'
_cell_volume   197.90550269
_cell_formula_units_Z   1
loop_
 _symmetry_equiv_pos_site_id
 _symmetry_equiv_pos_as_xyz
  1  'x, y, z'
loop_
 _atom_site_type_symbol
 _atom_site_label
 _atom_site_symmetry_multiplicity
 _atom_site_fract_x
 _atom_site_fract_y
 _atom_site_fract_z
 _atom_site_occupancy
  Dy  Dy0  1  0.004192  0.004192  0.323872  1
  Dy  Dy1  1  0.184748  0.184748  0.892815  1
  Dy  Dy2  1  0.996876  0.996876  0.675953  1
  Y  Y3  1  0.814437  0.814437  0.108965  1
  Si  Si4  1  0.353872  0.353872  0.566074  1
  Si  Si5  1  0.494025  0.494025  0.876390  1
  Si  Si6  1  0.641926  0.641926  0.436814  1
  Si  Si7  1  0.509883  0.509883  0.121428  1
  Ru  Ru8  1  0.727080  0.727080  0.622838  1
  Rh  Rh9  1  0.272962  0.272962  0.374848  1
