# generated using pymatgen
data_Yb3ScP3
_symmetry_space_group_name_H-M   'P 1'
_cell_length_a   7.15730430
_cell_length_b   7.37037389
_cell_length_c   7.37037432
_cell_angle_alpha   110.04940348
_cell_angle_beta   108.88665065
_cell_angle_gamma   108.88666059
_symmetry_Int_Tables_number   1
_chemical_formula_structural   Yb3ScP3
_chemical_formula_sum   'Yb6 Sc2 P6'
_cell_volume   301.43180407
_cell_formula_units_Z   2
loop_
 _symmetry_equiv_pos_site_id
 _symmetry_equiv_pos_as_xyz
  1  'x, y, z'
loop_
 _atom_site_type_symbol
 _atom_site_label
 _atom_site_symmetry_multiplicity
 _atom_site_fract_x
 _atom_site_fract_y
 _atom_site_fract_z
 _atom_site_occupancy
  Yb  Yb0  1  0.502092  0.998947  0.639646  1
  Yb  Yb1  1  0.362446  0.359300  0.360354  1
  Yb  Yb2  1  0.503146  0.001053  0.140700  1
  Yb  Yb3  1  0.003146  0.640700  0.501053  1
  Yb  Yb4  1  0.862446  0.860354  0.859300  1
  Yb  Yb5  1  0.002092  0.139646  0.498947  1
  Sc  Sc6  1  0.125959  0.500000  0.000000  1
  Sc  Sc7  1  0.625959  0.500000  0.000000  1
  P  P8  1  0.379941  0.618139  0.765327  1
  P  P9  1  0.879941  0.265327  0.118139  1
  P  P10  1  0.614614  0.734673  0.352812  1
  P  P11  1  0.114614  0.852812  0.234673  1
  P  P12  1  0.261802  0.147188  0.881861  1
  P  P13  1  0.761802  0.381861  0.647188  1
