# generated using pymatgen
data_LuFeCo4As3
_symmetry_space_group_name_H-M   'P 1'
_cell_length_a   3.77312700
_cell_length_b   10.64129400
_cell_length_c   12.17448100
_cell_angle_alpha   90.00000000
_cell_angle_beta   90.00000000
_cell_angle_gamma   90.00000000
_symmetry_Int_Tables_number   1
_chemical_formula_structural   LuFeCo4As3
_chemical_formula_sum   'Lu4 Fe4 Co16 As12'
_cell_volume   488.81702303
_cell_formula_units_Z   4
loop_
 _symmetry_equiv_pos_site_id
 _symmetry_equiv_pos_as_xyz
  1  'x, y, z'
loop_
 _atom_site_type_symbol
 _atom_site_label
 _atom_site_symmetry_multiplicity
 _atom_site_fract_x
 _atom_site_fract_y
 _atom_site_fract_z
 _atom_site_occupancy
  Lu  Lu0  1  0.250000  0.579455  0.702330  1
  Lu  Lu1  1  0.250000  0.920545  0.202330  1
  Lu  Lu2  1  0.750000  0.420545  0.297670  1
  Lu  Lu3  1  0.750000  0.079455  0.797670  1
  Fe  Fe4  1  0.250000  0.707876  0.988598  1
  Fe  Fe5  1  0.250000  0.792124  0.488598  1
  Fe  Fe6  1  0.750000  0.292124  0.011402  1
  Fe  Fe7  1  0.750000  0.207876  0.511402  1
  Co  Co8  1  0.250000  0.406671  0.486066  1
  Co  Co9  1  0.250000  0.093329  0.986066  1
  Co  Co10  1  0.750000  0.593329  0.513934  1
  Co  Co11  1  0.750000  0.906671  0.013934  1
  Co  Co12  1  0.250000  0.216048  0.177200  1
  Co  Co13  1  0.250000  0.283952  0.677200  1
  Co  Co14  1  0.750000  0.783952  0.822800  1
  Co  Co15  1  0.750000  0.716048  0.322800  1
  Co  Co16  1  0.250000  0.883766  0.697487  1
  Co  Co17  1  0.250000  0.616234  0.197487  1
  Co  Co18  1  0.750000  0.116234  0.302513  1
  Co  Co19  1  0.750000  0.383766  0.802513  1
  Co  Co20  1  0.250000  0.468219  0.932423  1
  Co  Co21  1  0.250000  0.031781  0.432423  1
  Co  Co22  1  0.750000  0.531781  0.067577  1
  Co  Co23  1  0.750000  0.968219  0.567577  1
  As  As24  1  0.250000  0.416145  0.115972  1
  As  As25  1  0.250000  0.083855  0.615972  1
  As  As26  1  0.750000  0.583855  0.884028  1
  As  As27  1  0.750000  0.916145  0.384028  1
  As  As28  1  0.250000  0.266593  0.868069  1
  As  As29  1  0.250000  0.233407  0.368069  1
  As  As30  1  0.750000  0.733407  0.131931  1
  As  As31  1  0.750000  0.766593  0.631931  1
  As  As32  1  0.250000  0.599468  0.390929  1
  As  As33  1  0.250000  0.900532  0.890929  1
  As  As34  1  0.750000  0.400532  0.609071  1
  As  As35  1  0.750000  0.099468  0.109071  1
