# generated using pymatgen
data_Sc6Co16Si6W
_symmetry_space_group_name_H-M   'P 1'
_cell_length_a   8.12110095
_cell_length_b   8.12110061
_cell_length_c   8.12110100
_cell_angle_alpha   60.00000248
_cell_angle_beta   60.00000386
_cell_angle_gamma   60.00000119
_symmetry_Int_Tables_number   1
_chemical_formula_structural   Sc6Co16Si6W
_chemical_formula_sum   'Sc6 Co16 Si6 W1'
_cell_volume   378.73002655
_cell_formula_units_Z   1
loop_
 _symmetry_equiv_pos_site_id
 _symmetry_equiv_pos_as_xyz
  1  'x, y, z'
loop_
 _atom_site_type_symbol
 _atom_site_label
 _atom_site_symmetry_multiplicity
 _atom_site_fract_x
 _atom_site_fract_y
 _atom_site_fract_z
 _atom_site_occupancy
  Sc  Sc0  1  0.713073  0.713073  0.286927  1
  Sc  Sc1  1  0.286927  0.713073  0.286927  1
  Sc  Sc2  1  0.713073  0.286927  0.286927  1
  Sc  Sc3  1  0.286927  0.286927  0.713073  1
  Sc  Sc4  1  0.713073  0.286927  0.713073  1
  Sc  Sc5  1  0.286927  0.713073  0.713073  1
  Co  Co6  1  0.878047  0.878047  0.365859  1
  Co  Co7  1  0.878047  0.365859  0.878047  1
  Co  Co8  1  0.365859  0.878047  0.878047  1
  Co  Co9  1  0.878047  0.878047  0.878047  1
  Co  Co10  1  0.121953  0.121953  0.634141  1
  Co  Co11  1  0.121953  0.634141  0.121953  1
  Co  Co12  1  0.634141  0.121953  0.121953  1
  Co  Co13  1  0.121953  0.121953  0.121953  1
  Co  Co14  1  0.673501  0.673501  0.979496  1
  Co  Co15  1  0.673501  0.979496  0.673501  1
  Co  Co16  1  0.979496  0.673501  0.673501  1
  Co  Co17  1  0.673501  0.673501  0.673501  1
  Co  Co18  1  0.326499  0.326499  0.020504  1
  Co  Co19  1  0.326499  0.020504  0.326499  1
  Co  Co20  1  0.020504  0.326499  0.326499  1
  Co  Co21  1  0.326499  0.326499  0.326499  1
  Si  Si22  1  0.000000  0.000000  0.500000  1
  Si  Si23  1  0.500000  0.000000  0.500000  1
  Si  Si24  1  0.000000  0.500000  0.500000  1
  Si  Si25  1  0.500000  0.500000  0.000000  1
  Si  Si26  1  0.000000  0.500000  0.000000  1
  Si  Si27  1  0.500000  0.000000  0.000000  1
  W  W28  1  0.000000  0.000000  0.000000  1
