# generated using pymatgen
data_Yb3YB24
_symmetry_space_group_name_H-M   'P 1'
_cell_length_a   7.12715071
_cell_length_b   7.12715056
_cell_length_c   5.82023100
_cell_angle_alpha   90.00000000
_cell_angle_beta   90.00000000
_cell_angle_gamma   109.44501003
_symmetry_Int_Tables_number   1
_chemical_formula_structural   Yb3YB24
_chemical_formula_sum   'Yb3 Y1 B24'
_cell_volume   278.78283288
_cell_formula_units_Z   1
loop_
 _symmetry_equiv_pos_site_id
 _symmetry_equiv_pos_as_xyz
  1  'x, y, z'
loop_
 _atom_site_type_symbol
 _atom_site_label
 _atom_site_symmetry_multiplicity
 _atom_site_fract_x
 _atom_site_fract_y
 _atom_site_fract_z
 _atom_site_occupancy
  Yb  Yb0  1  0.748630  0.251370  0.500000  1
  Yb  Yb1  1  0.500000  0.500000  0.000000  1
  Yb  Yb2  1  0.251370  0.748630  0.500000  1
  Y  Y3  1  0.000000  0.000000  0.000000  1
  B  B4  1  0.174587  0.324727  0.649401  1
  B  B5  1  0.925388  0.574798  0.150180  1
  B  B6  1  0.675273  0.825413  0.649401  1
  B  B7  1  0.425202  0.074612  0.150180  1
  B  B8  1  0.174587  0.324727  0.350599  1
  B  B9  1  0.925388  0.574798  0.849820  1
  B  B10  1  0.675273  0.825413  0.350599  1
  B  B11  1  0.425202  0.074612  0.849820  1
  B  B12  1  0.399609  0.399609  0.500000  1
  B  B13  1  0.150214  0.649376  0.000000  1
  B  B14  1  0.899964  0.899964  0.500000  1
  B  B15  1  0.649376  0.150214  0.000000  1
  B  B16  1  0.324727  0.174587  0.649401  1
  B  B17  1  0.074612  0.425202  0.150180  1
  B  B18  1  0.825413  0.675273  0.649401  1
  B  B19  1  0.574798  0.925388  0.150180  1
  B  B20  1  0.100036  0.100036  0.500000  1
  B  B21  1  0.849786  0.350624  0.000000  1
  B  B22  1  0.600391  0.600391  0.500000  1
  B  B23  1  0.350624  0.849786  0.000000  1
  B  B24  1  0.324727  0.174587  0.350599  1
  B  B25  1  0.074612  0.425202  0.849820  1
  B  B26  1  0.825413  0.675273  0.350599  1
  B  B27  1  0.574798  0.925388  0.849820  1
