# generated using pymatgen
data_TcPCl9
_symmetry_space_group_name_H-M   'P 1'
_cell_length_a   7.29018562
_cell_length_b   9.35649304
_cell_length_c   9.90484653
_cell_angle_alpha   101.71922474
_cell_angle_beta   97.04423172
_cell_angle_gamma   95.13850652
_symmetry_Int_Tables_number   1
_chemical_formula_structural   TcPCl9
_chemical_formula_sum   'Tc2 P2 Cl18'
_cell_volume   651.96726863
_cell_formula_units_Z   2
loop_
 _symmetry_equiv_pos_site_id
 _symmetry_equiv_pos_as_xyz
  1  'x, y, z'
loop_
 _atom_site_type_symbol
 _atom_site_label
 _atom_site_symmetry_multiplicity
 _atom_site_fract_x
 _atom_site_fract_y
 _atom_site_fract_z
 _atom_site_occupancy
  Tc  Tc0  1  0.890210  0.369999  0.332294  1
  Tc  Tc1  1  0.109790  0.630001  0.667707  1
  P  P2  1  0.548740  0.190263  0.778875  1
  P  P3  1  0.451260  0.809737  0.221125  1
  Cl  Cl4  1  0.649512  0.889594  0.130994  1
  Cl  Cl5  1  0.350488  0.110406  0.869006  1
  Cl  Cl6  1  0.202904  0.481148  0.454966  1
  Cl  Cl7  1  0.797096  0.518852  0.545034  1
  Cl  Cl8  1  0.084884  0.828746  0.558245  1
  Cl  Cl9  1  0.915116  0.171254  0.441755  1
  Cl  Cl10  1  0.987731  0.759212  0.856031  1
  Cl  Cl11  1  0.012269  0.240788  0.143969  1
  Cl  Cl12  1  0.127750  0.429937  0.778644  1
  Cl  Cl13  1  0.872250  0.570063  0.221356  1
  Cl  Cl14  1  0.419990  0.712400  0.751367  1
  Cl  Cl15  1  0.580010  0.287600  0.248633  1
  Cl  Cl16  1  0.445944  0.203536  0.590935  1
  Cl  Cl17  1  0.554056  0.796464  0.409065  1
  Cl  Cl18  1  0.742984  0.057485  0.768212  1
  Cl  Cl19  1  0.257016  0.942515  0.231788  1
  Cl  Cl20  1  0.657166  0.383270  0.888117  1
  Cl  Cl21  1  0.342834  0.616730  0.111883  1
