# generated using pymatgen
data_CaLa6TcI12
_symmetry_space_group_name_H-M   'P 1'
_cell_length_a   10.21792889
_cell_length_b   10.21792870
_cell_length_c   10.21792891
_cell_angle_alpha   107.10460659
_cell_angle_beta   107.10460080
_cell_angle_gamma   107.10459771
_symmetry_Int_Tables_number   1
_chemical_formula_structural   CaLa6TcI12
_chemical_formula_sum   'Ca1 La6 Tc1 I12'
_cell_volume   885.90538387
_cell_formula_units_Z   1
loop_
 _symmetry_equiv_pos_site_id
 _symmetry_equiv_pos_as_xyz
  1  'x, y, z'
loop_
 _atom_site_type_symbol
 _atom_site_label
 _atom_site_symmetry_multiplicity
 _atom_site_fract_x
 _atom_site_fract_y
 _atom_site_fract_z
 _atom_site_occupancy
  Ca  Ca0  1  0.500000  0.500000  0.500000  1
  La  La1  1  0.305798  0.096548  0.031068  1
  La  La2  1  0.031068  0.305798  0.096548  1
  La  La3  1  0.096548  0.031067  0.305798  1
  La  La4  1  0.903452  0.968933  0.694203  1
  La  La5  1  0.968932  0.694203  0.903453  1
  La  La6  1  0.694203  0.903452  0.968933  1
  Tc  Tc7  1  0.000000  0.000000  0.000000  1
  I  I8  1  0.686874  0.232257  0.075112  1
  I  I9  1  0.391095  0.459657  0.161968  1
  I  I10  1  0.075112  0.686873  0.232258  1
  I  I11  1  0.767743  0.924889  0.313126  1
  I  I12  1  0.459657  0.161968  0.391095  1
  I  I13  1  0.161968  0.391095  0.459657  1
  I  I14  1  0.838032  0.608906  0.540343  1
  I  I15  1  0.540343  0.838033  0.608905  1
  I  I16  1  0.232258  0.075112  0.686874  1
  I  I17  1  0.924888  0.313127  0.767743  1
  I  I18  1  0.608906  0.540343  0.838032  1
  I  I19  1  0.313127  0.767743  0.924888  1
