# generated using pymatgen
data_Tb2Co2Sn2C
_symmetry_space_group_name_H-M   'P 1'
_cell_length_a   6.10569807
_cell_length_b   6.10569794
_cell_length_c   7.22784386
_cell_angle_alpha   125.82791039
_cell_angle_beta   125.82790818
_cell_angle_gamma   39.06836989
_symmetry_Int_Tables_number   1
_chemical_formula_structural   Tb2Co2Sn2C
_chemical_formula_sum   'Tb2 Co2 Sn2 C1'
_cell_volume   133.09346519
_cell_formula_units_Z   1
loop_
 _symmetry_equiv_pos_site_id
 _symmetry_equiv_pos_as_xyz
  1  'x, y, z'
loop_
 _atom_site_type_symbol
 _atom_site_label
 _atom_site_symmetry_multiplicity
 _atom_site_fract_x
 _atom_site_fract_y
 _atom_site_fract_z
 _atom_site_occupancy
  Tb  Tb0  1  0.551892  0.551892  0.274631  1
  Tb  Tb1  1  0.448108  0.448108  0.725369  1
  Co  Co2  1  0.176063  0.176063  0.075509  1
  Co  Co3  1  0.823937  0.823937  0.924491  1
  Sn  Sn4  1  0.835136  0.835136  0.294362  1
  Sn  Sn5  1  0.164865  0.164865  0.705638  1
  C  C6  1  0.000000  0.000000  0.000000  1
