# generated using pymatgen
data_Sc4Al17(GaOs2)3
_symmetry_space_group_name_H-M   'P 1'
_cell_length_a   8.85427926
_cell_length_b   8.85427926
_cell_length_c   6.21408700
_cell_angle_alpha   90.00000000
_cell_angle_beta   90.00000000
_cell_angle_gamma   89.97203247
_symmetry_Int_Tables_number   1
_chemical_formula_structural   Sc4Al17(GaOs2)3
_chemical_formula_sum   'Sc4 Al17 Ga3 Os6'
_cell_volume   487.17355820
_cell_formula_units_Z   1
loop_
 _symmetry_equiv_pos_site_id
 _symmetry_equiv_pos_as_xyz
  1  'x, y, z'
loop_
 _atom_site_type_symbol
 _atom_site_label
 _atom_site_symmetry_multiplicity
 _atom_site_fract_x
 _atom_site_fract_y
 _atom_site_fract_z
 _atom_site_occupancy
  Sc  Sc0  1  0.679868  0.179868  0.000252  1
  Sc  Sc1  1  0.320132  0.820132  0.000252  1
  Sc  Sc2  1  0.820446  0.679554  0.000864  1
  Sc  Sc3  1  0.179554  0.320446  0.000864  1
  Al  Al4  1  0.937832  0.205698  0.287556  1
  Al  Al5  1  0.705698  0.437832  0.287556  1
  Al  Al6  1  0.562591  0.705025  0.715120  1
  Al  Al7  1  0.293445  0.562140  0.714113  1
  Al  Al8  1  0.793395  0.937824  0.287968  1
  Al  Al9  1  0.937860  0.206555  0.714113  1
  Al  Al10  1  0.294302  0.562168  0.287556  1
  Al  Al11  1  0.062168  0.794302  0.287556  1
  Al  Al12  1  0.706555  0.437860  0.714113  1
  Al  Al13  1  0.437409  0.294975  0.715120  1
  Al  Al14  1  0.062140  0.793445  0.714113  1
  Al  Al15  1  0.205025  0.062591  0.715120  1
  Al  Al16  1  0.794975  0.937409  0.715120  1
  Al  Al17  1  0.206605  0.062176  0.287968  1
  Al  Al18  1  0.562176  0.706605  0.287968  1
  Al  Al19  1  0.437824  0.293395  0.287968  1
  Al  Al20  1  0.500000  0.000000  0.705363  1
  Ga  Ga21  1  0.500000  0.000000  0.265986  1
  Ga  Ga22  1  0.000000  0.500000  0.726805  1
  Ga  Ga23  1  0.000000  0.500000  0.274445  1
  Os  Os24  1  0.679117  0.179117  0.502375  1
  Os  Os25  1  0.820371  0.679629  0.499636  1
  Os  Os26  1  0.179629  0.320371  0.499636  1
  Os  Os27  1  0.000000  0.000000  0.001061  1
  Os  Os28  1  0.320883  0.820883  0.502375  1
  Os  Os29  1  0.500000  0.500000  0.001061  1
