# generated using pymatgen
data_YPaSnRh2
_symmetry_space_group_name_H-M   'P 1'
_cell_length_a   7.68718176
_cell_length_b   7.68718074
_cell_length_c   3.65038100
_cell_angle_alpha   90.00000000
_cell_angle_beta   90.00000000
_cell_angle_gamma   84.70728569
_symmetry_Int_Tables_number   1
_chemical_formula_structural   YPaSnRh2
_chemical_formula_sum   'Y2 Pa2 Sn2 Rh4'
_cell_volume   214.79137432
_cell_formula_units_Z   2
loop_
 _symmetry_equiv_pos_site_id
 _symmetry_equiv_pos_as_xyz
  1  'x, y, z'
loop_
 _atom_site_type_symbol
 _atom_site_label
 _atom_site_symmetry_multiplicity
 _atom_site_fract_x
 _atom_site_fract_y
 _atom_site_fract_z
 _atom_site_occupancy
  Y  Y0  1  0.174184  0.674184  0.500000  1
  Y  Y1  1  0.825816  0.325816  0.500000  1
  Pa  Pa2  1  0.327650  0.172350  0.500000  1
  Pa  Pa3  1  0.672350  0.827650  0.500000  1
  Sn  Sn4  1  0.000000  0.000000  0.000000  1
  Sn  Sn5  1  0.500000  0.500000  0.000000  1
  Rh  Rh6  1  0.622290  0.122290  0.000000  1
  Rh  Rh7  1  0.856407  0.643593  0.000000  1
  Rh  Rh8  1  0.377710  0.877710  0.000000  1
  Rh  Rh9  1  0.143593  0.356407  0.000000  1
