# generated using pymatgen
data_TbEr2Al12Os3Rh
_symmetry_space_group_name_H-M   'P 1'
_cell_length_a   8.82401156
_cell_length_b   8.78644850
_cell_length_c   9.55323800
_cell_angle_alpha   90.00000000
_cell_angle_beta   90.00000000
_cell_angle_gamma   119.77397702
_symmetry_Int_Tables_number   1
_chemical_formula_structural   TbEr2Al12Os3Rh
_chemical_formula_sum   'Tb2 Er4 Al24 Os6 Rh2'
_cell_volume   642.90277095
_cell_formula_units_Z   2
loop_
 _symmetry_equiv_pos_site_id
 _symmetry_equiv_pos_as_xyz
  1  'x, y, z'
loop_
 _atom_site_type_symbol
 _atom_site_label
 _atom_site_symmetry_multiplicity
 _atom_site_fract_x
 _atom_site_fract_y
 _atom_site_fract_z
 _atom_site_occupancy
  Tb  Tb0  1  0.187278  0.802734  0.250000  1
  Tb  Tb1  1  0.812722  0.197266  0.750000  1
  Er  Er2  1  0.194316  0.389554  0.250000  1
  Er  Er3  1  0.805684  0.610446  0.750000  1
  Er  Er4  1  0.614248  0.802662  0.250000  1
  Er  Er5  1  0.385752  0.197338  0.750000  1
  Al  Al6  1  0.332636  0.666421  0.020624  1
  Al  Al7  1  0.667364  0.333579  0.979376  1
  Al  Al8  1  0.667364  0.333579  0.520624  1
  Al  Al9  1  0.332636  0.666421  0.479376  1
  Al  Al10  1  0.165115  0.328112  0.575874  1
  Al  Al11  1  0.834885  0.671888  0.424126  1
  Al  Al12  1  0.673822  0.835018  0.576982  1
  Al  Al13  1  0.834885  0.671888  0.075874  1
  Al  Al14  1  0.326178  0.164982  0.423018  1
  Al  Al15  1  0.165115  0.328112  0.924126  1
  Al  Al16  1  0.162344  0.835572  0.576800  1
  Al  Al17  1  0.326178  0.164982  0.076982  1
  Al  Al18  1  0.837656  0.164428  0.423200  1
  Al  Al19  1  0.673822  0.835018  0.923018  1
  Al  Al20  1  0.837656  0.164428  0.076800  1
  Al  Al21  1  0.162344  0.835572  0.923200  1
  Al  Al22  1  0.560316  0.120032  0.250000  1
  Al  Al23  1  0.439684  0.879968  0.750000  1
  Al  Al24  1  0.875261  0.436826  0.250000  1
  Al  Al25  1  0.124739  0.563174  0.750000  1
  Al  Al26  1  0.561508  0.437303  0.250000  1
  Al  Al27  1  0.438492  0.562697  0.750000  1
  Al  Al28  1  0.998008  0.999307  0.250000  1
  Al  Al29  1  0.001992  0.000693  0.750000  1
  Os  Os30  1  0.000000  0.500000  0.000000  1
  Os  Os31  1  0.500000  0.500000  0.000000  1
  Os  Os32  1  0.000000  0.500000  0.500000  1
  Os  Os33  1  0.500000  0.500000  0.500000  1
  Os  Os34  1  0.000000  0.000000  0.000000  1
  Os  Os35  1  0.000000  0.000000  0.500000  1
  Rh  Rh36  1  0.500000  0.000000  0.000000  1
  Rh  Rh37  1  0.500000  0.000000  0.500000  1
