# generated using pymatgen
data_Er4AlCo
_symmetry_space_group_name_H-M   'P 1'
_cell_length_a   9.32923431
_cell_length_b   9.32923513
_cell_length_c   9.32923500
_cell_angle_alpha   60.00000399
_cell_angle_beta   60.00000110
_cell_angle_gamma   60.00000362
_symmetry_Int_Tables_number   1
_chemical_formula_structural   Er4AlCo
_chemical_formula_sum   'Er16 Al4 Co4'
_cell_volume   574.14700448
_cell_formula_units_Z   4
loop_
 _symmetry_equiv_pos_site_id
 _symmetry_equiv_pos_as_xyz
  1  'x, y, z'
loop_
 _atom_site_type_symbol
 _atom_site_label
 _atom_site_symmetry_multiplicity
 _atom_site_fract_x
 _atom_site_fract_y
 _atom_site_fract_z
 _atom_site_occupancy
  Er  Er0  1  0.349385  0.349385  0.349385  1
  Er  Er1  1  0.349385  0.349385  0.951846  1
  Er  Er2  1  0.349385  0.951846  0.349385  1
  Er  Er3  1  0.951846  0.349385  0.349385  1
  Er  Er4  1  0.807734  0.192266  0.192266  1
  Er  Er5  1  0.192266  0.807734  0.807734  1
  Er  Er6  1  0.192266  0.807734  0.192266  1
  Er  Er7  1  0.807734  0.192266  0.807734  1
  Er  Er8  1  0.192266  0.192266  0.807734  1
  Er  Er9  1  0.807734  0.807734  0.192266  1
  Er  Er10  1  0.938121  0.561879  0.561879  1
  Er  Er11  1  0.561879  0.938121  0.938121  1
  Er  Er12  1  0.561879  0.938121  0.561879  1
  Er  Er13  1  0.938121  0.561879  0.938121  1
  Er  Er14  1  0.561879  0.561879  0.938121  1
  Er  Er15  1  0.938121  0.938121  0.561879  1
  Al  Al16  1  0.577649  0.577649  0.577649  1
  Al  Al17  1  0.577649  0.577649  0.267051  1
  Al  Al18  1  0.577649  0.267051  0.577649  1
  Al  Al19  1  0.267051  0.577649  0.577649  1
  Co  Co20  1  0.140528  0.140528  0.140528  1
  Co  Co21  1  0.140528  0.140528  0.578417  1
  Co  Co22  1  0.140528  0.578417  0.140528  1
  Co  Co23  1  0.578417  0.140528  0.140528  1
