# generated using pymatgen
data_Tb2ScFe(WO6)2
_symmetry_space_group_name_H-M   'P 1'
_cell_length_a   5.26823283
_cell_length_b   7.51919557
_cell_length_c   11.20969100
_cell_angle_alpha   90.00000000
_cell_angle_beta   90.00000000
_cell_angle_gamma   90.09509251
_symmetry_Int_Tables_number   1
_chemical_formula_structural   Tb2ScFe(WO6)2
_chemical_formula_sum   'Tb4 Sc2 Fe2 W4 O24'
_cell_volume   444.04745367
_cell_formula_units_Z   2
loop_
 _symmetry_equiv_pos_site_id
 _symmetry_equiv_pos_as_xyz
  1  'x, y, z'
loop_
 _atom_site_type_symbol
 _atom_site_label
 _atom_site_symmetry_multiplicity
 _atom_site_fract_x
 _atom_site_fract_y
 _atom_site_fract_z
 _atom_site_occupancy
  Tb  Tb0  1  0.955642  0.251549  0.040226  1
  Tb  Tb1  1  0.455642  0.751549  0.459774  1
  Tb  Tb2  1  0.545382  0.253607  0.549723  1
  Tb  Tb3  1  0.045380  0.753607  0.950278  1
  Sc  Sc4  1  0.457559  0.509340  0.141635  1
  Sc  Sc5  1  0.957560  0.009339  0.358366  1
  Fe  Fe6  1  0.044271  0.508443  0.640064  1
  Fe  Fe7  1  0.544270  0.008442  0.859937  1
  W  W8  1  0.448265  0.997070  0.138924  1
  W  W9  1  0.948263  0.497071  0.361074  1
  W  W10  1  0.052418  0.997554  0.642645  1
  W  W11  1  0.552418  0.497555  0.857355  1
  O  O12  1  0.746691  0.542701  0.016227  1
  O  O13  1  0.735970  0.957103  0.027056  1
  O  O14  1  0.315916  0.760555  0.113859  1
  O  O15  1  0.572436  0.240611  0.142489  1
  O  O16  1  0.128544  0.075798  0.200177  1
  O  O17  1  0.096272  0.434583  0.214466  1
  O  O18  1  0.596273  0.934582  0.285534  1
  O  O19  1  0.628544  0.575799  0.299824  1
  O  O20  1  0.072438  0.740613  0.357510  1
  O  O21  1  0.815915  0.260555  0.386140  1
  O  O22  1  0.235967  0.457102  0.472945  1
  O  O23  1  0.246690  0.042701  0.483773  1
  O  O24  1  0.760185  0.543892  0.523226  1
  O  O25  1  0.763792  0.958910  0.531418  1
  O  O26  1  0.173367  0.756384  0.618364  1
  O  O27  1  0.939298  0.244459  0.643523  1
  O  O28  1  0.373023  0.069202  0.709422  1
  O  O29  1  0.390975  0.438445  0.712960  1
  O  O30  1  0.890976  0.938444  0.787040  1
  O  O31  1  0.873023  0.569203  0.790579  1
  O  O32  1  0.439299  0.744461  0.856477  1
  O  O33  1  0.673366  0.256384  0.881636  1
  O  O34  1  0.263791  0.458909  0.968582  1
  O  O35  1  0.260184  0.043892  0.976775  1
