# generated using pymatgen
data_YLu15TlIn5Co2
_symmetry_space_group_name_H-M   'P 1'
_cell_length_a   10.16037939
_cell_length_b   10.16038036
_cell_length_c   6.90039800
_cell_angle_alpha   89.99783245
_cell_angle_beta   90.00216795
_cell_angle_gamma   120.03175587
_symmetry_Int_Tables_number   1
_chemical_formula_structural   YLu15TlIn5Co2
_chemical_formula_sum   'Y1 Lu15 Tl1 In5 Co2'
_cell_volume   616.71654996
_cell_formula_units_Z   1
loop_
 _symmetry_equiv_pos_site_id
 _symmetry_equiv_pos_as_xyz
  1  'x, y, z'
loop_
 _atom_site_type_symbol
 _atom_site_label
 _atom_site_symmetry_multiplicity
 _atom_site_fract_x
 _atom_site_fract_y
 _atom_site_fract_z
 _atom_site_occupancy
  Y  Y0  1  0.999672  0.000328  0.994334  1
  Lu  Lu1  1  0.464745  0.535255  0.481407  1
  Lu  Lu2  1  0.070711  0.535322  0.481700  1
  Lu  Lu3  1  0.464678  0.929289  0.481700  1
  Lu  Lu4  1  0.535388  0.464612  0.981544  1
  Lu  Lu5  1  0.928478  0.463638  0.980738  1
  Lu  Lu6  1  0.536362  0.071522  0.980738  1
  Lu  Lu7  1  0.820113  0.179887  0.278157  1
  Lu  Lu8  1  0.359570  0.179684  0.278162  1
  Lu  Lu9  1  0.820316  0.640430  0.278162  1
  Lu  Lu10  1  0.180183  0.819817  0.777056  1
  Lu  Lu11  1  0.639866  0.819827  0.775802  1
  Lu  Lu12  1  0.180173  0.360134  0.775802  1
  Lu  Lu13  1  0.333448  0.666552  0.091511  1
  Lu  Lu14  1  0.666621  0.333379  0.591212  1
  Lu  Lu15  1  0.999577  0.000423  0.496165  1
  Tl  Tl16  1  0.162947  0.837053  0.235214  1
  In  In17  1  0.674489  0.837231  0.235775  1
  In  In18  1  0.162769  0.325511  0.235775  1
  In  In19  1  0.837465  0.162535  0.733613  1
  In  In20  1  0.325250  0.162711  0.733623  1
  In  In21  1  0.837289  0.674750  0.733623  1
  Co  Co22  1  0.333225  0.666775  0.706624  1
  Co  Co23  1  0.666662  0.333338  0.206108  1
