# generated using pymatgen
data_Dy3Y(ZnPb)4
_symmetry_space_group_name_H-M   'P 1'
_cell_length_a   4.61518700
_cell_length_b   4.61518746
_cell_length_c   15.95200700
_cell_angle_alpha   90.00000000
_cell_angle_beta   90.00000000
_cell_angle_gamma   119.99998957
_symmetry_Int_Tables_number   1
_chemical_formula_structural   Dy3Y(ZnPb)4
_chemical_formula_sum   'Dy3 Y1 Zn4 Pb4'
_cell_volume   294.25554604
_cell_formula_units_Z   1
loop_
 _symmetry_equiv_pos_site_id
 _symmetry_equiv_pos_as_xyz
  1  'x, y, z'
loop_
 _atom_site_type_symbol
 _atom_site_label
 _atom_site_symmetry_multiplicity
 _atom_site_fract_x
 _atom_site_fract_y
 _atom_site_fract_z
 _atom_site_occupancy
  Dy  Dy0  1  0.000000  0.000000  0.250038  1
  Dy  Dy1  1  0.000000  0.000000  0.500000  1
  Dy  Dy2  1  0.000000  0.000000  0.749962  1
  Y  Y3  1  0.000000  0.000000  0.000000  1
  Zn  Zn4  1  0.666666  0.333334  0.165243  1
  Zn  Zn5  1  0.666666  0.333334  0.334789  1
  Zn  Zn6  1  0.333334  0.666668  0.665211  1
  Zn  Zn7  1  0.333334  0.666668  0.834757  1
  Pb  Pb8  1  0.333334  0.666668  0.110182  1
  Pb  Pb9  1  0.333334  0.666668  0.390028  1
  Pb  Pb10  1  0.666666  0.333334  0.609972  1
  Pb  Pb11  1  0.666666  0.333334  0.889818  1
