# generated using pymatgen
data_Lu3ThZnRu
_symmetry_space_group_name_H-M   'P 1'
_cell_length_a   9.42780867
_cell_length_b   9.42780808
_cell_length_c   9.42780900
_cell_angle_alpha   60.00000027
_cell_angle_beta   60.00000234
_cell_angle_gamma   59.99999949
_symmetry_Int_Tables_number   1
_chemical_formula_structural   Lu3ThZnRu
_chemical_formula_sum   'Lu12 Th4 Zn4 Ru4'
_cell_volume   592.53946026
_cell_formula_units_Z   4
loop_
 _symmetry_equiv_pos_site_id
 _symmetry_equiv_pos_as_xyz
  1  'x, y, z'
loop_
 _atom_site_type_symbol
 _atom_site_label
 _atom_site_symmetry_multiplicity
 _atom_site_fract_x
 _atom_site_fract_y
 _atom_site_fract_z
 _atom_site_occupancy
  Lu  Lu0  1  0.811103  0.188897  0.188897  1
  Lu  Lu1  1  0.188897  0.811103  0.811103  1
  Lu  Lu2  1  0.188897  0.811103  0.188897  1
  Lu  Lu3  1  0.811103  0.188897  0.811103  1
  Lu  Lu4  1  0.188897  0.188897  0.811103  1
  Lu  Lu5  1  0.811103  0.811103  0.188897  1
  Lu  Lu6  1  0.933941  0.566059  0.566059  1
  Lu  Lu7  1  0.566059  0.933941  0.933941  1
  Lu  Lu8  1  0.566059  0.933941  0.566059  1
  Lu  Lu9  1  0.933941  0.566059  0.933941  1
  Lu  Lu10  1  0.566059  0.566059  0.933941  1
  Lu  Lu11  1  0.933941  0.933941  0.566059  1
  Th  Th12  1  0.352508  0.352508  0.352508  1
  Th  Th13  1  0.352508  0.352508  0.942474  1
  Th  Th14  1  0.352508  0.942474  0.352508  1
  Th  Th15  1  0.942474  0.352508  0.352508  1
  Zn  Zn16  1  0.582269  0.582269  0.582269  1
  Zn  Zn17  1  0.582269  0.582269  0.253193  1
  Zn  Zn18  1  0.582269  0.253193  0.582269  1
  Zn  Zn19  1  0.253193  0.582269  0.582269  1
  Ru  Ru20  1  0.142164  0.142164  0.142164  1
  Ru  Ru21  1  0.142164  0.142164  0.573506  1
  Ru  Ru22  1  0.142164  0.573506  0.142164  1
  Ru  Ru23  1  0.573506  0.142164  0.142164  1
