# generated using pymatgen
data_La4TmTl3Br
_symmetry_space_group_name_H-M   'P 1'
_cell_length_a   9.66677900
_cell_length_b   9.66684502
_cell_length_c   6.92887000
_cell_angle_alpha   89.99994073
_cell_angle_beta   89.99915835
_cell_angle_gamma   120.00288470
_symmetry_Int_Tables_number   1
_chemical_formula_structural   La4TmTl3Br
_chemical_formula_sum   'La8 Tm2 Tl6 Br2'
_cell_volume   560.72118642
_cell_formula_units_Z   2
loop_
 _symmetry_equiv_pos_site_id
 _symmetry_equiv_pos_as_xyz
  1  'x, y, z'
loop_
 _atom_site_type_symbol
 _atom_site_label
 _atom_site_symmetry_multiplicity
 _atom_site_fract_x
 _atom_site_fract_y
 _atom_site_fract_z
 _atom_site_occupancy
  La  La0  1  0.732084  0.732099  0.254187  1
  La  La1  1  0.000016  0.732092  0.745801  1
  La  La2  1  0.732073  0.000044  0.745795  1
  La  La3  1  0.267916  0.267901  0.745813  1
  La  La4  1  0.999984  0.267908  0.254199  1
  La  La5  1  0.267927  0.999956  0.254205  1
  La  La6  1  0.333346  0.666684  0.999987  1
  La  La7  1  0.666654  0.333316  0.000013  1
  Tm  Tm8  1  0.333347  0.666690  0.500000  1
  Tm  Tm9  1  0.666653  0.333310  0.500000  1
  Tl  Tl10  1  0.392902  0.000010  0.741042  1
  Tl  Tl11  1  0.000010  0.607129  0.258944  1
  Tl  Tl12  1  0.607098  0.999990  0.258958  1
  Tl  Tl13  1  0.999990  0.392871  0.741056  1
  Tl  Tl14  1  0.392903  0.392883  0.258942  1
  Tl  Tl15  1  0.607097  0.607117  0.741058  1
  Br  Br16  1  0.000000  0.000000  0.500000  1
  Br  Br17  1  0.000000  0.000000  0.000000  1
