# generated using pymatgen
data_Nd12Ga3SnI12
_symmetry_space_group_name_H-M   'P 1'
_cell_length_a   10.95955595
_cell_length_b   10.95955636
_cell_length_c   10.95955597
_cell_angle_alpha   109.72666679
_cell_angle_beta   109.72666929
_cell_angle_gamma   109.72666385
_symmetry_Int_Tables_number   1
_chemical_formula_structural   Nd12Ga3SnI12
_chemical_formula_sum   'Nd12 Ga3 Sn1 I12'
_cell_volume   1003.64602476
_cell_formula_units_Z   1
loop_
 _symmetry_equiv_pos_site_id
 _symmetry_equiv_pos_as_xyz
  1  'x, y, z'
loop_
 _atom_site_type_symbol
 _atom_site_label
 _atom_site_symmetry_multiplicity
 _atom_site_fract_x
 _atom_site_fract_y
 _atom_site_fract_z
 _atom_site_occupancy
  Nd  Nd0  1  0.750000  0.234696  0.265304  1
  Nd  Nd1  1  0.485493  0.750000  0.014507  1
  Nd  Nd2  1  0.022667  0.266215  0.004204  1
  Nd  Nd3  1  0.266215  0.004204  0.022667  1
  Nd  Nd4  1  0.234696  0.265304  0.750000  1
  Nd  Nd5  1  0.265304  0.750000  0.234696  1
  Nd  Nd6  1  0.233785  0.477333  0.495796  1
  Nd  Nd7  1  0.477333  0.495796  0.233785  1
  Nd  Nd8  1  0.750000  0.014507  0.485493  1
  Nd  Nd9  1  0.495796  0.233785  0.477333  1
  Nd  Nd10  1  0.004204  0.022667  0.266215  1
  Nd  Nd11  1  0.014507  0.485493  0.750000  1
  Ga  Ga12  1  0.999971  0.250000  0.500029  1
  Ga  Ga13  1  0.250000  0.500029  0.999971  1
  Ga  Ga14  1  0.500029  0.999971  0.250000  1
  Sn  Sn15  1  0.250000  0.250000  0.250000  1
  I  I16  1  0.757455  0.742545  0.250000  1
  I  I17  1  0.506397  0.250000  0.993603  1
  I  I18  1  0.250000  0.993603  0.506397  1
  I  I19  1  0.513552  0.506857  0.757121  1
  I  I20  1  0.506857  0.757121  0.513552  1
  I  I21  1  0.757121  0.513552  0.506857  1
  I  I22  1  0.742545  0.250000  0.757455  1
  I  I23  1  0.250000  0.757455  0.742545  1
  I  I24  1  0.986448  0.742879  0.993143  1
  I  I25  1  0.993603  0.506397  0.250000  1
  I  I26  1  0.993143  0.986448  0.742879  1
  I  I27  1  0.742879  0.993143  0.986448  1
