# generated using pymatgen
data_Sr6Li2Nb(RuO6)3
_symmetry_space_group_name_H-M   'P 1'
_cell_length_a   5.62365308
_cell_length_b   9.75903450
_cell_length_c   6.92964925
_cell_angle_alpha   90.20850204
_cell_angle_beta   89.98869778
_cell_angle_gamma   89.99451154
_symmetry_Int_Tables_number   1
_chemical_formula_structural   Sr6Li2Nb(RuO6)3
_chemical_formula_sum   'Sr6 Li2 Nb1 Ru3 O18'
_cell_volume   380.30649447
_cell_formula_units_Z   1
loop_
 _symmetry_equiv_pos_site_id
 _symmetry_equiv_pos_as_xyz
  1  'x, y, z'
loop_
 _atom_site_type_symbol
 _atom_site_label
 _atom_site_symmetry_multiplicity
 _atom_site_fract_x
 _atom_site_fract_y
 _atom_site_fract_z
 _atom_site_occupancy
  Sr  Sr0  1  0.999996  0.998305  0.997090  1
  Sr  Sr1  1  0.499979  0.500831  0.996665  1
  Sr  Sr2  1  0.499948  0.168714  0.346200  1
  Sr  Sr3  1  0.999943  0.665631  0.330254  1
  Sr  Sr4  1  0.000041  0.332947  0.656543  1
  Sr  Sr5  1  0.499980  0.834167  0.655359  1
  Li  Li6  1  0.500078  0.502057  0.506123  1
  Li  Li7  1  0.999966  0.997518  0.502371  1
  Nb  Nb8  1  0.000077  0.665666  0.815706  1
  Ru  Ru9  1  0.999904  0.329610  0.174236  1
  Ru  Ru10  1  0.499920  0.838356  0.175993  1
  Ru  Ru11  1  0.500058  0.166443  0.827867  1
  O  O12  1  0.500006  0.998940  0.001787  1
  O  O13  1  0.999960  0.497861  0.006219  1
  O  O14  1  0.248849  0.248979  0.001610  1
  O  O15  1  0.747549  0.752100  0.006103  1
  O  O16  1  0.751024  0.248982  0.001664  1
  O  O17  1  0.252528  0.752106  0.006074  1
  O  O18  1  0.999939  0.170534  0.328452  1
  O  O19  1  0.499937  0.677334  0.324461  1
  O  O20  1  0.500051  0.325016  0.673687  1
  O  O21  1  0.000055  0.832558  0.670266  1
  O  O22  1  0.758435  0.411645  0.322579  1
  O  O23  1  0.257616  0.918741  0.325095  1
  O  O24  1  0.258942  0.085890  0.677670  1
  O  O25  1  0.751064  0.581231  0.671816  1
  O  O26  1  0.741538  0.085982  0.677873  1
  O  O27  1  0.249593  0.581343  0.672175  1
  O  O28  1  0.241098  0.411700  0.322759  1
  O  O29  1  0.741932  0.918810  0.325303  1
