# generated using pymatgen
data_Ho6Al24CuOs7
_symmetry_space_group_name_H-M   'P 1'
_cell_length_a   8.82135200
_cell_length_b   8.81582419
_cell_length_c   9.55291515
_cell_angle_alpha   90.19059692
_cell_angle_beta   90.00000000
_cell_angle_gamma   120.02074425
_symmetry_Int_Tables_number   1
_chemical_formula_structural   Ho6Al24CuOs7
_chemical_formula_sum   'Ho6 Al24 Cu1 Os7'
_cell_volume   643.23638066
_cell_formula_units_Z   1
loop_
 _symmetry_equiv_pos_site_id
 _symmetry_equiv_pos_as_xyz
  1  'x, y, z'
loop_
 _atom_site_type_symbol
 _atom_site_label
 _atom_site_symmetry_multiplicity
 _atom_site_fract_x
 _atom_site_fract_y
 _atom_site_fract_z
 _atom_site_occupancy
  Ho  Ho0  1  0.195365  0.390728  0.252502  1
  Ho  Ho1  1  0.804635  0.609272  0.747498  1
  Ho  Ho2  1  0.615274  0.806412  0.249215  1
  Ho  Ho3  1  0.384726  0.193588  0.750785  1
  Ho  Ho4  1  0.191138  0.806412  0.249215  1
  Ho  Ho5  1  0.808862  0.193588  0.750785  1
  Al  Al6  1  0.332453  0.664906  0.020914  1
  Al  Al7  1  0.667547  0.335094  0.979086  1
  Al  Al8  1  0.666080  0.332160  0.521222  1
  Al  Al9  1  0.333920  0.667840  0.478778  1
  Al  Al10  1  0.163844  0.327689  0.576681  1
  Al  Al11  1  0.836156  0.672311  0.423319  1
  Al  Al12  1  0.672368  0.837025  0.574456  1
  Al  Al13  1  0.836085  0.672171  0.076602  1
  Al  Al14  1  0.327632  0.162975  0.425544  1
  Al  Al15  1  0.163915  0.327829  0.923398  1
  Al  Al16  1  0.164657  0.837025  0.574456  1
  Al  Al17  1  0.325151  0.168186  0.078979  1
  Al  Al18  1  0.835343  0.162975  0.425544  1
  Al  Al19  1  0.674849  0.831814  0.921021  1
  Al  Al20  1  0.843035  0.168186  0.078979  1
  Al  Al21  1  0.156965  0.831814  0.921021  1
  Al  Al22  1  0.561211  0.122423  0.249841  1
  Al  Al23  1  0.438789  0.877577  0.750159  1
  Al  Al24  1  0.877046  0.439658  0.249447  1
  Al  Al25  1  0.122954  0.560342  0.750553  1
  Al  Al26  1  0.562613  0.439658  0.249447  1
  Al  Al27  1  0.437387  0.560342  0.750553  1
  Al  Al28  1  0.999706  0.999412  0.250296  1
  Al  Al29  1  0.000294  0.000588  0.749704  1
  Cu  Cu30  1  0.500000  0.000000  0.000000  1
  Os  Os31  1  0.000000  0.500000  0.000000  1
  Os  Os32  1  0.500000  0.000000  0.500000  1
  Os  Os33  1  0.500000  0.500000  0.000000  1
  Os  Os34  1  0.000000  0.500000  0.500000  1
  Os  Os35  1  0.500000  0.500000  0.500000  1
  Os  Os36  1  0.000000  0.000000  0.000000  1
  Os  Os37  1  0.000000  0.000000  0.500000  1
