# generated using pymatgen
data_Dy16Lu4Ir11Os
_symmetry_space_group_name_H-M   'P 1'
_cell_length_a   10.82960100
_cell_length_b   10.82960100
_cell_length_c   6.36145900
_cell_angle_alpha   90.00000000
_cell_angle_beta   90.00000000
_cell_angle_gamma   90.00000000
_symmetry_Int_Tables_number   1
_chemical_formula_structural   Dy16Lu4Ir11Os
_chemical_formula_sum   'Dy16 Lu4 Ir11 Os1'
_cell_volume   746.07355163
_cell_formula_units_Z   1
loop_
 _symmetry_equiv_pos_site_id
 _symmetry_equiv_pos_as_xyz
  1  'x, y, z'
loop_
 _atom_site_type_symbol
 _atom_site_label
 _atom_site_symmetry_multiplicity
 _atom_site_fract_x
 _atom_site_fract_y
 _atom_site_fract_z
 _atom_site_occupancy
  Dy  Dy0  1  0.291496  0.086968  0.376969  1
  Dy  Dy1  1  0.292095  0.913042  0.880804  1
  Dy  Dy2  1  0.707905  0.086958  0.880804  1
  Dy  Dy3  1  0.708504  0.913032  0.376969  1
  Dy  Dy4  1  0.586958  0.792095  0.880804  1
  Dy  Dy5  1  0.586968  0.208504  0.376969  1
  Dy  Dy6  1  0.413032  0.791496  0.376969  1
  Dy  Dy7  1  0.413042  0.207905  0.880804  1
  Dy  Dy8  1  0.210002  0.411912  0.621265  1
  Dy  Dy9  1  0.209881  0.587750  0.120801  1
  Dy  Dy10  1  0.790119  0.412250  0.120801  1
  Dy  Dy11  1  0.789998  0.588088  0.621265  1
  Dy  Dy12  1  0.912250  0.709881  0.120801  1
  Dy  Dy13  1  0.911912  0.289998  0.621265  1
  Dy  Dy14  1  0.088088  0.710002  0.621265  1
  Dy  Dy15  1  0.087750  0.290119  0.120801  1
  Lu  Lu16  1  0.000000  0.000000  0.499279  1
  Lu  Lu17  1  0.000000  0.000000  0.999199  1
  Lu  Lu18  1  0.500000  0.500000  0.999199  1
  Lu  Lu19  1  0.500000  0.500000  0.499279  1
  Ir  Ir20  1  0.849842  0.151782  0.250022  1
  Ir  Ir21  1  0.849676  0.848627  0.749655  1
  Ir  Ir22  1  0.150324  0.151373  0.749655  1
  Ir  Ir23  1  0.150158  0.848218  0.250022  1
  Ir  Ir24  1  0.651373  0.349676  0.749655  1
  Ir  Ir25  1  0.651782  0.650158  0.250022  1
  Ir  Ir26  1  0.348218  0.349842  0.250022  1
  Ir  Ir27  1  0.348627  0.650324  0.749655  1
  Ir  Ir28  1  0.500000  0.000000  0.624336  1
  Ir  Ir29  1  0.000000  0.500000  0.876845  1
  Ir  Ir30  1  0.000000  0.500000  0.377277  1
  Os  Os31  1  0.500000  0.000000  0.126520  1
