# generated using pymatgen
data_Dy5Tm3(Sc3Sn4)4
_symmetry_space_group_name_H-M   'P 1'
_cell_length_a   7.71768361
_cell_length_b   7.89557529
_cell_length_c   14.83616947
_cell_angle_alpha   89.99655039
_cell_angle_beta   89.89321328
_cell_angle_gamma   90.03068235
_symmetry_Int_Tables_number   1
_chemical_formula_structural   Dy5Tm3(Sc3Sn4)4
_chemical_formula_sum   'Dy5 Tm3 Sc12 Sn16'
_cell_volume   904.04847524
_cell_formula_units_Z   1
loop_
 _symmetry_equiv_pos_site_id
 _symmetry_equiv_pos_as_xyz
  1  'x, y, z'
loop_
 _atom_site_type_symbol
 _atom_site_label
 _atom_site_symmetry_multiplicity
 _atom_site_fract_x
 _atom_site_fract_y
 _atom_site_fract_z
 _atom_site_occupancy
  Dy  Dy0  1  0.993505  0.177052  0.094000  1
  Dy  Dy1  1  0.006621  0.822860  0.905807  1
  Dy  Dy2  1  0.506397  0.677007  0.906364  1
  Dy  Dy3  1  0.006560  0.822567  0.593404  1
  Dy  Dy4  1  0.493473  0.322891  0.093982  1
  Tm  Tm5  1  0.992865  0.177817  0.406243  1
  Tm  Tm6  1  0.492328  0.322523  0.406200  1
  Tm  Tm7  1  0.507496  0.677493  0.593626  1
  Sc  Sc8  1  0.168806  0.495144  0.749495  1
  Sc  Sc9  1  0.831220  0.504738  0.250599  1
  Sc  Sc10  1  0.331291  0.995238  0.250509  1
  Sc  Sc11  1  0.668762  0.004916  0.749555  1
  Sc  Sc12  1  0.339098  0.160907  0.626718  1
  Sc  Sc13  1  0.661289  0.838974  0.373190  1
  Sc  Sc14  1  0.161613  0.660485  0.373266  1
  Sc  Sc15  1  0.661862  0.839705  0.127417  1
  Sc  Sc16  1  0.839097  0.339396  0.626593  1
  Sc  Sc17  1  0.338649  0.160443  0.872737  1
  Sc  Sc18  1  0.838213  0.339533  0.872855  1
  Sc  Sc19  1  0.161875  0.660511  0.127377  1
  Sn  Sn20  1  0.030423  0.123905  0.749844  1
  Sn  Sn21  1  0.969736  0.876705  0.250317  1
  Sn  Sn22  1  0.469619  0.623229  0.250136  1
  Sn  Sn23  1  0.530446  0.376681  0.749747  1
  Sn  Sn24  1  0.311309  0.847843  0.749271  1
  Sn  Sn25  1  0.689352  0.152103  0.251072  1
  Sn  Sn26  1  0.189328  0.347810  0.251009  1
  Sn  Sn27  1  0.809631  0.651444  0.749626  1
  Sn  Sn28  1  0.185589  0.457716  0.542084  1
  Sn  Sn29  1  0.814322  0.540935  0.457613  1
  Sn  Sn30  1  0.315770  0.958631  0.457484  1
  Sn  Sn31  1  0.817007  0.542756  0.042380  1
  Sn  Sn32  1  0.683658  0.042810  0.541770  1
  Sn  Sn33  1  0.182843  0.457340  0.957738  1
  Sn  Sn34  1  0.683048  0.042358  0.957627  1
  Sn  Sn35  1  0.316899  0.957536  0.042344  1
