# generated using pymatgen
data_Er5SnBiO12
_symmetry_space_group_name_H-M   'P 1'
_cell_length_a   6.46914299
_cell_length_b   6.53942503
_cell_length_c   6.41133383
_cell_angle_alpha   98.52184514
_cell_angle_beta   99.46330770
_cell_angle_gamma   99.59323956
_symmetry_Int_Tables_number   1
_chemical_formula_structural   Er5SnBiO12
_chemical_formula_sum   'Er5 Sn1 Bi1 O12'
_cell_volume   259.46119090
_cell_formula_units_Z   1
loop_
 _symmetry_equiv_pos_site_id
 _symmetry_equiv_pos_as_xyz
  1  'x, y, z'
loop_
 _atom_site_type_symbol
 _atom_site_label
 _atom_site_symmetry_multiplicity
 _atom_site_fract_x
 _atom_site_fract_y
 _atom_site_fract_z
 _atom_site_occupancy
  Er  Er0  1  0.142789  0.610535  0.313904  1
  Er  Er1  1  0.689529  0.859107  0.389355  1
  Er  Er2  1  0.311274  0.141783  0.609117  1
  Er  Er3  1  0.863688  0.392433  0.685905  1
  Er  Er4  1  0.391789  0.684144  0.853626  1
  Sn  Sn5  1  0.603066  0.325938  0.145117  1
  Bi  Bi6  1  0.997780  0.001337  0.003709  1
  O  O7  1  0.681726  0.908810  0.046397  1
  O  O8  1  0.928210  0.312765  0.079535  1
  O  O9  1  0.424602  0.565852  0.177585  1
  O  O10  1  0.071642  0.947229  0.321103  1
  O  O11  1  0.816790  0.566610  0.404761  1
  O  O12  1  0.584327  0.186220  0.410197  1
  O  O13  1  0.418441  0.828244  0.568875  1
  O  O14  1  0.183165  0.431437  0.587296  1
  O  O15  1  0.930903  0.054906  0.682247  1
  O  O16  1  0.577100  0.404654  0.835287  1
  O  O17  1  0.057004  0.688103  0.923468  1
  O  O18  1  0.326178  0.089891  0.962517  1
