# generated using pymatgen
data_Gd5Y(Er2Si3)2
_symmetry_space_group_name_H-M   'P 1'
_cell_length_a   8.44335000
_cell_length_b   8.44536052
_cell_length_c   6.33470900
_cell_angle_alpha   90.00000000
_cell_angle_beta   90.00000000
_cell_angle_gamma   120.00787910
_symmetry_Int_Tables_number   1
_chemical_formula_structural   Gd5Y(Er2Si3)2
_chemical_formula_sum   'Gd5 Y1 Er4 Si6'
_cell_volume   391.16122799
_cell_formula_units_Z   1
loop_
 _symmetry_equiv_pos_site_id
 _symmetry_equiv_pos_as_xyz
  1  'x, y, z'
loop_
 _atom_site_type_symbol
 _atom_site_label
 _atom_site_symmetry_multiplicity
 _atom_site_fract_x
 _atom_site_fract_y
 _atom_site_fract_z
 _atom_site_occupancy
  Gd  Gd0  1  0.000000  0.244328  0.250000  1
  Gd  Gd1  1  0.756096  0.755850  0.250000  1
  Gd  Gd2  1  0.755272  0.000066  0.750000  1
  Gd  Gd3  1  0.244728  0.244794  0.750000  1
  Gd  Gd4  1  0.243904  0.999753  0.250000  1
  Y  Y5  1  0.000000  0.755447  0.750000  1
  Er  Er6  1  0.333131  0.666578  0.499948  1
  Er  Er7  1  0.666869  0.333446  0.000052  1
  Er  Er8  1  0.666869  0.333446  0.499948  1
  Er  Er9  1  0.333131  0.666578  0.000052  1
  Si  Si10  1  0.394053  0.999171  0.750000  1
  Si  Si11  1  0.395330  0.395059  0.250000  1
  Si  Si12  1  0.000000  0.604519  0.250000  1
  Si  Si13  1  0.000000  0.396116  0.750000  1
  Si  Si14  1  0.605947  0.605119  0.750000  1
  Si  Si15  1  0.604670  0.999729  0.250000  1
