# generated using pymatgen
data_Ca8Fe(CoN4)2
_symmetry_space_group_name_H-M   'P 1'
_cell_length_a   9.21517499
_cell_length_b   4.97943102
_cell_length_c   7.09489689
_cell_angle_alpha   90.00001511
_cell_angle_beta   75.05750426
_cell_angle_gamma   74.32528467
_symmetry_Int_Tables_number   1
_chemical_formula_structural   Ca8Fe(CoN4)2
_chemical_formula_sum   'Ca8 Fe1 Co2 N8'
_cell_volume   302.00182562
_cell_formula_units_Z   1
loop_
 _symmetry_equiv_pos_site_id
 _symmetry_equiv_pos_as_xyz
  1  'x, y, z'
loop_
 _atom_site_type_symbol
 _atom_site_label
 _atom_site_symmetry_multiplicity
 _atom_site_fract_x
 _atom_site_fract_y
 _atom_site_fract_z
 _atom_site_occupancy
  Ca  Ca0  1  0.067574  0.966214  0.740469  1
  Ca  Ca1  1  0.943905  0.028047  0.262949  1
  Ca  Ca2  1  0.660941  0.669530  0.474640  1
  Ca  Ca3  1  0.328296  0.335852  0.522018  1
  Ca  Ca4  1  0.811716  0.594143  0.963856  1
  Ca  Ca5  1  0.181699  0.409149  0.038535  1
  Ca  Ca6  1  0.605704  0.197149  0.804842  1
  Ca  Ca7  1  0.400816  0.799591  0.182549  1
  Fe  Fe8  1  0.624248  0.187877  0.206606  1
  Co  Co9  1  0.997261  0.501370  0.505328  1
  Co  Co10  1  0.376786  0.811606  0.792248  1
  N  N11  1  0.202652  0.898674  0.003222  1
  N  N12  1  0.790420  0.104790  0.009344  1
  N  N13  1  0.354589  0.822706  0.546874  1
  N  N14  1  0.642787  0.178607  0.441576  1
  N  N15  1  0.572525  0.713738  0.829844  1
  N  N16  1  0.440329  0.279835  0.165459  1
  N  N17  1  0.057718  0.471141  0.728524  1
  N  N18  1  0.940036  0.529982  0.281116  1
