# generated using pymatgen
data_La2Y7Er11Si15Pd
_symmetry_space_group_name_H-M   'P 1'
_cell_length_a   7.39091027
_cell_length_b   7.75909172
_cell_length_c   14.62236330
_cell_angle_alpha   89.65633074
_cell_angle_beta   89.96892410
_cell_angle_gamma   89.96175879
_symmetry_Int_Tables_number   1
_chemical_formula_structural   La2Y7Er11Si15Pd
_chemical_formula_sum   'La2 Y7 Er11 Si15 Pd1'
_cell_volume   838.52962978
_cell_formula_units_Z   1
loop_
 _symmetry_equiv_pos_site_id
 _symmetry_equiv_pos_as_xyz
  1  'x, y, z'
loop_
 _atom_site_type_symbol
 _atom_site_label
 _atom_site_symmetry_multiplicity
 _atom_site_fract_x
 _atom_site_fract_y
 _atom_site_fract_z
 _atom_site_occupancy
  La  La0  1  0.519909  0.571641  0.341217  1
  La  La1  1  0.020629  0.427656  0.657870  1
  Y  Y2  1  0.847482  0.735817  0.499690  1
  Y  Y3  1  0.479090  0.932306  0.845157  1
  Y  Y4  1  0.977952  0.068438  0.153231  1
  Y  Y5  1  0.476934  0.934250  0.153762  1
  Y  Y6  1  0.976442  0.068463  0.847718  1
  Y  Y7  1  0.523448  0.567153  0.653696  1
  Y  Y8  1  0.023829  0.431854  0.346175  1
  Er  Er9  1  0.811967  0.576769  0.875900  1
  Er  Er10  1  0.318762  0.424571  0.124729  1
  Er  Er11  1  0.181368  0.926957  0.373271  1
  Er  Er12  1  0.680805  0.070495  0.627024  1
  Er  Er13  1  0.181031  0.926862  0.628191  1
  Er  Er14  1  0.680311  0.071091  0.371633  1
  Er  Er15  1  0.815929  0.573377  0.124812  1
  Er  Er16  1  0.321714  0.428258  0.874527  1
  Er  Er17  1  0.647783  0.232413  0.999065  1
  Er  Er18  1  0.157522  0.759710  0.000775  1
  Er  Er19  1  0.348516  0.262436  0.500239  1
  Si  Si20  1  0.020576  0.353728  0.000219  1
  Si  Si21  1  0.474683  0.862528  0.501266  1
  Si  Si22  1  0.976287  0.137432  0.499065  1
  Si  Si23  1  0.651467  0.278097  0.790832  1
  Si  Si24  1  0.152348  0.720446  0.208677  1
  Si  Si25  1  0.348364  0.214898  0.287268  1
  Si  Si26  1  0.848909  0.784907  0.713609  1
  Si  Si27  1  0.357974  0.217976  0.711504  1
  Si  Si28  1  0.858201  0.782353  0.287582  1
  Si  Si29  1  0.649283  0.272319  0.206910  1
  Si  Si30  1  0.149308  0.725870  0.793444  1
  Si  Si31  1  0.776261  0.881433  0.000658  1
  Si  Si32  1  0.263973  0.124958  0.999588  1
  Si  Si33  1  0.231723  0.626754  0.501992  1
  Si  Si34  1  0.729569  0.371217  0.498365  1
  Pd  Pd35  1  0.519651  0.654568  0.000339  1
