# generated using pymatgen
data_TaI3Br8
_symmetry_space_group_name_H-M   'P 1'
_cell_length_a   7.90312721
_cell_length_b   8.15845778
_cell_length_c   8.54120197
_cell_angle_alpha   96.43752522
_cell_angle_beta   91.91449732
_cell_angle_gamma   102.45983255
_symmetry_Int_Tables_number   1
_chemical_formula_structural   TaI3Br8
_chemical_formula_sum   'Ta1 I3 Br8'
_cell_volume   533.41025380
_cell_formula_units_Z   1
loop_
 _symmetry_equiv_pos_site_id
 _symmetry_equiv_pos_as_xyz
  1  'x, y, z'
loop_
 _atom_site_type_symbol
 _atom_site_label
 _atom_site_symmetry_multiplicity
 _atom_site_fract_x
 _atom_site_fract_y
 _atom_site_fract_z
 _atom_site_occupancy
  Ta  Ta0  1  0.000000  0.500000  0.500000  1
  I  I1  1  0.000000  0.000000  0.000000  1
  I  I2  1  0.685618  0.767115  0.850094  1
  I  I3  1  0.314382  0.232885  0.149906  1
  Br  Br4  1  0.720094  0.308333  0.557869  1
  Br  Br5  1  0.279906  0.691667  0.442131  1
  Br  Br6  1  0.513324  0.757472  0.099254  1
  Br  Br7  1  0.486676  0.242528  0.900746  1
  Br  Br8  1  0.861623  0.763815  0.546320  1
  Br  Br9  1  0.138377  0.236185  0.453680  1
  Br  Br10  1  0.900357  0.465057  0.215756  1
  Br  Br11  1  0.099643  0.534943  0.784244  1
