# generated using pymatgen
data_Ce(Nb2N3)2
_symmetry_space_group_name_H-M   'P 1'
_cell_length_a   5.33716900
_cell_length_b   5.33716880
_cell_length_c   10.73262900
_cell_angle_alpha   90.00000000
_cell_angle_beta   90.00000000
_cell_angle_gamma   119.99999502
_symmetry_Int_Tables_number   1
_chemical_formula_structural   Ce(Nb2N3)2
_chemical_formula_sum   'Ce2 Nb8 N12'
_cell_volume   264.76383578
_cell_formula_units_Z   2
loop_
 _symmetry_equiv_pos_site_id
 _symmetry_equiv_pos_as_xyz
  1  'x, y, z'
loop_
 _atom_site_type_symbol
 _atom_site_label
 _atom_site_symmetry_multiplicity
 _atom_site_fract_x
 _atom_site_fract_y
 _atom_site_fract_z
 _atom_site_occupancy
  Ce  Ce0  1  0.666667  0.333333  0.000000  1
  Ce  Ce1  1  0.333333  0.666667  0.000000  1
  Nb  Nb2  1  0.675107  0.675107  0.736612  1
  Nb  Nb3  1  0.324893  0.000000  0.736612  1
  Nb  Nb4  1  0.000000  0.324893  0.736612  1
  Nb  Nb5  1  0.324893  0.324893  0.263388  1
  Nb  Nb6  1  0.675107  0.000000  0.263388  1
  Nb  Nb7  1  0.000000  0.675107  0.263388  1
  Nb  Nb8  1  0.333333  0.666667  0.500000  1
  Nb  Nb9  1  0.666667  0.333333  0.500000  1
  N  N10  1  0.660364  0.660364  0.386177  1
  N  N11  1  0.339636  0.000000  0.386177  1
  N  N12  1  0.000000  0.339636  0.386177  1
  N  N13  1  0.339636  0.339636  0.613823  1
  N  N14  1  0.660364  0.000000  0.613823  1
  N  N15  1  0.000000  0.660364  0.613823  1
  N  N16  1  0.337676  0.337676  0.854500  1
  N  N17  1  0.662324  0.000000  0.854500  1
  N  N18  1  0.000000  0.662324  0.854500  1
  N  N19  1  0.662324  0.662324  0.145500  1
  N  N20  1  0.337676  0.000000  0.145500  1
  N  N21  1  0.000000  0.337676  0.145500  1
