# generated using pymatgen
data_Tb3YRh4F28
_symmetry_space_group_name_H-M   'P 1'
_cell_length_a   5.53430714
_cell_length_b   8.91447817
_cell_length_c   11.97064582
_cell_angle_alpha   62.47021768
_cell_angle_beta   89.96853270
_cell_angle_gamma   89.98780752
_symmetry_Int_Tables_number   1
_chemical_formula_structural   Tb3YRh4F28
_chemical_formula_sum   'Tb3 Y1 Rh4 F28'
_cell_volume   523.70658185
_cell_formula_units_Z   1
loop_
 _symmetry_equiv_pos_site_id
 _symmetry_equiv_pos_as_xyz
  1  'x, y, z'
loop_
 _atom_site_type_symbol
 _atom_site_label
 _atom_site_symmetry_multiplicity
 _atom_site_fract_x
 _atom_site_fract_y
 _atom_site_fract_z
 _atom_site_occupancy
  Tb  Tb0  1  0.739491  0.187459  0.734819  1
  Tb  Tb1  1  0.760409  0.186760  0.235090  1
  Tb  Tb2  1  0.239469  0.812853  0.764918  1
  Y  Y3  1  0.260945  0.812912  0.264875  1
  Rh  Rh4  1  0.758215  0.726318  0.043756  1
  Rh  Rh5  1  0.242139  0.273610  0.956599  1
  Rh  Rh6  1  0.257916  0.274057  0.456417  1
  Rh  Rh7  1  0.741911  0.726212  0.543244  1
  F  F8  1  0.936231  0.705838  0.415358  1
  F  F9  1  0.063182  0.293853  0.584566  1
  F  F10  1  0.436866  0.293376  0.084802  1
  F  F11  1  0.563842  0.706591  0.915793  1
  F  F12  1  0.466142  0.728153  0.134809  1
  F  F13  1  0.534327  0.271698  0.865448  1
  F  F14  1  0.966403  0.271720  0.365454  1
  F  F15  1  0.033280  0.728434  0.634172  1
  F  F16  1  0.949560  0.744089  0.174490  1
  F  F17  1  0.050702  0.256069  0.825754  1
  F  F18  1  0.449393  0.256184  0.325711  1
  F  F19  1  0.550650  0.744248  0.673977  1
  F  F20  1  0.770290  0.482093  0.139671  1
  F  F21  1  0.230067  0.518294  0.860538  1
  F  F22  1  0.270091  0.518431  0.360164  1
  F  F23  1  0.729755  0.482040  0.639509  1
  F  F24  1  0.943431  0.279859  0.042901  1
  F  F25  1  0.056406  0.720122  0.957421  1
  F  F26  1  0.443627  0.719888  0.457373  1
  F  F27  1  0.556086  0.280252  0.542522  1
  F  F28  1  0.741339  0.970140  0.450339  1
  F  F29  1  0.258474  0.030202  0.549411  1
  F  F30  1  0.241573  0.029528  0.049215  1
  F  F31  1  0.758510  0.969984  0.950759  1
  F  F32  1  0.587720  0.968758  0.230879  1
  F  F33  1  0.411745  0.030921  0.769152  1
  F  F34  1  0.088168  0.030022  0.269267  1
  F  F35  1  0.911649  0.969033  0.730830  1
