# generated using pymatgen
data_Tb2HoSn3RuPt2
_symmetry_space_group_name_H-M   'P 1'
_cell_length_a   7.69246747
_cell_length_b   7.70834834
_cell_length_c   3.81653900
_cell_angle_alpha   90.00000000
_cell_angle_beta   90.00000000
_cell_angle_gamma   120.06833038
_symmetry_Int_Tables_number   1
_chemical_formula_structural   Tb2HoSn3RuPt2
_chemical_formula_sum   'Tb2 Ho1 Sn3 Ru1 Pt2'
_cell_volume   195.85194757
_cell_formula_units_Z   1
loop_
 _symmetry_equiv_pos_site_id
 _symmetry_equiv_pos_as_xyz
  1  'x, y, z'
loop_
 _atom_site_type_symbol
 _atom_site_label
 _atom_site_symmetry_multiplicity
 _atom_site_fract_x
 _atom_site_fract_y
 _atom_site_fract_z
 _atom_site_occupancy
  Tb  Tb0  1  0.402974  0.402628  0.500000  1
  Tb  Tb1  1  0.597026  0.999654  0.500000  1
  Ho  Ho2  1  0.000000  0.597704  0.500000  1
  Sn  Sn3  1  0.000000  0.259812  0.000000  1
  Sn  Sn4  1  0.741464  0.739986  0.000000  1
  Sn  Sn5  1  0.258536  0.998522  0.000000  1
  Ru  Ru6  1  0.000000  0.999871  0.500000  1
  Pt  Pt7  1  0.668751  0.335286  0.000000  1
  Pt  Pt8  1  0.331249  0.666536  0.000000  1
