# generated using pymatgen
data_Y2Er3Bi2Sb
_symmetry_space_group_name_H-M   'P 1'
_cell_length_a   8.14271600
_cell_length_b   9.38215600
_cell_length_c   11.97928700
_cell_angle_alpha   90.00000000
_cell_angle_beta   90.00000000
_cell_angle_gamma   90.00000000
_symmetry_Int_Tables_number   1
_chemical_formula_structural   Y2Er3Bi2Sb
_chemical_formula_sum   'Y8 Er12 Bi8 Sb4'
_cell_volume   915.17238616
_cell_formula_units_Z   4
loop_
 _symmetry_equiv_pos_site_id
 _symmetry_equiv_pos_as_xyz
  1  'x, y, z'
loop_
 _atom_site_type_symbol
 _atom_site_label
 _atom_site_symmetry_multiplicity
 _atom_site_fract_x
 _atom_site_fract_y
 _atom_site_fract_z
 _atom_site_occupancy
  Y  Y0  1  0.183351  0.750000  0.718442  1
  Y  Y1  1  0.683351  0.750000  0.781558  1
  Y  Y2  1  0.816649  0.250000  0.281558  1
  Y  Y3  1  0.316649  0.250000  0.218442  1
  Y  Y4  1  0.352230  0.750000  0.213780  1
  Y  Y5  1  0.852230  0.750000  0.286220  1
  Y  Y6  1  0.647770  0.250000  0.786220  1
  Y  Y7  1  0.147770  0.250000  0.713780  1
  Er  Er8  1  0.027322  0.750000  0.988736  1
  Er  Er9  1  0.527322  0.750000  0.511264  1
  Er  Er10  1  0.972678  0.250000  0.011264  1
  Er  Er11  1  0.472678  0.250000  0.488736  1
  Er  Er12  1  0.311356  0.436459  0.941879  1
  Er  Er13  1  0.811356  0.063541  0.558121  1
  Er  Er14  1  0.688644  0.936459  0.058121  1
  Er  Er15  1  0.188644  0.563541  0.441879  1
  Er  Er16  1  0.688644  0.563541  0.058121  1
  Er  Er17  1  0.188644  0.936459  0.441879  1
  Er  Er18  1  0.311356  0.063541  0.941879  1
  Er  Er19  1  0.811356  0.436459  0.558121  1
  Bi  Bi20  1  0.433807  0.003801  0.672416  1
  Bi  Bi21  1  0.933807  0.496199  0.827584  1
  Bi  Bi22  1  0.566193  0.503801  0.327584  1
  Bi  Bi23  1  0.066193  0.996199  0.172416  1
  Bi  Bi24  1  0.566193  0.996199  0.327584  1
  Bi  Bi25  1  0.066193  0.503801  0.172416  1
  Bi  Bi26  1  0.433807  0.496199  0.672416  1
  Bi  Bi27  1  0.933807  0.003801  0.827584  1
  Sb  Sb28  1  0.406593  0.750000  0.958741  1
  Sb  Sb29  1  0.906593  0.750000  0.541259  1
  Sb  Sb30  1  0.593407  0.250000  0.041259  1
  Sb  Sb31  1  0.093407  0.250000  0.458741  1
