# generated using pymatgen
data_Li4LaNd(HoSi3)2
_symmetry_space_group_name_H-M   'P 1'
_cell_length_a   9.36552314
_cell_length_b   9.36552189
_cell_length_c   6.83819900
_cell_angle_alpha   90.00000000
_cell_angle_beta   90.00000000
_cell_angle_gamma   153.15467026
_symmetry_Int_Tables_number   1
_chemical_formula_structural   Li4LaNd(HoSi3)2
_chemical_formula_sum   'Li4 La1 Nd1 Ho2 Si6'
_cell_volume   270.85938861
_cell_formula_units_Z   1
loop_
 _symmetry_equiv_pos_site_id
 _symmetry_equiv_pos_as_xyz
  1  'x, y, z'
loop_
 _atom_site_type_symbol
 _atom_site_label
 _atom_site_symmetry_multiplicity
 _atom_site_fract_x
 _atom_site_fract_y
 _atom_site_fract_z
 _atom_site_occupancy
  Li  Li0  1  0.190529  0.809471  0.059466  1
  Li  Li1  1  0.190529  0.809471  0.440534  1
  Li  Li2  1  0.809724  0.190276  0.940011  1
  Li  Li3  1  0.809724  0.190276  0.559989  1
  La  La4  1  0.553915  0.446085  0.250000  1
  Nd  Nd5  1  0.445794  0.554206  0.750000  1
  Ho  Ho6  1  0.344088  0.655912  0.250000  1
  Ho  Ho7  1  0.655787  0.344213  0.750000  1
  Si  Si8  1  0.724523  0.275477  0.250000  1
  Si  Si9  1  0.276600  0.723400  0.750000  1
  Si  Si10  1  0.059183  0.940817  0.923468  1
  Si  Si11  1  0.940210  0.059790  0.074802  1
  Si  Si12  1  0.940210  0.059790  0.425198  1
  Si  Si13  1  0.059183  0.940817  0.576532  1
