# generated using pymatgen
data_HfMnAsPt8
_symmetry_space_group_name_H-M   'P 1'
_cell_length_a   4.01017300
_cell_length_b   4.01017300
_cell_length_c   11.16013200
_cell_angle_alpha   90.00000000
_cell_angle_beta   90.00000000
_cell_angle_gamma   90.00000000
_symmetry_Int_Tables_number   1
_chemical_formula_structural   HfMnAsPt8
_chemical_formula_sum   'Hf1 Mn1 As1 Pt8'
_cell_volume   179.47152314
_cell_formula_units_Z   1
loop_
 _symmetry_equiv_pos_site_id
 _symmetry_equiv_pos_as_xyz
  1  'x, y, z'
loop_
 _atom_site_type_symbol
 _atom_site_label
 _atom_site_symmetry_multiplicity
 _atom_site_fract_x
 _atom_site_fract_y
 _atom_site_fract_z
 _atom_site_occupancy
  Hf  Hf0  1  0.500000  0.500000  0.824544  1
  Mn  Mn1  1  0.500000  0.500000  0.182612  1
  As  As2  1  0.000000  0.000000  0.496376  1
  Pt  Pt3  1  0.500000  0.000000  0.001769  1
  Pt  Pt4  1  0.000000  0.500000  0.001769  1
  Pt  Pt5  1  0.500000  0.000000  0.642027  1
  Pt  Pt6  1  0.000000  0.500000  0.642027  1
  Pt  Pt7  1  0.500000  0.000000  0.354517  1
  Pt  Pt8  1  0.000000  0.500000  0.354517  1
  Pt  Pt9  1  0.000000  0.000000  0.822519  1
  Pt  Pt10  1  0.000000  0.000000  0.177322  1
