# generated using pymatgen
data_Dy7Tm3(InSb)4
_symmetry_space_group_name_H-M   'P 1'
_cell_length_a   8.75444170
_cell_length_b   8.78022501
_cell_length_c   8.04980300
_cell_angle_alpha   90.05660261
_cell_angle_beta   90.05267884
_cell_angle_gamma   125.23208882
_symmetry_Int_Tables_number   1
_chemical_formula_structural   Dy7Tm3(InSb)4
_chemical_formula_sum   'Dy7 Tm3 In4 Sb4'
_cell_volume   505.41230491
_cell_formula_units_Z   1
loop_
 _symmetry_equiv_pos_site_id
 _symmetry_equiv_pos_as_xyz
  1  'x, y, z'
loop_
 _atom_site_type_symbol
 _atom_site_label
 _atom_site_symmetry_multiplicity
 _atom_site_fract_x
 _atom_site_fract_y
 _atom_site_fract_z
 _atom_site_occupancy
  Dy  Dy0  1  0.967702  0.693661  0.666385  1
  Dy  Dy1  1  0.468421  0.193039  0.833750  1
  Dy  Dy2  1  0.809621  0.533498  0.167093  1
  Dy  Dy3  1  0.532016  0.807828  0.166330  1
  Dy  Dy4  1  0.190781  0.467189  0.833234  1
  Dy  Dy5  1  0.691256  0.966895  0.666176  1
  Dy  Dy6  1  0.308692  0.032897  0.333267  1
  Tm  Tm7  1  0.031948  0.304511  0.334990  1
  Tm  Tm8  1  0.000184  0.000733  0.000316  1
  Tm  Tm9  1  0.499668  0.499629  0.499598  1
  In  In10  1  0.369873  0.370592  0.129425  1
  In  In11  1  0.628893  0.629411  0.871245  1
  In  In12  1  0.129694  0.130194  0.628835  1
  In  In13  1  0.870542  0.871049  0.370914  1
  Sb  Sb14  1  0.798456  0.202836  0.002491  1
  Sb  Sb15  1  0.202954  0.798833  0.998858  1
  Sb  Sb16  1  0.704876  0.297813  0.499509  1
  Sb  Sb17  1  0.294424  0.699392  0.497584  1
