# generated using pymatgen
data_Be7V3GeMo
_symmetry_space_group_name_H-M   'P 1'
_cell_length_a   4.43581200
_cell_length_b   4.43581174
_cell_length_c   7.30794600
_cell_angle_alpha   90.00000000
_cell_angle_beta   90.00000000
_cell_angle_gamma   120.00001686
_symmetry_Int_Tables_number   1
_chemical_formula_structural   Be7V3GeMo
_chemical_formula_sum   'Be7 V3 Ge1 Mo1'
_cell_volume   124.52946575
_cell_formula_units_Z   1
loop_
 _symmetry_equiv_pos_site_id
 _symmetry_equiv_pos_as_xyz
  1  'x, y, z'
loop_
 _atom_site_type_symbol
 _atom_site_label
 _atom_site_symmetry_multiplicity
 _atom_site_fract_x
 _atom_site_fract_y
 _atom_site_fract_z
 _atom_site_occupancy
  Be  Be0  1  0.000000  0.000000  0.999301  1
  Be  Be1  1  0.826398  0.173602  0.240574  1
  Be  Be2  1  0.826398  0.652795  0.240574  1
  Be  Be3  1  0.347205  0.173602  0.240574  1
  Be  Be4  1  0.173494  0.826506  0.759437  1
  Be  Be5  1  0.173494  0.346988  0.759437  1
  Be  Be6  1  0.653012  0.826506  0.759437  1
  V  V7  1  0.333333  0.666667  0.434148  1
  V  V8  1  0.666667  0.333333  0.565515  1
  V  V9  1  0.666667  0.333333  0.933886  1
  Ge  Ge10  1  0.000000  0.000000  0.502392  1
  Mo  Mo11  1  0.333333  0.666667  0.064725  1
