# generated using pymatgen
data_Ho3TmHf4(IrRh)2
_symmetry_space_group_name_H-M   'P 1'
_cell_length_a   4.55251800
_cell_length_b   6.99582045
_cell_length_c   8.28834206
_cell_angle_alpha   90.01386891
_cell_angle_beta   90.00000000
_cell_angle_gamma   90.00000000
_symmetry_Int_Tables_number   1
_chemical_formula_structural   Ho3TmHf4(IrRh)2
_chemical_formula_sum   'Ho3 Tm1 Hf4 Ir2 Rh2'
_cell_volume   263.97207071
_cell_formula_units_Z   1
loop_
 _symmetry_equiv_pos_site_id
 _symmetry_equiv_pos_as_xyz
  1  'x, y, z'
loop_
 _atom_site_type_symbol
 _atom_site_label
 _atom_site_symmetry_multiplicity
 _atom_site_fract_x
 _atom_site_fract_y
 _atom_site_fract_z
 _atom_site_occupancy
  Ho  Ho0  1  0.250000  0.515654  0.177893  1
  Ho  Ho1  1  0.750000  0.484853  0.822546  1
  Ho  Ho2  1  0.750000  0.985055  0.676971  1
  Tm  Tm3  1  0.250000  0.015841  0.322749  1
  Hf  Hf4  1  0.250000  0.640784  0.574946  1
  Hf  Hf5  1  0.750000  0.358566  0.428583  1
  Hf  Hf6  1  0.750000  0.859619  0.072027  1
  Hf  Hf7  1  0.250000  0.140317  0.925329  1
  Ir  Ir8  1  0.250000  0.766340  0.908823  1
  Ir  Ir9  1  0.250000  0.265655  0.590249  1
  Rh  Rh10  1  0.750000  0.233339  0.090923  1
  Rh  Rh11  1  0.750000  0.733978  0.408961  1
