# generated using pymatgen
data_BaSr2(AgPb)3
_symmetry_space_group_name_H-M   'P 1'
_cell_length_a   5.08583900
_cell_length_b   5.08584031
_cell_length_c   12.52042900
_cell_angle_alpha   90.00000000
_cell_angle_beta   90.00000000
_cell_angle_gamma   119.99999797
_symmetry_Int_Tables_number   1
_chemical_formula_structural   BaSr2(AgPb)3
_chemical_formula_sum   'Ba1 Sr2 Ag3 Pb3'
_cell_volume   280.46274351
_cell_formula_units_Z   1
loop_
 _symmetry_equiv_pos_site_id
 _symmetry_equiv_pos_as_xyz
  1  'x, y, z'
loop_
 _atom_site_type_symbol
 _atom_site_label
 _atom_site_symmetry_multiplicity
 _atom_site_fract_x
 _atom_site_fract_y
 _atom_site_fract_z
 _atom_site_occupancy
  Ba  Ba0  1  0.666667  0.333333  0.829671  1
  Sr  Sr1  1  0.666667  0.333333  0.491215  1
  Sr  Sr2  1  0.666667  0.333333  0.174427  1
  Ag  Ag3  1  0.333333  0.666667  0.017884  1
  Ag  Ag4  1  0.000000  0.000000  0.649565  1
  Ag  Ag5  1  0.000000  0.000000  0.309927  1
  Pb  Pb6  1  0.333333  0.666667  0.633127  1
  Pb  Pb7  1  0.333333  0.666667  0.350079  1
  Pb  Pb8  1  0.000000  0.000000  0.022007  1
