# generated using pymatgen
data_Dy5Y2Ho13Pt16
_symmetry_space_group_name_H-M   'P 1'
_cell_length_a   7.47109901
_cell_length_b   7.55023211
_cell_length_c   14.72033302
_cell_angle_alpha   90.00628338
_cell_angle_beta   90.00102782
_cell_angle_gamma   89.99365896
_symmetry_Int_Tables_number   1
_chemical_formula_structural   Dy5Y2Ho13Pt16
_chemical_formula_sum   'Dy5 Y2 Ho13 Pt16'
_cell_volume   830.35236057
_cell_formula_units_Z   1
loop_
 _symmetry_equiv_pos_site_id
 _symmetry_equiv_pos_as_xyz
  1  'x, y, z'
loop_
 _atom_site_type_symbol
 _atom_site_label
 _atom_site_symmetry_multiplicity
 _atom_site_fract_x
 _atom_site_fract_y
 _atom_site_fract_z
 _atom_site_occupancy
  Dy  Dy0  1  0.497939  0.680064  0.093075  1
  Dy  Dy1  1  0.502170  0.319878  0.593014  1
  Dy  Dy2  1  0.002129  0.180110  0.906991  1
  Dy  Dy3  1  0.001995  0.179908  0.592968  1
  Dy  Dy4  1  0.502073  0.319944  0.906967  1
  Y  Y5  1  0.498145  0.679992  0.407055  1
  Y  Y6  1  0.998179  0.820038  0.092927  1
  Ho  Ho7  1  0.681210  0.988451  0.250049  1
  Ho  Ho8  1  0.181105  0.511603  0.250055  1
  Ho  Ho9  1  0.818827  0.488412  0.749967  1
  Ho  Ho10  1  0.318836  0.011563  0.750044  1
  Ho  Ho11  1  0.656359  0.832524  0.622260  1
  Ho  Ho12  1  0.156327  0.667501  0.877728  1
  Ho  Ho13  1  0.843727  0.332482  0.377722  1
  Ho  Ho14  1  0.343679  0.167501  0.122284  1
  Ho  Ho15  1  0.343561  0.167409  0.377736  1
  Ho  Ho16  1  0.843708  0.332481  0.122320  1
  Ho  Ho17  1  0.156248  0.667620  0.622194  1
  Ho  Ho18  1  0.656380  0.832469  0.877765  1
  Ho  Ho19  1  0.997654  0.819727  0.406880  1
  Pt  Pt20  1  0.816209  0.642364  0.250411  1
  Pt  Pt21  1  0.315794  0.857856  0.249935  1
  Pt  Pt22  1  0.683876  0.142393  0.749980  1
  Pt  Pt23  1  0.183896  0.357624  0.749988  1
  Pt  Pt24  1  0.546708  0.386664  0.249911  1
  Pt  Pt25  1  0.046591  0.113200  0.250215  1
  Pt  Pt26  1  0.953417  0.886742  0.750000  1
  Pt  Pt27  1  0.453417  0.613257  0.749986  1
  Pt  Pt28  1  0.817044  0.532758  0.541951  1
  Pt  Pt29  1  0.316963  0.967456  0.957947  1
  Pt  Pt30  1  0.683906  0.032505  0.457956  1
  Pt  Pt31  1  0.183318  0.467143  0.041945  1
  Pt  Pt32  1  0.182582  0.467546  0.457971  1
  Pt  Pt33  1  0.682741  0.032921  0.041899  1
  Pt  Pt34  1  0.316591  0.967486  0.542008  1
  Pt  Pt35  1  0.816693  0.532410  0.957890  1
