# generated using pymatgen
data_RbSrMoH9
_symmetry_space_group_name_H-M   'P 1'
_cell_length_a   9.32549300
_cell_length_b   9.32549166
_cell_length_c   5.64438300
_cell_angle_alpha   90.00000000
_cell_angle_beta   90.00000000
_cell_angle_gamma   120.00000832
_symmetry_Int_Tables_number   1
_chemical_formula_structural   RbSrMoH9
_chemical_formula_sum   'Rb3 Sr3 Mo3 H27'
_cell_volume   425.09951427
_cell_formula_units_Z   3
loop_
 _symmetry_equiv_pos_site_id
 _symmetry_equiv_pos_as_xyz
  1  'x, y, z'
loop_
 _atom_site_type_symbol
 _atom_site_label
 _atom_site_symmetry_multiplicity
 _atom_site_fract_x
 _atom_site_fract_y
 _atom_site_fract_z
 _atom_site_occupancy
  Rb  Rb0  1  0.000000  0.587147  0.000000  1
  Rb  Rb1  1  0.412853  0.412853  0.000000  1
  Rb  Rb2  1  0.587147  0.000000  0.000000  1
  Sr  Sr3  1  0.000000  0.273169  0.500000  1
  Sr  Sr4  1  0.726831  0.726831  0.500000  1
  Sr  Sr5  1  0.273169  0.000000  0.500000  1
  Mo  Mo6  1  0.666667  0.333333  0.500000  1
  Mo  Mo7  1  0.333333  0.666667  0.500000  1
  Mo  Mo8  1  0.000000  0.000000  0.000000  1
  H  H9  1  0.784079  0.304653  0.723273  1
  H  H10  1  0.695347  0.479424  0.723273  1
  H  H11  1  0.520576  0.215921  0.723273  1
  H  H12  1  0.215921  0.520576  0.276727  1
  H  H13  1  0.520576  0.215921  0.276727  1
  H  H14  1  0.784079  0.304653  0.276727  1
  H  H15  1  0.695347  0.479424  0.276727  1
  H  H16  1  0.304653  0.784079  0.723273  1
  H  H17  1  0.479424  0.695347  0.723273  1
  H  H18  1  0.186779  0.000000  0.000000  1
  H  H19  1  0.813221  0.813221  0.000000  1
  H  H20  1  0.000000  0.186779  0.000000  1
  H  H21  1  0.866825  0.000000  0.226411  1
  H  H22  1  0.133175  0.133175  0.773589  1
  H  H23  1  0.000000  0.866825  0.773589  1
  H  H24  1  0.000000  0.866825  0.226411  1
  H  H25  1  0.133175  0.133175  0.226411  1
  H  H26  1  0.866825  0.000000  0.773589  1
  H  H27  1  0.131518  0.629095  0.500000  1
  H  H28  1  0.497576  0.868482  0.500000  1
  H  H29  1  0.370905  0.502424  0.500000  1
  H  H30  1  0.502424  0.370905  0.500000  1
  H  H31  1  0.868482  0.497576  0.500000  1
  H  H32  1  0.629095  0.131518  0.500000  1
  H  H33  1  0.215921  0.520576  0.723273  1
  H  H34  1  0.304653  0.784079  0.276727  1
  H  H35  1  0.479424  0.695347  0.276727  1
