# generated using pymatgen
data_Sm8Si(Pd3Pt5)3
_symmetry_space_group_name_H-M   'P 1'
_cell_length_a   8.42300500
_cell_length_b   8.40995400
_cell_length_c   8.45147900
_cell_angle_alpha   90.00000000
_cell_angle_beta   90.00000000
_cell_angle_gamma   90.00000000
_symmetry_Int_Tables_number   1
_chemical_formula_structural   Sm8Si(Pd3Pt5)3
_chemical_formula_sum   'Sm8 Si1 Pd9 Pt15'
_cell_volume   598.67813285
_cell_formula_units_Z   1
loop_
 _symmetry_equiv_pos_site_id
 _symmetry_equiv_pos_as_xyz
  1  'x, y, z'
loop_
 _atom_site_type_symbol
 _atom_site_label
 _atom_site_symmetry_multiplicity
 _atom_site_fract_x
 _atom_site_fract_y
 _atom_site_fract_z
 _atom_site_occupancy
  Sm  Sm0  1  0.252975  0.253097  0.253088  1
  Sm  Sm1  1  0.747195  0.746842  0.747034  1
  Sm  Sm2  1  0.747195  0.746842  0.252966  1
  Sm  Sm3  1  0.747025  0.253097  0.746912  1
  Sm  Sm4  1  0.252975  0.253097  0.746912  1
  Sm  Sm5  1  0.252805  0.746842  0.252966  1
  Sm  Sm6  1  0.252805  0.746842  0.747034  1
  Sm  Sm7  1  0.747025  0.253097  0.253088  1
  Si  Si8  1  0.000000  0.000057  0.000000  1
  Pd  Pd9  1  0.500000  0.000077  0.258009  1
  Pd  Pd10  1  0.257944  0.000122  0.500000  1
  Pd  Pd11  1  0.500000  0.000077  0.741991  1
  Pd  Pd12  1  0.742056  0.000122  0.500000  1
  Pd  Pd13  1  0.000000  0.500128  0.257908  1
  Pd  Pd14  1  0.000000  0.500128  0.742092  1
  Pd  Pd15  1  0.500000  0.747548  0.500000  1
  Pd  Pd16  1  0.500000  0.500063  0.252338  1
  Pd  Pd17  1  0.500000  0.500063  0.747662  1
  Pt  Pt18  1  0.257654  0.500108  0.000000  1
  Pt  Pt19  1  0.742346  0.500108  0.000000  1
  Pt  Pt20  1  0.000000  0.257574  0.500000  1
  Pt  Pt21  1  0.500000  0.257613  0.000000  1
  Pt  Pt22  1  0.000000  0.742266  0.500000  1
  Pt  Pt23  1  0.500000  0.742386  0.000000  1
  Pt  Pt24  1  0.251795  0.499931  0.500000  1
  Pt  Pt25  1  0.748205  0.499931  0.500000  1
  Pt  Pt26  1  0.500000  0.252261  0.500000  1
  Pt  Pt27  1  0.282086  0.999863  0.000000  1
  Pt  Pt28  1  0.717914  0.999863  0.000000  1
  Pt  Pt29  1  0.000000  0.281780  0.000000  1
  Pt  Pt30  1  0.000000  0.718397  0.000000  1
  Pt  Pt31  1  0.000000  0.999890  0.281940  1
  Pt  Pt32  1  0.000000  0.999890  0.718060  1
