# generated using pymatgen
data_Tb3Dy2Si3
_symmetry_space_group_name_H-M   'P 1'
_cell_length_a   8.47691000
_cell_length_b   8.47691051
_cell_length_c   6.38607400
_cell_angle_alpha   90.00000000
_cell_angle_beta   90.00000000
_cell_angle_gamma   119.99999799
_symmetry_Int_Tables_number   1
_chemical_formula_structural   Tb3Dy2Si3
_chemical_formula_sum   'Tb6 Dy4 Si6'
_cell_volume   397.41088490
_cell_formula_units_Z   2
loop_
 _symmetry_equiv_pos_site_id
 _symmetry_equiv_pos_as_xyz
  1  'x, y, z'
loop_
 _atom_site_type_symbol
 _atom_site_label
 _atom_site_symmetry_multiplicity
 _atom_site_fract_x
 _atom_site_fract_y
 _atom_site_fract_z
 _atom_site_occupancy
  Tb  Tb0  1  0.000000  0.756829  0.750000  1
  Tb  Tb1  1  0.000000  0.243171  0.250000  1
  Tb  Tb2  1  0.756829  0.756829  0.250000  1
  Tb  Tb3  1  0.756829  0.000000  0.750000  1
  Tb  Tb4  1  0.243171  0.243171  0.750000  1
  Tb  Tb5  1  0.243171  0.000000  0.250000  1
  Dy  Dy6  1  0.666667  0.333333  0.000000  1
  Dy  Dy7  1  0.333333  0.666667  0.500000  1
  Dy  Dy8  1  0.333333  0.666667  0.000000  1
  Dy  Dy9  1  0.666667  0.333333  0.500000  1
  Si  Si10  1  0.394570  0.000000  0.750000  1
  Si  Si11  1  0.394570  0.394570  0.250000  1
  Si  Si12  1  0.000000  0.605430  0.250000  1
  Si  Si13  1  0.000000  0.394570  0.750000  1
  Si  Si14  1  0.605430  0.605430  0.750000  1
  Si  Si15  1  0.605430  0.000000  0.250000  1
