# generated using pymatgen
data_Ho7Tm3(PaGa10)2
_symmetry_space_group_name_H-M   'P 1'
_cell_length_a   6.09926766
_cell_length_b   9.59991313
_cell_length_c   11.44059041
_cell_angle_alpha   90.02450091
_cell_angle_beta   89.98122928
_cell_angle_gamma   90.04980867
_symmetry_Int_Tables_number   1
_chemical_formula_structural   Ho7Tm3(PaGa10)2
_chemical_formula_sum   'Ho7 Tm3 Pa2 Ga20'
_cell_volume   669.87412959
_cell_formula_units_Z   1
loop_
 _symmetry_equiv_pos_site_id
 _symmetry_equiv_pos_as_xyz
  1  'x, y, z'
loop_
 _atom_site_type_symbol
 _atom_site_label
 _atom_site_symmetry_multiplicity
 _atom_site_fract_x
 _atom_site_fract_y
 _atom_site_fract_z
 _atom_site_occupancy
  Ho  Ho0  1  0.850209  0.749448  0.073798  1
  Ho  Ho1  1  0.110847  0.009840  0.648606  1
  Ho  Ho2  1  0.388959  0.490258  0.148708  1
  Ho  Ho3  1  0.109906  0.490008  0.648644  1
  Ho  Ho4  1  0.389715  0.009851  0.148751  1
  Ho  Ho5  1  0.890436  0.990669  0.351657  1
  Ho  Ho6  1  0.609592  0.509215  0.851271  1
  Tm  Tm7  1  0.650292  0.750480  0.573673  1
  Tm  Tm8  1  0.148944  0.248208  0.925485  1
  Tm  Tm9  1  0.351144  0.251865  0.425531  1
  Pa  Pa10  1  0.887781  0.510318  0.353836  1
  Pa  Pa11  1  0.612222  0.989723  0.853265  1
  Ga  Ga12  1  0.872470  0.053816  0.090352  1
  Ga  Ga13  1  0.627398  0.446999  0.590119  1
  Ga  Ga14  1  0.126452  0.551452  0.907831  1
  Ga  Ga15  1  0.373558  0.948498  0.408410  1
  Ga  Ga16  1  0.123538  0.947589  0.908757  1
  Ga  Ga17  1  0.376436  0.552476  0.409266  1
  Ga  Ga18  1  0.873440  0.446260  0.091120  1
  Ga  Ga19  1  0.626343  0.052915  0.590724  1
  Ga  Ga20  1  0.172985  0.749958  0.253897  1
  Ga  Ga21  1  0.328272  0.750016  0.753088  1
  Ga  Ga22  1  0.826461  0.249626  0.746983  1
  Ga  Ga23  1  0.673636  0.250531  0.247024  1
  Ga  Ga24  1  0.374404  0.750834  0.002787  1
  Ga  Ga25  1  0.124529  0.749122  0.503272  1
  Ga  Ga26  1  0.624187  0.249186  0.995079  1
  Ga  Ga27  1  0.875179  0.250814  0.495132  1
  Ga  Ga28  1  0.603812  0.750076  0.300103  1
  Ga  Ga29  1  0.896358  0.749907  0.798601  1
  Ga  Ga30  1  0.399335  0.248180  0.701976  1
  Ga  Ga31  1  0.101159  0.251862  0.202253  1
