# generated using pymatgen
data_Er10Ga3IrPb2
_symmetry_space_group_name_H-M   'P 1'
_cell_length_a   8.74423961
_cell_length_b   8.74423934
_cell_length_c   8.70009500
_cell_angle_alpha   126.11149230
_cell_angle_beta   126.11149910
_cell_angle_gamma   80.05129674
_symmetry_Int_Tables_number   1
_chemical_formula_structural   Er10Ga3IrPb2
_chemical_formula_sum   'Er10 Ga3 Ir1 Pb2'
_cell_volume   418.34278060
_cell_formula_units_Z   1
loop_
 _symmetry_equiv_pos_site_id
 _symmetry_equiv_pos_as_xyz
  1  'x, y, z'
loop_
 _atom_site_type_symbol
 _atom_site_label
 _atom_site_symmetry_multiplicity
 _atom_site_fract_x
 _atom_site_fract_y
 _atom_site_fract_z
 _atom_site_occupancy
  Er  Er0  1  0.003099  0.993390  0.996490  1
  Er  Er1  1  0.493390  0.503099  0.996490  1
  Er  Er2  1  0.802202  0.302202  0.819147  1
  Er  Er3  1  0.297166  0.491157  0.508320  1
  Er  Er4  1  0.991157  0.797166  0.508320  1
  Er  Er5  1  0.711154  0.517163  0.508320  1
  Er  Er6  1  0.017163  0.211154  0.508320  1
  Er  Er7  1  0.516944  0.016944  0.819147  1
  Er  Er8  1  0.195166  0.695166  0.162299  1
  Er  Er9  1  0.467133  0.967133  0.162299  1
  Ga  Ga10  1  0.864217  0.364217  0.228434  1
  Ga  Ga11  1  0.367447  0.139214  0.506660  1
  Ga  Ga12  1  0.639214  0.867447  0.506660  1
  Ir  Ir13  1  0.126910  0.626910  0.753820  1
  Pb  Pb14  1  0.253819  0.253819  0.007637  1
  Pb  Pb15  1  0.753819  0.753819  0.007637  1
