# generated using pymatgen
data_Y10In6CuS
_symmetry_space_group_name_H-M   'P 1'
_cell_length_a   9.17221300
_cell_length_b   9.17221458
_cell_length_c   6.78055100
_cell_angle_alpha   90.00000000
_cell_angle_beta   90.00000000
_cell_angle_gamma   119.99999792
_symmetry_Int_Tables_number   1
_chemical_formula_structural   Y10In6CuS
_chemical_formula_sum   'Y10 In6 Cu1 S1'
_cell_volume   494.01935620
_cell_formula_units_Z   1
loop_
 _symmetry_equiv_pos_site_id
 _symmetry_equiv_pos_as_xyz
  1  'x, y, z'
loop_
 _atom_site_type_symbol
 _atom_site_label
 _atom_site_symmetry_multiplicity
 _atom_site_fract_x
 _atom_site_fract_y
 _atom_site_fract_z
 _atom_site_occupancy
  Y  Y0  1  0.752799  0.752799  0.263279  1
  Y  Y1  1  0.247201  0.000000  0.263279  1
  Y  Y2  1  0.000000  0.247201  0.263279  1
  Y  Y3  1  0.247201  0.247201  0.736721  1
  Y  Y4  1  0.752799  0.000000  0.736721  1
  Y  Y5  1  0.000000  0.752799  0.736721  1
  Y  Y6  1  0.666667  0.333333  0.500000  1
  Y  Y7  1  0.333333  0.666667  0.500000  1
  Y  Y8  1  0.333333  0.666667  0.000000  1
  Y  Y9  1  0.666667  0.333333  0.000000  1
  In  In10  1  0.400574  0.400574  0.251168  1
  In  In11  1  0.599426  0.000000  0.251168  1
  In  In12  1  0.000000  0.599426  0.251168  1
  In  In13  1  0.599426  0.599426  0.748832  1
  In  In14  1  0.400574  0.000000  0.748832  1
  In  In15  1  0.000000  0.400574  0.748832  1
  Cu  Cu16  1  0.000000  0.000000  0.000000  1
  S  S17  1  0.000000  0.000000  0.500000  1
