# generated using pymatgen
data_Pr3Nd9OsPd3
_symmetry_space_group_name_H-M   'P 1'
_cell_length_a   6.64737601
_cell_length_b   7.39239648
_cell_length_c   9.95102800
_cell_angle_alpha   90.00000000
_cell_angle_beta   90.00000000
_cell_angle_gamma   90.03990692
_symmetry_Int_Tables_number   1
_chemical_formula_structural   Pr3Nd9OsPd3
_chemical_formula_sum   'Pr3 Nd9 Os1 Pd3'
_cell_volume   488.99378569
_cell_formula_units_Z   1
loop_
 _symmetry_equiv_pos_site_id
 _symmetry_equiv_pos_as_xyz
  1  'x, y, z'
loop_
 _atom_site_type_symbol
 _atom_site_label
 _atom_site_symmetry_multiplicity
 _atom_site_fract_x
 _atom_site_fract_y
 _atom_site_fract_z
 _atom_site_occupancy
  Pr  Pr0  1  0.865066  0.525435  0.250000  1
  Pr  Pr1  1  0.637393  0.028237  0.250000  1
  Pr  Pr2  1  0.142829  0.475305  0.750000  1
  Nd  Nd3  1  0.333259  0.679493  0.056081  1
  Nd  Nd4  1  0.166028  0.177886  0.438436  1
  Nd  Nd5  1  0.666139  0.327542  0.566349  1
  Nd  Nd6  1  0.823991  0.817564  0.935072  1
  Nd  Nd7  1  0.666139  0.327542  0.933651  1
  Nd  Nd8  1  0.823991  0.817564  0.564928  1
  Nd  Nd9  1  0.333259  0.679493  0.443919  1
  Nd  Nd10  1  0.166028  0.177886  0.061564  1
  Nd  Nd11  1  0.371779  0.960124  0.750000  1
  Os  Os12  1  0.564789  0.618097  0.750000  1
  Pd  Pd13  1  0.073680  0.884399  0.250000  1
  Pd  Pd14  1  0.425762  0.388998  0.250000  1
  Pd  Pd15  1  0.939872  0.114434  0.750000  1
