# generated using pymatgen
data_K6DyLuF12
_symmetry_space_group_name_H-M   'P 1'
_cell_length_a   6.61301097
_cell_length_b   6.38571033
_cell_length_c   11.10171395
_cell_angle_alpha   55.38127490
_cell_angle_beta   90.10598375
_cell_angle_gamma   90.00474217
_symmetry_Int_Tables_number   1
_chemical_formula_structural   K6DyLuF12
_chemical_formula_sum   'K6 Dy1 Lu1 F12'
_cell_volume   385.80805376
_cell_formula_units_Z   1
loop_
 _symmetry_equiv_pos_site_id
 _symmetry_equiv_pos_as_xyz
  1  'x, y, z'
loop_
 _atom_site_type_symbol
 _atom_site_label
 _atom_site_symmetry_multiplicity
 _atom_site_fract_x
 _atom_site_fract_y
 _atom_site_fract_z
 _atom_site_occupancy
  K  K0  1  0.500000  0.500000  0.000000  1
  K  K1  1  0.000000  0.500000  0.500000  1
  K  K2  1  0.050021  0.727729  0.758878  1
  K  K3  1  0.949979  0.272271  0.241122  1
  K  K4  1  0.551595  0.264043  0.750143  1
  K  K5  1  0.448405  0.735957  0.249857  1
  Dy  Dy6  1  0.500000  0.000000  0.500000  1
  Lu  Lu7  1  0.000000  0.000000  0.000000  1
  F  F8  1  0.774955  0.764210  0.570999  1
  F  F9  1  0.225045  0.235790  0.429001  1
  F  F10  1  0.266452  0.231141  0.933133  1
  F  F11  1  0.733548  0.768859  0.066867  1
  F  F12  1  0.443054  0.888060  0.724313  1
  F  F13  1  0.556946  0.111940  0.275687  1
  F  F14  1  0.944788  0.107940  0.782003  1
  F  F15  1  0.055212  0.892060  0.217997  1
  F  F16  1  0.326919  0.666181  0.551851  1
  F  F17  1  0.673081  0.333819  0.448149  1
  F  F18  1  0.826239  0.321233  0.951670  1
  F  F19  1  0.173761  0.678767  0.048330  1
