# generated using pymatgen
data_Ho2Si3Ni14H3
_symmetry_space_group_name_H-M   'P 1'
_cell_length_a   6.25911758
_cell_length_b   6.25911812
_cell_length_c   6.25911818
_cell_angle_alpha   83.64720967
_cell_angle_beta   83.64720996
_cell_angle_gamma   83.64719826
_symmetry_Int_Tables_number   1
_chemical_formula_structural   Ho2Si3Ni14H3
_chemical_formula_sum   'Ho2 Si3 Ni14 H3'
_cell_volume   241.00346134
_cell_formula_units_Z   1
loop_
 _symmetry_equiv_pos_site_id
 _symmetry_equiv_pos_as_xyz
  1  'x, y, z'
loop_
 _atom_site_type_symbol
 _atom_site_label
 _atom_site_symmetry_multiplicity
 _atom_site_fract_x
 _atom_site_fract_y
 _atom_site_fract_z
 _atom_site_occupancy
  Ho  Ho0  1  0.650838  0.650838  0.650838  1
  Ho  Ho1  1  0.349162  0.349162  0.349162  1
  Si  Si2  1  0.000000  0.000000  0.500000  1
  Si  Si3  1  0.000000  0.500000  0.000000  1
  Si  Si4  1  0.500000  0.000000  0.000000  1
  Ni  Ni5  1  0.291828  0.708172  0.000000  1
  Ni  Ni6  1  0.708172  0.000000  0.291828  1
  Ni  Ni7  1  0.000000  0.291828  0.708172  1
  Ni  Ni8  1  0.291828  0.000000  0.708172  1
  Ni  Ni9  1  0.000000  0.708172  0.291828  1
  Ni  Ni10  1  0.708172  0.291828  0.000000  1
  Ni  Ni11  1  0.342470  0.342470  0.861759  1
  Ni  Ni12  1  0.342470  0.861759  0.342470  1
  Ni  Ni13  1  0.861759  0.342470  0.342470  1
  Ni  Ni14  1  0.657530  0.657530  0.138241  1
  Ni  Ni15  1  0.657530  0.138241  0.657530  1
  Ni  Ni16  1  0.138241  0.657530  0.657530  1
  Ni  Ni17  1  0.899681  0.899681  0.899681  1
  Ni  Ni18  1  0.100319  0.100319  0.100319  1
  H  H19  1  0.500000  0.500000  0.000000  1
  H  H20  1  0.500000  0.000000  0.500000  1
  H  H21  1  0.000000  0.500000  0.500000  1
