# generated using pymatgen
data_Pa4Al24(OsPt2)3
_symmetry_space_group_name_H-M   'P 1'
_cell_length_a   7.55228782
_cell_length_b   7.63744040
_cell_length_c   13.09216217
_cell_angle_alpha   83.67129944
_cell_angle_beta   78.59958199
_cell_angle_gamma   59.58834967
_symmetry_Int_Tables_number   1
_chemical_formula_structural   Pa4Al24(OsPt2)3
_chemical_formula_sum   'Pa4 Al24 Os3 Pt6'
_cell_volume   638.36057550
_cell_formula_units_Z   1
loop_
 _symmetry_equiv_pos_site_id
 _symmetry_equiv_pos_as_xyz
  1  'x, y, z'
loop_
 _atom_site_type_symbol
 _atom_site_label
 _atom_site_symmetry_multiplicity
 _atom_site_fract_x
 _atom_site_fract_y
 _atom_site_fract_z
 _atom_site_occupancy
  Pa  Pa0  1  0.383951  0.179817  0.802446  1
  Pa  Pa1  1  0.617867  0.822062  0.197406  1
  Pa  Pa2  1  0.748946  0.495171  0.801571  1
  Pa  Pa3  1  0.252805  0.501568  0.198379  1
  Al  Al4  1  0.679310  0.841849  0.944126  1
  Al  Al5  1  0.320287  0.163483  0.055521  1
  Al  Al6  1  0.145502  0.821967  0.560501  1
  Al  Al7  1  0.853459  0.178685  0.439772  1
  Al  Al8  1  0.476701  0.170434  0.556682  1
  Al  Al9  1  0.524665  0.828025  0.443095  1
  Al  Al10  1  0.211945  0.165004  0.332599  1
  Al  Al11  1  0.788841  0.833970  0.669334  1
  Al  Al12  1  0.434736  0.511519  0.667488  1
  Al  Al13  1  0.567290  0.488228  0.330571  1
  Al  Al14  1  0.113009  0.151915  0.660625  1
  Al  Al15  1  0.888581  0.847241  0.339361  1
  Al  Al16  1  0.357249  0.497589  0.944582  1
  Al  Al17  1  0.642214  0.497256  0.055697  1
  Al  Al18  1  0.007720  0.168939  0.957426  1
  Al  Al19  1  0.980012  0.836921  0.042494  1
  Al  Al20  1  0.180630  0.499089  0.446439  1
  Al  Al21  1  0.821154  0.501064  0.553533  1
  Al  Al22  1  0.736202  0.159861  0.178931  1
  Al  Al23  1  0.265604  0.838006  0.819089  1
  Al  Al24  1  0.062026  0.641007  0.817064  1
  Al  Al25  1  0.940233  0.357999  0.182866  1
  Al  Al26  1  0.853787  0.045695  0.820608  1
  Al  Al27  1  0.146751  0.955367  0.181616  1
  Os  Os28  1  0.118331  0.483481  0.649021  1
  Os  Os29  1  0.882473  0.516231  0.350950  1
  Os  Os30  1  0.653625  0.172979  0.000034  1
  Pt  Pt31  1  0.342952  0.828426  0.000139  1
  Pt  Pt32  1  0.536076  0.168187  0.358034  1
  Pt  Pt33  1  0.466000  0.831198  0.641356  1
  Pt  Pt34  1  0.775207  0.175459  0.640196  1
  Pt  Pt35  1  0.226402  0.823183  0.360542  1
  Pt  Pt36  1  0.997458  0.501126  0.999903  1
