# generated using pymatgen
data_Dy3Tm7Si5Sn
_symmetry_space_group_name_H-M   'P 1'
_cell_length_a   8.45688074
_cell_length_b   8.46881023
_cell_length_c   6.30757300
_cell_angle_alpha   90.00000000
_cell_angle_beta   90.00000000
_cell_angle_gamma   120.31709128
_symmetry_Int_Tables_number   1
_chemical_formula_structural   Dy3Tm7Si5Sn
_chemical_formula_sum   'Dy3 Tm7 Si5 Sn1'
_cell_volume   389.96799965
_cell_formula_units_Z   1
loop_
 _symmetry_equiv_pos_site_id
 _symmetry_equiv_pos_as_xyz
  1  'x, y, z'
loop_
 _atom_site_type_symbol
 _atom_site_label
 _atom_site_symmetry_multiplicity
 _atom_site_fract_x
 _atom_site_fract_y
 _atom_site_fract_z
 _atom_site_occupancy
  Dy  Dy0  1  0.766123  0.765712  0.250000  1
  Dy  Dy1  1  0.240544  0.240257  0.750000  1
  Dy  Dy2  1  0.755990  0.998749  0.750000  1
  Tm  Tm3  1  0.674084  0.331475  0.502728  1
  Tm  Tm4  1  0.330802  0.673866  0.502711  1
  Tm  Tm5  1  0.330802  0.673866  0.997289  1
  Tm  Tm6  1  0.674084  0.331475  0.997272  1
  Tm  Tm7  1  0.240480  0.989282  0.250000  1
  Tm  Tm8  1  0.989601  0.241388  0.250000  1
  Tm  Tm9  1  0.999068  0.755543  0.750000  1
  Si  Si10  1  0.603700  0.999256  0.250000  1
  Si  Si11  1  0.999382  0.603503  0.250000  1
  Si  Si12  1  0.605794  0.604974  0.750000  1
  Si  Si13  1  0.393643  0.000680  0.750000  1
  Si  Si14  1  0.001587  0.395721  0.750000  1
  Sn  Sn15  1  0.394318  0.394252  0.250000  1
