# generated using pymatgen
data_Ba2LaFeO5
_symmetry_space_group_name_H-M   'P 1'
_cell_length_a   6.31204700
_cell_length_b   8.08398887
_cell_length_c   13.05483913
_cell_angle_alpha   91.15692372
_cell_angle_beta   90.00000000
_cell_angle_gamma   90.00000000
_symmetry_Int_Tables_number   1
_chemical_formula_structural   Ba2LaFeO5
_chemical_formula_sum   'Ba8 La4 Fe4 O20'
_cell_volume   666.00718418
_cell_formula_units_Z   4
loop_
 _symmetry_equiv_pos_site_id
 _symmetry_equiv_pos_as_xyz
  1  'x, y, z'
loop_
 _atom_site_type_symbol
 _atom_site_label
 _atom_site_symmetry_multiplicity
 _atom_site_fract_x
 _atom_site_fract_y
 _atom_site_fract_z
 _atom_site_occupancy
  Ba  Ba0  1  0.770865  0.477707  0.340286  1
  Ba  Ba1  1  0.729135  0.977707  0.840286  1
  Ba  Ba2  1  0.229135  0.522293  0.659714  1
  Ba  Ba3  1  0.270865  0.022293  0.159714  1
  Ba  Ba4  1  0.758818  0.992045  0.378790  1
  Ba  Ba5  1  0.741182  0.492045  0.878790  1
  Ba  Ba6  1  0.241182  0.007955  0.621210  1
  Ba  Ba7  1  0.258818  0.507955  0.121210  1
  La  La8  1  0.749613  0.273839  0.623863  1
  La  La9  1  0.750387  0.773839  0.123863  1
  La  La10  1  0.250387  0.726161  0.376137  1
  La  La11  1  0.249613  0.226161  0.876137  1
  Fe  Fe12  1  0.729693  0.744321  0.586061  1
  Fe  Fe13  1  0.770307  0.244321  0.086061  1
  Fe  Fe14  1  0.270307  0.255679  0.413939  1
  Fe  Fe15  1  0.229693  0.755679  0.913939  1
  O  O16  1  0.769415  0.969980  0.630545  1
  O  O17  1  0.730585  0.469980  0.130545  1
  O  O18  1  0.230585  0.030020  0.369455  1
  O  O19  1  0.269415  0.530020  0.869455  1
  O  O20  1  0.717787  0.075461  0.182395  1
  O  O21  1  0.782213  0.575461  0.682395  1
  O  O22  1  0.282213  0.924539  0.817605  1
  O  O23  1  0.217787  0.424539  0.317605  1
  O  O24  1  0.559678  0.743623  0.280389  1
  O  O25  1  0.940322  0.243623  0.780389  1
  O  O26  1  0.440322  0.256377  0.719611  1
  O  O27  1  0.059678  0.756377  0.219611  1
  O  O28  1  0.575987  0.217279  0.973979  1
  O  O29  1  0.924013  0.717279  0.473979  1
  O  O30  1  0.424013  0.782721  0.026021  1
  O  O31  1  0.075987  0.282721  0.526021  1
  O  O32  1  0.057685  0.233559  0.038659  1
  O  O33  1  0.442315  0.733559  0.538659  1
  O  O34  1  0.942315  0.766441  0.961341  1
  O  O35  1  0.557685  0.266441  0.461341  1
