# generated using pymatgen
data_Dy8MgCd(SiB4)4
_symmetry_space_group_name_H-M   'P 1'
_cell_length_a   7.18079300
_cell_length_b   7.18079300
_cell_length_c   7.84008600
_cell_angle_alpha   90.00000000
_cell_angle_beta   90.00000000
_cell_angle_gamma   90.00000000
_symmetry_Int_Tables_number   1
_chemical_formula_structural   Dy8MgCd(SiB4)4
_chemical_formula_sum   'Dy8 Mg1 Cd1 Si4 B16'
_cell_volume   404.26453326
_cell_formula_units_Z   1
loop_
 _symmetry_equiv_pos_site_id
 _symmetry_equiv_pos_as_xyz
  1  'x, y, z'
loop_
 _atom_site_type_symbol
 _atom_site_label
 _atom_site_symmetry_multiplicity
 _atom_site_fract_x
 _atom_site_fract_y
 _atom_site_fract_z
 _atom_site_occupancy
  Dy  Dy0  1  0.682400  0.183390  0.232431  1
  Dy  Dy1  1  0.317600  0.816610  0.767569  1
  Dy  Dy2  1  0.317600  0.816610  0.232431  1
  Dy  Dy3  1  0.816610  0.682400  0.232431  1
  Dy  Dy4  1  0.816610  0.682400  0.767569  1
  Dy  Dy5  1  0.682400  0.183390  0.767569  1
  Dy  Dy6  1  0.183390  0.317600  0.767569  1
  Dy  Dy7  1  0.183390  0.317600  0.232431  1
  Mg  Mg8  1  0.500000  0.500000  0.500000  1
  Cd  Cd9  1  0.000000  0.000000  0.500000  1
  Si  Si10  1  0.117108  0.611083  0.500000  1
  Si  Si11  1  0.882892  0.388917  0.500000  1
  Si  Si12  1  0.388917  0.117108  0.500000  1
  Si  Si13  1  0.611083  0.882892  0.500000  1
  B  B14  1  0.174828  0.039647  0.000000  1
  B  B15  1  0.825172  0.960353  0.000000  1
  B  B16  1  0.960353  0.174828  0.000000  1
  B  B17  1  0.326745  0.539808  0.000000  1
  B  B18  1  0.039647  0.825172  0.000000  1
  B  B19  1  0.673255  0.460192  0.000000  1
  B  B20  1  0.539808  0.673255  0.000000  1
  B  B21  1  0.460192  0.326745  0.000000  1
  B  B22  1  0.089520  0.588866  0.000000  1
  B  B23  1  0.910480  0.411134  0.000000  1
  B  B24  1  0.411134  0.089520  0.000000  1
  B  B25  1  0.588866  0.910480  0.000000  1
  B  B26  1  0.000000  0.000000  0.158895  1
  B  B27  1  0.000000  0.000000  0.841105  1
  B  B28  1  0.500000  0.500000  0.836462  1
  B  B29  1  0.500000  0.500000  0.163538  1
