# generated using pymatgen
data_TbTa4TiNbSn6
_symmetry_space_group_name_H-M   'P 1'
_cell_length_a   5.77623690
_cell_length_b   5.77285642
_cell_length_c   9.61859000
_cell_angle_alpha   90.00000000
_cell_angle_beta   90.00000000
_cell_angle_gamma   119.96932690
_symmetry_Int_Tables_number   1
_chemical_formula_structural   TbTa4TiNbSn6
_chemical_formula_sum   'Tb1 Ta4 Ti1 Nb1 Sn6'
_cell_volume   277.85098957
_cell_formula_units_Z   1
loop_
 _symmetry_equiv_pos_site_id
 _symmetry_equiv_pos_as_xyz
  1  'x, y, z'
loop_
 _atom_site_type_symbol
 _atom_site_label
 _atom_site_symmetry_multiplicity
 _atom_site_fract_x
 _atom_site_fract_y
 _atom_site_fract_z
 _atom_site_occupancy
  Tb  Tb0  1  0.000000  0.000000  0.998507  1
  Ta  Ta1  1  0.000000  0.500000  0.751941  1
  Ta  Ta2  1  0.500000  0.500000  0.752479  1
  Ta  Ta3  1  0.500000  0.000000  0.749367  1
  Ta  Ta4  1  0.000000  0.500000  0.249484  1
  Ti  Ti5  1  0.500000  0.000000  0.249144  1
  Nb  Nb6  1  0.500000  0.500000  0.250034  1
  Sn  Sn7  1  0.666219  0.330945  0.499293  1
  Sn  Sn8  1  0.333781  0.669055  0.499293  1
  Sn  Sn9  1  0.665817  0.331251  0.001438  1
  Sn  Sn10  1  0.334183  0.668749  0.001438  1
  Sn  Sn11  1  0.000000  0.000000  0.668932  1
  Sn  Sn12  1  0.000000  0.000000  0.328648  1
