# generated using pymatgen
data_Er4Al17Si(Ir2Pd)2
_symmetry_space_group_name_H-M   'P 1'
_cell_length_a   7.55220965
_cell_length_b   7.55221777
_cell_length_c   9.38286300
_cell_angle_alpha   90.00000000
_cell_angle_beta   90.00000000
_cell_angle_gamma   119.55825003
_symmetry_Int_Tables_number   1
_chemical_formula_structural   Er4Al17Si(Ir2Pd)2
_chemical_formula_sum   'Er4 Al17 Si1 Ir4 Pd2'
_cell_volume   465.51169066
_cell_formula_units_Z   1
loop_
 _symmetry_equiv_pos_site_id
 _symmetry_equiv_pos_as_xyz
  1  'x, y, z'
loop_
 _atom_site_type_symbol
 _atom_site_label
 _atom_site_symmetry_multiplicity
 _atom_site_fract_x
 _atom_site_fract_y
 _atom_site_fract_z
 _atom_site_occupancy
  Er  Er0  1  0.994389  0.674896  0.250000  1
  Er  Er1  1  0.004596  0.329107  0.750000  1
  Er  Er2  1  0.674900  0.994388  0.250000  1
  Er  Er3  1  0.329103  0.004597  0.750000  1
  Al  Al4  1  0.871102  0.871102  0.750000  1
  Al  Al5  1  0.000621  0.339851  0.076847  1
  Al  Al6  1  0.999093  0.661198  0.923894  1
  Al  Al7  1  0.999093  0.661198  0.576106  1
  Al  Al8  1  0.339851  0.000621  0.423152  1
  Al  Al9  1  0.000621  0.339851  0.423153  1
  Al  Al10  1  0.661198  0.999093  0.576107  1
  Al  Al11  1  0.661198  0.999093  0.923893  1
  Al  Al12  1  0.339851  0.000621  0.076848  1
  Al  Al13  1  0.336108  0.336108  0.559846  1
  Al  Al14  1  0.662255  0.662255  0.443854  1
  Al  Al15  1  0.662255  0.662255  0.056146  1
  Al  Al16  1  0.336108  0.336108  0.940154  1
  Al  Al17  1  0.335068  0.549088  0.250000  1
  Al  Al18  1  0.661943  0.450663  0.750000  1
  Al  Al19  1  0.549088  0.335068  0.250000  1
  Al  Al20  1  0.450663  0.661943  0.750000  1
  Si  Si21  1  0.133567  0.133567  0.250000  1
  Ir  Ir22  1  0.670768  0.326897  0.000689  1
  Ir  Ir23  1  0.326895  0.670766  0.000689  1
  Ir  Ir24  1  0.326895  0.670766  0.499311  1
  Ir  Ir25  1  0.670768  0.326897  0.499311  1
  Pd  Pd26  1  0.001001  0.001001  0.004729  1
  Pd  Pd27  1  0.001001  0.001001  0.495271  1
