# generated using pymatgen
data_Rb4P2PdSe8
_symmetry_space_group_name_H-M   'P 1'
_cell_length_a   7.00194611
_cell_length_b   7.51119789
_cell_length_c   9.92720590
_cell_angle_alpha   87.60630333
_cell_angle_beta   82.34501441
_cell_angle_gamma   86.34436709
_symmetry_Int_Tables_number   1
_chemical_formula_structural   Rb4P2PdSe8
_chemical_formula_sum   'Rb4 P2 Pd1 Se8'
_cell_volume   516.10355062
_cell_formula_units_Z   1
loop_
 _symmetry_equiv_pos_site_id
 _symmetry_equiv_pos_as_xyz
  1  'x, y, z'
loop_
 _atom_site_type_symbol
 _atom_site_label
 _atom_site_symmetry_multiplicity
 _atom_site_fract_x
 _atom_site_fract_y
 _atom_site_fract_z
 _atom_site_occupancy
  Rb  Rb0  1  0.276532  0.337351  0.137995  1
  Rb  Rb1  1  0.745939  0.220999  0.479430  1
  Rb  Rb2  1  0.254061  0.779001  0.520570  1
  Rb  Rb3  1  0.723468  0.662649  0.862005  1
  P  P4  1  0.828342  0.733863  0.257570  1
  P  P5  1  0.171658  0.266137  0.742430  1
  Pd  Pd6  1  0.000000  0.000000  0.000000  1
  Se  Se7  1  0.684694  0.961795  0.142773  1
  Se  Se8  1  0.773737  0.473144  0.183238  1
  Se  Se9  1  0.133603  0.812079  0.180583  1
  Se  Se10  1  0.761263  0.746536  0.480156  1
  Se  Se11  1  0.238737  0.253464  0.519844  1
  Se  Se12  1  0.866397  0.187921  0.819417  1
  Se  Se13  1  0.226263  0.526856  0.816762  1
  Se  Se14  1  0.315306  0.038205  0.857227  1
