# generated using pymatgen
data_Sc12MnFe2Si12Ir
_symmetry_space_group_name_H-M   'P 1'
_cell_length_a   3.99425700
_cell_length_b   10.16198889
_cell_length_c   11.68466730
_cell_angle_alpha   89.76635837
_cell_angle_beta   90.00000000
_cell_angle_gamma   90.00000000
_symmetry_Int_Tables_number   1
_chemical_formula_structural   Sc12MnFe2Si12Ir
_chemical_formula_sum   'Sc12 Mn1 Fe2 Si12 Ir1'
_cell_volume   474.27197322
_cell_formula_units_Z   1
loop_
 _symmetry_equiv_pos_site_id
 _symmetry_equiv_pos_as_xyz
  1  'x, y, z'
loop_
 _atom_site_type_symbol
 _atom_site_label
 _atom_site_symmetry_multiplicity
 _atom_site_fract_x
 _atom_site_fract_y
 _atom_site_fract_z
 _atom_site_occupancy
  Sc  Sc0  1  0.250000  0.878291  0.022412  1
  Sc  Sc1  1  0.250000  0.618788  0.523765  1
  Sc  Sc2  1  0.750000  0.123579  0.979304  1
  Sc  Sc3  1  0.750000  0.381334  0.475964  1
  Sc  Sc4  1  0.250000  0.920535  0.604045  1
  Sc  Sc5  1  0.250000  0.578769  0.101282  1
  Sc  Sc6  1  0.750000  0.078495  0.398324  1
  Sc  Sc7  1  0.750000  0.422162  0.898229  1
  Sc  Sc8  1  0.250000  0.654247  0.797859  1
  Sc  Sc9  1  0.250000  0.834869  0.300009  1
  Sc  Sc10  1  0.750000  0.343046  0.201031  1
  Sc  Sc11  1  0.750000  0.164942  0.699396  1
  Mn  Mn12  1  0.250000  0.112838  0.177249  1
  Fe  Fe13  1  0.250000  0.390128  0.675746  1
  Fe  Fe14  1  0.750000  0.610360  0.323848  1
  Si  Si15  1  0.250000  0.016808  0.823441  1
  Si  Si16  1  0.250000  0.495745  0.321548  1
  Si  Si17  1  0.750000  0.984148  0.178325  1
  Si  Si18  1  0.750000  0.503468  0.678386  1
  Si  Si19  1  0.250000  0.256729  0.837641  1
  Si  Si20  1  0.250000  0.249789  0.341941  1
  Si  Si21  1  0.750000  0.743218  0.161822  1
  Si  Si22  1  0.750000  0.747233  0.657221  1
  Si  Si23  1  0.250000  0.200566  0.546250  1
  Si  Si24  1  0.250000  0.306776  0.043865  1
  Si  Si25  1  0.750000  0.799580  0.453878  1
  Si  Si26  1  0.750000  0.694366  0.955372  1
  Ir  Ir27  1  0.750000  0.889190  0.821850  1
