# generated using pymatgen
data_K5Tm(MoH9)3
_symmetry_space_group_name_H-M   'P 1'
_cell_length_a   9.47510600
_cell_length_b   9.24861059
_cell_length_c   5.44391300
_cell_angle_alpha   90.00000000
_cell_angle_beta   90.00000000
_cell_angle_gamma   119.21237062
_symmetry_Int_Tables_number   1
_chemical_formula_structural   K5Tm(MoH9)3
_chemical_formula_sum   'K5 Tm1 Mo3 H27'
_cell_volume   416.38474176
_cell_formula_units_Z   1
loop_
 _symmetry_equiv_pos_site_id
 _symmetry_equiv_pos_as_xyz
  1  'x, y, z'
loop_
 _atom_site_type_symbol
 _atom_site_label
 _atom_site_symmetry_multiplicity
 _atom_site_fract_x
 _atom_site_fract_y
 _atom_site_fract_z
 _atom_site_occupancy
  K  K0  1  0.728572  0.741412  0.500000  1
  K  K1  1  0.271428  0.012840  0.500000  1
  K  K2  1  0.000000  0.610414  0.000000  1
  K  K3  1  0.420191  0.395949  0.000000  1
  K  K4  1  0.579809  0.975758  0.000000  1
  Tm  Tm5  1  0.000000  0.252557  0.500000  1
  Mo  Mo6  1  0.714977  0.331724  0.500000  1
  Mo  Mo7  1  0.285023  0.616749  0.500000  1
  Mo  Mo8  1  0.000000  0.039646  0.000000  1
  H  H9  1  0.842928  0.325357  0.736165  1
  H  H10  1  0.723193  0.460750  0.740278  1
  H  H11  1  0.559762  0.201374  0.702210  1
  H  H12  1  0.157072  0.482430  0.263835  1
  H  H13  1  0.559762  0.201374  0.297790  1
  H  H14  1  0.842928  0.325357  0.263835  1
  H  H15  1  0.723193  0.460750  0.259722  1
  H  H16  1  0.276807  0.737558  0.740278  1
  H  H17  1  0.440238  0.641613  0.702210  1
  H  H18  1  0.179836  0.034354  0.000000  1
  H  H19  1  0.820164  0.854518  0.000000  1
  H  H20  1  0.000000  0.230342  0.000000  1
  H  H21  1  0.869341  0.037480  0.238900  1
  H  H22  1  0.130659  0.168138  0.761100  1
  H  H23  1  0.000000  0.900125  0.782105  1
  H  H24  1  0.000000  0.900125  0.217895  1
  H  H25  1  0.130659  0.168138  0.238900  1
  H  H26  1  0.869341  0.037480  0.761100  1
  H  H27  1  0.135554  0.679163  0.500000  1
  H  H28  1  0.438669  0.822103  0.500000  1
  H  H29  1  0.284383  0.425082  0.500000  1
  H  H30  1  0.561331  0.383434  0.500000  1
  H  H31  1  0.864446  0.543609  0.500000  1
  H  H32  1  0.715617  0.140699  0.500000  1
  H  H33  1  0.157072  0.482430  0.736165  1
  H  H34  1  0.276807  0.737558  0.259722  1
  H  H35  1  0.440238  0.641613  0.297790  1
