# generated using pymatgen
data_LiTb8Sc11Si15Os
_symmetry_space_group_name_H-M   'P 1'
_cell_length_a   7.06399661
_cell_length_b   7.44513867
_cell_length_c   14.00994200
_cell_angle_alpha   90.00000000
_cell_angle_beta   90.00000000
_cell_angle_gamma   90.03719592
_symmetry_Int_Tables_number   1
_chemical_formula_structural   LiTb8Sc11Si15Os
_chemical_formula_sum   'Li1 Tb8 Sc11 Si15 Os1'
_cell_volume   736.81679926
_cell_formula_units_Z   1
loop_
 _symmetry_equiv_pos_site_id
 _symmetry_equiv_pos_as_xyz
  1  'x, y, z'
loop_
 _atom_site_type_symbol
 _atom_site_label
 _atom_site_symmetry_multiplicity
 _atom_site_fract_x
 _atom_site_fract_y
 _atom_site_fract_z
 _atom_site_occupancy
  Li  Li0  1  0.840400  0.496366  0.250000  1
  Tb  Tb1  1  0.010292  0.184212  0.098428  1
  Tb  Tb2  1  0.990384  0.826879  0.903421  1
  Tb  Tb3  1  0.488635  0.675654  0.904633  1
  Tb  Tb4  1  0.990384  0.826879  0.596579  1
  Tb  Tb5  1  0.516202  0.325891  0.097947  1
  Tb  Tb6  1  0.010292  0.184212  0.401572  1
  Tb  Tb7  1  0.516202  0.325891  0.402053  1
  Tb  Tb8  1  0.488635  0.675654  0.595367  1
  Sc  Sc9  1  0.155609  0.495088  0.750000  1
  Sc  Sc10  1  0.340239  0.004036  0.250000  1
  Sc  Sc11  1  0.669760  0.000338  0.750000  1
  Sc  Sc12  1  0.317595  0.171289  0.627045  1
  Sc  Sc13  1  0.673966  0.819230  0.373241  1
  Sc  Sc14  1  0.164878  0.675438  0.373230  1
  Sc  Sc15  1  0.673966  0.819230  0.126759  1
  Sc  Sc16  1  0.836087  0.318217  0.627496  1
  Sc  Sc17  1  0.317595  0.171289  0.872955  1
  Sc  Sc18  1  0.836087  0.318217  0.872504  1
  Sc  Sc19  1  0.164878  0.675438  0.126770  1
  Si  Si20  1  0.969313  0.894758  0.250000  1
  Si  Si21  1  0.464942  0.614181  0.250000  1
  Si  Si22  1  0.529057  0.387357  0.750000  1
  Si  Si23  1  0.285956  0.868250  0.750000  1
  Si  Si24  1  0.713023  0.116867  0.250000  1
  Si  Si25  1  0.222195  0.374333  0.250000  1
  Si  Si26  1  0.779018  0.626132  0.750000  1
  Si  Si27  1  0.159015  0.468536  0.536709  1
  Si  Si28  1  0.844193  0.538556  0.465635  1
  Si  Si29  1  0.344413  0.966409  0.458943  1
  Si  Si30  1  0.844193  0.538556  0.034365  1
  Si  Si31  1  0.654115  0.034130  0.537734  1
  Si  Si32  1  0.159015  0.468536  0.963291  1
  Si  Si33  1  0.654115  0.034130  0.962266  1
  Si  Si34  1  0.344413  0.966409  0.041057  1
  Os  Os35  1  0.030937  0.113411  0.750000  1
