# generated using pymatgen
data_Hf16Sc2Re8PRu
_symmetry_space_group_name_H-M   'P 1'
_cell_length_a   8.61103238
_cell_length_b   8.59021799
_cell_length_c   8.56236600
_cell_angle_alpha   90.00000000
_cell_angle_beta   90.00000000
_cell_angle_gamma   119.92007500
_symmetry_Int_Tables_number   1
_chemical_formula_structural   Hf16Sc2Re8PRu
_chemical_formula_sum   'Hf16 Sc2 Re8 P1 Ru1'
_cell_volume   548.95030976
_cell_formula_units_Z   1
loop_
 _symmetry_equiv_pos_site_id
 _symmetry_equiv_pos_as_xyz
  1  'x, y, z'
loop_
 _atom_site_type_symbol
 _atom_site_label
 _atom_site_symmetry_multiplicity
 _atom_site_fract_x
 _atom_site_fract_y
 _atom_site_fract_z
 _atom_site_occupancy
  Hf  Hf0  1  0.197887  0.802204  0.447947  1
  Hf  Hf1  1  0.197887  0.395681  0.447947  1
  Hf  Hf2  1  0.605355  0.802676  0.446986  1
  Hf  Hf3  1  0.804980  0.194130  0.548613  1
  Hf  Hf4  1  0.804980  0.610850  0.548613  1
  Hf  Hf5  1  0.389475  0.194738  0.548862  1
  Hf  Hf6  1  0.804980  0.194130  0.951387  1
  Hf  Hf7  1  0.804980  0.610850  0.951387  1
  Hf  Hf8  1  0.389475  0.194738  0.951138  1
  Hf  Hf9  1  0.197887  0.802204  0.052053  1
  Hf  Hf10  1  0.197887  0.395681  0.052053  1
  Hf  Hf11  1  0.605355  0.802676  0.053014  1
  Hf  Hf12  1  0.542082  0.456942  0.250000  1
  Hf  Hf13  1  0.542082  0.085140  0.250000  1
  Hf  Hf14  1  0.915569  0.457785  0.250000  1
  Hf  Hf15  1  0.076149  0.538074  0.750000  1
  Sc  Sc16  1  0.460014  0.540223  0.750000  1
  Sc  Sc17  1  0.460014  0.919789  0.750000  1
  Re  Re18  1  0.890145  0.111045  0.250000  1
  Re  Re19  1  0.890145  0.779100  0.250000  1
  Re  Re20  1  0.221763  0.110882  0.250000  1
  Re  Re21  1  0.109211  0.889574  0.750000  1
  Re  Re22  1  0.109211  0.219638  0.750000  1
  Re  Re23  1  0.780669  0.890334  0.750000  1
  Re  Re24  1  0.000106  0.000053  0.499375  1
  Re  Re25  1  0.000106  0.000053  0.000625  1
  P  P26  1  0.668152  0.334076  0.750000  1
  Ru  Ru27  1  0.333457  0.666729  0.250000  1
