# generated using pymatgen
data_CsPa2Te5
_symmetry_space_group_name_H-M   'P 1'
_cell_length_a   10.36055421
_cell_length_b   10.36055370
_cell_length_c   10.36055412
_cell_angle_alpha   132.31155685
_cell_angle_beta   132.31155313
_cell_angle_gamma   69.73740448
_symmetry_Int_Tables_number   1
_chemical_formula_structural   CsPa2Te5
_chemical_formula_sum   'Cs2 Pa4 Te10'
_cell_volume   596.44665465
_cell_formula_units_Z   2
loop_
 _symmetry_equiv_pos_site_id
 _symmetry_equiv_pos_as_xyz
  1  'x, y, z'
loop_
 _atom_site_type_symbol
 _atom_site_label
 _atom_site_symmetry_multiplicity
 _atom_site_fract_x
 _atom_site_fract_y
 _atom_site_fract_z
 _atom_site_occupancy
  Cs  Cs0  1  0.750000  0.750000  0.000000  1
  Cs  Cs1  1  0.250000  0.250000  0.000000  1
  Pa  Pa2  1  0.653040  0.153040  0.806080  1
  Pa  Pa3  1  0.346960  0.846960  0.193920  1
  Pa  Pa4  1  0.153040  0.346960  0.500000  1
  Pa  Pa5  1  0.846960  0.653040  0.500000  1
  Te  Te6  1  0.029917  0.529917  0.792221  1
  Te  Te7  1  0.737695  0.237695  0.207779  1
  Te  Te8  1  0.529917  0.737695  0.500000  1
  Te  Te9  1  0.237695  0.029917  0.500000  1
  Te  Te10  1  0.970083  0.470083  0.207779  1
  Te  Te11  1  0.262305  0.762305  0.792221  1
  Te  Te12  1  0.470083  0.262305  0.500000  1
  Te  Te13  1  0.762305  0.970083  0.500000  1
  Te  Te14  1  0.000000  0.000000  0.000000  1
  Te  Te15  1  0.500000  0.500000  0.000000  1
