# generated using pymatgen
data_ZrMoIr6
_symmetry_space_group_name_H-M   'P 1'
_cell_length_a   5.60498900
_cell_length_b   5.60498850
_cell_length_c   4.50156700
_cell_angle_alpha   90.00000000
_cell_angle_beta   90.00000000
_cell_angle_gamma   120.00000883
_symmetry_Int_Tables_number   1
_chemical_formula_structural   ZrMoIr6
_chemical_formula_sum   'Zr1 Mo1 Ir6'
_cell_volume   122.47397183
_cell_formula_units_Z   1
loop_
 _symmetry_equiv_pos_site_id
 _symmetry_equiv_pos_as_xyz
  1  'x, y, z'
loop_
 _atom_site_type_symbol
 _atom_site_label
 _atom_site_symmetry_multiplicity
 _atom_site_fract_x
 _atom_site_fract_y
 _atom_site_fract_z
 _atom_site_occupancy
  Zr  Zr0  1  0.333333  0.666667  0.250000  1
  Mo  Mo1  1  0.666667  0.333333  0.750000  1
  Ir  Ir2  1  0.833113  0.666227  0.250000  1
  Ir  Ir3  1  0.160104  0.839896  0.750000  1
  Ir  Ir4  1  0.679794  0.839896  0.750000  1
  Ir  Ir5  1  0.333773  0.166887  0.250000  1
  Ir  Ir6  1  0.833113  0.166887  0.250000  1
  Ir  Ir7  1  0.160104  0.320206  0.750000  1
