# generated using pymatgen
data_HoZnCu3Ag
_symmetry_space_group_name_H-M   'P 1'
_cell_length_a   5.08085561
_cell_length_b   5.08085535
_cell_length_c   5.08085465
_cell_angle_alpha   60.22464076
_cell_angle_beta   60.22464147
_cell_angle_gamma   60.22463957
_symmetry_Int_Tables_number   1
_chemical_formula_structural   HoZnCu3Ag
_chemical_formula_sum   'Ho1 Zn1 Cu3 Ag1'
_cell_volume   93.21775489
_cell_formula_units_Z   1
loop_
 _symmetry_equiv_pos_site_id
 _symmetry_equiv_pos_as_xyz
  1  'x, y, z'
loop_
 _atom_site_type_symbol
 _atom_site_label
 _atom_site_symmetry_multiplicity
 _atom_site_fract_x
 _atom_site_fract_y
 _atom_site_fract_z
 _atom_site_occupancy
  Ho  Ho0  1  0.247922  0.247922  0.247922  1
  Zn  Zn1  1  0.627611  0.627611  0.627611  1
  Cu  Cu2  1  0.626236  0.626236  0.122869  1
  Cu  Cu3  1  0.626236  0.122869  0.626236  1
  Cu  Cu4  1  0.122869  0.626236  0.626236  1
  Ag  Ag5  1  0.999127  0.999127  0.999127  1
