# generated using pymatgen
data_HoLu5Zr2(Co4P3)4
_symmetry_space_group_name_H-M   'P 1'
_cell_length_a   3.69221000
_cell_length_b   10.63890600
_cell_length_c   12.32614200
_cell_angle_alpha   90.00000000
_cell_angle_beta   90.00000000
_cell_angle_gamma   90.00000000
_symmetry_Int_Tables_number   1
_chemical_formula_structural   HoLu5Zr2(Co4P3)4
_chemical_formula_sum   'Ho1 Lu5 Zr2 Co16 P12'
_cell_volume   484.18410987
_cell_formula_units_Z   1
loop_
 _symmetry_equiv_pos_site_id
 _symmetry_equiv_pos_as_xyz
  1  'x, y, z'
loop_
 _atom_site_type_symbol
 _atom_site_label
 _atom_site_symmetry_multiplicity
 _atom_site_fract_x
 _atom_site_fract_y
 _atom_site_fract_z
 _atom_site_occupancy
  Ho  Ho0  1  0.500000  0.000000  0.470121  1
  Lu  Lu1  1  0.000000  0.500000  0.529602  1
  Lu  Lu2  1  0.500000  0.822104  0.204614  1
  Lu  Lu3  1  0.500000  0.177896  0.204614  1
  Lu  Lu4  1  0.000000  0.677715  0.795258  1
  Lu  Lu5  1  0.000000  0.322285  0.795258  1
  Zr  Zr6  1  0.500000  0.500000  0.158769  1
  Zr  Zr7  1  0.000000  0.000000  0.841728  1
  Co  Co8  1  0.000000  0.500000  0.984971  1
  Co  Co9  1  0.500000  0.000000  0.014990  1
  Co  Co10  1  0.500000  0.295629  0.433525  1
  Co  Co11  1  0.500000  0.704371  0.433525  1
  Co  Co12  1  0.000000  0.205418  0.566666  1
  Co  Co13  1  0.000000  0.794582  0.566666  1
  Co  Co14  1  0.500000  0.876260  0.701652  1
  Co  Co15  1  0.500000  0.123740  0.701652  1
  Co  Co16  1  0.000000  0.623472  0.298617  1
  Co  Co17  1  0.000000  0.376528  0.298617  1
  Co  Co18  1  0.500000  0.331930  0.992353  1
  Co  Co19  1  0.500000  0.668070  0.992353  1
  Co  Co20  1  0.000000  0.168139  0.007633  1
  Co  Co21  1  0.000000  0.831861  0.007633  1
  Co  Co22  1  0.500000  0.500000  0.702775  1
  Co  Co23  1  0.000000  0.000000  0.296130  1
  P  P24  1  0.500000  0.312061  0.616504  1
  P  P25  1  0.500000  0.687939  0.616504  1
  P  P26  1  0.000000  0.188888  0.383143  1
  P  P27  1  0.000000  0.811112  0.383143  1
  P  P28  1  0.500000  0.500000  0.881723  1
  P  P29  1  0.000000  0.000000  0.118056  1
  P  P30  1  0.500000  0.836785  0.892473  1
  P  P31  1  0.500000  0.163215  0.892473  1
  P  P32  1  0.000000  0.663145  0.107527  1
  P  P33  1  0.000000  0.336855  0.107527  1
  P  P34  1  0.500000  0.500000  0.365169  1
  P  P35  1  0.000000  0.000000  0.636038  1
