# generated using pymatgen
data_Eu(PaSe3)2
_symmetry_space_group_name_H-M   'P 1'
_cell_length_a   7.78925900
_cell_length_b   7.78925947
_cell_length_c   4.17404300
_cell_angle_alpha   90.00000000
_cell_angle_beta   90.00000000
_cell_angle_gamma   119.99999376
_symmetry_Int_Tables_number   1
_chemical_formula_structural   Eu(PaSe3)2
_chemical_formula_sum   'Eu1 Pa2 Se6'
_cell_volume   219.32083637
_cell_formula_units_Z   1
loop_
 _symmetry_equiv_pos_site_id
 _symmetry_equiv_pos_as_xyz
  1  'x, y, z'
loop_
 _atom_site_type_symbol
 _atom_site_label
 _atom_site_symmetry_multiplicity
 _atom_site_fract_x
 _atom_site_fract_y
 _atom_site_fract_z
 _atom_site_occupancy
  Eu  Eu0  1  0.333333  0.666667  0.500000  1
  Pa  Pa1  1  0.666667  0.333333  0.500000  1
  Pa  Pa2  1  0.000000  0.000000  0.000000  1
  Se  Se3  1  0.745255  0.746067  0.500000  1
  Se  Se4  1  0.253933  0.999188  0.500000  1
  Se  Se5  1  0.000812  0.254745  0.500000  1
  Se  Se6  1  0.416881  0.386183  0.000000  1
  Se  Se7  1  0.613817  0.030698  0.000000  1
  Se  Se8  1  0.969302  0.583119  0.000000  1
