# generated using pymatgen
data_Dy4ScNb3(Co4P3)4
_symmetry_space_group_name_H-M   'P 1'
_cell_length_a   12.18216800
_cell_length_b   12.17168493
_cell_length_c   3.69146700
_cell_angle_alpha   90.00000000
_cell_angle_beta   90.00000000
_cell_angle_gamma   120.02848912
_symmetry_Int_Tables_number   1
_chemical_formula_structural   Dy4ScNb3(Co4P3)4
_chemical_formula_sum   'Dy4 Sc1 Nb3 Co16 P12'
_cell_volume   473.89285606
_cell_formula_units_Z   1
loop_
 _symmetry_equiv_pos_site_id
 _symmetry_equiv_pos_as_xyz
  1  'x, y, z'
loop_
 _atom_site_type_symbol
 _atom_site_label
 _atom_site_symmetry_multiplicity
 _atom_site_fract_x
 _atom_site_fract_y
 _atom_site_fract_z
 _atom_site_occupancy
  Dy  Dy0  1  0.999513  0.817092  0.500000  1
  Dy  Dy1  1  0.182422  0.182908  0.500000  1
  Dy  Dy2  1  0.333186  0.666415  0.000000  1
  Dy  Dy3  1  0.666772  0.333585  0.000000  1
  Sc  Sc4  1  0.815401  0.000000  0.500000  1
  Nb  Nb5  1  0.446441  0.000000  0.000000  1
  Nb  Nb6  1  0.999378  0.443458  0.000000  1
  Nb  Nb7  1  0.555920  0.556542  0.000000  1
  Co  Co8  1  0.279604  0.000000  0.500000  1
  Co  Co9  1  0.997514  0.276004  0.500000  1
  Co  Co10  1  0.721510  0.723996  0.500000  1
  Co  Co11  1  0.628900  0.806347  0.000000  1
  Co  Co12  1  0.197077  0.823432  0.000000  1
  Co  Co13  1  0.175615  0.372190  0.000000  1
  Co  Co14  1  0.373645  0.176568  0.000000  1
  Co  Co15  1  0.803425  0.627810  0.000000  1
  Co  Co16  1  0.822552  0.193653  0.000000  1
  Co  Co17  1  0.521446  0.873912  0.500000  1
  Co  Co18  1  0.126927  0.646127  0.500000  1
  Co  Co19  1  0.353400  0.480141  0.500000  1
  Co  Co20  1  0.480800  0.353873  0.500000  1
  Co  Co21  1  0.873259  0.519859  0.500000  1
  Co  Co22  1  0.647534  0.126088  0.500000  1
  Co  Co23  1  0.998096  0.000000  0.000000  1
  P  P24  1  0.177570  0.000000  0.000000  1
  P  P25  1  0.996081  0.174662  0.000000  1
  P  P26  1  0.821419  0.825338  0.000000  1
  P  P27  1  0.520921  0.689106  0.500000  1
  P  P28  1  0.311822  0.832174  0.500000  1
  P  P29  1  0.166865  0.477532  0.500000  1
  P  P30  1  0.479648  0.167826  0.500000  1
  P  P31  1  0.689334  0.522468  0.500000  1
  P  P32  1  0.831814  0.310894  0.500000  1
  P  P33  1  0.648185  0.000000  0.000000  1
  P  P34  1  0.000050  0.644095  0.000000  1
  P  P35  1  0.355955  0.355905  0.000000  1
