# generated using pymatgen
data_Ti4TcOs3
_symmetry_space_group_name_H-M   'P 1'
_cell_length_a   4.38175201
_cell_length_b   4.37460972
_cell_length_c   7.58370342
_cell_angle_alpha   73.25972587
_cell_angle_beta   90.00142699
_cell_angle_gamma   120.05293052
_symmetry_Int_Tables_number   1
_chemical_formula_structural   Ti4TcOs3
_chemical_formula_sum   'Ti4 Tc1 Os3'
_cell_volume   118.65468004
_cell_formula_units_Z   1
loop_
 _symmetry_equiv_pos_site_id
 _symmetry_equiv_pos_as_xyz
  1  'x, y, z'
loop_
 _atom_site_type_symbol
 _atom_site_label
 _atom_site_symmetry_multiplicity
 _atom_site_fract_x
 _atom_site_fract_y
 _atom_site_fract_z
 _atom_site_occupancy
  Ti  Ti0  1  0.000528  0.001052  0.998375  1
  Ti  Ti1  1  0.499470  0.998941  0.501560  1
  Ti  Ti2  1  0.250532  0.501060  0.248441  1
  Ti  Ti3  1  0.749474  0.498948  0.751626  1
  Tc  Tc4  1  0.374998  0.749999  0.875000  1
  Os  Os5  1  0.874999  0.749999  0.374999  1
  Os  Os6  1  0.624504  0.249004  0.126465  1
  Os  Os7  1  0.125497  0.250997  0.623535  1
