# generated using pymatgen
data_P4Ru7W
_symmetry_space_group_name_H-M   'P 1'
_cell_length_a   3.91412800
_cell_length_b   5.95929318
_cell_length_c   6.96359863
_cell_angle_alpha   88.30623541
_cell_angle_beta   90.00000000
_cell_angle_gamma   90.00000000
_symmetry_Int_Tables_number   1
_chemical_formula_structural   P4Ru7W
_chemical_formula_sum   'P4 Ru7 W1'
_cell_volume   162.35800830
_cell_formula_units_Z   1
loop_
 _symmetry_equiv_pos_site_id
 _symmetry_equiv_pos_as_xyz
  1  'x, y, z'
loop_
 _atom_site_type_symbol
 _atom_site_label
 _atom_site_symmetry_multiplicity
 _atom_site_fract_x
 _atom_site_fract_y
 _atom_site_fract_z
 _atom_site_occupancy
  P  P0  1  0.250000  0.241118  0.893823  1
  P  P1  1  0.250000  0.747644  0.612770  1
  P  P2  1  0.750000  0.747945  0.108656  1
  P  P3  1  0.750000  0.255716  0.381822  1
  Ru  Ru4  1  0.250000  0.855168  0.921765  1
  Ru  Ru5  1  0.250000  0.363219  0.580753  1
  Ru  Ru6  1  0.750000  0.138167  0.072689  1
  Ru  Ru7  1  0.750000  0.639614  0.424717  1
  Ru  Ru8  1  0.250000  0.996253  0.351419  1
  Ru  Ru9  1  0.250000  0.464716  0.157799  1
  Ru  Ru10  1  0.750000  0.030306  0.657715  1
  W  W11  1  0.750000  0.520136  0.836071  1
