# generated using pymatgen
data_Zr5ZnSb2
_symmetry_space_group_name_H-M   'P 1'
_cell_length_a   5.55541743
_cell_length_b   8.35701558
_cell_length_c   8.35701604
_cell_angle_alpha   83.65720590
_cell_angle_beta   70.58667351
_cell_angle_gamma   70.58668204
_symmetry_Int_Tables_number   1
_chemical_formula_structural   Zr5ZnSb2
_chemical_formula_sum   'Zr10 Zn2 Sb4'
_cell_volume   345.12502037
_cell_formula_units_Z   2
loop_
 _symmetry_equiv_pos_site_id
 _symmetry_equiv_pos_as_xyz
  1  'x, y, z'
loop_
 _atom_site_type_symbol
 _atom_site_label
 _atom_site_symmetry_multiplicity
 _atom_site_fract_x
 _atom_site_fract_y
 _atom_site_fract_z
 _atom_site_occupancy
  Zr  Zr0  1  0.250000  0.500000  0.500000  1
  Zr  Zr1  1  0.750000  0.500000  0.500000  1
  Zr  Zr2  1  0.075711  0.139058  0.709520  1
  Zr  Zr3  1  0.924289  0.860942  0.290480  1
  Zr  Zr4  1  0.785231  0.290480  0.139058  1
  Zr  Zr5  1  0.424289  0.290480  0.860942  1
  Zr  Zr6  1  0.214769  0.709520  0.860942  1
  Zr  Zr7  1  0.575711  0.709520  0.139058  1
  Zr  Zr8  1  0.714769  0.860942  0.709520  1
  Zr  Zr9  1  0.285231  0.139058  0.290480  1
  Zn  Zn10  1  0.250000  0.000000  0.000000  1
  Zn  Zn11  1  0.750000  0.000000  0.000000  1
  Sb  Sb12  1  0.163982  0.500000  0.172035  1
  Sb  Sb13  1  0.836018  0.500000  0.827965  1
  Sb  Sb14  1  0.336018  0.827965  0.500000  1
  Sb  Sb15  1  0.663982  0.172035  0.500000  1
