# generated using pymatgen
data_Dy12GaCo3SiBi
_symmetry_space_group_name_H-M   'P 1'
_cell_length_a   8.40225654
_cell_length_b   8.40225550
_cell_length_c   8.40225631
_cell_angle_alpha   105.06858759
_cell_angle_beta   110.68621530
_cell_angle_gamma   112.75397388
_symmetry_Int_Tables_number   1
_chemical_formula_structural   Dy12GaCo3SiBi
_chemical_formula_sum   'Dy12 Ga1 Co3 Si1 Bi1'
_cell_volume   454.46887290
_cell_formula_units_Z   1
loop_
 _symmetry_equiv_pos_site_id
 _symmetry_equiv_pos_as_xyz
  1  'x, y, z'
loop_
 _atom_site_type_symbol
 _atom_site_label
 _atom_site_symmetry_multiplicity
 _atom_site_fract_x
 _atom_site_fract_y
 _atom_site_fract_z
 _atom_site_occupancy
  Dy  Dy0  1  0.301354  0.271981  0.573334  1
  Dy  Dy1  1  0.704251  0.727952  0.432203  1
  Dy  Dy2  1  0.301354  0.728019  0.029371  1
  Dy  Dy3  1  0.704251  0.272048  0.976300  1
  Dy  Dy4  1  0.185887  0.494016  0.304111  1
  Dy  Dy5  1  0.185887  0.881777  0.691872  1
  Dy  Dy6  1  0.810096  0.505984  0.691872  1
  Dy  Dy7  1  0.810096  0.118223  0.304111  1
  Dy  Dy8  1  0.406031  0.219341  0.186689  1
  Dy  Dy9  1  0.037659  0.218526  0.819133  1
  Dy  Dy10  1  0.967348  0.780659  0.186689  1
  Dy  Dy11  1  0.600608  0.781474  0.819133  1
  Ga  Ga12  1  0.505645  0.500000  0.005645  1
  Co  Co13  1  0.852390  0.500000  0.352390  1
  Co  Co14  1  0.000189  0.108702  0.108891  1
  Co  Co15  1  0.000189  0.891298  0.891487  1
  Si  Si16  1  0.121852  0.500000  0.621852  1
  Bi  Bi17  1  0.504915  0.000000  0.504915  1
