# generated using pymatgen
data_Ac2La2MgRu
_symmetry_space_group_name_H-M   'P 1'
_cell_length_a   10.33753168
_cell_length_b   10.33753075
_cell_length_c   10.37514300
_cell_angle_alpha   59.87956576
_cell_angle_beta   59.87956874
_cell_angle_gamma   60.24086168
_symmetry_Int_Tables_number   1
_chemical_formula_structural   Ac2La2MgRu
_chemical_formula_sum   'Ac8 La8 Mg4 Ru4'
_cell_volume   783.97318431
_cell_formula_units_Z   4
loop_
 _symmetry_equiv_pos_site_id
 _symmetry_equiv_pos_as_xyz
  1  'x, y, z'
loop_
 _atom_site_type_symbol
 _atom_site_label
 _atom_site_symmetry_multiplicity
 _atom_site_fract_x
 _atom_site_fract_y
 _atom_site_fract_z
 _atom_site_occupancy
  Ac  Ac0  1  0.186121  0.186121  0.813879  1
  Ac  Ac1  1  0.813879  0.813879  0.186121  1
  Ac  Ac2  1  0.941719  0.558281  0.558281  1
  Ac  Ac3  1  0.558281  0.941719  0.941719  1
  Ac  Ac4  1  0.558281  0.941719  0.558281  1
  Ac  Ac5  1  0.941719  0.558281  0.941719  1
  Ac  Ac6  1  0.558134  0.558134  0.941866  1
  Ac  Ac7  1  0.941866  0.941866  0.558134  1
  La  La8  1  0.342897  0.342897  0.341566  1
  La  La9  1  0.342897  0.342897  0.972639  1
  La  La10  1  0.341566  0.972639  0.342897  1
  La  La11  1  0.972639  0.341566  0.342897  1
  La  La12  1  0.813765  0.186235  0.186235  1
  La  La13  1  0.186235  0.813765  0.813765  1
  La  La14  1  0.186235  0.813765  0.186235  1
  La  La15  1  0.813765  0.186235  0.813765  1
  Mg  Mg16  1  0.575505  0.575505  0.578377  1
  Mg  Mg17  1  0.575505  0.575505  0.270613  1
  Mg  Mg18  1  0.578377  0.270613  0.575505  1
  Mg  Mg19  1  0.270613  0.578377  0.575505  1
  Ru  Ru20  1  0.135420  0.135420  0.144194  1
  Ru  Ru21  1  0.135420  0.135420  0.584969  1
  Ru  Ru22  1  0.144194  0.584969  0.135420  1
  Ru  Ru23  1  0.584969  0.144194  0.135420  1
