# generated using pymatgen
data_Dy8Ti8NbSi16Mo3
_symmetry_space_group_name_H-M   'P 1'
_cell_length_a   7.00869168
_cell_length_b   7.00869082
_cell_length_c   12.88686683
_cell_angle_alpha   89.95861010
_cell_angle_beta   90.04139116
_cell_angle_gamma   90.03594972
_symmetry_Int_Tables_number   1
_chemical_formula_structural   Dy8Ti8NbSi16Mo3
_chemical_formula_sum   'Dy8 Ti8 Nb1 Si16 Mo3'
_cell_volume   633.02503512
_cell_formula_units_Z   1
loop_
 _symmetry_equiv_pos_site_id
 _symmetry_equiv_pos_as_xyz
  1  'x, y, z'
loop_
 _atom_site_type_symbol
 _atom_site_label
 _atom_site_symmetry_multiplicity
 _atom_site_fract_x
 _atom_site_fract_y
 _atom_site_fract_z
 _atom_site_occupancy
  Dy  Dy0  1  0.998558  0.659819  0.032991  1
  Dy  Dy1  1  0.000518  0.340598  0.532889  1
  Dy  Dy2  1  0.659819  0.998558  0.967009  1
  Dy  Dy3  1  0.158690  0.501163  0.781877  1
  Dy  Dy4  1  0.840959  0.499858  0.283358  1
  Dy  Dy5  1  0.501163  0.158690  0.218123  1
  Dy  Dy6  1  0.499858  0.840959  0.716642  1
  Dy  Dy7  1  0.340598  0.000518  0.467111  1
  Ti  Ti8  1  0.346566  0.509094  0.374509  1
  Ti  Ti9  1  0.847066  0.990806  0.376426  1
  Ti  Ti10  1  0.009041  0.153166  0.124058  1
  Ti  Ti11  1  0.990806  0.847066  0.623574  1
  Ti  Ti12  1  0.509094  0.346566  0.625491  1
  Ti  Ti13  1  0.153166  0.009041  0.875942  1
  Ti  Ti14  1  0.491619  0.652956  0.126616  1
  Ti  Ti15  1  0.652956  0.491619  0.873384  1
  Nb  Nb16  1  0.326003  0.326003  0.000000  1
  Si  Si17  1  0.047475  0.708372  0.435037  1
  Si  Si18  1  0.950765  0.291961  0.934198  1
  Si  Si19  1  0.708372  0.047475  0.564963  1
  Si  Si20  1  0.207626  0.453822  0.186545  1
  Si  Si21  1  0.791132  0.547702  0.684492  1
  Si  Si22  1  0.453822  0.207626  0.813455  1
  Si  Si23  1  0.547702  0.791132  0.315508  1
  Si  Si24  1  0.291961  0.950765  0.065802  1
  Si  Si25  1  0.798789  0.870368  0.185023  1
  Si  Si26  1  0.299092  0.629713  0.565181  1
  Si  Si27  1  0.703533  0.369703  0.065196  1
  Si  Si28  1  0.629713  0.299092  0.434819  1
  Si  Si29  1  0.369703  0.703533  0.934804  1
  Si  Si30  1  0.129802  0.201207  0.315295  1
  Si  Si31  1  0.201207  0.129802  0.684705  1
  Si  Si32  1  0.870368  0.798789  0.814977  1
  Mo  Mo33  1  0.673516  0.673516  0.500000  1
  Mo  Mo34  1  0.825835  0.173102  0.749065  1
  Mo  Mo35  1  0.173102  0.825835  0.250935  1
