# generated using pymatgen
data_Ti6P7W6
_symmetry_space_group_name_H-M   'P 1'
_cell_length_a   9.76764200
_cell_length_b   9.76764191
_cell_length_c   3.33888000
_cell_angle_alpha   90.00000000
_cell_angle_beta   90.00000000
_cell_angle_gamma   120.00000031
_symmetry_Int_Tables_number   1
_chemical_formula_structural   Ti6P7W6
_chemical_formula_sum   'Ti6 P7 W6'
_cell_volume   275.87408400
_cell_formula_units_Z   1
loop_
 _symmetry_equiv_pos_site_id
 _symmetry_equiv_pos_as_xyz
  1  'x, y, z'
loop_
 _atom_site_type_symbol
 _atom_site_label
 _atom_site_symmetry_multiplicity
 _atom_site_fract_x
 _atom_site_fract_y
 _atom_site_fract_z
 _atom_site_occupancy
  Ti  Ti0  1  0.518597  0.135333  0.500000  1
  Ti  Ti1  1  0.616736  0.481403  0.500000  1
  Ti  Ti2  1  0.864667  0.383264  0.500000  1
  Ti  Ti3  1  0.799612  0.006986  0.500000  1
  Ti  Ti4  1  0.207375  0.200388  0.500000  1
  Ti  Ti5  1  0.993014  0.792625  0.500000  1
  P  P6  1  0.000000  0.000000  0.000000  1
  P  P7  1  0.438583  0.281524  0.000000  1
  P  P8  1  0.842942  0.561417  0.000000  1
  P  P9  1  0.718476  0.157058  0.000000  1
  P  P10  1  0.168324  0.462250  0.500000  1
  P  P11  1  0.293925  0.831676  0.500000  1
  P  P12  1  0.537750  0.706075  0.500000  1
  W  W13  1  0.370636  0.504715  0.000000  1
  W  W14  1  0.134078  0.629364  0.000000  1
  W  W15  1  0.495285  0.865922  0.000000  1
  W  W16  1  0.014510  0.265938  0.000000  1
  W  W17  1  0.251428  0.985490  0.000000  1
  W  W18  1  0.734062  0.748572  0.000000  1
