# generated using pymatgen
data_Na3Ir3O8
_symmetry_space_group_name_H-M   'P 1'
_cell_length_a   8.98836100
_cell_length_b   8.98836100
_cell_length_c   8.98836100
_cell_angle_alpha   90.00000000
_cell_angle_beta   90.00000000
_cell_angle_gamma   90.00000000
_symmetry_Int_Tables_number   1
_chemical_formula_structural   Na3Ir3O8
_chemical_formula_sum   'Na12 Ir12 O32'
_cell_volume   726.17537901
_cell_formula_units_Z   4
loop_
 _symmetry_equiv_pos_site_id
 _symmetry_equiv_pos_as_xyz
  1  'x, y, z'
loop_
 _atom_site_type_symbol
 _atom_site_label
 _atom_site_symmetry_multiplicity
 _atom_site_fract_x
 _atom_site_fract_y
 _atom_site_fract_z
 _atom_site_occupancy
  Na  Na0  1  0.002984  0.002984  0.002984  1
  Na  Na1  1  0.125000  0.875000  0.375000  1
  Na  Na2  1  0.247016  0.247016  0.247016  1
  Na  Na3  1  0.252984  0.752984  0.747016  1
  Na  Na4  1  0.375000  0.125000  0.875000  1
  Na  Na5  1  0.497016  0.997016  0.502984  1
  Na  Na6  1  0.502984  0.497016  0.997016  1
  Na  Na7  1  0.625000  0.625000  0.625000  1
  Na  Na8  1  0.747016  0.252984  0.752984  1
  Na  Na9  1  0.752984  0.747016  0.252984  1
  Na  Na10  1  0.875000  0.375000  0.125000  1
  Na  Na11  1  0.997016  0.502984  0.497016  1
  Ir  Ir12  1  0.118681  0.131319  0.625000  1
  Ir  Ir13  1  0.125000  0.381319  0.868681  1
  Ir  Ir14  1  0.131319  0.625000  0.118681  1
  Ir  Ir15  1  0.368681  0.375000  0.618681  1
  Ir  Ir16  1  0.375000  0.618681  0.368681  1
  Ir  Ir17  1  0.381319  0.868681  0.125000  1
  Ir  Ir18  1  0.618681  0.368681  0.375000  1
  Ir  Ir19  1  0.625000  0.118681  0.131319  1
  Ir  Ir20  1  0.631319  0.875000  0.881319  1
  Ir  Ir21  1  0.868681  0.125000  0.381319  1
  Ir  Ir22  1  0.875000  0.881319  0.631319  1
  Ir  Ir23  1  0.881319  0.631319  0.875000  1
  O  O24  1  0.088443  0.135438  0.406757  1
  O  O25  1  0.093243  0.911557  0.635438  1
  O  O26  1  0.109837  0.609837  0.890163  1
  O  O27  1  0.135438  0.406757  0.088443  1
  O  O28  1  0.114562  0.161557  0.843243  1
  O  O29  1  0.140163  0.359837  0.640163  1
  O  O30  1  0.156757  0.614562  0.338443  1
  O  O31  1  0.161557  0.843243  0.114562  1
  O  O32  1  0.338443  0.156757  0.614562  1
  O  O33  1  0.343243  0.385438  0.838443  1
  O  O34  1  0.359837  0.640163  0.140163  1
  O  O35  1  0.385438  0.838443  0.343243  1
  O  O36  1  0.364562  0.593243  0.588443  1
  O  O37  1  0.390163  0.390163  0.390163  1
  O  O38  1  0.406757  0.088443  0.135438  1
  O  O39  1  0.411557  0.864562  0.906757  1
  O  O40  1  0.588443  0.364562  0.593243  1
  O  O41  1  0.593243  0.588443  0.364562  1
  O  O42  1  0.609837  0.890163  0.109837  1
  O  O43  1  0.635438  0.093243  0.911557  1
  O  O44  1  0.614562  0.338443  0.156757  1
  O  O45  1  0.640163  0.140163  0.359837  1
  O  O46  1  0.656757  0.885438  0.661557  1
  O  O47  1  0.661557  0.656757  0.885438  1
  O  O48  1  0.838443  0.343243  0.385438  1
  O  O49  1  0.843243  0.114562  0.161557  1
  O  O50  1  0.859837  0.859837  0.859837  1
  O  O51  1  0.885438  0.661557  0.656757  1
  O  O52  1  0.864562  0.906757  0.411557  1
  O  O53  1  0.890163  0.109837  0.609837  1
  O  O54  1  0.906757  0.411557  0.864562  1
  O  O55  1  0.911557  0.635438  0.093243  1
