# generated using pymatgen
data_Tb6Er9TmCd2(InIr2)2
_symmetry_space_group_name_H-M   'P 1'
_cell_length_a   9.59107548
_cell_length_b   9.59107644
_cell_length_c   9.59373100
_cell_angle_alpha   59.99084052
_cell_angle_beta   59.99083720
_cell_angle_gamma   59.97178498
_symmetry_Int_Tables_number   1
_chemical_formula_structural   Tb6Er9TmCd2(InIr2)2
_chemical_formula_sum   'Tb6 Er9 Tm1 Cd2 In2 Ir4'
_cell_volume   623.81294492
_cell_formula_units_Z   1
loop_
 _symmetry_equiv_pos_site_id
 _symmetry_equiv_pos_as_xyz
  1  'x, y, z'
loop_
 _atom_site_type_symbol
 _atom_site_label
 _atom_site_symmetry_multiplicity
 _atom_site_fract_x
 _atom_site_fract_y
 _atom_site_fract_z
 _atom_site_occupancy
  Tb  Tb0  1  0.190101  0.811202  0.810383  1
  Tb  Tb1  1  0.811188  0.190094  0.188323  1
  Tb  Tb2  1  0.811156  0.190140  0.810379  1
  Tb  Tb3  1  0.190115  0.811158  0.188353  1
  Tb  Tb4  1  0.811394  0.811409  0.188607  1
  Tb  Tb5  1  0.189961  0.189969  0.810039  1
  Er  Er6  1  0.599174  0.599140  0.597545  1
  Er  Er7  1  0.599170  0.599151  0.204127  1
  Er  Er8  1  0.600097  0.202666  0.598614  1
  Er  Er9  1  0.202659  0.600094  0.598628  1
  Er  Er10  1  0.060425  0.438247  0.439817  1
  Er  Er11  1  0.438257  0.060408  0.061532  1
  Er  Er12  1  0.438246  0.060426  0.439820  1
  Er  Er13  1  0.060416  0.438235  0.061501  1
  Er  Er14  1  0.438553  0.438542  0.061444  1
  Tm  Tm15  1  0.059918  0.059889  0.440098  1
  Cd  Cd16  1  0.830334  0.506270  0.831685  1
  Cd  Cd17  1  0.506254  0.830362  0.831689  1
  In  In18  1  0.830809  0.830817  0.831883  1
  In  In19  1  0.830846  0.830821  0.506488  1
  Ir  Ir20  1  0.391838  0.391923  0.391337  1
  Ir  Ir21  1  0.391885  0.391841  0.824933  1
  Ir  Ir22  1  0.391603  0.825566  0.391395  1
  Ir  Ir23  1  0.825600  0.391629  0.391379  1
