# generated using pymatgen
data_Dy2Sc2Al17GeIr6
_symmetry_space_group_name_H-M   'P 1'
_cell_length_a   7.51922223
_cell_length_b   7.51922160
_cell_length_c   9.38666700
_cell_angle_alpha   90.00000000
_cell_angle_beta   90.00000000
_cell_angle_gamma   119.67999687
_symmetry_Int_Tables_number   1
_chemical_formula_structural   Dy2Sc2Al17GeIr6
_chemical_formula_sum   'Dy2 Sc2 Al17 Ge1 Ir6'
_cell_volume   461.08314370
_cell_formula_units_Z   1
loop_
 _symmetry_equiv_pos_site_id
 _symmetry_equiv_pos_as_xyz
  1  'x, y, z'
loop_
 _atom_site_type_symbol
 _atom_site_label
 _atom_site_symmetry_multiplicity
 _atom_site_fract_x
 _atom_site_fract_y
 _atom_site_fract_z
 _atom_site_occupancy
  Dy  Dy0  1  0.994475  0.676787  0.750000  1
  Dy  Dy1  1  0.676787  0.994475  0.750000  1
  Sc  Sc2  1  0.002760  0.328102  0.250000  1
  Sc  Sc3  1  0.328102  0.002760  0.250000  1
  Al  Al4  1  0.878221  0.878221  0.250000  1
  Al  Al5  1  0.000878  0.337557  0.569780  1
  Al  Al6  1  0.001989  0.664917  0.417873  1
  Al  Al7  1  0.001989  0.664917  0.082127  1
  Al  Al8  1  0.337557  0.000878  0.930220  1
  Al  Al9  1  0.000878  0.337557  0.930220  1
  Al  Al10  1  0.664917  0.001989  0.082127  1
  Al  Al11  1  0.664917  0.001989  0.417873  1
  Al  Al12  1  0.337557  0.000878  0.569780  1
  Al  Al13  1  0.329177  0.329177  0.066990  1
  Al  Al14  1  0.663120  0.663120  0.952168  1
  Al  Al15  1  0.663120  0.663120  0.547832  1
  Al  Al16  1  0.329177  0.329177  0.433010  1
  Al  Al17  1  0.337089  0.552356  0.750000  1
  Al  Al18  1  0.660466  0.445602  0.250000  1
  Al  Al19  1  0.552356  0.337089  0.750000  1
  Al  Al20  1  0.445602  0.660466  0.250000  1
  Ge  Ge21  1  0.136566  0.136566  0.750000  1
  Ir  Ir22  1  0.669774  0.326594  0.498973  1
  Ir  Ir23  1  0.326594  0.669774  0.498973  1
  Ir  Ir24  1  0.326594  0.669774  0.001027  1
  Ir  Ir25  1  0.669774  0.326594  0.001027  1
  Ir  Ir26  1  0.999781  0.999781  0.499862  1
  Ir  Ir27  1  0.999781  0.999781  0.000138  1
