# generated using pymatgen
data_Dy3Tm2(SiBi)2
_symmetry_space_group_name_H-M   'P 1'
_cell_length_a   8.61135654
_cell_length_b   8.64446265
_cell_length_c   7.88709251
_cell_angle_alpha   90.22695154
_cell_angle_beta   90.15655821
_cell_angle_gamma   125.72983326
_symmetry_Int_Tables_number   1
_chemical_formula_structural   Dy3Tm2(SiBi)2
_chemical_formula_sum   'Dy6 Tm4 Si4 Bi4'
_cell_volume   476.59867551
_cell_formula_units_Z   2
loop_
 _symmetry_equiv_pos_site_id
 _symmetry_equiv_pos_as_xyz
  1  'x, y, z'
loop_
 _atom_site_type_symbol
 _atom_site_label
 _atom_site_symmetry_multiplicity
 _atom_site_fract_x
 _atom_site_fract_y
 _atom_site_fract_z
 _atom_site_occupancy
  Dy  Dy0  1  0.457162  0.212592  0.834752  1
  Dy  Dy1  1  0.788588  0.543662  0.165778  1
  Dy  Dy2  1  0.542838  0.787408  0.165248  1
  Dy  Dy3  1  0.211412  0.456338  0.834222  1
  Dy  Dy4  1  0.711646  0.956330  0.665386  1
  Dy  Dy5  1  0.288354  0.043670  0.334614  1
  Tm  Tm6  1  0.043544  0.283284  0.336251  1
  Tm  Tm7  1  0.956456  0.716716  0.663749  1
  Tm  Tm8  1  0.000000  0.000000  0.000000  1
  Tm  Tm9  1  0.500000  0.500000  0.500000  1
  Si  Si10  1  0.363803  0.365183  0.134542  1
  Si  Si11  1  0.636197  0.634817  0.865458  1
  Si  Si12  1  0.133476  0.133399  0.631836  1
  Si  Si13  1  0.866524  0.866601  0.368164  1
  Bi  Bi14  1  0.793940  0.207021  0.003113  1
  Bi  Bi15  1  0.206060  0.792979  0.996887  1
  Bi  Bi16  1  0.711911  0.296012  0.501534  1
  Bi  Bi17  1  0.288089  0.703988  0.498466  1
