# generated using pymatgen
data_NdTm3(Si4Tc3)2
_symmetry_space_group_name_H-M   'P 1'
_cell_length_a   6.79328006
_cell_length_b   6.76411285
_cell_length_c   6.77057100
_cell_angle_alpha   69.91192348
_cell_angle_beta   89.99213091
_cell_angle_gamma   88.84912105
_symmetry_Int_Tables_number   1
_chemical_formula_structural   NdTm3(Si4Tc3)2
_chemical_formula_sum   'Nd1 Tm3 Si8 Tc6'
_cell_volume   292.11847736
_cell_formula_units_Z   1
loop_
 _symmetry_equiv_pos_site_id
 _symmetry_equiv_pos_as_xyz
  1  'x, y, z'
loop_
 _atom_site_type_symbol
 _atom_site_label
 _atom_site_symmetry_multiplicity
 _atom_site_fract_x
 _atom_site_fract_y
 _atom_site_fract_z
 _atom_site_occupancy
  Nd  Nd0  1  0.336824  0.556481  0.812252  1
  Tm  Tm1  1  0.831891  0.940587  0.190005  1
  Tm  Tm2  1  0.672004  0.445800  0.191305  1
  Tm  Tm3  1  0.168864  0.061097  0.805787  1
  Si  Si4  1  0.549104  0.881338  0.903087  1
  Si  Si5  1  0.057892  0.615544  0.112347  1
  Si  Si6  1  0.453469  0.126457  0.102400  1
  Si  Si7  1  0.945371  0.376233  0.898030  1
  Si  Si8  1  0.134214  0.866669  0.493298  1
  Si  Si9  1  0.644480  0.632700  0.510194  1
  Si  Si10  1  0.857089  0.129226  0.508769  1
  Si  Si11  1  0.351566  0.371147  0.467204  1
  Tc  Tc12  1  0.502002  0.008823  0.497369  1
  Tc  Tc13  1  0.998926  0.499105  0.498311  1
  Tc  Tc14  1  0.846362  0.758637  0.766670  1
  Tc  Tc15  1  0.350954  0.755691  0.246111  1
  Tc  Tc16  1  0.140556  0.223246  0.236110  1
  Tc  Tc17  1  0.658432  0.251218  0.760749  1
