# generated using pymatgen
data_Rb5Mn4Tl3S4(O4F3)4
_symmetry_space_group_name_H-M   'P 1'
_cell_length_a   11.36641800
_cell_length_b   7.48220557
_cell_length_c   8.94543000
_cell_angle_alpha   86.77934547
_cell_angle_beta   90.00000000
_cell_angle_gamma   90.00000000
_symmetry_Int_Tables_number   1
_chemical_formula_structural   Rb5Mn4Tl3S4(O4F3)4
_chemical_formula_sum   'Rb5 Mn4 Tl3 S4 O16 F12'
_cell_volume   759.57035024
_cell_formula_units_Z   1
loop_
 _symmetry_equiv_pos_site_id
 _symmetry_equiv_pos_as_xyz
  1  'x, y, z'
loop_
 _atom_site_type_symbol
 _atom_site_label
 _atom_site_symmetry_multiplicity
 _atom_site_fract_x
 _atom_site_fract_y
 _atom_site_fract_z
 _atom_site_occupancy
  Rb  Rb0  1  0.308634  0.300652  0.170538  1
  Rb  Rb1  1  0.308994  0.809215  0.832183  1
  Rb  Rb2  1  0.809370  0.190568  0.668066  1
  Rb  Rb3  1  0.691942  0.190184  0.167640  1
  Rb  Rb4  1  0.189813  0.807657  0.332434  1
  Mn  Mn5  1  0.500103  0.000429  0.499851  1
  Mn  Mn6  1  0.000097  0.999833  0.000275  1
  Mn  Mn7  1  0.499953  0.500330  0.499979  1
  Mn  Mn8  1  0.999782  0.500035  0.999945  1
  Tl  Tl9  1  0.192483  0.304578  0.666123  1
  Tl  Tl10  1  0.692921  0.695507  0.835555  1
  Tl  Tl11  1  0.807073  0.695225  0.335297  1
  S  S12  1  0.501245  0.252062  0.803198  1
  S  S13  1  0.001057  0.747414  0.696337  1
  S  S14  1  0.498689  0.748737  0.196172  1
  S  S15  1  0.998963  0.252812  0.303478  1
  O  O16  1  0.404201  0.178054  0.895837  1
  O  O17  1  0.903731  0.821359  0.603248  1
  O  O18  1  0.596629  0.822253  0.103900  1
  O  O19  1  0.097076  0.179197  0.395565  1
  O  O20  1  0.593414  0.336775  0.890806  1
  O  O21  1  0.093209  0.662644  0.608952  1
  O  O22  1  0.406886  0.664045  0.108982  1
  O  O23  1  0.906961  0.336500  0.391802  1
  O  O24  1  0.444197  0.395338  0.694784  1
  O  O25  1  0.943922  0.604627  0.804737  1
  O  O26  1  0.555444  0.605870  0.305213  1
  O  O27  1  0.055325  0.395870  0.195104  1
  O  O28  1  0.054656  0.888623  0.787050  1
  O  O29  1  0.555202  0.111744  0.711717  1
  O  O30  1  0.945315  0.111340  0.213027  1
  O  O31  1  0.445056  0.890525  0.286551  1
  F  F32  1  0.340966  0.520254  0.444313  1
  F  F33  1  0.840831  0.478528  0.054546  1
  F  F34  1  0.658780  0.478526  0.554502  1
  F  F35  1  0.158254  0.522033  0.944701  1
  F  F36  1  0.159365  0.022642  0.046778  1
  F  F37  1  0.659405  0.977238  0.453754  1
  F  F38  1  0.840749  0.976784  0.954066  1
  F  F39  1  0.340482  0.023814  0.544662  1
  F  F40  1  0.002260  0.762750  0.099716  1
  F  F41  1  0.501474  0.237347  0.398712  1
  F  F42  1  0.997793  0.236931  0.900636  1
  F  F43  1  0.497298  0.763150  0.599269  1
