# generated using pymatgen
data_LaYb2(HgPd)3
_symmetry_space_group_name_H-M   'P 1'
_cell_length_a   7.73709226
_cell_length_b   7.73359771
_cell_length_c   3.99904200
_cell_angle_alpha   90.00000000
_cell_angle_beta   90.00000000
_cell_angle_gamma   119.98505725
_symmetry_Int_Tables_number   1
_chemical_formula_structural   LaYb2(HgPd)3
_chemical_formula_sum   'La1 Yb2 Hg3 Pd3'
_cell_volume   207.25800971
_cell_formula_units_Z   1
loop_
 _symmetry_equiv_pos_site_id
 _symmetry_equiv_pos_as_xyz
  1  'x, y, z'
loop_
 _atom_site_type_symbol
 _atom_site_label
 _atom_site_symmetry_multiplicity
 _atom_site_fract_x
 _atom_site_fract_y
 _atom_site_fract_z
 _atom_site_occupancy
  La  La0  1  0.000000  0.600586  0.500000  1
  Yb  Yb1  1  0.395785  0.395756  0.500000  1
  Yb  Yb2  1  0.604215  0.999971  0.500000  1
  Hg  Hg3  1  0.725516  0.737203  0.000000  1
  Hg  Hg4  1  0.274484  0.011687  0.000000  1
  Hg  Hg5  1  0.000000  0.254178  0.000000  1
  Pd  Pd6  1  0.669868  0.336280  0.000000  1
  Pd  Pd7  1  0.330132  0.666413  0.000000  1
  Pd  Pd8  1  0.000000  0.997926  0.500000  1
