# generated using pymatgen
data_Rb3Ag2As2Au
_symmetry_space_group_name_H-M   'P 1'
_cell_length_a   8.18712495
_cell_length_b   8.01311147
_cell_length_c   8.01311336
_cell_angle_alpha   46.38314324
_cell_angle_beta   46.80445828
_cell_angle_gamma   46.80445597
_symmetry_Int_Tables_number   1
_chemical_formula_structural   Rb3Ag2As2Au
_chemical_formula_sum   'Rb3 Ag2 As2 Au1'
_cell_volume   254.01861850
_cell_formula_units_Z   1
loop_
 _symmetry_equiv_pos_site_id
 _symmetry_equiv_pos_as_xyz
  1  'x, y, z'
loop_
 _atom_site_type_symbol
 _atom_site_label
 _atom_site_symmetry_multiplicity
 _atom_site_fract_x
 _atom_site_fract_y
 _atom_site_fract_z
 _atom_site_occupancy
  Rb  Rb0  1  0.500000  0.500000  0.500000  1
  Rb  Rb1  1  0.910977  0.912032  0.912032  1
  Rb  Rb2  1  0.089023  0.087968  0.087968  1
  Ag  Ag3  1  0.500000  0.000000  0.500000  1
  Ag  Ag4  1  0.500000  0.500000  0.000000  1
  As  As5  1  0.249727  0.251144  0.251144  1
  As  As6  1  0.750273  0.748856  0.748856  1
  Au  Au7  1  0.000000  0.500000  0.500000  1
