# generated using pymatgen
data_Y5Hf3(P3Ir4)4
_symmetry_space_group_name_H-M   'P 1'
_cell_length_a   12.87214400
_cell_length_b   12.87214289
_cell_length_c   3.97749900
_cell_angle_alpha   90.00000000
_cell_angle_beta   90.00000000
_cell_angle_gamma   119.99999771
_symmetry_Int_Tables_number   1
_chemical_formula_structural   Y5Hf3(P3Ir4)4
_chemical_formula_sum   'Y5 Hf3 P12 Ir16'
_cell_volume   570.74545589
_cell_formula_units_Z   1
loop_
 _symmetry_equiv_pos_site_id
 _symmetry_equiv_pos_as_xyz
  1  'x, y, z'
loop_
 _atom_site_type_symbol
 _atom_site_label
 _atom_site_symmetry_multiplicity
 _atom_site_fract_x
 _atom_site_fract_y
 _atom_site_fract_z
 _atom_site_occupancy
  Y  Y0  1  0.333333  0.666667  0.000000  1
  Y  Y1  1  0.666667  0.333333  0.000000  1
  Y  Y2  1  0.815642  0.000000  0.500000  1
  Y  Y3  1  0.000000  0.815642  0.500000  1
  Y  Y4  1  0.184358  0.184358  0.500000  1
  Hf  Hf5  1  0.449429  0.000000  0.000000  1
  Hf  Hf6  1  0.000000  0.449429  0.000000  1
  Hf  Hf7  1  0.550571  0.550571  0.000000  1
  P  P8  1  0.175482  0.000000  0.000000  1
  P  P9  1  0.000000  0.175482  0.000000  1
  P  P10  1  0.824518  0.824518  0.000000  1
  P  P11  1  0.169557  0.482668  0.500000  1
  P  P12  1  0.517332  0.686888  0.500000  1
  P  P13  1  0.313112  0.830443  0.500000  1
  P  P14  1  0.686888  0.517332  0.500000  1
  P  P15  1  0.830443  0.313112  0.500000  1
  P  P16  1  0.482668  0.169557  0.500000  1
  P  P17  1  0.649823  0.000000  0.000000  1
  P  P18  1  0.000000  0.649823  0.000000  1
  P  P19  1  0.350177  0.350177  0.000000  1
  Ir  Ir20  1  0.357990  0.492766  0.500000  1
  Ir  Ir21  1  0.507234  0.865224  0.500000  1
  Ir  Ir22  1  0.134776  0.642010  0.500000  1
  Ir  Ir23  1  0.865224  0.507234  0.500000  1
  Ir  Ir24  1  0.642010  0.134776  0.500000  1
  Ir  Ir25  1  0.492766  0.357990  0.500000  1
  Ir  Ir26  1  0.177649  0.371406  0.000000  1
  Ir  Ir27  1  0.628594  0.806244  0.000000  1
  Ir  Ir28  1  0.193756  0.822351  0.000000  1
  Ir  Ir29  1  0.806244  0.628594  0.000000  1
  Ir  Ir30  1  0.822351  0.193756  0.000000  1
  Ir  Ir31  1  0.371406  0.177649  0.000000  1
  Ir  Ir32  1  0.281542  0.000000  0.500000  1
  Ir  Ir33  1  0.000000  0.281542  0.500000  1
  Ir  Ir34  1  0.718458  0.718458  0.500000  1
  Ir  Ir35  1  0.000000  0.000000  0.000000  1
