# generated using pymatgen
data_Ca3GdB24
_symmetry_space_group_name_H-M   'P 1'
_cell_length_a   4.12785300
_cell_length_b   4.12785300
_cell_length_c   16.53085300
_cell_angle_alpha   90.00000000
_cell_angle_beta   90.00000000
_cell_angle_gamma   90.00000000
_symmetry_Int_Tables_number   1
_chemical_formula_structural   Ca3GdB24
_chemical_formula_sum   'Ca3 Gd1 B24'
_cell_volume   281.67202095
_cell_formula_units_Z   1
loop_
 _symmetry_equiv_pos_site_id
 _symmetry_equiv_pos_as_xyz
  1  'x, y, z'
loop_
 _atom_site_type_symbol
 _atom_site_label
 _atom_site_symmetry_multiplicity
 _atom_site_fract_x
 _atom_site_fract_y
 _atom_site_fract_z
 _atom_site_occupancy
  Ca  Ca0  1  0.000000  0.000000  0.253091  1
  Ca  Ca1  1  0.000000  0.000000  0.500000  1
  Ca  Ca2  1  0.000000  0.000000  0.746909  1
  Gd  Gd3  1  0.000000  0.000000  0.000000  1
  B  B4  1  0.200399  0.500000  0.124261  1
  B  B5  1  0.201367  0.500000  0.374750  1
  B  B6  1  0.201367  0.500000  0.625250  1
  B  B7  1  0.200399  0.500000  0.875739  1
  B  B8  1  0.500000  0.500000  0.199197  1
  B  B9  1  0.500000  0.500000  0.449515  1
  B  B10  1  0.500000  0.500000  0.700061  1
  B  B11  1  0.500000  0.500000  0.950280  1
  B  B12  1  0.500000  0.200399  0.124261  1
  B  B13  1  0.500000  0.201367  0.374750  1
  B  B14  1  0.500000  0.201367  0.625250  1
  B  B15  1  0.500000  0.200399  0.875739  1
  B  B16  1  0.500000  0.500000  0.049720  1
  B  B17  1  0.500000  0.500000  0.299939  1
  B  B18  1  0.500000  0.500000  0.550485  1
  B  B19  1  0.500000  0.500000  0.800803  1
  B  B20  1  0.500000  0.799601  0.124261  1
  B  B21  1  0.500000  0.798633  0.374750  1
  B  B22  1  0.500000  0.798633  0.625250  1
  B  B23  1  0.500000  0.799601  0.875739  1
  B  B24  1  0.799601  0.500000  0.124261  1
  B  B25  1  0.798633  0.500000  0.374750  1
  B  B26  1  0.798633  0.500000  0.625250  1
  B  B27  1  0.799601  0.500000  0.875739  1
