# generated using pymatgen
data_Cs12Cr3CdSe12
_symmetry_space_group_name_H-M   'P 1'
_cell_length_a   11.25909430
_cell_length_b   11.25909517
_cell_length_c   14.17866530
_cell_angle_alpha   89.83483505
_cell_angle_beta   89.83483623
_cell_angle_gamma   140.40126201
_symmetry_Int_Tables_number   1
_chemical_formula_structural   Cs12Cr3CdSe12
_chemical_formula_sum   'Cs12 Cr3 Cd1 Se12'
_cell_volume   1145.62744870
_cell_formula_units_Z   1
loop_
 _symmetry_equiv_pos_site_id
 _symmetry_equiv_pos_as_xyz
  1  'x, y, z'
loop_
 _atom_site_type_symbol
 _atom_site_label
 _atom_site_symmetry_multiplicity
 _atom_site_fract_x
 _atom_site_fract_y
 _atom_site_fract_z
 _atom_site_occupancy
  Cs  Cs0  1  0.864516  0.856308  0.671793  1
  Cs  Cs1  1  0.143692  0.135484  0.328207  1
  Cs  Cs2  1  0.635729  0.636172  0.174354  1
  Cs  Cs3  1  0.363828  0.364271  0.825646  1
  Cs  Cs4  1  0.157782  0.517109  0.124144  1
  Cs  Cs5  1  0.482891  0.842218  0.875856  1
  Cs  Cs6  1  0.970093  0.325167  0.634959  1
  Cs  Cs7  1  0.674833  0.029907  0.365041  1
  Cs  Cs8  1  0.838199  0.482857  0.875378  1
  Cs  Cs9  1  0.517143  0.161801  0.124622  1
  Cs  Cs10  1  0.016865  0.656163  0.371876  1
  Cs  Cs11  1  0.343837  0.983135  0.628124  1
  Cr  Cr12  1  0.923508  0.076492  0.000000  1
  Cr  Cr13  1  0.418626  0.581374  0.500000  1
  Cr  Cr14  1  0.074792  0.925208  0.000000  1
  Cd  Cd15  1  0.585975  0.414025  0.500000  1
  Se  Se16  1  0.283427  0.309214  0.572686  1
  Se  Se17  1  0.690786  0.716573  0.427314  1
  Se  Se18  1  0.198783  0.200398  0.072664  1
  Se  Se19  1  0.799602  0.801217  0.927336  1
  Se  Se20  1  0.707210  0.000042  0.109459  1
  Se  Se21  1  0.999958  0.292790  0.890541  1
  Se  Se22  1  0.494270  0.781841  0.612387  1
  Se  Se23  1  0.218159  0.505730  0.387613  1
  Se  Se24  1  0.287384  0.998420  0.889033  1
  Se  Se25  1  0.001580  0.712616  0.110967  1
  Se  Se26  1  0.479631  0.173098  0.375686  1
  Se  Se27  1  0.826902  0.520369  0.624314  1
