# generated using pymatgen
data_Ta4MnZnRu4
_symmetry_space_group_name_H-M   'P 1'
_cell_length_a   3.14014400
_cell_length_b   3.14014400
_cell_length_c   15.48352600
_cell_angle_alpha   90.00000000
_cell_angle_beta   90.00000000
_cell_angle_gamma   90.00000000
_symmetry_Int_Tables_number   1
_chemical_formula_structural   Ta4MnZnRu4
_chemical_formula_sum   'Ta4 Mn1 Zn1 Ru4'
_cell_volume   152.67537533
_cell_formula_units_Z   1
loop_
 _symmetry_equiv_pos_site_id
 _symmetry_equiv_pos_as_xyz
  1  'x, y, z'
loop_
 _atom_site_type_symbol
 _atom_site_label
 _atom_site_symmetry_multiplicity
 _atom_site_fract_x
 _atom_site_fract_y
 _atom_site_fract_z
 _atom_site_occupancy
  Ta  Ta0  1  0.000000  0.000000  0.904066  1
  Ta  Ta1  1  0.000000  0.000000  0.095934  1
  Ta  Ta2  1  0.000000  0.000000  0.308748  1
  Ta  Ta3  1  0.000000  0.000000  0.691252  1
  Mn  Mn4  1  0.500000  0.500000  0.000000  1
  Zn  Zn5  1  0.000000  0.000000  0.500000  1
  Ru  Ru6  1  0.500000  0.500000  0.202309  1
  Ru  Ru7  1  0.500000  0.500000  0.402027  1
  Ru  Ru8  1  0.500000  0.500000  0.597973  1
  Ru  Ru9  1  0.500000  0.500000  0.797691  1
