# generated using pymatgen
data_Ho10Co4HgOs
_symmetry_space_group_name_H-M   'P 1'
_cell_length_a   8.68584657
_cell_length_b   8.68584638
_cell_length_c   8.68584500
_cell_angle_alpha   131.07106323
_cell_angle_beta   131.07106212
_cell_angle_gamma   71.70020431
_symmetry_Int_Tables_number   1
_chemical_formula_structural   Ho10Co4HgOs
_chemical_formula_sum   'Ho10 Co4 Hg1 Os1'
_cell_volume   364.37471925
_cell_formula_units_Z   1
loop_
 _symmetry_equiv_pos_site_id
 _symmetry_equiv_pos_as_xyz
  1  'x, y, z'
loop_
 _atom_site_type_symbol
 _atom_site_label
 _atom_site_symmetry_multiplicity
 _atom_site_fract_x
 _atom_site_fract_y
 _atom_site_fract_z
 _atom_site_occupancy
  Ho  Ho0  1  0.700982  0.551380  0.530138  1
  Ho  Ho1  1  0.478895  0.948658  0.149715  1
  Ho  Ho2  1  0.799080  0.329139  0.850343  1
  Ho  Ho3  1  0.551342  0.021105  0.850285  1
  Ho  Ho4  1  0.012260  0.012280  0.999861  1
  Ho  Ho5  1  0.021024  0.170846  0.469830  1
  Ho  Ho6  1  0.329154  0.478976  0.530170  1
  Ho  Ho7  1  0.170861  0.700920  0.149657  1
  Ho  Ho8  1  0.948620  0.799018  0.469862  1
  Ho  Ho9  1  0.487720  0.487740  0.000139  1
  Co  Co10  1  0.111788  0.611786  0.723575  1
  Co  Co11  1  0.888214  0.388212  0.276425  1
  Co  Co12  1  0.611753  0.888247  0.500000  1
  Co  Co13  1  0.388241  0.111759  0.500000  1
  Hg  Hg14  1  0.250032  0.249968  0.000000  1
  Os  Os15  1  0.750035  0.749965  0.000000  1
