# generated using pymatgen
data_AcAlH6
_symmetry_space_group_name_H-M   'P 1'
_cell_length_a   4.43612073
_cell_length_b   4.43612047
_cell_length_c   4.43612070
_cell_angle_alpha   98.25356786
_cell_angle_beta   98.25356110
_cell_angle_gamma   98.25357147
_symmetry_Int_Tables_number   1
_chemical_formula_structural   AcAlH6
_chemical_formula_sum   'Ac1 Al1 H6'
_cell_volume   84.29048209
_cell_formula_units_Z   1
loop_
 _symmetry_equiv_pos_site_id
 _symmetry_equiv_pos_as_xyz
  1  'x, y, z'
loop_
 _atom_site_type_symbol
 _atom_site_label
 _atom_site_symmetry_multiplicity
 _atom_site_fract_x
 _atom_site_fract_y
 _atom_site_fract_z
 _atom_site_occupancy
  Ac  Ac0  1  0.500000  0.500000  0.500000  1
  Al  Al1  1  0.000000  0.000000  0.000000  1
  H  H2  1  0.285943  0.939253  0.285943  1
  H  H3  1  0.285943  0.285943  0.939253  1
  H  H4  1  0.939253  0.285943  0.285943  1
  H  H5  1  0.714057  0.060747  0.714057  1
  H  H6  1  0.714057  0.714057  0.060747  1
  H  H7  1  0.060747  0.714057  0.714057  1
