# generated using pymatgen
data_LiTm4As5Rh7
_symmetry_space_group_name_H-M   'P 1'
_cell_length_a   7.23506828
_cell_length_b   7.23506832
_cell_length_c   7.23506838
_cell_angle_alpha   109.90676019
_cell_angle_beta   108.60360188
_cell_angle_gamma   109.90676130
_symmetry_Int_Tables_number   1
_chemical_formula_structural   LiTm4As5Rh7
_chemical_formula_sum   'Li1 Tm4 As5 Rh7'
_cell_volume   291.49526020
_cell_formula_units_Z   1
loop_
 _symmetry_equiv_pos_site_id
 _symmetry_equiv_pos_as_xyz
  1  'x, y, z'
loop_
 _atom_site_type_symbol
 _atom_site_label
 _atom_site_symmetry_multiplicity
 _atom_site_fract_x
 _atom_site_fract_y
 _atom_site_fract_z
 _atom_site_occupancy
  Li  Li0  1  0.695876  0.000000  0.695876  1
  Tm  Tm1  1  0.481113  0.482897  0.481113  1
  Tm  Tm2  1  0.998216  0.517103  0.998216  1
  Tm  Tm3  1  0.481113  0.000000  0.998216  1
  Tm  Tm4  1  0.998216  0.000000  0.481113  1
  As  As5  1  0.676701  0.687442  0.989259  1
  As  As6  1  0.301816  0.312558  0.989259  1
  As  As7  1  0.989259  0.687442  0.676701  1
  As  As8  1  0.989259  0.312558  0.301816  1
  As  As9  1  0.351584  0.000000  0.351584  1
  Rh  Rh10  1  0.502238  0.745424  0.247663  1
  Rh  Rh11  1  0.756814  0.254576  0.502238  1
  Rh  Rh12  1  0.247663  0.745424  0.502238  1
  Rh  Rh13  1  0.244895  0.500000  0.744895  1
  Rh  Rh14  1  0.038105  0.000000  0.038105  1
  Rh  Rh15  1  0.502238  0.254576  0.756814  1
  Rh  Rh16  1  0.744895  0.500000  0.244895  1
