# generated using pymatgen
data_Er12Mg3Cd9C4
_symmetry_space_group_name_H-M   'P 1'
_cell_length_a   9.49085320
_cell_length_b   9.50557629
_cell_length_c   9.52811741
_cell_angle_alpha   119.92148964
_cell_angle_beta   89.90617381
_cell_angle_gamma   120.05028872
_symmetry_Int_Tables_number   1
_chemical_formula_structural   Er12Mg3Cd9C4
_chemical_formula_sum   'Er12 Mg3 Cd9 C4'
_cell_volume   608.57477775
_cell_formula_units_Z   1
loop_
 _symmetry_equiv_pos_site_id
 _symmetry_equiv_pos_as_xyz
  1  'x, y, z'
loop_
 _atom_site_type_symbol
 _atom_site_label
 _atom_site_symmetry_multiplicity
 _atom_site_fract_x
 _atom_site_fract_y
 _atom_site_fract_z
 _atom_site_occupancy
  Er  Er0  1  0.937130  0.374372  0.187222  1
  Er  Er1  1  0.937165  0.750005  0.187245  1
  Er  Er2  1  0.312830  0.750040  0.187249  1
  Er  Er3  1  0.686798  0.250591  0.437390  1
  Er  Er4  1  0.686822  0.873630  0.437406  1
  Er  Er5  1  0.063643  0.250581  0.437510  1
  Er  Er6  1  0.313183  0.126390  0.562605  1
  Er  Er7  1  0.313196  0.749393  0.562595  1
  Er  Er8  1  0.936345  0.749390  0.562463  1
  Er  Er9  1  0.687194  0.249984  0.812772  1
  Er  Er10  1  0.062864  0.625624  0.812771  1
  Er  Er11  1  0.062836  0.250009  0.812751  1
  Mg  Mg12  1  0.999998  0.999989  0.999999  1
  Mg  Mg13  1  0.500000  0.000013  0.000016  1
  Mg  Mg14  1  0.499993  0.500014  0.000011  1
  Cd  Cd15  1  0.708216  0.916449  0.124741  1
  Cd  Cd16  1  0.291596  0.082917  0.207692  1
  Cd  Cd17  1  0.291549  0.416330  0.207652  1
  Cd  Cd18  1  0.624804  0.416249  0.207695  1
  Cd  Cd19  1  0.499999  0.499988  0.500004  1
  Cd  Cd20  1  0.375208  0.583751  0.792297  1
  Cd  Cd21  1  0.708457  0.583690  0.792355  1
  Cd  Cd22  1  0.708412  0.917090  0.792329  1
  Cd  Cd23  1  0.291762  0.083517  0.875229  1
  C  C24  1  0.000001  0.499998  0.000002  1
  C  C25  1  0.000005  0.000004  0.499995  1
  C  C26  1  0.500006  0.000007  0.500012  1
  C  C27  1  0.999996  0.499997  0.499997  1
