# generated using pymatgen
data_Ti8BeVBi4
_symmetry_space_group_name_H-M   'P 1'
_cell_length_a   7.89793241
_cell_length_b   7.89793248
_cell_length_c   7.89793183
_cell_angle_alpha   95.53863431
_cell_angle_beta   95.53864735
_cell_angle_gamma   143.80053791
_symmetry_Int_Tables_number   1
_chemical_formula_structural   Ti8BeVBi4
_chemical_formula_sum   'Ti8 Be1 V1 Bi4'
_cell_volume   276.56183154
_cell_formula_units_Z   1
loop_
 _symmetry_equiv_pos_site_id
 _symmetry_equiv_pos_as_xyz
  1  'x, y, z'
loop_
 _atom_site_type_symbol
 _atom_site_label
 _atom_site_symmetry_multiplicity
 _atom_site_fract_x
 _atom_site_fract_y
 _atom_site_fract_z
 _atom_site_occupancy
  Ti  Ti0  1  0.579812  0.693795  0.275880  1
  Ti  Ti1  1  0.920188  0.196068  0.113984  1
  Ti  Ti2  1  0.303932  0.579812  0.886016  1
  Ti  Ti3  1  0.806205  0.920188  0.724120  1
  Ti  Ti4  1  0.693795  0.417916  0.113984  1
  Ti  Ti5  1  0.082084  0.806205  0.886016  1
  Ti  Ti6  1  0.417916  0.303932  0.724120  1
  Ti  Ti7  1  0.196068  0.082084  0.275880  1
  Be  Be8  1  0.250000  0.250000  0.000000  1
  V  V9  1  0.750000  0.750000  0.000000  1
  Bi  Bi10  1  0.360795  0.860795  0.221588  1
  Bi  Bi11  1  0.139205  0.360795  0.500000  1
  Bi  Bi12  1  0.639205  0.139205  0.778412  1
  Bi  Bi13  1  0.860795  0.639205  0.500000  1
