# generated using pymatgen
data_Ca2Sn5Pd3
_symmetry_space_group_name_H-M   'P 1'
_cell_length_a   4.53590800
_cell_length_b   7.46844100
_cell_length_c   26.86827500
_cell_angle_alpha   90.00000000
_cell_angle_beta   90.00000000
_cell_angle_gamma   90.00000000
_symmetry_Int_Tables_number   1
_chemical_formula_structural   Ca2Sn5Pd3
_chemical_formula_sum   'Ca8 Sn20 Pd12'
_cell_volume   910.19401720
_cell_formula_units_Z   4
loop_
 _symmetry_equiv_pos_site_id
 _symmetry_equiv_pos_as_xyz
  1  'x, y, z'
loop_
 _atom_site_type_symbol
 _atom_site_label
 _atom_site_symmetry_multiplicity
 _atom_site_fract_x
 _atom_site_fract_y
 _atom_site_fract_z
 _atom_site_occupancy
  Ca  Ca0  1  0.750000  0.753167  0.423749  1
  Ca  Ca1  1  0.250000  0.246833  0.576251  1
  Ca  Ca2  1  0.750000  0.253167  0.076251  1
  Ca  Ca3  1  0.250000  0.746833  0.923749  1
  Ca  Ca4  1  0.750000  0.785880  0.726616  1
  Ca  Ca5  1  0.250000  0.214120  0.273384  1
  Ca  Ca6  1  0.750000  0.285880  0.773384  1
  Ca  Ca7  1  0.250000  0.714120  0.226616  1
  Sn  Sn8  1  0.250000  0.961789  0.043049  1
  Sn  Sn9  1  0.250000  0.540979  0.043299  1
  Sn  Sn10  1  0.750000  0.459021  0.956701  1
  Sn  Sn11  1  0.250000  0.040979  0.456701  1
  Sn  Sn12  1  0.750000  0.959021  0.543299  1
  Sn  Sn13  1  0.750000  0.878352  0.298750  1
  Sn  Sn14  1  0.750000  0.038211  0.956951  1
  Sn  Sn15  1  0.250000  0.461789  0.456951  1
  Sn  Sn16  1  0.750000  0.538211  0.543049  1
  Sn  Sn17  1  0.250000  0.287868  0.869246  1
  Sn  Sn18  1  0.750000  0.712132  0.130754  1
  Sn  Sn19  1  0.250000  0.787868  0.630754  1
  Sn  Sn20  1  0.750000  0.407561  0.653289  1
  Sn  Sn21  1  0.250000  0.121648  0.701250  1
  Sn  Sn22  1  0.750000  0.378352  0.201250  1
  Sn  Sn23  1  0.250000  0.621648  0.798750  1
  Sn  Sn24  1  0.250000  0.092439  0.153289  1
  Sn  Sn25  1  0.250000  0.592439  0.346711  1
  Sn  Sn26  1  0.750000  0.907561  0.846711  1
  Sn  Sn27  1  0.750000  0.212132  0.369246  1
  Pd  Pd28  1  0.750000  0.499172  0.299679  1
  Pd  Pd29  1  0.250000  0.243813  0.972472  1
  Pd  Pd30  1  0.750000  0.756187  0.027528  1
  Pd  Pd31  1  0.250000  0.743813  0.527528  1
  Pd  Pd32  1  0.750000  0.256187  0.472472  1
  Pd  Pd33  1  0.250000  0.459945  0.142626  1
  Pd  Pd34  1  0.750000  0.540055  0.857374  1
  Pd  Pd35  1  0.250000  0.959945  0.357374  1
  Pd  Pd36  1  0.750000  0.040055  0.642626  1
  Pd  Pd37  1  0.250000  0.000828  0.799679  1
  Pd  Pd38  1  0.750000  0.999172  0.200321  1
  Pd  Pd39  1  0.250000  0.500828  0.700321  1
