# generated using pymatgen
data_RbHo2Ag3S5
_symmetry_space_group_name_H-M   'P 1'
_cell_length_a   4.11153800
_cell_length_b   7.66495799
_cell_length_c   16.71782000
_cell_angle_alpha   90.00000000
_cell_angle_beta   90.00000000
_cell_angle_gamma   74.44259626
_symmetry_Int_Tables_number   1
_chemical_formula_structural   RbHo2Ag3S5
_chemical_formula_sum   'Rb2 Ho4 Ag6 S10'
_cell_volume   507.55527551
_cell_formula_units_Z   2
loop_
 _symmetry_equiv_pos_site_id
 _symmetry_equiv_pos_as_xyz
  1  'x, y, z'
loop_
 _atom_site_type_symbol
 _atom_site_label
 _atom_site_symmetry_multiplicity
 _atom_site_fract_x
 _atom_site_fract_y
 _atom_site_fract_z
 _atom_site_occupancy
  Rb  Rb0  1  0.564837  0.870329  0.250000  1
  Rb  Rb1  1  0.435164  0.129672  0.750000  1
  Ho  Ho2  1  0.307368  0.385264  0.095888  1
  Ho  Ho3  1  0.307368  0.385264  0.404113  1
  Ho  Ho4  1  0.692633  0.614737  0.595887  1
  Ho  Ho5  1  0.692633  0.614737  0.904113  1
  Ag  Ag6  1  0.084365  0.831271  0.043940  1
  Ag  Ag7  1  0.844405  0.311190  0.250000  1
  Ag  Ag8  1  0.084365  0.831271  0.456060  1
  Ag  Ag9  1  0.915637  0.168729  0.543940  1
  Ag  Ag10  1  0.155596  0.688810  0.750000  1
  Ag  Ag11  1  0.915637  0.168729  0.956060  1
  S  S12  1  0.683827  0.632349  0.068733  1
  S  S13  1  0.930582  0.138838  0.116582  1
  S  S14  1  0.245140  0.509721  0.250000  1
  S  S15  1  0.930582  0.138838  0.383418  1
  S  S16  1  0.683827  0.632349  0.431267  1
  S  S17  1  0.316175  0.367651  0.568733  1
  S  S18  1  0.069420  0.861162  0.616582  1
  S  S19  1  0.754862  0.490277  0.750000  1
  S  S20  1  0.069420  0.861162  0.883418  1
  S  S21  1  0.316175  0.367651  0.931267  1
