# generated using pymatgen
data_Ti2V8Ge6C
_symmetry_space_group_name_H-M   'P 1'
_cell_length_a   7.36411073
_cell_length_b   7.35675856
_cell_length_c   4.97304909
_cell_angle_alpha   89.86369820
_cell_angle_beta   90.27233222
_cell_angle_gamma   120.03306461
_symmetry_Int_Tables_number   1
_chemical_formula_structural   Ti2V8Ge6C
_chemical_formula_sum   'Ti2 V8 Ge6 C1'
_cell_volume   233.24400519
_cell_formula_units_Z   1
loop_
 _symmetry_equiv_pos_site_id
 _symmetry_equiv_pos_as_xyz
  1  'x, y, z'
loop_
 _atom_site_type_symbol
 _atom_site_label
 _atom_site_symmetry_multiplicity
 _atom_site_fract_x
 _atom_site_fract_y
 _atom_site_fract_z
 _atom_site_occupancy
  Ti  Ti0  1  0.000071  0.766087  0.253782  1
  Ti  Ti1  1  0.233984  0.233913  0.253782  1
  V  V2  1  0.766943  0.000000  0.263588  1
  V  V3  1  0.999291  0.232545  0.742983  1
  V  V4  1  0.766746  0.767455  0.742983  1
  V  V5  1  0.232873  0.000000  0.740069  1
  V  V6  1  0.333183  0.666282  0.999749  1
  V  V7  1  0.666902  0.333718  0.999749  1
  V  V8  1  0.666913  0.333854  0.499311  1
  V  V9  1  0.333059  0.666146  0.499311  1
  Ge  Ge10  1  0.998079  0.397947  0.243283  1
  Ge  Ge11  1  0.600131  0.602053  0.243283  1
  Ge  Ge12  1  0.404400  0.000000  0.243502  1
  Ge  Ge13  1  0.000366  0.600871  0.755039  1
  Ge  Ge14  1  0.399495  0.399129  0.755039  1
  Ge  Ge15  1  0.600796  0.000000  0.757158  1
  C  C16  1  0.996769  0.000000  0.507387  1
