# generated using pymatgen
data_Sr4Os3RuO18
_symmetry_space_group_name_H-M   'P 1'
_cell_length_a   7.24729750
_cell_length_b   7.50393987
_cell_length_c   7.41056621
_cell_angle_alpha   72.30547733
_cell_angle_beta   84.54254527
_cell_angle_gamma   83.40870358
_symmetry_Int_Tables_number   1
_chemical_formula_structural   Sr4Os3RuO18
_chemical_formula_sum   'Sr4 Os3 Ru1 O18'
_cell_volume   380.63403177
_cell_formula_units_Z   1
loop_
 _symmetry_equiv_pos_site_id
 _symmetry_equiv_pos_as_xyz
  1  'x, y, z'
loop_
 _atom_site_type_symbol
 _atom_site_label
 _atom_site_symmetry_multiplicity
 _atom_site_fract_x
 _atom_site_fract_y
 _atom_site_fract_z
 _atom_site_occupancy
  Sr  Sr0  1  0.847301  0.743252  0.855673  1
  Sr  Sr1  1  0.163274  0.262477  0.137150  1
  Sr  Sr2  1  0.378245  0.739002  0.600391  1
  Sr  Sr3  1  0.618817  0.267072  0.406566  1
  Os  Os4  1  0.153371  0.196392  0.636033  1
  Os  Os5  1  0.844329  0.807991  0.358701  1
  Os  Os6  1  0.730163  0.277580  0.930555  1
  Ru  Ru7  1  0.284286  0.716793  0.072782  1
  O  O8  1  0.335747  0.317812  0.672441  1
  O  O9  1  0.660644  0.672907  0.348982  1
  O  O10  1  0.999687  0.288197  0.821621  1
  O  O11  1  0.983805  0.718096  0.175446  1
  O  O12  1  0.500089  0.742876  0.926509  1
  O  O13  1  0.512055  0.249007  0.070221  1
  O  O14  1  0.656124  0.471889  0.736096  1
  O  O15  1  0.344428  0.517501  0.270453  1
  O  O16  1  0.267046  0.917019  0.156106  1
  O  O17  1  0.731678  0.081463  0.843872  1
  O  O18  1  0.818883  0.400914  0.080326  1
  O  O19  1  0.184113  0.599743  0.919026  1
  O  O20  1  0.972884  0.276301  0.474206  1
  O  O21  1  0.020776  0.721136  0.523887  1
  O  O22  1  0.850313  0.049541  0.207351  1
  O  O23  1  0.142041  0.954682  0.781964  1
  O  O24  1  0.309037  0.106990  0.455651  1
  O  O25  1  0.690862  0.903368  0.537991  1
