# generated using pymatgen
data_Ca3Y(Si3Ni5)4
_symmetry_space_group_name_H-M   'P 1'
_cell_length_a   3.78470700
_cell_length_b   6.66014875
_cell_length_c   18.75259714
_cell_angle_alpha   89.94543565
_cell_angle_beta   90.00000000
_cell_angle_gamma   90.00000000
_symmetry_Int_Tables_number   1
_chemical_formula_structural   Ca3Y(Si3Ni5)4
_chemical_formula_sum   'Ca3 Y1 Si12 Ni20'
_cell_volume   472.69109342
_cell_formula_units_Z   1
loop_
 _symmetry_equiv_pos_site_id
 _symmetry_equiv_pos_as_xyz
  1  'x, y, z'
loop_
 _atom_site_type_symbol
 _atom_site_label
 _atom_site_symmetry_multiplicity
 _atom_site_fract_x
 _atom_site_fract_y
 _atom_site_fract_z
 _atom_site_occupancy
  Ca  Ca0  1  0.250000  0.622805  0.643072  1
  Ca  Ca1  1  0.750000  0.377047  0.356740  1
  Ca  Ca2  1  0.750000  0.123119  0.857110  1
  Y  Y3  1  0.250000  0.876231  0.143268  1
  Si  Si4  1  0.250000  0.843538  0.925734  1
  Si  Si5  1  0.750000  0.155613  0.074233  1
  Si  Si6  1  0.750000  0.343816  0.574352  1
  Si  Si7  1  0.250000  0.656510  0.425626  1
  Si  Si8  1  0.750000  0.621675  0.762396  1
  Si  Si9  1  0.250000  0.379018  0.237527  1
  Si  Si10  1  0.250000  0.420261  0.914206  1
  Si  Si11  1  0.750000  0.580793  0.085900  1
  Si  Si12  1  0.750000  0.920216  0.585916  1
  Si  Si13  1  0.250000  0.079953  0.413911  1
  Si  Si14  1  0.250000  0.121918  0.737747  1
  Si  Si15  1  0.750000  0.878240  0.262088  1
  Ni  Ni16  1  0.250000  0.133283  0.995639  1
  Ni  Ni17  1  0.750000  0.384628  0.985067  1
  Ni  Ni18  1  0.750000  0.114767  0.484936  1
  Ni  Ni19  1  0.250000  0.614977  0.015175  1
  Ni  Ni20  1  0.250000  0.357010  0.115245  1
  Ni  Ni21  1  0.750000  0.642276  0.884662  1
  Ni  Ni22  1  0.750000  0.857807  0.384383  1
  Ni  Ni23  1  0.250000  0.141525  0.615535  1
  Ni  Ni24  1  0.250000  0.068407  0.292951  1
  Ni  Ni25  1  0.750000  0.932507  0.706846  1
  Ni  Ni26  1  0.750000  0.568657  0.206920  1
  Ni  Ni27  1  0.250000  0.432192  0.793058  1
  Ni  Ni28  1  0.750000  0.633705  0.504325  1
  Ni  Ni29  1  0.250000  0.366373  0.495814  1
  Ni  Ni30  1  0.250000  0.813044  0.800111  1
  Ni  Ni31  1  0.750000  0.186171  0.199218  1
  Ni  Ni32  1  0.750000  0.313082  0.699693  1
  Ni  Ni33  1  0.250000  0.687686  0.300249  1
  Ni  Ni34  1  0.250000  0.884887  0.515142  1
  Ni  Ni35  1  0.750000  0.866264  0.005204  1
