# generated using pymatgen
data_Tb5Nd(BiO7)2
_symmetry_space_group_name_H-M   'P 1'
_cell_length_a   6.61471812
_cell_length_b   6.61024555
_cell_length_c   7.77979155
_cell_angle_alpha   106.96146139
_cell_angle_beta   89.79869481
_cell_angle_gamma   98.76182087
_symmetry_Int_Tables_number   1
_chemical_formula_structural   Tb5Nd(BiO7)2
_chemical_formula_sum   'Tb5 Nd1 Bi2 O14'
_cell_volume   321.27512015
_cell_formula_units_Z   1
loop_
 _symmetry_equiv_pos_site_id
 _symmetry_equiv_pos_as_xyz
  1  'x, y, z'
loop_
 _atom_site_type_symbol
 _atom_site_label
 _atom_site_symmetry_multiplicity
 _atom_site_fract_x
 _atom_site_fract_y
 _atom_site_fract_z
 _atom_site_occupancy
  Tb  Tb0  1  0.463635  0.005107  0.251480  1
  Tb  Tb1  1  0.538429  0.994695  0.748385  1
  Tb  Tb2  1  0.272837  0.538278  0.883065  1
  Tb  Tb3  1  0.728557  0.462768  0.115604  1
  Tb  Tb4  1  0.731712  0.474460  0.615022  1
  Nd  Nd5  1  0.259270  0.519044  0.383860  1
  Bi  Bi6  1  0.998715  0.000775  0.500862  1
  Bi  Bi7  1  0.999671  0.999061  0.999384  1
  O  O8  1  0.450153  0.649490  0.161610  1
  O  O9  1  0.555049  0.351066  0.832788  1
  O  O10  1  0.300961  0.923348  0.951779  1
  O  O11  1  0.699167  0.077401  0.047336  1
  O  O12  1  0.297880  0.928554  0.513806  1
  O  O13  1  0.701010  0.075747  0.488925  1
  O  O14  1  0.552323  0.361051  0.344372  1
  O  O15  1  0.457881  0.638030  0.660277  1
  O  O16  1  0.926567  0.666858  0.958787  1
  O  O17  1  0.074988  0.332481  0.041352  1
  O  O18  1  0.068535  0.347454  0.622130  1
  O  O19  1  0.922305  0.656968  0.379331  1
  O  O20  1  0.876577  0.904025  0.725632  1
  O  O21  1  0.123779  0.093338  0.274213  1
