# generated using pymatgen
data_Pr7Th(ZnIr)8
_symmetry_space_group_name_H-M   'P 1'
_cell_length_a   4.07151000
_cell_length_b   7.35274164
_cell_length_c   16.67790267
_cell_angle_alpha   89.78059182
_cell_angle_beta   90.00000000
_cell_angle_gamma   90.00000000
_symmetry_Int_Tables_number   1
_chemical_formula_structural   Pr7Th(ZnIr)8
_chemical_formula_sum   'Pr7 Th1 Zn8 Ir8'
_cell_volume   499.27872713
_cell_formula_units_Z   1
loop_
 _symmetry_equiv_pos_site_id
 _symmetry_equiv_pos_as_xyz
  1  'x, y, z'
loop_
 _atom_site_type_symbol
 _atom_site_label
 _atom_site_symmetry_multiplicity
 _atom_site_fract_x
 _atom_site_fract_y
 _atom_site_fract_z
 _atom_site_occupancy
  Pr  Pr0  1  0.750000  0.949986  0.282775  1
  Pr  Pr1  1  0.750000  0.830058  0.059958  1
  Pr  Pr2  1  0.250000  0.048603  0.716941  1
  Pr  Pr3  1  0.250000  0.166031  0.939342  1
  Pr  Pr4  1  0.250000  0.547954  0.783139  1
  Pr  Pr5  1  0.750000  0.335606  0.440238  1
  Pr  Pr6  1  0.250000  0.669165  0.561068  1
  Th  Th7  1  0.750000  0.449002  0.216951  1
  Zn  Zn8  1  0.250000  0.001664  0.440016  1
  Zn  Zn9  1  0.750000  0.501284  0.939670  1
  Zn  Zn10  1  0.750000  0.004005  0.560789  1
  Zn  Zn11  1  0.250000  0.627024  0.351963  1
  Zn  Zn12  1  0.750000  0.376639  0.650258  1
  Zn  Zn13  1  0.750000  0.876867  0.849903  1
  Zn  Zn14  1  0.250000  0.496497  0.058507  1
  Zn  Zn15  1  0.250000  0.121216  0.150051  1
  Ir  Ir16  1  0.250000  0.244481  0.564614  1
  Ir  Ir17  1  0.750000  0.259053  0.067472  1
  Ir  Ir18  1  0.250000  0.252571  0.306733  1
  Ir  Ir19  1  0.750000  0.254826  0.813844  1
  Ir  Ir20  1  0.250000  0.742946  0.935046  1
  Ir  Ir21  1  0.750000  0.756523  0.687206  1
  Ir  Ir22  1  0.750000  0.763200  0.435409  1
  Ir  Ir23  1  0.250000  0.724799  0.188108  1
