# generated using pymatgen
data_Ca2Al16Pt9
_symmetry_space_group_name_H-M   'P 1'
_cell_length_a   11.16864741
_cell_length_b   11.16864826
_cell_length_c   11.16864770
_cell_angle_alpha   158.40335019
_cell_angle_beta   115.53966939
_cell_angle_gamma   68.84243697
_symmetry_Int_Tables_number   1
_chemical_formula_structural   Ca2Al16Pt9
_chemical_formula_sum   'Ca2 Al16 Pt9'
_cell_volume   459.31886105
_cell_formula_units_Z   1
loop_
 _symmetry_equiv_pos_site_id
 _symmetry_equiv_pos_as_xyz
  1  'x, y, z'
loop_
 _atom_site_type_symbol
 _atom_site_label
 _atom_site_symmetry_multiplicity
 _atom_site_fract_x
 _atom_site_fract_y
 _atom_site_fract_z
 _atom_site_occupancy
  Ca  Ca0  1  0.228009  0.228009  0.000000  1
  Ca  Ca1  1  0.771991  0.771991  0.000000  1
  Al  Al2  1  0.273525  0.391880  0.881645  1
  Al  Al3  1  0.090226  0.919238  0.170988  1
  Al  Al4  1  0.511801  0.204953  0.306849  1
  Al  Al5  1  0.251750  0.080762  0.170988  1
  Al  Al6  1  0.913872  0.413872  0.500000  1
  Al  Al7  1  0.726475  0.608120  0.118355  1
  Al  Al8  1  0.898104  0.204953  0.693151  1
  Al  Al9  1  0.488199  0.795047  0.693151  1
  Al  Al10  1  0.383559  0.000000  0.383559  1
  Al  Al11  1  0.616441  0.000000  0.616441  1
  Al  Al12  1  0.489765  0.608120  0.881645  1
  Al  Al13  1  0.101896  0.795047  0.306849  1
  Al  Al14  1  0.909774  0.080762  0.829012  1
  Al  Al15  1  0.748250  0.919238  0.829012  1
  Al  Al16  1  0.510235  0.391880  0.118355  1
  Al  Al17  1  0.086128  0.586128  0.500000  1
  Pt  Pt18  1  0.750376  0.500000  0.250376  1
  Pt  Pt19  1  0.027127  0.340230  0.686897  1
  Pt  Pt20  1  0.623247  0.123247  0.500000  1
  Pt  Pt21  1  0.249624  0.500000  0.749624  1
  Pt  Pt22  1  0.376753  0.876753  0.500000  1
  Pt  Pt23  1  0.000000  0.000000  0.000000  1
  Pt  Pt24  1  0.653333  0.340230  0.313103  1
  Pt  Pt25  1  0.346667  0.659770  0.686897  1
  Pt  Pt26  1  0.972873  0.659770  0.313103  1
