# generated using pymatgen
data_LaBi5(TeO6)3
_symmetry_space_group_name_H-M   'P 1'
_cell_length_a   9.40215100
_cell_length_b   9.33548031
_cell_length_c   5.56166394
_cell_angle_alpha   90.77762406
_cell_angle_beta   90.00000000
_cell_angle_gamma   120.23653694
_symmetry_Int_Tables_number   1
_chemical_formula_structural   LaBi5(TeO6)3
_chemical_formula_sum   'La1 Bi5 Te3 O18'
_cell_volume   421.70192925
_cell_formula_units_Z   1
loop_
 _symmetry_equiv_pos_site_id
 _symmetry_equiv_pos_as_xyz
  1  'x, y, z'
loop_
 _atom_site_type_symbol
 _atom_site_label
 _atom_site_symmetry_multiplicity
 _atom_site_fract_x
 _atom_site_fract_y
 _atom_site_fract_z
 _atom_site_occupancy
  La  La0  1  0.614613  0.000000  0.500000  1
  Bi  Bi1  1  0.000221  0.627141  0.499228  1
  Bi  Bi2  1  0.998740  0.287011  0.000014  1
  Bi  Bi3  1  0.373080  0.372859  0.500772  1
  Bi  Bi4  1  0.283031  0.000000  0.000000  1
  Bi  Bi5  1  0.711728  0.712989  0.999986  1
  Te  Te6  1  0.333417  0.667672  0.984509  1
  Te  Te7  1  0.002012  0.000000  0.500000  1
  Te  Te8  1  0.665747  0.332328  0.015491  1
  O  O9  1  0.080175  0.874745  0.306505  1
  O  O10  1  0.236611  0.765148  0.771299  1
  O  O11  1  0.137966  0.550535  0.184852  1
  O  O12  1  0.406079  0.866273  0.188743  1
  O  O13  1  0.236008  0.466280  0.778785  1
  O  O14  1  0.125249  0.197338  0.299317  1
  O  O15  1  0.205430  0.125255  0.693495  1
  O  O16  1  0.529947  0.769867  0.783666  1
  O  O17  1  0.456021  0.598761  0.192745  1
  O  O18  1  0.806404  0.922559  0.301182  1
  O  O19  1  0.471463  0.234852  0.228701  1
  O  O20  1  0.587431  0.449465  0.815148  1
  O  O21  1  0.539807  0.133727  0.811257  1
  O  O22  1  0.769728  0.533720  0.221215  1
  O  O23  1  0.927911  0.802662  0.700683  1
  O  O24  1  0.760079  0.230133  0.216334  1
  O  O25  1  0.857259  0.401239  0.807255  1
  O  O26  1  0.883845  0.077441  0.698818  1
