# generated using pymatgen
data_K4In3CoI16
_symmetry_space_group_name_H-M   'P 1'
_cell_length_a   8.39002467
_cell_length_b   8.60710456
_cell_length_c   17.00737063
_cell_angle_alpha   85.10844418
_cell_angle_beta   89.59167652
_cell_angle_gamma   89.80946805
_symmetry_Int_Tables_number   1
_chemical_formula_structural   K4In3CoI16
_chemical_formula_sum   'K4 In3 Co1 I16'
_cell_volume   1223.65842868
_cell_formula_units_Z   1
loop_
 _symmetry_equiv_pos_site_id
 _symmetry_equiv_pos_as_xyz
  1  'x, y, z'
loop_
 _atom_site_type_symbol
 _atom_site_label
 _atom_site_symmetry_multiplicity
 _atom_site_fract_x
 _atom_site_fract_y
 _atom_site_fract_z
 _atom_site_occupancy
  K  K0  1  0.498932  0.257114  0.640728  1
  K  K1  1  0.003747  0.742104  0.860467  1
  K  K2  1  0.499426  0.742673  0.361142  1
  K  K3  1  0.001194  0.256536  0.137812  1
  In  In4  1  0.358755  0.242642  0.361175  1
  In  In5  1  0.858521  0.756249  0.138685  1
  In  In6  1  0.641516  0.758007  0.639080  1
  Co  Co7  1  0.140807  0.245331  0.860799  1
  I  I8  1  0.871836  0.140525  0.906064  1
  I  I9  1  0.346216  0.872688  0.591079  1
  I  I10  1  0.152058  0.870290  0.087445  1
  I  I11  1  0.652519  0.127275  0.410865  1
  I  I12  1  0.386803  0.425383  0.219355  1
  I  I13  1  0.886904  0.573709  0.280196  1
  I  I14  1  0.611219  0.573282  0.779956  1
  I  I15  1  0.110059  0.410930  0.731083  1
  I  I16  1  0.649229  0.997324  0.161223  1
  I  I17  1  0.149357  0.003662  0.337968  1
  I  I18  1  0.336610  0.028027  0.839768  1
  I  I19  1  0.850137  0.997104  0.662594  1
  I  I20  1  0.245527  0.431963  0.473182  1
  I  I21  1  0.746905  0.566607  0.027379  1
  I  I22  1  0.754552  0.567132  0.528000  1
  I  I23  1  0.247172  0.413446  0.963957  1
