# generated using pymatgen
data_GdHg(Pd2Au)2
_symmetry_space_group_name_H-M   'P 1'
_cell_length_a   6.01330600
_cell_length_b   6.02397947
_cell_length_c   7.90041100
_cell_angle_alpha   89.99846868
_cell_angle_beta   90.00060027
_cell_angle_gamma   89.97749632
_symmetry_Int_Tables_number   1
_chemical_formula_structural   GdHg(Pd2Au)2
_chemical_formula_sum   'Gd2 Hg2 Pd8 Au4'
_cell_volume   286.18471769
_cell_formula_units_Z   2
loop_
 _symmetry_equiv_pos_site_id
 _symmetry_equiv_pos_as_xyz
  1  'x, y, z'
loop_
 _atom_site_type_symbol
 _atom_site_label
 _atom_site_symmetry_multiplicity
 _atom_site_fract_x
 _atom_site_fract_y
 _atom_site_fract_z
 _atom_site_occupancy
  Gd  Gd0  1  0.250020  0.250074  0.000040  1
  Gd  Gd1  1  0.749980  0.749926  0.999960  1
  Hg  Hg2  1  0.749913  0.750029  0.500006  1
  Hg  Hg3  1  0.250088  0.249971  0.499994  1
  Pd  Pd4  1  0.499978  0.000101  0.253122  1
  Pd  Pd5  1  0.500115  0.500066  0.252793  1
  Pd  Pd6  1  0.000095  0.000032  0.252833  1
  Pd  Pd7  1  0.999968  0.500112  0.253217  1
  Pd  Pd8  1  0.999905  0.999968  0.747167  1
  Pd  Pd9  1  0.000032  0.499888  0.746783  1
  Pd  Pd10  1  0.500022  0.999899  0.746878  1
  Pd  Pd11  1  0.499885  0.499934  0.747207  1
  Au  Au12  1  0.749977  0.249960  0.000010  1
  Au  Au13  1  0.250021  0.750040  0.999990  1
  Au  Au14  1  0.749949  0.249999  0.499994  1
  Au  Au15  1  0.250051  0.750001  0.500007  1
