# generated using pymatgen
data_Hf18Re5Mo3AsP
_symmetry_space_group_name_H-M   'P 1'
_cell_length_a   8.61602600
_cell_length_b   8.61602566
_cell_length_c   8.65730300
_cell_angle_alpha   90.00000000
_cell_angle_beta   90.00000000
_cell_angle_gamma   120.00000132
_symmetry_Int_Tables_number   1
_chemical_formula_structural   Hf18Re5Mo3AsP
_chemical_formula_sum   'Hf18 Re5 Mo3 As1 P1'
_cell_volume   556.57952798
_cell_formula_units_Z   1
loop_
 _symmetry_equiv_pos_site_id
 _symmetry_equiv_pos_as_xyz
  1  'x, y, z'
loop_
 _atom_site_type_symbol
 _atom_site_label
 _atom_site_symmetry_multiplicity
 _atom_site_fract_x
 _atom_site_fract_y
 _atom_site_fract_z
 _atom_site_occupancy
  Hf  Hf0  1  0.194317  0.805683  0.456678  1
  Hf  Hf1  1  0.194317  0.388634  0.456678  1
  Hf  Hf2  1  0.611366  0.805683  0.456678  1
  Hf  Hf3  1  0.804451  0.195549  0.551802  1
  Hf  Hf4  1  0.804451  0.608903  0.551802  1
  Hf  Hf5  1  0.391097  0.195549  0.551802  1
  Hf  Hf6  1  0.804451  0.195549  0.948198  1
  Hf  Hf7  1  0.804451  0.608903  0.948198  1
  Hf  Hf8  1  0.391097  0.195549  0.948198  1
  Hf  Hf9  1  0.194317  0.805683  0.043322  1
  Hf  Hf10  1  0.194317  0.388634  0.043322  1
  Hf  Hf11  1  0.611366  0.805683  0.043322  1
  Hf  Hf12  1  0.539644  0.460356  0.250000  1
  Hf  Hf13  1  0.539644  0.079288  0.250000  1
  Hf  Hf14  1  0.920712  0.460356  0.250000  1
  Hf  Hf15  1  0.459067  0.540933  0.750000  1
  Hf  Hf16  1  0.459067  0.918135  0.750000  1
  Hf  Hf17  1  0.081865  0.540933  0.750000  1
  Re  Re18  1  0.109471  0.890529  0.750000  1
  Re  Re19  1  0.109471  0.218942  0.750000  1
  Re  Re20  1  0.781058  0.890529  0.750000  1
  Re  Re21  1  0.000000  0.000000  0.501414  1
  Re  Re22  1  0.000000  0.000000  0.998586  1
  Mo  Mo23  1  0.890327  0.109673  0.250000  1
  Mo  Mo24  1  0.890327  0.780654  0.250000  1
  Mo  Mo25  1  0.219346  0.109673  0.250000  1
  As  As26  1  0.333333  0.666667  0.250000  1
  P  P27  1  0.666667  0.333333  0.750000  1
