# generated using pymatgen
data_HfZr5Al16Co2Ni5
_symmetry_space_group_name_H-M   'P 1'
_cell_length_a   8.53958603
_cell_length_b   8.55431636
_cell_length_c   8.54185274
_cell_angle_alpha   59.93419384
_cell_angle_beta   60.10534752
_cell_angle_gamma   59.89321685
_symmetry_Int_Tables_number   1
_chemical_formula_structural   HfZr5Al16Co2Ni5
_chemical_formula_sum   'Hf1 Zr5 Al16 Co2 Ni5'
_cell_volume   440.99642065
_cell_formula_units_Z   1
loop_
 _symmetry_equiv_pos_site_id
 _symmetry_equiv_pos_as_xyz
  1  'x, y, z'
loop_
 _atom_site_type_symbol
 _atom_site_label
 _atom_site_symmetry_multiplicity
 _atom_site_fract_x
 _atom_site_fract_y
 _atom_site_fract_z
 _atom_site_occupancy
  Hf  Hf0  1  0.311093  0.688907  0.690303  1
  Zr  Zr1  1  0.693975  0.694668  0.306043  1
  Zr  Zr2  1  0.311615  0.688385  0.311491  1
  Zr  Zr3  1  0.691813  0.308187  0.307280  1
  Zr  Zr4  1  0.305332  0.306025  0.694686  1
  Zr  Zr5  1  0.687645  0.312355  0.689111  1
  Al  Al6  1  0.882395  0.881616  0.354005  1
  Al  Al7  1  0.877303  0.355018  0.883383  1
  Al  Al8  1  0.354470  0.877138  0.884072  1
  Al  Al9  1  0.882399  0.882202  0.881867  1
  Al  Al10  1  0.117798  0.117601  0.646468  1
  Al  Al11  1  0.122862  0.645530  0.115682  1
  Al  Al12  1  0.644982  0.122697  0.115705  1
  Al  Al13  1  0.118384  0.117605  0.118016  1
  Al  Al14  1  0.665550  0.665189  0.001770  1
  Al  Al15  1  0.665357  0.001442  0.666469  1
  Al  Al16  1  0.002100  0.665377  0.666815  1
  Al  Al17  1  0.664661  0.665633  0.667399  1
  Al  Al18  1  0.334367  0.335339  0.997692  1
  Al  Al19  1  0.334623  0.997900  0.334292  1
  Al  Al20  1  0.998558  0.334643  0.333268  1
  Al  Al21  1  0.334811  0.334450  0.332507  1
  Co  Co22  1  0.999438  0.000562  0.000429  1
  Co  Co23  1  0.498867  0.501133  0.999267  1
  Ni  Ni24  1  0.000590  0.999410  0.500812  1
  Ni  Ni25  1  0.498981  0.999519  0.501077  1
  Ni  Ni26  1  0.999825  0.500276  0.500206  1
  Ni  Ni27  1  0.000481  0.501019  0.999577  1
  Ni  Ni28  1  0.499724  0.000175  0.000307  1
