# generated using pymatgen
data_TmZrAgS4
_symmetry_space_group_name_H-M   'P 1'
_cell_length_a   7.77480389
_cell_length_b   7.77480463
_cell_length_c   10.97044925
_cell_angle_alpha   91.16065689
_cell_angle_beta   91.16065807
_cell_angle_gamma   90.09976708
_symmetry_Int_Tables_number   1
_chemical_formula_structural   TmZrAgS4
_chemical_formula_sum   'Tm4 Zr4 Ag4 S16'
_cell_volume   662.86350086
_cell_formula_units_Z   4
loop_
 _symmetry_equiv_pos_site_id
 _symmetry_equiv_pos_as_xyz
  1  'x, y, z'
loop_
 _atom_site_type_symbol
 _atom_site_label
 _atom_site_symmetry_multiplicity
 _atom_site_fract_x
 _atom_site_fract_y
 _atom_site_fract_z
 _atom_site_occupancy
  Tm  Tm0  1  0.001357  0.749486  0.624530  1
  Tm  Tm1  1  0.749486  0.501357  0.874530  1
  Tm  Tm2  1  0.249486  0.001357  0.374530  1
  Tm  Tm3  1  0.501357  0.249486  0.124530  1
  Zr  Zr4  1  0.999780  0.250211  0.625776  1
  Zr  Zr5  1  0.750211  0.999780  0.375776  1
  Zr  Zr6  1  0.499780  0.750211  0.125776  1
  Zr  Zr7  1  0.250211  0.499780  0.875776  1
  Ag  Ag8  1  0.997492  0.001474  0.999820  1
  Ag  Ag9  1  0.497492  0.501474  0.499820  1
  Ag  Ag10  1  0.501474  0.997492  0.749820  1
  Ag  Ag11  1  0.001474  0.497492  0.249820  1
  S  S12  1  0.990536  0.234948  0.387150  1
  S  S13  1  0.765902  0.007903  0.613706  1
  S  S14  1  0.989456  0.772224  0.379877  1
  S  S15  1  0.727991  0.511239  0.119142  1
  S  S16  1  0.507903  0.765902  0.363706  1
  S  S17  1  0.272224  0.989456  0.129877  1
  S  S18  1  0.511239  0.227991  0.369142  1
  S  S19  1  0.734948  0.990536  0.137150  1
  S  S20  1  0.490536  0.734948  0.887150  1
  S  S21  1  0.265902  0.507903  0.113706  1
  S  S22  1  0.489456  0.272224  0.879877  1
  S  S23  1  0.227991  0.011239  0.619142  1
  S  S24  1  0.007903  0.265902  0.863706  1
  S  S25  1  0.772224  0.489456  0.629877  1
  S  S26  1  0.011239  0.727991  0.869142  1
  S  S27  1  0.234948  0.490536  0.637150  1
