# generated using pymatgen
data_LiNd2Si4(PPd10)2
_symmetry_space_group_name_H-M   'P 1'
_cell_length_a   8.70502803
_cell_length_b   8.70502789
_cell_length_c   8.70989800
_cell_angle_alpha   59.98149150
_cell_angle_beta   59.98149203
_cell_angle_gamma   60.03700646
_symmetry_Int_Tables_number   1
_chemical_formula_structural   LiNd2Si4(PPd10)2
_chemical_formula_sum   'Li1 Nd2 Si4 P2 Pd20'
_cell_volume   466.70032905
_cell_formula_units_Z   1
loop_
 _symmetry_equiv_pos_site_id
 _symmetry_equiv_pos_as_xyz
  1  'x, y, z'
loop_
 _atom_site_type_symbol
 _atom_site_label
 _atom_site_symmetry_multiplicity
 _atom_site_fract_x
 _atom_site_fract_y
 _atom_site_fract_z
 _atom_site_occupancy
  Li  Li0  1  0.000000  0.000000  0.000000  1
  Nd  Nd1  1  0.250000  0.250000  0.250000  1
  Nd  Nd2  1  0.750000  0.750000  0.750000  1
  Si  Si3  1  0.737168  0.262832  0.262832  1
  Si  Si4  1  0.262832  0.737168  0.737168  1
  Si  Si5  1  0.262832  0.737168  0.262832  1
  Si  Si6  1  0.737168  0.262832  0.737168  1
  P  P7  1  0.262392  0.262392  0.737608  1
  P  P8  1  0.737608  0.737608  0.262392  1
  Pd  Pd9  1  0.385304  0.385304  0.387115  1
  Pd  Pd10  1  0.614696  0.614696  0.612885  1
  Pd  Pd11  1  0.385304  0.385304  0.842278  1
  Pd  Pd12  1  0.387115  0.842278  0.385304  1
  Pd  Pd13  1  0.614696  0.614696  0.157722  1
  Pd  Pd14  1  0.612885  0.157722  0.614696  1
  Pd  Pd15  1  0.842278  0.387115  0.385304  1
  Pd  Pd16  1  0.157722  0.612885  0.614696  1
  Pd  Pd17  1  0.344494  0.001866  0.998134  1
  Pd  Pd18  1  0.655506  0.998134  0.001866  1
  Pd  Pd19  1  0.001866  0.344494  0.655506  1
  Pd  Pd20  1  0.998134  0.655506  0.344494  1
  Pd  Pd21  1  0.001866  0.344494  0.998134  1
  Pd  Pd22  1  0.655506  0.998134  0.344494  1
  Pd  Pd23  1  0.998134  0.655506  0.001866  1
  Pd  Pd24  1  0.344494  0.001866  0.655506  1
  Pd  Pd25  1  0.000000  0.000000  0.345950  1
  Pd  Pd26  1  0.000000  0.000000  0.654050  1
  Pd  Pd27  1  0.654050  0.345950  0.000000  1
  Pd  Pd28  1  0.345950  0.654050  0.000000  1
