# generated using pymatgen
data_PmNd(SiPd)2
_symmetry_space_group_name_H-M   'P 1'
_cell_length_a   5.84943953
_cell_length_b   5.84943929
_cell_length_c   5.84944052
_cell_angle_alpha   136.82218981
_cell_angle_beta   99.89093560
_cell_angle_gamma   95.68119180
_symmetry_Int_Tables_number   1
_chemical_formula_structural   PmNd(SiPd)2
_chemical_formula_sum   'Pm1 Nd1 Si2 Pd2'
_cell_volume   127.23125772
_cell_formula_units_Z   1
loop_
 _symmetry_equiv_pos_site_id
 _symmetry_equiv_pos_as_xyz
  1  'x, y, z'
loop_
 _atom_site_type_symbol
 _atom_site_label
 _atom_site_symmetry_multiplicity
 _atom_site_fract_x
 _atom_site_fract_y
 _atom_site_fract_z
 _atom_site_occupancy
  Pm  Pm0  1  0.996970  0.000000  0.996970  1
  Nd  Nd1  1  0.497944  0.500000  0.997944  1
  Si  Si2  1  0.919274  0.251617  0.667658  1
  Si  Si3  1  0.416040  0.748382  0.667657  1
  Pd  Pd4  1  0.585863  0.250978  0.334886  1
  Pd  Pd5  1  0.083908  0.749021  0.334886  1
