# generated using pymatgen
data_Ho5Tc2
_symmetry_space_group_name_H-M   'P 1'
_cell_length_a   6.19424495
_cell_length_b   7.45220028
_cell_length_c   8.45848659
_cell_angle_alpha   96.94810874
_cell_angle_beta   111.47873255
_cell_angle_gamma   90.00000186
_symmetry_Int_Tables_number   1
_chemical_formula_structural   Ho5Tc2
_chemical_formula_sum   'Ho10 Tc4'
_cell_volume   360.25156108
_cell_formula_units_Z   2
loop_
 _symmetry_equiv_pos_site_id
 _symmetry_equiv_pos_as_xyz
  1  'x, y, z'
loop_
 _atom_site_type_symbol
 _atom_site_label
 _atom_site_symmetry_multiplicity
 _atom_site_fract_x
 _atom_site_fract_y
 _atom_site_fract_z
 _atom_site_occupancy
  Ho  Ho0  1  0.972797  0.916366  0.181631  1
  Ho  Ho1  1  0.791167  0.583634  0.818369  1
  Ho  Ho2  1  0.027203  0.083634  0.818369  1
  Ho  Ho3  1  0.208833  0.416366  0.181631  1
  Ho  Ho4  1  0.632677  0.817344  0.434194  1
  Ho  Ho5  1  0.198483  0.682656  0.565806  1
  Ho  Ho6  1  0.367323  0.182656  0.565806  1
  Ho  Ho7  1  0.801517  0.317344  0.434194  1
  Ho  Ho8  1  0.409361  0.750000  0.000000  1
  Ho  Ho9  1  0.590639  0.250000  0.000000  1
  Tc  Tc10  1  0.815087  0.576384  0.218885  1
  Tc  Tc11  1  0.596202  0.923616  0.781115  1
  Tc  Tc12  1  0.184913  0.423616  0.781115  1
  Tc  Tc13  1  0.403798  0.076384  0.218885  1
