# generated using pymatgen
data_Hf6AlTc3Ru2
_symmetry_space_group_name_H-M   'P 1'
_cell_length_a   4.61412400
_cell_length_b   6.59701500
_cell_length_c   13.85586100
_cell_angle_alpha   90.00000000
_cell_angle_beta   90.00069504
_cell_angle_gamma   90.00000000
_symmetry_Int_Tables_number   1
_chemical_formula_structural   Hf6AlTc3Ru2
_chemical_formula_sum   'Hf12 Al2 Tc6 Ru4'
_cell_volume   421.76472215
_cell_formula_units_Z   2
loop_
 _symmetry_equiv_pos_site_id
 _symmetry_equiv_pos_as_xyz
  1  'x, y, z'
loop_
 _atom_site_type_symbol
 _atom_site_label
 _atom_site_symmetry_multiplicity
 _atom_site_fract_x
 _atom_site_fract_y
 _atom_site_fract_z
 _atom_site_occupancy
  Hf  Hf0  1  0.500004  0.243044  0.995358  1
  Hf  Hf1  1  0.500004  0.756956  0.995358  1
  Hf  Hf2  1  0.999985  0.256954  0.171310  1
  Hf  Hf3  1  0.999985  0.743046  0.171310  1
  Hf  Hf4  1  0.499992  0.253712  0.338024  1
  Hf  Hf5  1  0.499992  0.746288  0.338024  1
  Hf  Hf6  1  0.000001  0.249402  0.500997  1
  Hf  Hf7  1  0.000001  0.750599  0.500997  1
  Hf  Hf8  1  0.500010  0.250602  0.665665  1
  Hf  Hf9  1  0.500010  0.749398  0.665665  1
  Hf  Hf10  1  0.000014  0.246291  0.828643  1
  Hf  Hf11  1  0.000014  0.753709  0.828643  1
  Al  Al12  1  0.000003  0.500001  0.998882  1
  Al  Al13  1  0.499969  0.000000  0.167796  1
  Tc  Tc14  1  0.000007  0.000000  0.003265  1
  Tc  Tc15  1  0.499984  0.500001  0.163403  1
  Tc  Tc16  1  0.999991  0.000000  0.329160  1
  Tc  Tc17  1  0.500000  0.500001  0.500984  1
  Tc  Tc18  1  0.000011  0.000000  0.665681  1
  Tc  Tc19  1  0.500017  0.500001  0.837507  1
  Ru  Ru20  1  0.999987  0.500001  0.333786  1
  Ru  Ru21  1  0.500001  0.000000  0.499316  1
  Ru  Ru22  1  0.000012  0.500001  0.667346  1
  Ru  Ru23  1  0.500018  0.000000  0.832878  1
