# generated using pymatgen
data_Nd8Ho9Er3Pb16
_symmetry_space_group_name_H-M   'P 1'
_cell_length_a   8.28507304
_cell_length_b   8.33856204
_cell_length_c   15.78470600
_cell_angle_alpha   90.00000000
_cell_angle_beta   90.00000000
_cell_angle_gamma   90.01067757
_symmetry_Int_Tables_number   1
_chemical_formula_structural   Nd8Ho9Er3Pb16
_chemical_formula_sum   'Nd8 Ho9 Er3 Pb16'
_cell_volume   1090.49579463
_cell_formula_units_Z   1
loop_
 _symmetry_equiv_pos_site_id
 _symmetry_equiv_pos_as_xyz
  1  'x, y, z'
loop_
 _atom_site_type_symbol
 _atom_site_label
 _atom_site_symmetry_multiplicity
 _atom_site_fract_x
 _atom_site_fract_y
 _atom_site_fract_z
 _atom_site_occupancy
  Nd  Nd0  1  0.469719  0.678296  0.599395  1
  Nd  Nd1  1  0.969819  0.821814  0.900595  1
  Nd  Nd2  1  0.530212  0.321744  0.099438  1
  Nd  Nd3  1  0.030195  0.178253  0.400587  1
  Nd  Nd4  1  0.530212  0.321744  0.400562  1
  Nd  Nd5  1  0.030195  0.178253  0.099413  1
  Nd  Nd6  1  0.469719  0.678296  0.900605  1
  Nd  Nd7  1  0.969819  0.821814  0.599405  1
  Ho  Ho8  1  0.626560  0.160077  0.621186  1
  Ho  Ho9  1  0.126718  0.339839  0.878818  1
  Ho  Ho10  1  0.373379  0.839870  0.121160  1
  Ho  Ho11  1  0.873371  0.660101  0.378817  1
  Ho  Ho12  1  0.373379  0.839870  0.378840  1
  Ho  Ho13  1  0.873371  0.660101  0.121183  1
  Ho  Ho14  1  0.626560  0.160077  0.878814  1
  Ho  Ho15  1  0.126718  0.339839  0.621182  1
  Ho  Ho16  1  0.794705  0.494411  0.750000  1
  Er  Er17  1  0.294671  0.005671  0.750000  1
  Er  Er18  1  0.205352  0.505666  0.250000  1
  Er  Er19  1  0.705365  0.994380  0.250000  1
  Pb  Pb20  1  0.712594  0.963918  0.456487  1
  Pb  Pb21  1  0.212623  0.536058  0.043513  1
  Pb  Pb22  1  0.287397  0.036051  0.956478  1
  Pb  Pb23  1  0.787405  0.463946  0.543419  1
  Pb  Pb24  1  0.287397  0.036051  0.543522  1
  Pb  Pb25  1  0.787405  0.463946  0.956581  1
  Pb  Pb26  1  0.712594  0.963918  0.043513  1
  Pb  Pb27  1  0.212623  0.536058  0.456487  1
  Pb  Pb28  1  0.431254  0.370588  0.750000  1
  Pb  Pb29  1  0.931490  0.129152  0.750000  1
  Pb  Pb30  1  0.568611  0.629298  0.250000  1
  Pb  Pb31  1  0.068553  0.870713  0.250000  1
  Pb  Pb32  1  0.659883  0.851879  0.750000  1
  Pb  Pb33  1  0.159908  0.648365  0.750000  1
  Pb  Pb34  1  0.340117  0.148322  0.250000  1
  Pb  Pb35  1  0.840106  0.351621  0.250000  1
