# generated using pymatgen
data_La2Si4P2Pd20Au
_symmetry_space_group_name_H-M   'P 1'
_cell_length_a   8.72981541
_cell_length_b   8.72981566
_cell_length_c   8.72620700
_cell_angle_alpha   60.01367709
_cell_angle_beta   60.01367613
_cell_angle_gamma   59.97264905
_symmetry_Int_Tables_number   1
_chemical_formula_structural   La2Si4P2Pd20Au
_chemical_formula_sum   'La2 Si4 P2 Pd20 Au1'
_cell_volume   470.24101501
_cell_formula_units_Z   1
loop_
 _symmetry_equiv_pos_site_id
 _symmetry_equiv_pos_as_xyz
  1  'x, y, z'
loop_
 _atom_site_type_symbol
 _atom_site_label
 _atom_site_symmetry_multiplicity
 _atom_site_fract_x
 _atom_site_fract_y
 _atom_site_fract_z
 _atom_site_occupancy
  La  La0  1  0.750000  0.750000  0.750000  1
  La  La1  1  0.250000  0.250000  0.250000  1
  Si  Si2  1  0.735839  0.264161  0.735839  1
  Si  Si3  1  0.264161  0.735839  0.264161  1
  Si  Si4  1  0.264161  0.735839  0.735839  1
  Si  Si5  1  0.735839  0.264161  0.264161  1
  P  P6  1  0.734277  0.734277  0.265723  1
  P  P7  1  0.265723  0.265723  0.734277  1
  Pd  Pd8  1  0.614492  0.614492  0.613151  1
  Pd  Pd9  1  0.385508  0.385508  0.386849  1
  Pd  Pd10  1  0.157864  0.613151  0.614492  1
  Pd  Pd11  1  0.613151  0.157864  0.614492  1
  Pd  Pd12  1  0.842136  0.386849  0.385508  1
  Pd  Pd13  1  0.386849  0.842136  0.385508  1
  Pd  Pd14  1  0.614492  0.614492  0.157864  1
  Pd  Pd15  1  0.385508  0.385508  0.842136  1
  Pd  Pd16  1  0.000000  0.000000  0.654758  1
  Pd  Pd17  1  0.000000  0.000000  0.345242  1
  Pd  Pd18  1  0.345242  0.654758  0.000000  1
  Pd  Pd19  1  0.654758  0.345242  0.000000  1
  Pd  Pd20  1  0.998043  0.656405  0.001957  1
  Pd  Pd21  1  0.656405  0.998043  0.343595  1
  Pd  Pd22  1  0.001957  0.343595  0.998043  1
  Pd  Pd23  1  0.343595  0.001957  0.656405  1
  Pd  Pd24  1  0.656405  0.998043  0.001957  1
  Pd  Pd25  1  0.343595  0.001957  0.998043  1
  Pd  Pd26  1  0.998043  0.656405  0.343595  1
  Pd  Pd27  1  0.001957  0.343595  0.656405  1
  Au  Au28  1  0.000000  0.000000  0.000000  1
