# generated using pymatgen
data_Tb6Th2Mg2IrRh
_symmetry_space_group_name_H-M   'P 1'
_cell_length_a   9.83483087
_cell_length_b   9.83483097
_cell_length_c   9.86513500
_cell_angle_alpha   59.89801572
_cell_angle_beta   59.89801538
_cell_angle_gamma   59.80336920
_symmetry_Int_Tables_number   1
_chemical_formula_structural   Tb6Th2Mg2IrRh
_chemical_formula_sum   'Tb12 Th4 Mg4 Ir2 Rh2'
_cell_volume   672.67161157
_cell_formula_units_Z   2
loop_
 _symmetry_equiv_pos_site_id
 _symmetry_equiv_pos_as_xyz
  1  'x, y, z'
loop_
 _atom_site_type_symbol
 _atom_site_label
 _atom_site_symmetry_multiplicity
 _atom_site_fract_x
 _atom_site_fract_y
 _atom_site_fract_z
 _atom_site_occupancy
  Tb  Tb0  1  0.813135  0.186858  0.187699  1
  Tb  Tb1  1  0.186858  0.813135  0.812308  1
  Tb  Tb2  1  0.186858  0.813135  0.187699  1
  Tb  Tb3  1  0.813135  0.186858  0.812308  1
  Tb  Tb4  1  0.187662  0.187662  0.812338  1
  Tb  Tb5  1  0.813371  0.813371  0.186629  1
  Tb  Tb6  1  0.935919  0.564312  0.565992  1
  Tb  Tb7  1  0.564312  0.935919  0.933777  1
  Tb  Tb8  1  0.564312  0.935919  0.565992  1
  Tb  Tb9  1  0.935919  0.564312  0.933777  1
  Tb  Tb10  1  0.566195  0.566195  0.933805  1
  Tb  Tb11  1  0.935848  0.935848  0.564152  1
  Th  Th12  1  0.347885  0.347885  0.347118  1
  Th  Th13  1  0.347885  0.347885  0.957114  1
  Th  Th14  1  0.348903  0.955231  0.347934  1
  Th  Th15  1  0.955231  0.348903  0.347934  1
  Mg  Mg16  1  0.579622  0.579622  0.581001  1
  Mg  Mg17  1  0.579622  0.579622  0.259757  1
  Mg  Mg18  1  0.579569  0.259258  0.580587  1
  Mg  Mg19  1  0.259258  0.579569  0.580587  1
  Ir  Ir20  1  0.143871  0.143871  0.144062  1
  Ir  Ir21  1  0.143871  0.143871  0.568194  1
  Rh  Rh22  1  0.143966  0.566793  0.144619  1
  Rh  Rh23  1  0.566793  0.143966  0.144619  1
