# generated using pymatgen
data_Y5TcRuO12
_symmetry_space_group_name_H-M   'P 1'
_cell_length_a   6.86340850
_cell_length_b   6.86340995
_cell_length_c   7.52383203
_cell_angle_alpha   73.87199650
_cell_angle_beta   73.87199203
_cell_angle_gamma   48.86852995
_symmetry_Int_Tables_number   1
_chemical_formula_structural   Y5TcRuO12
_chemical_formula_sum   'Y5 Tc1 Ru1 O12'
_cell_volume   254.22127861
_cell_formula_units_Z   1
loop_
 _symmetry_equiv_pos_site_id
 _symmetry_equiv_pos_as_xyz
  1  'x, y, z'
loop_
 _atom_site_type_symbol
 _atom_site_label
 _atom_site_symmetry_multiplicity
 _atom_site_fract_x
 _atom_site_fract_y
 _atom_site_fract_z
 _atom_site_occupancy
  Y  Y0  1  0.491380  0.508620  0.500000  1
  Y  Y1  1  0.180883  0.189702  0.173291  1
  Y  Y2  1  0.810298  0.819117  0.826709  1
  Y  Y3  1  0.792432  0.815357  0.357302  1
  Y  Y4  1  0.184643  0.207568  0.642698  1
  Tc  Tc5  1  0.297095  0.702905  0.000000  1
  Ru  Ru6  1  0.729250  0.270750  0.000000  1
  O  O7  1  0.007629  0.990241  0.176018  1
  O  O8  1  0.009759  0.992371  0.823982  1
  O  O9  1  0.502814  0.495431  0.798270  1
  O  O10  1  0.504569  0.497186  0.201730  1
  O  O11  1  0.589113  0.100325  0.576714  1
  O  O12  1  0.899675  0.410887  0.423286  1
  O  O13  1  0.392908  0.909344  0.429585  1
  O  O14  1  0.410173  0.908294  0.917253  1
  O  O15  1  0.091706  0.589827  0.082747  1
  O  O16  1  0.586975  0.071960  0.084457  1
  O  O17  1  0.928040  0.413025  0.915543  1
  O  O18  1  0.090656  0.607092  0.570415  1
