# generated using pymatgen
data_K2Fe(GeO3)2
_symmetry_space_group_name_H-M   'P 1'
_cell_length_a   5.96932485
_cell_length_b   5.96932454
_cell_length_c   11.18966200
_cell_angle_alpha   90.00000000
_cell_angle_beta   90.00000000
_cell_angle_gamma   114.68456505
_symmetry_Int_Tables_number   1
_chemical_formula_structural   K2Fe(GeO3)2
_chemical_formula_sum   'K4 Fe2 Ge4 O12'
_cell_volume   362.28471071
_cell_formula_units_Z   2
loop_
 _symmetry_equiv_pos_site_id
 _symmetry_equiv_pos_as_xyz
  1  'x, y, z'
loop_
 _atom_site_type_symbol
 _atom_site_label
 _atom_site_symmetry_multiplicity
 _atom_site_fract_x
 _atom_site_fract_y
 _atom_site_fract_z
 _atom_site_occupancy
  K  K0  1  0.781672  0.428888  0.925826  1
  K  K1  1  0.571112  0.218328  0.574174  1
  K  K2  1  0.218328  0.571112  0.425826  1
  K  K3  1  0.428888  0.781672  0.074174  1
  Fe  Fe4  1  0.688324  0.311676  0.250000  1
  Fe  Fe5  1  0.311676  0.688324  0.750000  1
  Ge  Ge6  1  0.830305  0.863873  0.364113  1
  Ge  Ge7  1  0.136127  0.169695  0.135887  1
  Ge  Ge8  1  0.169695  0.136127  0.864113  1
  Ge  Ge9  1  0.863873  0.830305  0.635887  1
  O  O10  1  0.612548  0.981046  0.333921  1
  O  O11  1  0.542040  0.708274  0.616465  1
  O  O12  1  0.708274  0.542040  0.383535  1
  O  O13  1  0.387452  0.018954  0.833921  1
  O  O14  1  0.003998  0.003998  0.500000  1
  O  O15  1  0.457960  0.291726  0.116465  1
  O  O16  1  0.062568  0.937432  0.250000  1
  O  O17  1  0.291726  0.457960  0.883535  1
  O  O18  1  0.996002  0.996002  0.000000  1
  O  O19  1  0.937432  0.062568  0.750000  1
  O  O20  1  0.018954  0.387452  0.166079  1
  O  O21  1  0.981046  0.612548  0.666079  1
