# generated using pymatgen
data_Hf5Zr5(Sn3As)2
_symmetry_space_group_name_H-M   'P 1'
_cell_length_a   8.65906433
_cell_length_b   8.65906509
_cell_length_c   5.92882300
_cell_angle_alpha   90.00000000
_cell_angle_beta   90.00000000
_cell_angle_gamma   120.03165572
_symmetry_Int_Tables_number   1
_chemical_formula_structural   Hf5Zr5(Sn3As)2
_chemical_formula_sum   'Hf5 Zr5 Sn6 As2'
_cell_volume   384.85972529
_cell_formula_units_Z   1
loop_
 _symmetry_equiv_pos_site_id
 _symmetry_equiv_pos_as_xyz
  1  'x, y, z'
loop_
 _atom_site_type_symbol
 _atom_site_label
 _atom_site_symmetry_multiplicity
 _atom_site_fract_x
 _atom_site_fract_y
 _atom_site_fract_z
 _atom_site_occupancy
  Hf  Hf0  1  0.666774  0.333590  0.999936  1
  Hf  Hf1  1  0.333590  0.666774  0.999936  1
  Hf  Hf2  1  0.333590  0.666774  0.500064  1
  Hf  Hf3  1  0.666774  0.333590  0.500064  1
  Hf  Hf4  1  0.737799  0.737799  0.750000  1
  Zr  Zr5  1  0.262572  0.000070  0.750000  1
  Zr  Zr6  1  0.000070  0.262572  0.750000  1
  Zr  Zr7  1  0.262167  0.262167  0.250000  1
  Zr  Zr8  1  0.737552  0.999734  0.250000  1
  Zr  Zr9  1  0.999734  0.737552  0.250000  1
  Sn  Sn10  1  0.396059  0.396059  0.750000  1
  Sn  Sn11  1  0.604658  0.999770  0.750000  1
  Sn  Sn12  1  0.999770  0.604658  0.750000  1
  Sn  Sn13  1  0.604573  0.604573  0.250000  1
  Sn  Sn14  1  0.395555  0.999990  0.250000  1
  Sn  Sn15  1  0.999990  0.395555  0.250000  1
  As  As16  1  0.999386  0.999386  0.999341  1
  As  As17  1  0.999386  0.999386  0.500659  1
