# generated using pymatgen
data_NdTh(B4W)2
_symmetry_space_group_name_H-M   'P 1'
_cell_length_a   6.13568919
_cell_length_b   6.13569012
_cell_length_c   3.72893400
_cell_angle_alpha   90.00000000
_cell_angle_beta   90.00000000
_cell_angle_gamma   104.22437902
_symmetry_Int_Tables_number   1
_chemical_formula_structural   NdTh(B4W)2
_chemical_formula_sum   'Nd1 Th1 B8 W2'
_cell_volume   136.07802511
_cell_formula_units_Z   1
loop_
 _symmetry_equiv_pos_site_id
 _symmetry_equiv_pos_as_xyz
  1  'x, y, z'
loop_
 _atom_site_type_symbol
 _atom_site_label
 _atom_site_symmetry_multiplicity
 _atom_site_fract_x
 _atom_site_fract_y
 _atom_site_fract_z
 _atom_site_occupancy
  Nd  Nd0  1  0.301115  0.698885  0.000000  1
  Th  Th1  1  0.697825  0.302175  0.000000  1
  B  B2  1  0.090478  0.909522  0.500000  1
  B  B3  1  0.909455  0.090545  0.500000  1
  B  B4  1  0.628403  0.626592  0.500000  1
  B  B5  1  0.373408  0.371597  0.500000  1
  B  B6  1  0.065458  0.377672  0.500000  1
  B  B7  1  0.932845  0.621853  0.500000  1
  B  B8  1  0.378147  0.067155  0.500000  1
  B  B9  1  0.622328  0.934542  0.500000  1
  W  W10  1  0.831245  0.830707  0.000000  1
  W  W11  1  0.169293  0.168755  0.000000  1
