# generated using pymatgen
data_La4Al3Ga
_symmetry_space_group_name_H-M   'P 1'
_cell_length_a   6.09233071
_cell_length_b   6.09232993
_cell_length_c   5.75392100
_cell_angle_alpha   90.00000000
_cell_angle_beta   90.00000000
_cell_angle_gamma   100.99453144
_symmetry_Int_Tables_number   1
_chemical_formula_structural   La4Al3Ga
_chemical_formula_sum   'La4 Al3 Ga1'
_cell_volume   209.64543552
_cell_formula_units_Z   1
loop_
 _symmetry_equiv_pos_site_id
 _symmetry_equiv_pos_as_xyz
  1  'x, y, z'
loop_
 _atom_site_type_symbol
 _atom_site_label
 _atom_site_symmetry_multiplicity
 _atom_site_fract_x
 _atom_site_fract_y
 _atom_site_fract_z
 _atom_site_occupancy
  La  La0  1  0.842178  0.485575  0.250000  1
  La  La1  1  0.158558  0.513365  0.750000  1
  La  La2  1  0.485575  0.842178  0.250000  1
  La  La3  1  0.513365  0.158558  0.750000  1
  Al  Al4  1  0.696034  0.696034  0.750000  1
  Al  Al5  1  0.999915  0.999915  0.499713  1
  Al  Al6  1  0.999915  0.999915  0.000287  1
  Ga  Ga7  1  0.304460  0.304460  0.250000  1
