# generated using pymatgen
data_TbEu(Cu2P)4
_symmetry_space_group_name_H-M   'P 1'
_cell_length_a   7.28798325
_cell_length_b   7.28798329
_cell_length_c   3.81748600
_cell_angle_alpha   90.00000000
_cell_angle_beta   90.00000000
_cell_angle_gamma   89.61184910
_symmetry_Int_Tables_number   1
_chemical_formula_structural   TbEu(Cu2P)4
_chemical_formula_sum   'Tb1 Eu1 Cu8 P4'
_cell_volume   202.75997145
_cell_formula_units_Z   1
loop_
 _symmetry_equiv_pos_site_id
 _symmetry_equiv_pos_as_xyz
  1  'x, y, z'
loop_
 _atom_site_type_symbol
 _atom_site_label
 _atom_site_symmetry_multiplicity
 _atom_site_fract_x
 _atom_site_fract_y
 _atom_site_fract_z
 _atom_site_occupancy
  Tb  Tb0  1  0.000000  0.000000  0.000000  1
  Eu  Eu1  1  0.500000  0.500000  0.500000  1
  Cu  Cu2  1  0.664856  0.916269  0.500000  1
  Cu  Cu3  1  0.159853  0.585551  0.000000  1
  Cu  Cu4  1  0.414449  0.840147  0.000000  1
  Cu  Cu5  1  0.916269  0.664856  0.500000  1
  Cu  Cu6  1  0.840147  0.414449  0.000000  1
  Cu  Cu7  1  0.585551  0.159853  0.000000  1
  Cu  Cu8  1  0.083731  0.335144  0.500000  1
  Cu  Cu9  1  0.335144  0.083731  0.500000  1
  P  P10  1  0.281460  0.281460  0.000000  1
  P  P11  1  0.718540  0.718540  0.000000  1
  P  P12  1  0.786660  0.213340  0.500000  1
  P  P13  1  0.213340  0.786660  0.500000  1
