# generated using pymatgen
data_HoTm5Al16(SiRu)8
_symmetry_space_group_name_H-M   'P 1'
_cell_length_a   8.66497703
_cell_length_b   8.66497735
_cell_length_c   9.39814200
_cell_angle_alpha   90.00000000
_cell_angle_beta   90.00000000
_cell_angle_gamma   119.99009157
_symmetry_Int_Tables_number   1
_chemical_formula_structural   HoTm5Al16(SiRu)8
_chemical_formula_sum   'Ho1 Tm5 Al16 Si8 Ru8'
_cell_volume   611.15424780
_cell_formula_units_Z   1
loop_
 _symmetry_equiv_pos_site_id
 _symmetry_equiv_pos_as_xyz
  1  'x, y, z'
loop_
 _atom_site_type_symbol
 _atom_site_label
 _atom_site_symmetry_multiplicity
 _atom_site_fract_x
 _atom_site_fract_y
 _atom_site_fract_z
 _atom_site_occupancy
  Ho  Ho0  1  0.806694  0.193306  0.750000  1
  Tm  Tm1  1  0.193382  0.806618  0.250000  1
  Tm  Tm2  1  0.389122  0.194547  0.750000  1
  Tm  Tm3  1  0.612896  0.806552  0.250000  1
  Tm  Tm4  1  0.805453  0.610878  0.750000  1
  Tm  Tm5  1  0.193448  0.387104  0.250000  1
  Al  Al6  1  0.835906  0.164094  0.421574  1
  Al  Al7  1  0.165812  0.834188  0.580958  1
  Al  Al8  1  0.327967  0.164082  0.421935  1
  Al  Al9  1  0.165812  0.834188  0.919042  1
  Al  Al10  1  0.667687  0.833638  0.580764  1
  Al  Al11  1  0.835906  0.164094  0.078426  1
  Al  Al12  1  0.835918  0.672033  0.421935  1
  Al  Al13  1  0.667687  0.833638  0.919236  1
  Al  Al14  1  0.166362  0.332313  0.580764  1
  Al  Al15  1  0.327967  0.164082  0.078065  1
  Al  Al16  1  0.166362  0.332313  0.919236  1
  Al  Al17  1  0.835918  0.672033  0.078065  1
  Al  Al18  1  0.562405  0.437595  0.250000  1
  Al  Al19  1  0.875037  0.437710  0.250000  1
  Al  Al20  1  0.562290  0.124963  0.250000  1
  Al  Al21  1  0.999934  0.000066  0.250000  1
  Si  Si22  1  0.666555  0.333445  0.962982  1
  Si  Si23  1  0.333236  0.666764  0.042359  1
  Si  Si24  1  0.333236  0.666764  0.457641  1
  Si  Si25  1  0.666555  0.333445  0.537018  1
  Si  Si26  1  0.438727  0.561273  0.750000  1
  Si  Si27  1  0.123530  0.562301  0.750000  1
  Si  Si28  1  0.437699  0.876470  0.750000  1
  Si  Si29  1  0.001389  0.998611  0.750000  1
  Ru  Ru30  1  0.498203  0.501797  0.992671  1
  Ru  Ru31  1  0.003761  0.502248  0.992841  1
  Ru  Ru32  1  0.498203  0.501797  0.507329  1
  Ru  Ru33  1  0.497752  0.996239  0.992841  1
  Ru  Ru34  1  0.003761  0.502248  0.507159  1
  Ru  Ru35  1  0.497752  0.996239  0.507159  1
  Ru  Ru36  1  0.999834  0.000166  0.992633  1
  Ru  Ru37  1  0.999834  0.000166  0.507367  1
