# generated using pymatgen
data_HoTmLu2(Al8Pt3)3
_symmetry_space_group_name_H-M   'P 1'
_cell_length_a   7.51086132
_cell_length_b   7.53351560
_cell_length_c   13.13850301
_cell_angle_alpha   84.60485137
_cell_angle_beta   79.12402689
_cell_angle_gamma   59.98593086
_symmetry_Int_Tables_number   1
_chemical_formula_structural   HoTmLu2(Al8Pt3)3
_chemical_formula_sum   'Ho1 Tm1 Lu2 Al24 Pt9'
_cell_volume   632.16520037
_cell_formula_units_Z   1
loop_
 _symmetry_equiv_pos_site_id
 _symmetry_equiv_pos_as_xyz
  1  'x, y, z'
loop_
 _atom_site_type_symbol
 _atom_site_label
 _atom_site_symmetry_multiplicity
 _atom_site_fract_x
 _atom_site_fract_y
 _atom_site_fract_z
 _atom_site_occupancy
  Ho  Ho0  1  0.393626  0.168737  0.807968  1
  Tm  Tm1  1  0.606266  0.831006  0.192813  1
  Lu  Lu2  1  0.734382  0.498773  0.806923  1
  Lu  Lu3  1  0.265513  0.501371  0.193082  1
  Al  Al4  1  0.684335  0.833226  0.944149  1
  Al  Al5  1  0.316018  0.166268  0.056560  1
  Al  Al6  1  0.146486  0.832415  0.561604  1
  Al  Al7  1  0.853606  0.167575  0.438249  1
  Al  Al8  1  0.479304  0.166723  0.558645  1
  Al  Al9  1  0.520701  0.833242  0.441210  1
  Al  Al10  1  0.217946  0.165509  0.328202  1
  Al  Al11  1  0.782350  0.834297  0.671442  1
  Al  Al12  1  0.437447  0.506341  0.671547  1
  Al  Al13  1  0.562667  0.493838  0.328079  1
  Al  Al14  1  0.108887  0.160203  0.670396  1
  Al  Al15  1  0.891029  0.839837  0.329171  1
  Al  Al16  1  0.353902  0.499394  0.944276  1
  Al  Al17  1  0.645985  0.501138  0.056082  1
  Al  Al18  1  0.015456  0.168271  0.951863  1
  Al  Al19  1  0.983914  0.831753  0.048579  1
  Al  Al20  1  0.186845  0.499375  0.441161  1
  Al  Al21  1  0.813154  0.500663  0.558698  1
  Al  Al22  1  0.733336  0.164101  0.183172  1
  Al  Al23  1  0.266694  0.835303  0.816783  1
  Al  Al24  1  0.060992  0.631259  0.815674  1
  Al  Al25  1  0.938463  0.369245  0.184264  1
  Al  Al26  1  0.855403  0.042353  0.816191  1
  Al  Al27  1  0.145098  0.957646  0.183785  1
  Pt  Pt28  1  0.119244  0.491369  0.639477  1
  Pt  Pt29  1  0.880575  0.508988  0.360225  1
  Pt  Pt30  1  0.656912  0.171573  0.999854  1
  Pt  Pt31  1  0.343059  0.828492  0.000294  1
  Pt  Pt32  1  0.537400  0.166944  0.360431  1
  Pt  Pt33  1  0.462625  0.832794  0.639337  1
  Pt  Pt34  1  0.778097  0.175640  0.637733  1
  Pt  Pt35  1  0.222253  0.824316  0.362007  1
  Pt  Pt36  1  0.000030  0.500021  0.000078  1
