# generated using pymatgen
data_Pr19ErSi15Ir
_symmetry_space_group_name_H-M   'P 1'
_cell_length_a   7.89314935
_cell_length_b   7.89546198
_cell_length_c   15.23992751
_cell_angle_alpha   90.05682059
_cell_angle_beta   89.77561734
_cell_angle_gamma   90.00078054
_symmetry_Int_Tables_number   1
_chemical_formula_structural   Pr19ErSi15Ir
_chemical_formula_sum   'Pr19 Er1 Si15 Ir1'
_cell_volume   949.74545614
_cell_formula_units_Z   1
loop_
 _symmetry_equiv_pos_site_id
 _symmetry_equiv_pos_as_xyz
  1  'x, y, z'
loop_
 _atom_site_type_symbol
 _atom_site_label
 _atom_site_symmetry_multiplicity
 _atom_site_fract_x
 _atom_site_fract_y
 _atom_site_fract_z
 _atom_site_occupancy
  Pr  Pr0  1  0.191256  0.807466  0.249792  1
  Pr  Pr1  1  0.822450  0.188501  0.749426  1
  Pr  Pr2  1  0.694134  0.688234  0.500313  1
  Pr  Pr3  1  0.372671  0.011149  0.448998  1
  Pr  Pr4  1  0.488341  0.877060  0.698938  1
  Pr  Pr5  1  0.509668  0.123896  0.197005  1
  Pr  Pr6  1  0.876509  0.488335  0.300111  1
  Pr  Pr7  1  0.126554  0.507131  0.801035  1
  Pr  Pr8  1  0.626164  0.988632  0.948653  1
  Pr  Pr9  1  0.006569  0.375360  0.552030  1
  Pr  Pr10  1  0.988062  0.625280  0.051210  1
  Pr  Pr11  1  0.134574  0.985102  0.874072  1
  Pr  Pr12  1  0.516524  0.631462  0.125337  1
  Pr  Pr13  1  0.472879  0.362664  0.629515  1
  Pr  Pr14  1  0.628112  0.514774  0.874036  1
  Pr  Pr15  1  0.373332  0.482437  0.372492  1
  Pr  Pr16  1  0.872820  0.020571  0.376425  1
  Pr  Pr17  1  0.981845  0.127411  0.123755  1
  Pr  Pr18  1  0.025591  0.879303  0.625345  1
  Er  Er19  1  0.308729  0.308438  0.999373  1
  Si  Si20  1  0.331065  0.690950  0.952291  1
  Si  Si21  1  0.663001  0.302627  0.452224  1
  Si  Si22  1  0.693009  0.332369  0.048076  1
  Si  Si23  1  0.305112  0.668008  0.547627  1
  Si  Si24  1  0.805284  0.832258  0.202789  1
  Si  Si25  1  0.168047  0.197752  0.296861  1
  Si  Si26  1  0.832991  0.802468  0.799487  1
  Si  Si27  1  0.289057  0.927775  0.057607  1
  Si  Si28  1  0.579551  0.787198  0.310094  1
  Si  Si29  1  0.421322  0.210610  0.816502  1
  Si  Si30  1  0.781834  0.581530  0.690884  1
  Si  Si31  1  0.213695  0.419269  0.185700  1
  Si  Si32  1  0.703933  0.073749  0.558832  1
  Si  Si33  1  0.925650  0.289557  0.942760  1
  Si  Si34  1  0.079851  0.715014  0.441087  1
  Ir  Ir35  1  0.189811  0.175660  0.699321  1
