# generated using pymatgen
data_Tb20Ga5Si10Os
_symmetry_space_group_name_H-M   'P 1'
_cell_length_a   7.44364125
_cell_length_b   7.85540971
_cell_length_c   14.83178810
_cell_angle_alpha   89.91487467
_cell_angle_beta   89.99582857
_cell_angle_gamma   90.24036468
_symmetry_Int_Tables_number   1
_chemical_formula_structural   Tb20Ga5Si10Os
_chemical_formula_sum   'Tb20 Ga5 Si10 Os1'
_cell_volume   867.24835516
_cell_formula_units_Z   1
loop_
 _symmetry_equiv_pos_site_id
 _symmetry_equiv_pos_as_xyz
  1  'x, y, z'
loop_
 _atom_site_type_symbol
 _atom_site_label
 _atom_site_symmetry_multiplicity
 _atom_site_fract_x
 _atom_site_fract_y
 _atom_site_fract_z
 _atom_site_occupancy
  Tb  Tb0  1  0.671092  0.180214  0.625188  1
  Tb  Tb1  1  0.191997  0.331174  0.871611  1
  Tb  Tb2  1  0.320125  0.822617  0.125929  1
  Tb  Tb3  1  0.820989  0.676174  0.375648  1
  Tb  Tb4  1  0.319097  0.821647  0.376611  1
  Tb  Tb5  1  0.819754  0.677505  0.122227  1
  Tb  Tb6  1  0.674033  0.181316  0.876157  1
  Tb  Tb7  1  0.193354  0.329032  0.626847  1
  Tb  Tb8  1  0.515763  0.675957  0.598019  1
  Tb  Tb9  1  0.022050  0.812202  0.902127  1
  Tb  Tb10  1  0.477058  0.314001  0.099387  1
  Tb  Tb11  1  0.977812  0.183461  0.402011  1
  Tb  Tb12  1  0.473966  0.316587  0.400777  1
  Tb  Tb13  1  0.974837  0.180454  0.098313  1
  Tb  Tb14  1  0.520150  0.674435  0.901069  1
  Tb  Tb15  1  0.025012  0.816942  0.597450  1
  Tb  Tb16  1  0.829829  0.512642  0.750740  1
  Tb  Tb17  1  0.355046  0.987914  0.748398  1
  Tb  Tb18  1  0.152947  0.483687  0.251774  1
  Tb  Tb19  1  0.652085  0.013881  0.248244  1
  Ga  Ga20  1  0.653313  0.967834  0.459170  1
  Ga  Ga21  1  0.156621  0.530580  0.040442  1
  Ga  Ga22  1  0.340512  0.027991  0.960421  1
  Ga  Ga23  1  0.849575  0.467888  0.539791  1
  Ga  Ga24  1  0.980896  0.100977  0.751183  1
  Si  Si25  1  0.344972  0.026303  0.539328  1
  Si  Si26  1  0.853203  0.470007  0.960531  1
  Si  Si27  1  0.648868  0.970400  0.041545  1
  Si  Si28  1  0.153092  0.529658  0.459866  1
  Si  Si29  1  0.526081  0.601738  0.249084  1
  Si  Si30  1  0.024292  0.898140  0.250993  1
  Si  Si31  1  0.738166  0.875883  0.750248  1
  Si  Si32  1  0.231923  0.635611  0.749578  1
  Si  Si33  1  0.266081  0.124833  0.250198  1
  Si  Si34  1  0.766102  0.374419  0.249843  1
  Os  Os35  1  0.479306  0.405892  0.749253  1
