# generated using pymatgen
data_Dy4ThMn2O12
_symmetry_space_group_name_H-M   'P 1'
_cell_length_a   6.85078456
_cell_length_b   6.85085250
_cell_length_c   7.24250349
_cell_angle_alpha   74.76925035
_cell_angle_beta   74.76911878
_cell_angle_gamma   50.22478286
_symmetry_Int_Tables_number   1
_chemical_formula_structural   Dy4ThMn2O12
_chemical_formula_sum   'Dy4 Th1 Mn2 O12'
_cell_volume   250.01002931
_cell_formula_units_Z   1
loop_
 _symmetry_equiv_pos_site_id
 _symmetry_equiv_pos_as_xyz
  1  'x, y, z'
loop_
 _atom_site_type_symbol
 _atom_site_label
 _atom_site_symmetry_multiplicity
 _atom_site_fract_x
 _atom_site_fract_y
 _atom_site_fract_z
 _atom_site_occupancy
  Dy  Dy0  1  0.306519  0.306504  0.351613  1
  Dy  Dy1  1  0.693481  0.693496  0.648387  1
  Dy  Dy2  1  0.302690  0.302664  0.844637  1
  Dy  Dy3  1  0.697310  0.697336  0.155363  1
  Th  Th4  1  0.000000  0.000000  0.500000  1
  Mn  Mn5  1  0.753073  0.246938  0.000004  1
  Mn  Mn6  1  0.246927  0.753062  0.999996  1
  O  O7  1  0.900190  0.422765  0.918312  1
  O  O8  1  0.422755  0.900176  0.918314  1
  O  O9  1  0.099810  0.577235  0.081688  1
  O  O10  1  0.577245  0.099824  0.081686  1
  O  O11  1  0.095140  0.597217  0.575787  1
  O  O12  1  0.597218  0.095139  0.575784  1
  O  O13  1  0.904860  0.402783  0.424213  1
  O  O14  1  0.402782  0.904861  0.424216  1
  O  O15  1  0.999695  0.999700  0.822937  1
  O  O16  1  0.000305  0.000300  0.177063  1
  O  O17  1  0.499010  0.499008  0.819201  1
  O  O18  1  0.500990  0.500992  0.180799  1
