# generated using pymatgen
data_HoTm9(IrPt2)2
_symmetry_space_group_name_H-M   'P 1'
_cell_length_a   10.92140328
_cell_length_b   10.91936000
_cell_length_c   6.30408316
_cell_angle_alpha   90.00000000
_cell_angle_beta   90.02582035
_cell_angle_gamma   90.00000000
_symmetry_Int_Tables_number   1
_chemical_formula_structural   HoTm9(IrPt2)2
_chemical_formula_sum   'Ho2 Tm18 Ir4 Pt8'
_cell_volume   751.79168459
_cell_formula_units_Z   2
loop_
 _symmetry_equiv_pos_site_id
 _symmetry_equiv_pos_as_xyz
  1  'x, y, z'
loop_
 _atom_site_type_symbol
 _atom_site_label
 _atom_site_symmetry_multiplicity
 _atom_site_fract_x
 _atom_site_fract_y
 _atom_site_fract_z
 _atom_site_occupancy
  Ho  Ho0  1  0.295132  0.087389  0.373454  1
  Ho  Ho1  1  0.295132  0.912611  0.873454  1
  Tm  Tm2  1  0.704300  0.087084  0.874197  1
  Tm  Tm3  1  0.704300  0.912916  0.374197  1
  Tm  Tm4  1  0.587442  0.795561  0.874136  1
  Tm  Tm5  1  0.587442  0.204439  0.374136  1
  Tm  Tm6  1  0.413712  0.795206  0.374075  1
  Tm  Tm7  1  0.413712  0.204794  0.874075  1
  Tm  Tm8  1  0.204350  0.413095  0.625871  1
  Tm  Tm9  1  0.204350  0.586905  0.125871  1
  Tm  Tm10  1  0.795687  0.413153  0.125706  1
  Tm  Tm11  1  0.795687  0.586847  0.625706  1
  Tm  Tm12  1  0.913069  0.704131  0.125688  1
  Tm  Tm13  1  0.913069  0.295869  0.625688  1
  Tm  Tm14  1  0.086536  0.703931  0.625652  1
  Tm  Tm15  1  0.086536  0.296069  0.125652  1
  Tm  Tm16  1  0.999398  0.999926  0.500241  1
  Tm  Tm17  1  0.999398  0.000074  0.000241  1
  Tm  Tm18  1  0.500185  0.500138  0.000158  1
  Tm  Tm19  1  0.500185  0.499862  0.500158  1
  Ir  Ir20  1  0.501156  0.999917  0.119696  1
  Ir  Ir21  1  0.501156  0.000083  0.619696  1
  Ir  Ir22  1  0.999932  0.499940  0.880155  1
  Ir  Ir23  1  0.999932  0.500060  0.380155  1
  Pt  Pt24  1  0.846191  0.153940  0.249988  1
  Pt  Pt25  1  0.846191  0.846060  0.749988  1
  Pt  Pt26  1  0.152702  0.154951  0.751544  1
  Pt  Pt27  1  0.152702  0.845049  0.251544  1
  Pt  Pt28  1  0.653968  0.346229  0.750150  1
  Pt  Pt29  1  0.653968  0.653771  0.250150  1
  Pt  Pt30  1  0.346240  0.347323  0.249290  1
  Pt  Pt31  1  0.346240  0.652677  0.749290  1
