# generated using pymatgen
data_Dy4Er6Si5Bi
_symmetry_space_group_name_H-M   'P 1'
_cell_length_a   8.47164400
_cell_length_b   8.51777809
_cell_length_c   6.30984500
_cell_angle_alpha   90.00000000
_cell_angle_beta   90.00000000
_cell_angle_gamma   119.88466899
_symmetry_Int_Tables_number   1
_chemical_formula_structural   Dy4Er6Si5Bi
_chemical_formula_sum   'Dy4 Er6 Si5 Bi1'
_cell_volume   394.77249386
_cell_formula_units_Z   1
loop_
 _symmetry_equiv_pos_site_id
 _symmetry_equiv_pos_as_xyz
  1  'x, y, z'
loop_
 _atom_site_type_symbol
 _atom_site_label
 _atom_site_symmetry_multiplicity
 _atom_site_fract_x
 _atom_site_fract_y
 _atom_site_fract_z
 _atom_site_occupancy
  Dy  Dy0  1  0.755054  0.756931  0.250000  1
  Dy  Dy1  1  0.768014  0.000108  0.750000  1
  Dy  Dy2  1  0.239861  0.254801  0.750000  1
  Dy  Dy3  1  0.240172  0.999924  0.250000  1
  Er  Er4  1  0.984798  0.744338  0.750000  1
  Er  Er5  1  0.998146  0.243861  0.250000  1
  Er  Er6  1  0.330535  0.653405  0.495192  1
  Er  Er7  1  0.676917  0.346483  0.004799  1
  Er  Er8  1  0.676917  0.346483  0.495201  1
  Er  Er9  1  0.330535  0.653405  0.004808  1
  Si  Si10  1  0.392802  0.390512  0.250000  1
  Si  Si11  1  0.002851  0.608775  0.250000  1
  Si  Si12  1  0.998628  0.395617  0.750000  1
  Si  Si13  1  0.604471  0.605381  0.750000  1
  Si  Si14  1  0.606907  0.000598  0.250000  1
  Bi  Bi15  1  0.393392  0.999378  0.750000  1
