# generated using pymatgen
data_Pm2Tc2N5
_symmetry_space_group_name_H-M   'P 1'
_cell_length_a   7.43150400
_cell_length_b   3.94619300
_cell_length_c   3.94619300
_cell_angle_alpha   90.00000000
_cell_angle_beta   90.00000000
_cell_angle_gamma   90.00000000
_symmetry_Int_Tables_number   1
_chemical_formula_structural   Pm2Tc2N5
_chemical_formula_sum   'Pm2 Tc2 N5'
_cell_volume   115.72664415
_cell_formula_units_Z   1
loop_
 _symmetry_equiv_pos_site_id
 _symmetry_equiv_pos_as_xyz
  1  'x, y, z'
loop_
 _atom_site_type_symbol
 _atom_site_label
 _atom_site_symmetry_multiplicity
 _atom_site_fract_x
 _atom_site_fract_y
 _atom_site_fract_z
 _atom_site_occupancy
  Pm  Pm0  1  0.000000  0.000000  0.000000  1
  Pm  Pm1  1  0.500000  0.000000  0.000000  1
  Tc  Tc2  1  0.240706  0.499999  0.499999  1
  Tc  Tc3  1  0.759295  0.499999  0.499999  1
  N  N4  1  0.219732  0.499999  0.000000  1
  N  N5  1  0.780269  0.499999  0.000000  1
  N  N6  1  0.219732  0.000000  0.499999  1
  N  N7  1  0.780269  0.000000  0.499999  1
  N  N8  1  0.500000  0.499999  0.499999  1
