# generated using pymatgen
data_NdSm3Ga18(PtRh)3
_symmetry_space_group_name_H-M   'P 1'
_cell_length_a   7.67825319
_cell_length_b   7.67938549
_cell_length_c   9.57612200
_cell_angle_alpha   89.98008224
_cell_angle_beta   89.97742189
_cell_angle_gamma   119.78413647
_symmetry_Int_Tables_number   1
_chemical_formula_structural   NdSm3Ga18(PtRh)3
_chemical_formula_sum   'Nd1 Sm3 Ga18 Pt3 Rh3'
_cell_volume   490.06044207
_cell_formula_units_Z   1
loop_
 _symmetry_equiv_pos_site_id
 _symmetry_equiv_pos_as_xyz
  1  'x, y, z'
loop_
 _atom_site_type_symbol
 _atom_site_label
 _atom_site_symmetry_multiplicity
 _atom_site_fract_x
 _atom_site_fract_y
 _atom_site_fract_z
 _atom_site_occupancy
  Nd  Nd0  1  0.998450  0.668106  0.249646  1
  Sm  Sm1  1  0.003932  0.333610  0.750726  1
  Sm  Sm2  1  0.666340  0.996036  0.249280  1
  Sm  Sm3  1  0.331718  0.001599  0.750322  1
  Ga  Ga4  1  0.124298  0.126076  0.250546  1
  Ga  Ga5  1  0.874595  0.876036  0.749448  1
  Ga  Ga6  1  0.000225  0.329526  0.079384  1
  Ga  Ga7  1  0.999006  0.670102  0.919519  1
  Ga  Ga8  1  0.995874  0.665833  0.578336  1
  Ga  Ga9  1  0.334817  0.004691  0.422363  1
  Ga  Ga10  1  0.994994  0.329223  0.422850  1
  Ga  Ga11  1  0.670219  0.004981  0.577451  1
  Ga  Ga12  1  0.669954  0.999779  0.920360  1
  Ga  Ga13  1  0.330574  0.001623  0.079791  1
  Ga  Ga14  1  0.331779  0.328352  0.562856  1
  Ga  Ga15  1  0.671099  0.668196  0.437405  1
  Ga  Ga16  1  0.670529  0.670860  0.065054  1
  Ga  Ga17  1  0.329148  0.328925  0.934711  1
  Ga  Ga18  1  0.340278  0.540378  0.250494  1
  Ga  Ga19  1  0.659361  0.454458  0.746562  1
  Ga  Ga20  1  0.544735  0.340147  0.253437  1
  Ga  Ga21  1  0.459366  0.659994  0.749494  1
  Pt  Pt22  1  0.670831  0.328911  0.999723  1
  Pt  Pt23  1  0.328767  0.671450  0.999717  1
  Pt  Pt24  1  0.328555  0.671636  0.500267  1
  Rh  Rh25  1  0.670481  0.329170  0.500283  1
  Rh  Rh26  1  0.999988  0.000204  0.999741  1
  Rh  Rh27  1  0.000089  0.000097  0.500235  1
