# generated using pymatgen
data_Zr2U(GaCo)3
_symmetry_space_group_name_H-M   'P 1'
_cell_length_a   3.44973400
_cell_length_b   6.82577169
_cell_length_c   6.97321300
_cell_angle_alpha   120.70072829
_cell_angle_beta   90.00000000
_cell_angle_gamma   90.00000000
_symmetry_Int_Tables_number   1
_chemical_formula_structural   Zr2U(GaCo)3
_chemical_formula_sum   'Zr2 U1 Ga3 Co3'
_cell_volume   141.18574941
_cell_formula_units_Z   1
loop_
 _symmetry_equiv_pos_site_id
 _symmetry_equiv_pos_as_xyz
  1  'x, y, z'
loop_
 _atom_site_type_symbol
 _atom_site_label
 _atom_site_symmetry_multiplicity
 _atom_site_fract_x
 _atom_site_fract_y
 _atom_site_fract_z
 _atom_site_occupancy
  Zr  Zr0  1  0.500000  0.596746  0.000118  1
  Zr  Zr1  1  0.500000  0.403236  0.403352  1
  U  U2  1  0.500000  0.000034  0.586668  1
  Ga  Ga3  1  0.000000  0.272600  0.017159  1
  Ga  Ga4  1  0.000000  0.727353  0.744512  1
  Ga  Ga5  1  0.000000  0.999983  0.237188  1
  Co  Co6  1  0.000000  0.301818  0.663566  1
  Co  Co7  1  0.000000  0.698160  0.361744  1
  Co  Co8  1  0.500000  0.999970  0.985692  1
