# generated using pymatgen
data_Yb5Pa3GaPd24
_symmetry_space_group_name_H-M   'P 1'
_cell_length_a   8.31999030
_cell_length_b   8.31999030
_cell_length_c   8.31999030
_cell_angle_alpha   90.37058095
_cell_angle_beta   90.37058095
_cell_angle_gamma   90.37058095
_symmetry_Int_Tables_number   1
_chemical_formula_structural   Yb5Pa3GaPd24
_chemical_formula_sum   'Yb5 Pa3 Ga1 Pd24'
_cell_volume   575.89205707
_cell_formula_units_Z   1
loop_
 _symmetry_equiv_pos_site_id
 _symmetry_equiv_pos_as_xyz
  1  'x, y, z'
loop_
 _atom_site_type_symbol
 _atom_site_label
 _atom_site_symmetry_multiplicity
 _atom_site_fract_x
 _atom_site_fract_y
 _atom_site_fract_z
 _atom_site_occupancy
  Yb  Yb0  1  0.749256  0.749256  0.749256  1
  Yb  Yb1  1  0.749863  0.749863  0.253668  1
  Yb  Yb2  1  0.749863  0.253668  0.749863  1
  Yb  Yb3  1  0.253668  0.749863  0.749863  1
  Yb  Yb4  1  0.249371  0.249371  0.249371  1
  Pa  Pa5  1  0.255221  0.255221  0.745462  1
  Pa  Pa6  1  0.255221  0.745462  0.255221  1
  Pa  Pa7  1  0.745462  0.255221  0.255221  1
  Ga  Ga8  1  0.994225  0.994225  0.994225  1
  Pd  Pd9  1  0.495959  0.495959  0.748718  1
  Pd  Pd10  1  0.497957  0.254178  0.497957  1
  Pd  Pd11  1  0.254178  0.497957  0.497957  1
  Pd  Pd12  1  0.497957  0.497957  0.254178  1
  Pd  Pd13  1  0.495959  0.748718  0.495959  1
  Pd  Pd14  1  0.748718  0.495959  0.495959  1
  Pd  Pd15  1  0.004694  0.004694  0.706149  1
  Pd  Pd16  1  0.999480  0.285619  0.999480  1
  Pd  Pd17  1  0.285619  0.999480  0.999480  1
  Pd  Pd18  1  0.999480  0.999480  0.285619  1
  Pd  Pd19  1  0.004694  0.706149  0.004694  1
  Pd  Pd20  1  0.706149  0.004694  0.004694  1
  Pd  Pd21  1  0.010649  0.494897  0.740676  1
  Pd  Pd22  1  0.496894  0.259382  0.001005  1
  Pd  Pd23  1  0.259382  0.001005  0.496894  1
  Pd  Pd24  1  0.001005  0.259382  0.496894  1
  Pd  Pd25  1  0.494897  0.010649  0.740676  1
  Pd  Pd26  1  0.259382  0.496894  0.001005  1
  Pd  Pd27  1  0.001005  0.496894  0.259382  1
  Pd  Pd28  1  0.494897  0.740676  0.010649  1
  Pd  Pd29  1  0.010649  0.740676  0.494897  1
  Pd  Pd30  1  0.496894  0.001005  0.259382  1
  Pd  Pd31  1  0.740676  0.010649  0.494897  1
  Pd  Pd32  1  0.740676  0.494897  0.010649  1
