# generated using pymatgen
data_Zn2Cd2Sb(PN2)6
_symmetry_space_group_name_H-M   'P 1'
_cell_length_a   7.35314045
_cell_length_b   7.38201020
_cell_length_c   7.35314091
_cell_angle_alpha   110.06637456
_cell_angle_beta   108.12486141
_cell_angle_gamma   110.06637988
_symmetry_Int_Tables_number   1
_chemical_formula_structural   Zn2Cd2Sb(PN2)6
_chemical_formula_sum   'Zn2 Cd2 Sb1 P6 N12'
_cell_volume   307.75701235
_cell_formula_units_Z   1
loop_
 _symmetry_equiv_pos_site_id
 _symmetry_equiv_pos_as_xyz
  1  'x, y, z'
loop_
 _atom_site_type_symbol
 _atom_site_label
 _atom_site_symmetry_multiplicity
 _atom_site_fract_x
 _atom_site_fract_y
 _atom_site_fract_z
 _atom_site_occupancy
  Zn  Zn0  1  0.995561  0.612378  0.995561  1
  Zn  Zn1  1  0.383184  0.387622  0.383184  1
  Cd  Cd2  1  0.667280  0.000000  0.979274  1
  Cd  Cd3  1  0.979274  0.000000  0.667280  1
  Sb  Sb4  1  0.059609  0.000000  0.059609  1
  P  P5  1  0.242268  0.746772  0.491971  1
  P  P6  1  0.745200  0.253228  0.495497  1
  P  P7  1  0.746750  0.500000  0.246750  1
  P  P8  1  0.246750  0.500000  0.746750  1
  P  P9  1  0.491971  0.746772  0.242268  1
  P  P10  1  0.495497  0.253228  0.745200  1
  N  N11  1  0.710687  0.283579  0.279153  1
  N  N12  1  0.268236  0.695076  0.268236  1
  N  N13  1  0.286969  0.571469  0.566966  1
  N  N14  1  0.566966  0.571469  0.286969  1
  N  N15  1  0.427108  0.716421  0.995575  1
  N  N16  1  0.995575  0.716421  0.427108  1
  N  N17  1  0.573159  0.304924  0.573159  1
  N  N18  1  0.703390  0.000000  0.424416  1
  N  N19  1  0.424416  0.000000  0.703390  1
  N  N20  1  0.715500  0.428531  0.995496  1
  N  N21  1  0.279153  0.283579  0.710687  1
  N  N22  1  0.995496  0.428531  0.715500  1
