# generated using pymatgen
data_DyNbSnB2Ru5
_symmetry_space_group_name_H-M   'P 1'
_cell_length_a   9.64354034
_cell_length_b   9.64354057
_cell_length_c   3.09041300
_cell_angle_alpha   90.00000000
_cell_angle_beta   90.00000000
_cell_angle_gamma   91.75977334
_symmetry_Int_Tables_number   1
_chemical_formula_structural   DyNbSnB2Ru5
_chemical_formula_sum   'Dy2 Nb2 Sn2 B4 Ru10'
_cell_volume   287.26628592
_cell_formula_units_Z   2
loop_
 _symmetry_equiv_pos_site_id
 _symmetry_equiv_pos_as_xyz
  1  'x, y, z'
loop_
 _atom_site_type_symbol
 _atom_site_label
 _atom_site_symmetry_multiplicity
 _atom_site_fract_x
 _atom_site_fract_y
 _atom_site_fract_z
 _atom_site_occupancy
  Dy  Dy0  1  0.823586  0.676414  0.000000  1
  Dy  Dy1  1  0.176414  0.323586  0.000000  1
  Nb  Nb2  1  0.325997  0.825997  0.000000  1
  Nb  Nb3  1  0.674003  0.174003  0.000000  1
  Sn  Sn4  1  0.500000  0.500000  0.000000  1
  Sn  Sn5  1  0.000000  0.000000  0.000000  1
  B  B6  1  0.619658  0.880342  0.000000  1
  B  B7  1  0.380342  0.119658  0.000000  1
  B  B8  1  0.122431  0.622431  0.000000  1
  B  B9  1  0.877569  0.377569  0.000000  1
  Ru  Ru10  1  0.554988  0.728365  0.500000  1
  Ru  Ru11  1  0.445012  0.271635  0.500000  1
  Ru  Ru12  1  0.086644  0.782747  0.500000  1
  Ru  Ru13  1  0.913356  0.217253  0.500000  1
  Ru  Ru14  1  0.282747  0.586644  0.500000  1
  Ru  Ru15  1  0.717253  0.413356  0.500000  1
  Ru  Ru16  1  0.228365  0.054988  0.500000  1
  Ru  Ru17  1  0.771635  0.945012  0.500000  1
  Ru  Ru18  1  0.500000  0.000000  0.500000  1
  Ru  Ru19  1  0.000000  0.500000  0.500000  1
