# generated using pymatgen
data_Lu3(Sn2Ru)2
_symmetry_space_group_name_H-M   'P 1'
_cell_length_a   7.68769400
_cell_length_b   7.68769374
_cell_length_c   3.87241100
_cell_angle_alpha   90.00000000
_cell_angle_beta   90.00000000
_cell_angle_gamma   119.99999367
_symmetry_Int_Tables_number   1
_chemical_formula_structural   Lu3(Sn2Ru)2
_chemical_formula_sum   'Lu3 Sn4 Ru2'
_cell_volume   198.20028134
_cell_formula_units_Z   1
loop_
 _symmetry_equiv_pos_site_id
 _symmetry_equiv_pos_as_xyz
  1  'x, y, z'
loop_
 _atom_site_type_symbol
 _atom_site_label
 _atom_site_symmetry_multiplicity
 _atom_site_fract_x
 _atom_site_fract_y
 _atom_site_fract_z
 _atom_site_occupancy
  Lu  Lu0  1  0.414788  0.383190  0.500000  1
  Lu  Lu1  1  0.616810  0.031598  0.500000  1
  Lu  Lu2  1  0.968402  0.585212  0.500000  1
  Sn  Sn3  1  0.753539  0.739060  0.000000  1
  Sn  Sn4  1  0.260940  0.014480  0.000000  1
  Sn  Sn5  1  0.985520  0.246461  0.000000  1
  Sn  Sn6  1  0.333333  0.666667  0.000000  1
  Ru  Ru7  1  0.666667  0.333333  0.000000  1
  Ru  Ru8  1  0.000000  0.000000  0.500000  1
