# generated using pymatgen
data_NdZnCdPt3
_symmetry_space_group_name_H-M   'P 1'
_cell_length_a   5.27545672
_cell_length_b   5.27545622
_cell_length_c   5.27545722
_cell_angle_alpha   63.46312824
_cell_angle_beta   63.46311703
_cell_angle_gamma   63.46312001
_symmetry_Int_Tables_number   1
_chemical_formula_structural   NdZnCdPt3
_chemical_formula_sum   'Nd1 Zn1 Cd1 Pt3'
_cell_volume   111.76892599
_cell_formula_units_Z   1
loop_
 _symmetry_equiv_pos_site_id
 _symmetry_equiv_pos_as_xyz
  1  'x, y, z'
loop_
 _atom_site_type_symbol
 _atom_site_label
 _atom_site_symmetry_multiplicity
 _atom_site_fract_x
 _atom_site_fract_y
 _atom_site_fract_z
 _atom_site_occupancy
  Nd  Nd0  1  0.246140  0.246140  0.246140  1
  Zn  Zn1  1  0.626981  0.626981  0.626981  1
  Cd  Cd2  1  0.996585  0.996585  0.996585  1
  Pt  Pt3  1  0.627697  0.627697  0.124900  1
  Pt  Pt4  1  0.627697  0.124900  0.627697  1
  Pt  Pt5  1  0.124900  0.627697  0.627697  1
