# generated using pymatgen
data_YbLu(TcB4)2
_symmetry_space_group_name_H-M   'P 1'
_cell_length_a   3.56312800
_cell_length_b   5.94161188
_cell_length_c   11.49266705
_cell_angle_alpha   89.89200553
_cell_angle_beta   90.00000000
_cell_angle_gamma   90.00000000
_symmetry_Int_Tables_number   1
_chemical_formula_structural   YbLu(TcB4)2
_chemical_formula_sum   'Yb2 Lu2 Tc4 B16'
_cell_volume   243.30764594
_cell_formula_units_Z   2
loop_
 _symmetry_equiv_pos_site_id
 _symmetry_equiv_pos_as_xyz
  1  'x, y, z'
loop_
 _atom_site_type_symbol
 _atom_site_label
 _atom_site_symmetry_multiplicity
 _atom_site_fract_x
 _atom_site_fract_y
 _atom_site_fract_z
 _atom_site_occupancy
  Yb  Yb0  1  0.500000  0.128684  0.350531  1
  Yb  Yb1  1  0.500000  0.871316  0.649469  1
  Lu  Lu2  1  0.500000  0.628913  0.151174  1
  Lu  Lu3  1  0.500000  0.371087  0.848826  1
  Tc  Tc4  1  0.500000  0.630674  0.415224  1
  Tc  Tc5  1  0.500000  0.369326  0.584776  1
  Tc  Tc6  1  0.500000  0.133770  0.085284  1
  Tc  Tc7  1  0.500000  0.866230  0.914716  1
  B  B8  1  0.000000  0.977029  0.192954  1
  B  B9  1  0.000000  0.022971  0.807046  1
  B  B10  1  0.000000  0.478801  0.306530  1
  B  B11  1  0.000000  0.521199  0.693470  1
  B  B12  1  0.000000  0.787281  0.314647  1
  B  B13  1  0.000000  0.212719  0.685353  1
  B  B14  1  0.000000  0.287595  0.185343  1
  B  B15  1  0.000000  0.712405  0.814657  1
  B  B16  1  0.000000  0.865673  0.467585  1
  B  B17  1  0.000000  0.134327  0.532415  1
  B  B18  1  0.000000  0.365841  0.031439  1
  B  B19  1  0.000000  0.634159  0.968561  1
  B  B20  1  0.000000  0.886007  0.048008  1
  B  B21  1  0.000000  0.113993  0.951992  1
  B  B22  1  0.000000  0.386153  0.452597  1
  B  B23  1  0.000000  0.613847  0.547403  1
