# generated using pymatgen
data_Ba14ZrSb11
_symmetry_space_group_name_H-M   'P 1'
_cell_length_a   17.92246367
_cell_length_b   17.92246407
_cell_length_c   17.92246500
_cell_angle_alpha   94.37919761
_cell_angle_beta   117.50162997
_cell_angle_gamma   117.50778438
_symmetry_Int_Tables_number   1
_chemical_formula_structural   Ba14ZrSb11
_chemical_formula_sum   'Ba56 Zr4 Sb44'
_cell_volume   4211.01304974
_cell_formula_units_Z   4
loop_
 _symmetry_equiv_pos_site_id
 _symmetry_equiv_pos_as_xyz
  1  'x, y, z'
loop_
 _atom_site_type_symbol
 _atom_site_label
 _atom_site_symmetry_multiplicity
 _atom_site_fract_x
 _atom_site_fract_y
 _atom_site_fract_z
 _atom_site_occupancy
  Ba  Ba0  1  0.148649  0.749735  0.898141  1
  Ba  Ba1  1  0.036800  0.746359  0.631500  1
  Ba  Ba2  1  0.035118  0.790090  0.403298  1
  Ba  Ba3  1  0.092849  0.520191  0.755421  1
  Ba  Ba4  1  0.356189  0.970009  0.873742  1
  Ba  Ba5  1  0.115057  0.368451  0.905141  1
  Ba  Ba6  1  0.096700  0.126908  0.982315  1
  Ba  Ba7  1  0.149207  0.899174  0.250025  1
  Ba  Ba8  1  0.144595  0.626908  0.530210  1
  Ba  Ba9  1  0.409066  0.745836  0.979607  1
  Ba  Ba10  1  0.463310  0.868451  0.753394  1
  Ba  Ba11  1  0.357018  0.886739  0.481951  1
  Ba  Ba12  1  0.352110  0.602139  0.749971  1
  Ba  Ba13  1  0.233515  0.979396  0.069605  1
  Ba  Ba14  1  0.264699  0.337408  0.744543  1
  Ba  Ba15  1  0.235058  0.755397  0.163266  1
  Ba  Ba16  1  0.096266  0.470009  0.113819  1
  Ba  Ba17  1  0.266156  0.429387  0.520368  1
  Ba  Ba18  1  0.143778  0.018237  0.613826  1
  Ba  Ba19  1  0.596646  0.614359  0.969765  1
  Ba  Ba20  1  0.092108  0.071738  0.336741  1
  Ba  Ba21  1  0.114859  0.246359  0.209559  1
  Ba  Ba22  1  0.592866  0.837408  0.572710  1
  Ba  Ba23  1  0.615022  0.709906  0.746604  1
  Ba  Ba24  1  0.351533  0.250456  0.601860  1
  Ba  Ba25  1  0.404411  0.518237  0.374459  1
  Ba  Ba26  1  0.536825  0.905282  0.290476  1
  Ba  Ba27  1  0.614805  0.405282  0.868457  1
  Ba  Ba28  1  0.386560  0.596821  0.131887  1
  Ba  Ba29  1  0.464934  0.096821  0.710261  1
  Ba  Ba30  1  0.596207  0.482445  0.626248  1
  Ba  Ba31  1  0.648596  0.750456  0.398923  1
  Ba  Ba32  1  0.386791  0.290090  0.254971  1
  Ba  Ba33  1  0.409827  0.163900  0.430459  1
  Ba  Ba34  1  0.886572  0.754654  0.789770  1
  Ba  Ba35  1  0.909019  0.929387  0.663231  1
  Ba  Ba36  1  0.404787  0.386739  0.029721  1
  Ba  Ba37  1  0.856197  0.982445  0.386238  1
  Ba  Ba38  1  0.734998  0.571738  0.479630  1
  Ba  Ba39  1  0.904459  0.530000  0.886206  1
  Ba  Ba40  1  0.766227  0.245836  0.836768  1
  Ba  Ba41  1  0.733441  0.663900  0.254074  1
  Ba  Ba42  1  0.764768  0.020191  0.927342  1
  Ba  Ba43  1  0.649149  0.399174  0.249967  1
  Ba  Ba44  1  0.644594  0.114359  0.517713  1
  Ba  Ba45  1  0.535175  0.131841  0.245044  1
  Ba  Ba46  1  0.592129  0.255397  0.020339  1
  Ba  Ba47  1  0.857008  0.375062  0.470224  1
  Ba  Ba48  1  0.852167  0.102139  0.750028  1
  Ba  Ba49  1  0.904838  0.875062  0.018053  1
  Ba  Ba50  1  0.886797  0.631841  0.096666  1
  Ba  Ba51  1  0.643795  0.030000  0.125541  1
  Ba  Ba52  1  0.909791  0.479396  0.245881  1
  Ba  Ba53  1  0.963302  0.209906  0.594884  1
  Ba  Ba54  1  0.964885  0.254654  0.368083  1
  Ba  Ba55  1  0.851594  0.249735  0.101086  1
  Zr  Zr56  1  0.250249  0.125539  0.874643  1
  Zr  Zr57  1  0.250895  0.625539  0.375289  1
  Zr  Zr58  1  0.750292  0.875619  0.124732  1
  Zr  Zr59  1  0.750888  0.375619  0.625328  1
  Sb  Sb60  1  0.124969  0.934107  0.819244  1
  Sb  Sb61  1  0.161403  0.585365  0.982211  1
  Sb  Sb62  1  0.250082  0.734640  0.765308  1
  Sb  Sb63  1  0.250090  0.876322  0.623764  1
  Sb  Sb64  1  0.103703  0.424574  0.584930  1
  Sb  Sb65  1  0.113724  0.180194  0.804257  1
  Sb  Sb66  1  0.030794  0.765349  0.015303  1
  Sb  Sb67  1  0.125335  0.691249  0.305240  1
  Sb  Sb68  1  0.339654  0.518788  0.915068  1
  Sb  Sb69  1  0.114864  0.434107  0.309138  1
  Sb  Sb70  1  0.103131  0.179188  0.517770  1
  Sb  Sb71  1  0.397197  0.982572  0.321014  1
  Sb  Sb72  1  0.375937  0.680194  0.566470  1
  Sb  Sb73  1  0.613825  0.809542  0.933583  1
  Sb  Sb74  1  0.375648  0.196338  0.809070  1
  Sb  Sb75  1  0.469281  0.484758  0.734673  1
  Sb  Sb76  1  0.387269  0.696338  0.320689  1
  Sb  Sb77  1  0.396614  0.915025  0.075565  1
  Sb  Sb78  1  0.339478  0.321037  0.424444  1
  Sb  Sb79  1  0.250049  0.015456  0.484736  1
  Sb  Sb80  1  0.252557  0.376322  0.126232  1
  Sb  Sb81  1  0.839645  0.924574  0.820872  1
  Sb  Sb82  1  0.161548  0.076160  0.178992  1
  Sb  Sb83  1  0.750085  0.984758  0.515477  1
  Sb  Sb84  1  0.752479  0.626296  0.876197  1
  Sb  Sb85  1  0.661417  0.679188  0.576056  1
  Sb  Sb86  1  0.603154  0.085365  0.923962  1
  Sb  Sb87  1  0.614949  0.305763  0.680775  1
  Sb  Sb88  1  0.530720  0.515456  0.265407  1
  Sb  Sb89  1  0.624988  0.805763  0.190816  1
  Sb  Sb90  1  0.386009  0.191249  0.065914  1
  Sb  Sb91  1  0.625322  0.320047  0.434114  1
  Sb  Sb92  1  0.603721  0.018788  0.679134  1
  Sb  Sb93  1  0.896593  0.821037  0.481558  1
  Sb  Sb94  1  0.887160  0.566551  0.690849  1
  Sb  Sb95  1  0.661557  0.482572  0.085375  1
  Sb  Sb96  1  0.875959  0.309542  0.695717  1
  Sb  Sb97  1  0.969332  0.234640  0.984557  1
  Sb  Sb98  1  0.885934  0.820047  0.194726  1
  Sb  Sb99  1  0.897169  0.576161  0.414612  1
  Sb  Sb100  1  0.750099  0.126296  0.373817  1
  Sb  Sb101  1  0.750046  0.265349  0.234555  1
  Sb  Sb102  1  0.839459  0.415025  0.018411  1
  Sb  Sb103  1  0.875700  0.066551  0.179391  1
