# generated using pymatgen
data_CeYCu2As3P
_symmetry_space_group_name_H-M   'P 1'
_cell_length_a   3.90522600
_cell_length_b   3.90522600
_cell_length_c   9.83101300
_cell_angle_alpha   90.00000000
_cell_angle_beta   90.00000000
_cell_angle_gamma   90.00000000
_symmetry_Int_Tables_number   1
_chemical_formula_structural   CeYCu2As3P
_chemical_formula_sum   'Ce1 Y1 Cu2 As3 P1'
_cell_volume   149.93071584
_cell_formula_units_Z   1
loop_
 _symmetry_equiv_pos_site_id
 _symmetry_equiv_pos_as_xyz
  1  'x, y, z'
loop_
 _atom_site_type_symbol
 _atom_site_label
 _atom_site_symmetry_multiplicity
 _atom_site_fract_x
 _atom_site_fract_y
 _atom_site_fract_z
 _atom_site_occupancy
  Ce  Ce0  1  0.000000  0.500000  0.759466  1
  Y  Y1  1  0.500000  0.000000  0.237526  1
  Cu  Cu2  1  0.500000  0.500000  0.503682  1
  Cu  Cu3  1  0.000000  0.000000  0.503682  1
  As  As4  1  0.000000  0.000000  0.001252  1
  As  As5  1  0.500000  0.500000  0.001252  1
  As  As6  1  0.000000  0.500000  0.341967  1
  P  P7  1  0.500000  0.000000  0.651170  1
