# generated using pymatgen
data_Tm12MgIn(GaCo)2
_symmetry_space_group_name_H-M   'P 1'
_cell_length_a   8.40607005
_cell_length_b   8.40607016
_cell_length_c   8.40607032
_cell_angle_alpha   112.88773516
_cell_angle_beta   111.18018608
_cell_angle_gamma   104.46397031
_symmetry_Int_Tables_number   1
_chemical_formula_structural   Tm12MgIn(GaCo)2
_chemical_formula_sum   'Tm12 Mg1 In1 Ga2 Co2'
_cell_volume   454.55378834
_cell_formula_units_Z   1
loop_
 _symmetry_equiv_pos_site_id
 _symmetry_equiv_pos_as_xyz
  1  'x, y, z'
loop_
 _atom_site_type_symbol
 _atom_site_label
 _atom_site_symmetry_multiplicity
 _atom_site_fract_x
 _atom_site_fract_y
 _atom_site_fract_z
 _atom_site_occupancy
  Tm  Tm0  1  0.442222  0.243479  0.198742  1
  Tm  Tm1  1  0.557778  0.756521  0.801258  1
  Tm  Tm2  1  0.044736  0.243479  0.801258  1
  Tm  Tm3  1  0.955264  0.756521  0.198742  1
  Tm  Tm4  1  0.185612  0.290943  0.476556  1
  Tm  Tm5  1  0.814388  0.709057  0.523444  1
  Tm  Tm6  1  0.185612  0.709057  0.894669  1
  Tm  Tm7  1  0.814388  0.290943  0.105331  1
  Tm  Tm8  1  0.301828  0.612665  0.310837  1
  Tm  Tm9  1  0.698172  0.387335  0.689163  1
  Tm  Tm10  1  0.301828  0.990993  0.689163  1
  Tm  Tm11  1  0.698172  0.009007  0.310837  1
  Mg  Mg12  1  0.000000  0.000000  0.000000  1
  In  In13  1  0.500000  0.500000  0.000000  1
  Ga  Ga14  1  0.351097  0.000000  0.351097  1
  Ga  Ga15  1  0.648903  0.000000  0.648903  1
  Co  Co16  1  0.108055  0.608055  0.500000  1
  Co  Co17  1  0.891945  0.391945  0.500000  1
