# generated using pymatgen
data_YHo3(ReB6)2
_symmetry_space_group_name_H-M   'P 1'
_cell_length_a   3.67634500
_cell_length_b   9.16225104
_cell_length_c   11.54189205
_cell_angle_alpha   89.98934055
_cell_angle_beta   90.00000000
_cell_angle_gamma   90.00000000
_symmetry_Int_Tables_number   1
_chemical_formula_structural   YHo3(ReB6)2
_chemical_formula_sum   'Y2 Ho6 Re4 B24'
_cell_volume   388.77241983
_cell_formula_units_Z   2
loop_
 _symmetry_equiv_pos_site_id
 _symmetry_equiv_pos_as_xyz
  1  'x, y, z'
loop_
 _atom_site_type_symbol
 _atom_site_label
 _atom_site_symmetry_multiplicity
 _atom_site_fract_x
 _atom_site_fract_y
 _atom_site_fract_z
 _atom_site_occupancy
  Y  Y0  1  0.000000  0.323322  0.413807  1
  Y  Y1  1  0.000000  0.676678  0.586193  1
  Ho  Ho2  1  0.000000  0.823691  0.086092  1
  Ho  Ho3  1  0.000000  0.176309  0.913908  1
  Ho  Ho4  1  0.000000  0.943337  0.369941  1
  Ho  Ho5  1  0.000000  0.056663  0.630059  1
  Ho  Ho6  1  0.000000  0.443205  0.129777  1
  Ho  Ho7  1  0.000000  0.556795  0.870223  1
  Re  Re8  1  0.000000  0.639106  0.320275  1
  Re  Re9  1  0.000000  0.360894  0.679725  1
  Re  Re10  1  0.000000  0.138693  0.178957  1
  Re  Re11  1  0.000000  0.861307  0.821043  1
  B  B12  1  0.500000  0.553553  0.432668  1
  B  B13  1  0.500000  0.446447  0.567332  1
  B  B14  1  0.500000  0.053304  0.066889  1
  B  B15  1  0.500000  0.946696  0.933111  1
  B  B16  1  0.500000  0.749344  0.418181  1
  B  B17  1  0.500000  0.250656  0.581819  1
  B  B18  1  0.500000  0.249071  0.081224  1
  B  B19  1  0.500000  0.750929  0.918776  1
  B  B20  1  0.500000  0.792503  0.265335  1
  B  B21  1  0.500000  0.207497  0.734665  1
  B  B22  1  0.500000  0.292166  0.233993  1
  B  B23  1  0.500000  0.707834  0.766007  1
  B  B24  1  0.500000  0.631020  0.185311  1
  B  B25  1  0.500000  0.368980  0.814689  1
  B  B26  1  0.500000  0.130627  0.314093  1
  B  B27  1  0.500000  0.869373  0.685907  1
  B  B28  1  0.500000  0.982254  0.211754  1
  B  B29  1  0.500000  0.017746  0.788246  1
  B  B30  1  0.500000  0.482628  0.287698  1
  B  B31  1  0.500000  0.517372  0.712302  1
  B  B32  1  0.500000  0.600187  0.028042  1
  B  B33  1  0.500000  0.399813  0.971958  1
  B  B34  1  0.500000  0.099677  0.472085  1
  B  B35  1  0.500000  0.900323  0.527915  1
