# generated using pymatgen
data_KTb(SeO4)2
_symmetry_space_group_name_H-M   'P 1'
_cell_length_a   5.38926603
_cell_length_b   5.38926612
_cell_length_c   8.49678816
_cell_angle_alpha   87.90333727
_cell_angle_beta   87.90333930
_cell_angle_gamma   65.15236853
_symmetry_Int_Tables_number   1
_chemical_formula_structural   KTb(SeO4)2
_chemical_formula_sum   'K1 Tb1 Se2 O8'
_cell_volume   223.72614805
_cell_formula_units_Z   1
loop_
 _symmetry_equiv_pos_site_id
 _symmetry_equiv_pos_as_xyz
  1  'x, y, z'
loop_
 _atom_site_type_symbol
 _atom_site_label
 _atom_site_symmetry_multiplicity
 _atom_site_fract_x
 _atom_site_fract_y
 _atom_site_fract_z
 _atom_site_occupancy
  K  K0  1  0.000000  0.000000  0.500000  1
  Tb  Tb1  1  0.000000  0.000000  0.000000  1
  Se  Se2  1  0.367285  0.367285  0.779033  1
  Se  Se3  1  0.632715  0.632715  0.220967  1
  O  O4  1  0.298916  0.298916  0.603387  1
  O  O5  1  0.701084  0.701084  0.396613  1
  O  O6  1  0.708537  0.237924  0.802039  1
  O  O7  1  0.291463  0.762076  0.197961  1
  O  O8  1  0.762076  0.291463  0.197961  1
  O  O9  1  0.237924  0.708537  0.802039  1
  O  O10  1  0.241032  0.241032  0.929001  1
  O  O11  1  0.758968  0.758968  0.070999  1
