# generated using pymatgen
data_Li2Ho3Si3Pd
_symmetry_space_group_name_H-M   'P 1'
_cell_length_a   6.87742500
_cell_length_b   7.05321626
_cell_length_c   4.11104400
_cell_angle_alpha   90.00000000
_cell_angle_beta   90.00000000
_cell_angle_gamma   119.17889931
_symmetry_Int_Tables_number   1
_chemical_formula_structural   Li2Ho3Si3Pd
_chemical_formula_sum   'Li2 Ho3 Si3 Pd1'
_cell_volume   174.11252523
_cell_formula_units_Z   1
loop_
 _symmetry_equiv_pos_site_id
 _symmetry_equiv_pos_as_xyz
  1  'x, y, z'
loop_
 _atom_site_type_symbol
 _atom_site_label
 _atom_site_symmetry_multiplicity
 _atom_site_fract_x
 _atom_site_fract_y
 _atom_site_fract_z
 _atom_site_occupancy
  Li  Li0  1  0.772985  0.763361  0.500000  1
  Li  Li1  1  0.009623  0.236639  0.500000  1
  Ho  Ho2  1  0.991491  0.576576  0.000000  1
  Ho  Ho3  1  0.573709  0.000000  0.000000  1
  Ho  Ho4  1  0.414915  0.423424  0.000000  1
  Si  Si5  1  0.328100  0.677132  0.500000  1
  Si  Si6  1  0.650969  0.322868  0.500000  1
  Si  Si7  1  0.020537  0.000000  0.000000  1
  Pd  Pd8  1  0.237670  0.000000  0.500000  1
