# generated using pymatgen
data_Tb3In3Cu2Ru
_symmetry_space_group_name_H-M   'P 1'
_cell_length_a   7.54908200
_cell_length_b   7.54908182
_cell_length_c   3.93802300
_cell_angle_alpha   90.00000000
_cell_angle_beta   90.00000000
_cell_angle_gamma   120.00000956
_symmetry_Int_Tables_number   1
_chemical_formula_structural   Tb3In3Cu2Ru
_chemical_formula_sum   'Tb3 In3 Cu2 Ru1'
_cell_volume   194.35562452
_cell_formula_units_Z   1
loop_
 _symmetry_equiv_pos_site_id
 _symmetry_equiv_pos_as_xyz
  1  'x, y, z'
loop_
 _atom_site_type_symbol
 _atom_site_label
 _atom_site_symmetry_multiplicity
 _atom_site_fract_x
 _atom_site_fract_y
 _atom_site_fract_z
 _atom_site_occupancy
  Tb  Tb0  1  0.018950  0.599250  0.500000  1
  Tb  Tb1  1  0.400750  0.419701  0.500000  1
  Tb  Tb2  1  0.580299  0.981050  0.500000  1
  In  In3  1  0.748610  0.745063  0.000000  1
  In  In4  1  0.996453  0.251390  0.000000  1
  In  In5  1  0.254937  0.003547  0.000000  1
  Cu  Cu6  1  0.000000  0.000000  0.500000  1
  Cu  Cu7  1  0.666667  0.333333  0.000000  1
  Ru  Ru8  1  0.333333  0.666667  0.000000  1
