# generated using pymatgen
data_CsMn2Ag3Te8
_symmetry_space_group_name_H-M   'P 1'
_cell_length_a   11.79810310
_cell_length_b   11.79810161
_cell_length_c   10.97109947
_cell_angle_alpha   86.34030001
_cell_angle_beta   86.34030097
_cell_angle_gamma   15.22111148
_symmetry_Int_Tables_number   1
_chemical_formula_structural   CsMn2Ag3Te8
_chemical_formula_sum   'Cs1 Mn2 Ag3 Te8'
_cell_volume   400.10630163
_cell_formula_units_Z   1
loop_
 _symmetry_equiv_pos_site_id
 _symmetry_equiv_pos_as_xyz
  1  'x, y, z'
loop_
 _atom_site_type_symbol
 _atom_site_label
 _atom_site_symmetry_multiplicity
 _atom_site_fract_x
 _atom_site_fract_y
 _atom_site_fract_z
 _atom_site_occupancy
  Cs  Cs0  1  0.493778  0.493778  0.507557  1
  Mn  Mn1  1  0.002819  0.002819  0.001215  1
  Mn  Mn2  1  0.662906  0.662906  0.008831  1
  Ag  Ag3  1  0.343016  0.343016  0.988413  1
  Ag  Ag4  1  0.266752  0.266752  0.379190  1
  Ag  Ag5  1  0.722303  0.722303  0.618227  1
  Te  Te6  1  0.434265  0.434265  0.165531  1
  Te  Te7  1  0.926761  0.926761  0.820700  1
  Te  Te8  1  0.842749  0.842749  0.528302  1
  Te  Te9  1  0.757158  0.757158  0.152785  1
  Te  Te10  1  0.237336  0.237336  0.846301  1
  Te  Te11  1  0.144654  0.144654  0.472465  1
  Te  Te12  1  0.088314  0.088314  0.166836  1
  Te  Te13  1  0.577192  0.577192  0.843647  1
