# generated using pymatgen
data_Y2TmNi6B2Ru
_symmetry_space_group_name_H-M   'P 1'
_cell_length_a   5.03226400
_cell_length_b   5.16784090
_cell_length_c   14.45524800
_cell_angle_alpha   90.00000000
_cell_angle_beta   90.00000000
_cell_angle_gamma   119.13590407
_symmetry_Int_Tables_number   1
_chemical_formula_structural   Y2TmNi6B2Ru
_chemical_formula_sum   'Y4 Tm2 Ni12 B4 Ru2'
_cell_volume   328.35584073
_cell_formula_units_Z   2
loop_
 _symmetry_equiv_pos_site_id
 _symmetry_equiv_pos_as_xyz
  1  'x, y, z'
loop_
 _atom_site_type_symbol
 _atom_site_label
 _atom_site_symmetry_multiplicity
 _atom_site_fract_x
 _atom_site_fract_y
 _atom_site_fract_z
 _atom_site_occupancy
  Y  Y0  1  0.332472  0.664947  0.534437  1
  Y  Y1  1  0.667528  0.335053  0.034437  1
  Y  Y2  1  0.662577  0.325151  0.466169  1
  Y  Y3  1  0.337423  0.674849  0.966169  1
  Tm  Tm4  1  0.332103  0.664207  0.750375  1
  Tm  Tm5  1  0.667897  0.335793  0.250375  1
  Ni  Ni6  1  0.997256  0.994511  0.998004  1
  Ni  Ni7  1  0.002744  0.005489  0.498004  1
  Ni  Ni8  1  0.668100  0.834061  0.150074  1
  Ni  Ni9  1  0.165961  0.834061  0.150074  1
  Ni  Ni10  1  0.834039  0.165939  0.650074  1
  Ni  Ni11  1  0.331900  0.165939  0.650074  1
  Ni  Ni12  1  0.833352  0.666703  0.849258  1
  Ni  Ni13  1  0.831998  0.162763  0.850331  1
  Ni  Ni14  1  0.330765  0.162763  0.850331  1
  Ni  Ni15  1  0.669235  0.837237  0.350331  1
  Ni  Ni16  1  0.168002  0.837237  0.350331  1
  Ni  Ni17  1  0.166648  0.333297  0.349258  1
  B  B18  1  0.335559  0.671119  0.251468  1
  B  B19  1  0.664441  0.328881  0.751468  1
  B  B20  1  0.000404  0.000809  0.251147  1
  B  B21  1  0.999596  0.999191  0.751147  1
  Ru  Ru22  1  0.164730  0.329460  0.148334  1
  Ru  Ru23  1  0.835270  0.670540  0.648334  1
