# generated using pymatgen
data_NdTh2Sn3IrRh2
_symmetry_space_group_name_H-M   'P 1'
_cell_length_a   7.58819108
_cell_length_b   7.63425974
_cell_length_c   4.09604600
_cell_angle_alpha   90.00000000
_cell_angle_beta   90.00000000
_cell_angle_gamma   119.86168766
_symmetry_Int_Tables_number   1
_chemical_formula_structural   NdTh2Sn3IrRh2
_chemical_formula_sum   'Nd1 Th2 Sn3 Ir1 Rh2'
_cell_volume   205.78051483
_cell_formula_units_Z   1
loop_
 _symmetry_equiv_pos_site_id
 _symmetry_equiv_pos_as_xyz
  1  'x, y, z'
loop_
 _atom_site_type_symbol
 _atom_site_label
 _atom_site_symmetry_multiplicity
 _atom_site_fract_x
 _atom_site_fract_y
 _atom_site_fract_z
 _atom_site_occupancy
  Nd  Nd0  1  0.589965  0.001084  0.000000  1
  Th  Th1  1  0.996979  0.584476  0.000000  1
  Th  Th2  1  0.414624  0.412986  0.000000  1
  Sn  Sn3  1  0.748786  0.758292  0.500000  1
  Sn  Sn4  1  0.994390  0.243900  0.500000  1
  Sn  Sn5  1  0.257241  0.998239  0.500000  1
  Ir  Ir6  1  0.669125  0.350602  0.500000  1
  Rh  Rh7  1  0.009530  0.999676  0.000000  1
  Rh  Rh8  1  0.319358  0.650744  0.500000  1
