# generated using pymatgen
data_Er2Lu2CoB12W
_symmetry_space_group_name_H-M   'P 1'
_cell_length_a   3.54829100
_cell_length_b   9.12415620
_cell_length_c   11.54465040
_cell_angle_alpha   90.52722060
_cell_angle_beta   90.00000000
_cell_angle_gamma   90.00000000
_symmetry_Int_Tables_number   1
_chemical_formula_structural   Er2Lu2CoB12W
_chemical_formula_sum   'Er4 Lu4 Co2 B24 W2'
_cell_volume   373.74409558
_cell_formula_units_Z   2
loop_
 _symmetry_equiv_pos_site_id
 _symmetry_equiv_pos_as_xyz
  1  'x, y, z'
loop_
 _atom_site_type_symbol
 _atom_site_label
 _atom_site_symmetry_multiplicity
 _atom_site_fract_x
 _atom_site_fract_y
 _atom_site_fract_z
 _atom_site_occupancy
  Er  Er0  1  0.000000  0.821939  0.085037  1
  Er  Er1  1  0.000000  0.178061  0.914963  1
  Er  Er2  1  0.000000  0.323477  0.415369  1
  Er  Er3  1  0.000000  0.676523  0.584631  1
  Lu  Lu4  1  0.000000  0.447887  0.130258  1
  Lu  Lu5  1  0.000000  0.552113  0.869742  1
  Lu  Lu6  1  0.000000  0.940661  0.372412  1
  Lu  Lu7  1  0.000000  0.059339  0.627588  1
  Co  Co8  1  0.000000  0.639369  0.320793  1
  Co  Co9  1  0.000000  0.360631  0.679207  1
  B  B10  1  0.500000  0.051530  0.065706  1
  B  B11  1  0.500000  0.948470  0.934294  1
  B  B12  1  0.500000  0.554945  0.434051  1
  B  B13  1  0.500000  0.445055  0.565949  1
  B  B14  1  0.500000  0.253847  0.079186  1
  B  B15  1  0.500000  0.746153  0.920814  1
  B  B16  1  0.500000  0.746929  0.418040  1
  B  B17  1  0.500000  0.253071  0.581960  1
  B  B18  1  0.500000  0.299598  0.239006  1
  B  B19  1  0.500000  0.700402  0.760994  1
  B  B20  1  0.500000  0.789316  0.265337  1
  B  B21  1  0.500000  0.210684  0.734663  1
  B  B22  1  0.500000  0.132594  0.320447  1
  B  B23  1  0.500000  0.867406  0.679553  1
  B  B24  1  0.500000  0.632534  0.185077  1
  B  B25  1  0.500000  0.367466  0.814923  1
  B  B26  1  0.500000  0.488222  0.289725  1
  B  B27  1  0.500000  0.511778  0.710275  1
  B  B28  1  0.500000  0.976973  0.214598  1
  B  B29  1  0.500000  0.023027  0.785402  1
  B  B30  1  0.500000  0.103671  0.473399  1
  B  B31  1  0.500000  0.896329  0.526601  1
  B  B32  1  0.500000  0.601363  0.028749  1
  B  B33  1  0.500000  0.398637  0.971251  1
  W  W34  1  0.000000  0.140484  0.181971  1
  W  W35  1  0.000000  0.859516  0.818029  1
