# generated using pymatgen
data_Ba10HgBi6Se
_symmetry_space_group_name_H-M   'P 1'
_cell_length_a   10.41848900
_cell_length_b   10.41848863
_cell_length_c   8.12774600
_cell_angle_alpha   90.00000000
_cell_angle_beta   90.00000000
_cell_angle_gamma   119.99999801
_symmetry_Int_Tables_number   1
_chemical_formula_structural   Ba10HgBi6Se
_chemical_formula_sum   'Ba10 Hg1 Bi6 Se1'
_cell_volume   764.02966786
_cell_formula_units_Z   1
loop_
 _symmetry_equiv_pos_site_id
 _symmetry_equiv_pos_as_xyz
  1  'x, y, z'
loop_
 _atom_site_type_symbol
 _atom_site_label
 _atom_site_symmetry_multiplicity
 _atom_site_fract_x
 _atom_site_fract_y
 _atom_site_fract_z
 _atom_site_occupancy
  Ba  Ba0  1  0.666667  0.333333  0.000000  1
  Ba  Ba1  1  0.333333  0.666667  0.000000  1
  Ba  Ba2  1  0.333333  0.666667  0.500000  1
  Ba  Ba3  1  0.666667  0.333333  0.500000  1
  Ba  Ba4  1  0.740155  0.740155  0.776965  1
  Ba  Ba5  1  0.259845  0.000000  0.776965  1
  Ba  Ba6  1  0.000000  0.259845  0.776965  1
  Ba  Ba7  1  0.259845  0.259845  0.223035  1
  Ba  Ba8  1  0.740155  0.000000  0.223035  1
  Ba  Ba9  1  0.000000  0.740155  0.223035  1
  Hg  Hg10  1  0.000000  0.000000  0.500000  1
  Bi  Bi11  1  0.390232  0.390232  0.750342  1
  Bi  Bi12  1  0.609768  0.000000  0.750342  1
  Bi  Bi13  1  0.000000  0.609768  0.750342  1
  Bi  Bi14  1  0.609768  0.609768  0.249658  1
  Bi  Bi15  1  0.390232  0.000000  0.249658  1
  Bi  Bi16  1  0.000000  0.390232  0.249658  1
  Se  Se17  1  0.000000  0.000000  0.000000  1
