# generated using pymatgen
data_Tm7RhO12
_symmetry_space_group_name_H-M   'P 1'
_cell_length_a   6.49065728
_cell_length_b   6.49065963
_cell_length_c   6.49065800
_cell_angle_alpha   94.87418149
_cell_angle_beta   94.87418326
_cell_angle_gamma   94.87418703
_symmetry_Int_Tables_number   1
_chemical_formula_structural   Tm7RhO12
_chemical_formula_sum   'Tm7 Rh1 O12'
_cell_volume   270.29559012
_cell_formula_units_Z   1
loop_
 _symmetry_equiv_pos_site_id
 _symmetry_equiv_pos_as_xyz
  1  'x, y, z'
loop_
 _atom_site_type_symbol
 _atom_site_label
 _atom_site_symmetry_multiplicity
 _atom_site_fract_x
 _atom_site_fract_y
 _atom_site_fract_z
 _atom_site_occupancy
  Tm  Tm0  1  0.735874  0.914357  0.428490  1
  Tm  Tm1  1  0.428490  0.735874  0.914357  1
  Tm  Tm2  1  0.085643  0.571510  0.264126  1
  Tm  Tm3  1  0.914357  0.428490  0.735874  1
  Tm  Tm4  1  0.571510  0.264126  0.085643  1
  Tm  Tm5  1  0.264126  0.085643  0.571510  1
  Tm  Tm6  1  0.000000  0.000000  0.000000  1
  Rh  Rh7  1  0.500000  0.500000  0.500000  1
  O  O8  1  0.068006  0.910899  0.319738  1
  O  O9  1  0.680262  0.931994  0.089101  1
  O  O10  1  0.458798  0.808010  0.588824  1
  O  O11  1  0.089101  0.680262  0.931994  1
  O  O12  1  0.808010  0.588824  0.458798  1
  O  O13  1  0.411176  0.541202  0.191990  1
  O  O14  1  0.588824  0.458798  0.808010  1
  O  O15  1  0.191990  0.411176  0.541202  1
  O  O16  1  0.910899  0.319738  0.068006  1
  O  O17  1  0.541202  0.191990  0.411176  1
  O  O18  1  0.319738  0.068006  0.910899  1
  O  O19  1  0.931994  0.089101  0.680262  1
