# generated using pymatgen
data_Lu8ReOsBr8
_symmetry_space_group_name_H-M   'P 1'
_cell_length_a   8.81778892
_cell_length_b   8.81778807
_cell_length_c   6.46040958
_cell_angle_alpha   89.43988846
_cell_angle_beta   89.43988719
_cell_angle_gamma   89.24844845
_symmetry_Int_Tables_number   1
_chemical_formula_structural   Lu8ReOsBr8
_chemical_formula_sum   'Lu8 Re1 Os1 Br8'
_cell_volume   502.22817839
_cell_formula_units_Z   1
loop_
 _symmetry_equiv_pos_site_id
 _symmetry_equiv_pos_as_xyz
  1  'x, y, z'
loop_
 _atom_site_type_symbol
 _atom_site_label
 _atom_site_symmetry_multiplicity
 _atom_site_fract_x
 _atom_site_fract_y
 _atom_site_fract_z
 _atom_site_occupancy
  Lu  Lu0  1  0.752858  0.098531  0.989566  1
  Lu  Lu1  1  0.098114  0.753733  0.488171  1
  Lu  Lu2  1  0.096318  0.245657  0.992064  1
  Lu  Lu3  1  0.245576  0.096422  0.490523  1
  Lu  Lu4  1  0.903578  0.754424  0.009477  1
  Lu  Lu5  1  0.901469  0.247142  0.510434  1
  Lu  Lu6  1  0.246267  0.901886  0.011829  1
  Lu  Lu7  1  0.754343  0.903682  0.507936  1
  Re  Re8  1  0.993918  0.006082  0.250000  1
  Os  Os9  1  0.005932  0.994068  0.750000  1
  Br  Br10  1  0.579266  0.183743  0.591623  1
  Br  Br11  1  0.809444  0.583552  0.406743  1
  Br  Br12  1  0.416448  0.190556  0.093257  1
  Br  Br13  1  0.190662  0.415677  0.593875  1
  Br  Br14  1  0.584323  0.809338  0.906125  1
  Br  Br15  1  0.421258  0.816031  0.409412  1
  Br  Br16  1  0.183969  0.578742  0.090588  1
  Br  Br17  1  0.816257  0.420734  0.908377  1
