# generated using pymatgen
data_Tb4Y4Re(B8Os)3
_symmetry_space_group_name_H-M   'P 1'
_cell_length_a   3.67072600
_cell_length_b   9.17472441
_cell_length_c   11.56206204
_cell_angle_alpha   89.90482986
_cell_angle_beta   90.00000000
_cell_angle_gamma   90.00000000
_symmetry_Int_Tables_number   1
_chemical_formula_structural   Tb4Y4Re(B8Os)3
_chemical_formula_sum   'Tb4 Y4 Re1 B24 Os3'
_cell_volume   389.38542547
_cell_formula_units_Z   1
loop_
 _symmetry_equiv_pos_site_id
 _symmetry_equiv_pos_as_xyz
  1  'x, y, z'
loop_
 _atom_site_type_symbol
 _atom_site_label
 _atom_site_symmetry_multiplicity
 _atom_site_fract_x
 _atom_site_fract_y
 _atom_site_fract_z
 _atom_site_occupancy
  Tb  Tb0  1  0.000000  0.822751  0.085300  1
  Tb  Tb1  1  0.000000  0.179648  0.911784  1
  Tb  Tb2  1  0.000000  0.322900  0.416060  1
  Tb  Tb3  1  0.000000  0.676220  0.586928  1
  Y  Y4  1  0.000000  0.443108  0.127876  1
  Y  Y5  1  0.000000  0.556087  0.872506  1
  Y  Y6  1  0.000000  0.942770  0.372439  1
  Y  Y7  1  0.000000  0.056729  0.626994  1
  Re  Re8  1  0.000000  0.362645  0.678571  1
  B  B9  1  0.500000  0.053739  0.067147  1
  B  B10  1  0.500000  0.946459  0.932542  1
  B  B11  1  0.500000  0.553503  0.432339  1
  B  B12  1  0.500000  0.447221  0.567222  1
  B  B13  1  0.500000  0.247508  0.080737  1
  B  B14  1  0.500000  0.752614  0.919430  1
  B  B15  1  0.500000  0.747230  0.419111  1
  B  B16  1  0.500000  0.252448  0.580863  1
  B  B17  1  0.500000  0.289613  0.233558  1
  B  B18  1  0.500000  0.709862  0.767217  1
  B  B19  1  0.500000  0.790081  0.266423  1
  B  B20  1  0.500000  0.209321  0.733533  1
  B  B21  1  0.500000  0.131008  0.314089  1
  B  B22  1  0.500000  0.868520  0.686329  1
  B  B23  1  0.500000  0.631652  0.185773  1
  B  B24  1  0.500000  0.368675  0.813909  1
  B  B25  1  0.500000  0.483463  0.287357  1
  B  B26  1  0.500000  0.517603  0.712756  1
  B  B27  1  0.500000  0.983196  0.212198  1
  B  B28  1  0.500000  0.016818  0.787269  1
  B  B29  1  0.500000  0.106718  0.469669  1
  B  B30  1  0.500000  0.891721  0.529711  1
  B  B31  1  0.500000  0.608117  0.030377  1
  B  B32  1  0.500000  0.392428  0.970666  1
  Os  Os33  1  0.000000  0.137142  0.178457  1
  Os  Os34  1  0.000000  0.862851  0.821987  1
  Os  Os35  1  0.000000  0.637627  0.320873  1
