# generated using pymatgen
data_Sr2Si5Ni18P5
_symmetry_space_group_name_H-M   'P 1'
_cell_length_a   6.59300071
_cell_length_b   6.62542238
_cell_length_c   10.64904800
_cell_angle_alpha   90.00000000
_cell_angle_beta   90.00000000
_cell_angle_gamma   120.16318955
_symmetry_Int_Tables_number   1
_chemical_formula_structural   Sr2Si5Ni18P5
_chemical_formula_sum   'Sr2 Si5 Ni18 P5'
_cell_volume   402.18104783
_cell_formula_units_Z   1
loop_
 _symmetry_equiv_pos_site_id
 _symmetry_equiv_pos_as_xyz
  1  'x, y, z'
loop_
 _atom_site_type_symbol
 _atom_site_label
 _atom_site_symmetry_multiplicity
 _atom_site_fract_x
 _atom_site_fract_y
 _atom_site_fract_z
 _atom_site_occupancy
  Sr  Sr0  1  0.999237  0.999620  0.997798  1
  Sr  Sr1  1  0.999237  0.999620  0.502202  1
  Si  Si2  1  0.333265  0.666641  0.064939  1
  Si  Si3  1  0.345566  0.172791  0.250000  1
  Si  Si4  1  0.333265  0.666641  0.435060  1
  Si  Si5  1  0.664198  0.332100  0.565032  1
  Si  Si6  1  0.664198  0.332100  0.934969  1
  Ni  Ni7  1  0.543249  0.467319  0.109078  1
  Ni  Ni8  1  0.923086  0.461549  0.109576  1
  Ni  Ni9  1  0.543250  0.075948  0.109074  1
  Ni  Ni10  1  0.204608  0.411932  0.250000  1
  Ni  Ni11  1  0.204619  0.792685  0.250000  1
  Ni  Ni12  1  0.597995  0.799007  0.250000  1
  Ni  Ni13  1  0.543250  0.075948  0.390926  1
  Ni  Ni14  1  0.543249  0.467319  0.390922  1
  Ni  Ni15  1  0.923086  0.461549  0.390424  1
  Ni  Ni16  1  0.075461  0.537731  0.610898  1
  Ni  Ni17  1  0.459624  0.537854  0.611107  1
  Ni  Ni18  1  0.459629  0.921748  0.611087  1
  Ni  Ni19  1  0.401949  0.201036  0.750000  1
  Ni  Ni20  1  0.795258  0.201731  0.750000  1
  Ni  Ni21  1  0.795273  0.593522  0.750000  1
  Ni  Ni22  1  0.459629  0.921748  0.888913  1
  Ni  Ni23  1  0.075461  0.537731  0.889102  1
  Ni  Ni24  1  0.459624  0.537854  0.888893  1
  P  P25  1  0.828922  0.174803  0.250000  1
  P  P26  1  0.828920  0.654129  0.250000  1
  P  P27  1  0.170942  0.345208  0.750000  1
  P  P28  1  0.170845  0.825600  0.750000  1
  P  P29  1  0.653106  0.826541  0.750000  1
