# generated using pymatgen
data_Rb2Hf3ZrSe8
_symmetry_space_group_name_H-M   'P 1'
_cell_length_a   6.55022400
_cell_length_b   7.56780100
_cell_length_c   17.19697600
_cell_angle_alpha   90.00000000
_cell_angle_beta   90.00000000
_cell_angle_gamma   90.00000000
_symmetry_Int_Tables_number   1
_chemical_formula_structural   Rb2Hf3ZrSe8
_chemical_formula_sum   'Rb4 Hf6 Zr2 Se16'
_cell_volume   852.46771581
_cell_formula_units_Z   2
loop_
 _symmetry_equiv_pos_site_id
 _symmetry_equiv_pos_as_xyz
  1  'x, y, z'
loop_
 _atom_site_type_symbol
 _atom_site_label
 _atom_site_symmetry_multiplicity
 _atom_site_fract_x
 _atom_site_fract_y
 _atom_site_fract_z
 _atom_site_occupancy
  Rb  Rb0  1  0.350247  0.000000  0.000000  1
  Rb  Rb1  1  0.652801  0.500000  0.500000  1
  Rb  Rb2  1  0.030489  0.000000  0.500000  1
  Rb  Rb3  1  0.970412  0.500000  0.000000  1
  Hf  Hf4  1  0.001388  0.000000  0.249059  1
  Hf  Hf5  1  0.001388  0.000000  0.750941  1
  Hf  Hf6  1  0.500203  0.251653  0.249954  1
  Hf  Hf7  1  0.500203  0.748347  0.750046  1
  Hf  Hf8  1  0.500203  0.748347  0.249954  1
  Hf  Hf9  1  0.500203  0.251653  0.750046  1
  Zr  Zr10  1  0.998299  0.500000  0.250864  1
  Zr  Zr11  1  0.998299  0.500000  0.749136  1
  Se  Se12  1  0.831469  0.245306  0.343931  1
  Se  Se13  1  0.831469  0.754694  0.656069  1
  Se  Se14  1  0.168089  0.751493  0.156195  1
  Se  Se15  1  0.168089  0.248507  0.843805  1
  Se  Se16  1  0.168089  0.248507  0.156195  1
  Se  Se17  1  0.168089  0.751493  0.843805  1
  Se  Se18  1  0.831469  0.754694  0.343931  1
  Se  Se19  1  0.831469  0.245306  0.656069  1
  Se  Se20  1  0.669848  0.000000  0.158279  1
  Se  Se21  1  0.669848  0.000000  0.841721  1
  Se  Se22  1  0.334783  0.500000  0.343396  1
  Se  Se23  1  0.334783  0.500000  0.656604  1
  Se  Se24  1  0.335505  0.000000  0.341050  1
  Se  Se25  1  0.335505  0.000000  0.658950  1
  Se  Se26  1  0.658679  0.500000  0.157114  1
  Se  Se27  1  0.658679  0.500000  0.842886  1
