# generated using pymatgen
data_Tb4Sc4Mn(B8Ir)3
_symmetry_space_group_name_H-M   'P 1'
_cell_length_a   3.54079600
_cell_length_b   8.98497700
_cell_length_c   11.37295900
_cell_angle_alpha   90.00239047
_cell_angle_beta   90.00000000
_cell_angle_gamma   90.00000000
_symmetry_Int_Tables_number   1
_chemical_formula_structural   Tb4Sc4Mn(B8Ir)3
_chemical_formula_sum   'Tb4 Sc4 Mn1 B24 Ir3'
_cell_volume   361.81898335
_cell_formula_units_Z   1
loop_
 _symmetry_equiv_pos_site_id
 _symmetry_equiv_pos_as_xyz
  1  'x, y, z'
loop_
 _atom_site_type_symbol
 _atom_site_label
 _atom_site_symmetry_multiplicity
 _atom_site_fract_x
 _atom_site_fract_y
 _atom_site_fract_z
 _atom_site_occupancy
  Tb  Tb0  1  0.500000  0.316459  0.409822  1
  Tb  Tb1  1  0.500000  0.680262  0.585572  1
  Tb  Tb2  1  0.500000  0.179407  0.918634  1
  Tb  Tb3  1  0.500000  0.824590  0.087749  1
  Sc  Sc4  1  0.500000  0.438977  0.124889  1
  Sc  Sc5  1  0.500000  0.554997  0.876594  1
  Sc  Sc6  1  0.500000  0.055040  0.624030  1
  Sc  Sc7  1  0.500000  0.949786  0.371953  1
  Mn  Mn8  1  0.500000  0.140998  0.182045  1
  B  B9  1  0.000000  0.099877  0.472874  1
  B  B10  1  0.000000  0.900478  0.526602  1
  B  B11  1  0.000000  0.399597  0.973278  1
  B  B12  1  0.000000  0.600119  0.027214  1
  B  B13  1  0.000000  0.129874  0.314915  1
  B  B14  1  0.000000  0.870183  0.681205  1
  B  B15  1  0.000000  0.370465  0.819141  1
  B  B16  1  0.000000  0.629336  0.181864  1
  B  B17  1  0.000000  0.056307  0.069428  1
  B  B18  1  0.000000  0.945566  0.934050  1
  B  B19  1  0.000000  0.444405  0.566066  1
  B  B20  1  0.000000  0.554378  0.432814  1
  B  B21  1  0.000000  0.481118  0.284546  1
  B  B22  1  0.000000  0.518098  0.715626  1
  B  B23  1  0.000000  0.018483  0.785234  1
  B  B24  1  0.000000  0.985151  0.214009  1
  B  B25  1  0.000000  0.251480  0.083413  1
  B  B26  1  0.000000  0.745938  0.920111  1
  B  B27  1  0.000000  0.245273  0.580092  1
  B  B28  1  0.000000  0.755447  0.418609  1
  B  B29  1  0.000000  0.292502  0.233433  1
  B  B30  1  0.000000  0.704847  0.764775  1
  B  B31  1  0.000000  0.205166  0.735511  1
  B  B32  1  0.000000  0.796042  0.265332  1
  Ir  Ir33  1  0.500000  0.859512  0.818794  1
  Ir  Ir34  1  0.500000  0.358985  0.681081  1
  Ir  Ir35  1  0.500000  0.640855  0.318693  1
