# generated using pymatgen
data_Sm8Dy11ErSn16
_symmetry_space_group_name_H-M   'P 1'
_cell_length_a   8.08428910
_cell_length_b   8.23955810
_cell_length_c   15.56186700
_cell_angle_alpha   90.00000000
_cell_angle_beta   90.00000000
_cell_angle_gamma   90.01774628
_symmetry_Int_Tables_number   1
_chemical_formula_structural   Sm8Dy11ErSn16
_chemical_formula_sum   'Sm8 Dy11 Er1 Sn16'
_cell_volume   1036.59100152
_cell_formula_units_Z   1
loop_
 _symmetry_equiv_pos_site_id
 _symmetry_equiv_pos_as_xyz
  1  'x, y, z'
loop_
 _atom_site_type_symbol
 _atom_site_label
 _atom_site_symmetry_multiplicity
 _atom_site_fract_x
 _atom_site_fract_y
 _atom_site_fract_z
 _atom_site_occupancy
  Sm  Sm0  1  0.518548  0.320909  0.902410  1
  Sm  Sm1  1  0.018510  0.179113  0.597559  1
  Sm  Sm2  1  0.481391  0.679217  0.402398  1
  Sm  Sm3  1  0.981575  0.820990  0.097614  1
  Sm  Sm4  1  0.481391  0.679217  0.097602  1
  Sm  Sm5  1  0.981575  0.820990  0.402386  1
  Sm  Sm6  1  0.518548  0.320909  0.597590  1
  Sm  Sm7  1  0.018510  0.179113  0.902441  1
  Dy  Dy8  1  0.365507  0.835817  0.877757  1
  Dy  Dy9  1  0.865489  0.664178  0.622330  1
  Dy  Dy10  1  0.634357  0.164062  0.377674  1
  Dy  Dy11  1  0.134602  0.335758  0.122337  1
  Dy  Dy12  1  0.634357  0.164062  0.122326  1
  Dy  Dy13  1  0.134602  0.335758  0.377663  1
  Dy  Dy14  1  0.365507  0.835817  0.622243  1
  Dy  Dy15  1  0.865489  0.664178  0.877670  1
  Dy  Dy16  1  0.197828  0.503036  0.750000  1
  Dy  Dy17  1  0.697805  0.996958  0.750000  1
  Dy  Dy18  1  0.802217  0.497010  0.250000  1
  Er  Er19  1  0.302054  0.003170  0.250000  1
  Sn  Sn20  1  0.297088  0.038049  0.042156  1
  Sn  Sn21  1  0.797151  0.461870  0.458194  1
  Sn  Sn22  1  0.702809  0.961778  0.541741  1
  Sn  Sn23  1  0.202818  0.538153  0.958250  1
  Sn  Sn24  1  0.702809  0.961778  0.958259  1
  Sn  Sn25  1  0.202818  0.538153  0.541750  1
  Sn  Sn26  1  0.297088  0.038049  0.457844  1
  Sn  Sn27  1  0.797151  0.461870  0.041806  1
  Sn  Sn28  1  0.564020  0.621240  0.750000  1
  Sn  Sn29  1  0.064096  0.878809  0.750000  1
  Sn  Sn30  1  0.435695  0.378467  0.250000  1
  Sn  Sn31  1  0.936729  0.120676  0.250000  1
  Sn  Sn32  1  0.326860  0.144720  0.750000  1
  Sn  Sn33  1  0.827117  0.355053  0.750000  1
  Sn  Sn34  1  0.672789  0.855450  0.250000  1
  Sn  Sn35  1  0.173099  0.645622  0.250000  1
