# generated using pymatgen
data_Lu16Cd4CuIr3
_symmetry_space_group_name_H-M   'P 1'
_cell_length_a   9.47430634
_cell_length_b   9.47430562
_cell_length_c   9.47430613
_cell_angle_alpha   59.64763664
_cell_angle_beta   59.64763949
_cell_angle_gamma   59.64763200
_symmetry_Int_Tables_number   1
_chemical_formula_structural   Lu16Cd4CuIr3
_chemical_formula_sum   'Lu16 Cd4 Cu1 Ir3'
_cell_volume   596.53518000
_cell_formula_units_Z   1
loop_
 _symmetry_equiv_pos_site_id
 _symmetry_equiv_pos_as_xyz
  1  'x, y, z'
loop_
 _atom_site_type_symbol
 _atom_site_label
 _atom_site_symmetry_multiplicity
 _atom_site_fract_x
 _atom_site_fract_y
 _atom_site_fract_z
 _atom_site_occupancy
  Lu  Lu0  1  0.348837  0.348837  0.348837  1
  Lu  Lu1  1  0.352583  0.352583  0.947904  1
  Lu  Lu2  1  0.352583  0.947904  0.352583  1
  Lu  Lu3  1  0.947904  0.352583  0.352583  1
  Lu  Lu4  1  0.806065  0.190167  0.190167  1
  Lu  Lu5  1  0.188996  0.810474  0.810474  1
  Lu  Lu6  1  0.190167  0.806065  0.190167  1
  Lu  Lu7  1  0.810474  0.188996  0.810474  1
  Lu  Lu8  1  0.190167  0.190167  0.806065  1
  Lu  Lu9  1  0.810474  0.810474  0.188996  1
  Lu  Lu10  1  0.937910  0.562628  0.562628  1
  Lu  Lu11  1  0.564902  0.936926  0.936926  1
  Lu  Lu12  1  0.562628  0.937910  0.562628  1
  Lu  Lu13  1  0.936926  0.564902  0.936926  1
  Lu  Lu14  1  0.562628  0.562628  0.937910  1
  Lu  Lu15  1  0.936926  0.936926  0.564902  1
  Cd  Cd16  1  0.581667  0.581667  0.581667  1
  Cd  Cd17  1  0.581520  0.581520  0.254920  1
  Cd  Cd18  1  0.581520  0.254920  0.581520  1
  Cd  Cd19  1  0.254920  0.581520  0.581520  1
  Cu  Cu20  1  0.142165  0.142165  0.142165  1
  Ir  Ir21  1  0.142052  0.142052  0.573931  1
  Ir  Ir22  1  0.142052  0.573931  0.142052  1
  Ir  Ir23  1  0.573931  0.142052  0.142052  1
