# generated using pymatgen
data_Tb9Y7CdIn3Ir4
_symmetry_space_group_name_H-M   'P 1'
_cell_length_a   9.68919134
_cell_length_b   9.72282066
_cell_length_c   9.73333000
_cell_angle_alpha   59.96423787
_cell_angle_beta   59.84919204
_cell_angle_gamma   59.89271056
_symmetry_Int_Tables_number   1
_chemical_formula_structural   Tb9Y7CdIn3Ir4
_chemical_formula_sum   'Tb9 Y7 Cd1 In3 Ir4'
_cell_volume   646.93283641
_cell_formula_units_Z   1
loop_
 _symmetry_equiv_pos_site_id
 _symmetry_equiv_pos_as_xyz
  1  'x, y, z'
loop_
 _atom_site_type_symbol
 _atom_site_label
 _atom_site_symmetry_multiplicity
 _atom_site_fract_x
 _atom_site_fract_y
 _atom_site_fract_z
 _atom_site_occupancy
  Tb  Tb0  1  0.349799  0.349048  0.347895  1
  Tb  Tb1  1  0.349799  0.349048  0.953258  1
  Tb  Tb2  1  0.350022  0.952181  0.348899  1
  Tb  Tb3  1  0.952393  0.350036  0.348786  1
  Tb  Tb4  1  0.807483  0.190319  0.192357  1
  Tb  Tb5  1  0.188992  0.809192  0.810792  1
  Tb  Tb6  1  0.188992  0.809192  0.191023  1
  Tb  Tb7  1  0.807483  0.190319  0.809841  1
  Tb  Tb8  1  0.190355  0.190324  0.809661  1
  Y  Y9  1  0.807576  0.807894  0.192265  1
  Y  Y10  1  0.940338  0.561696  0.561091  1
  Y  Y11  1  0.561845  0.939223  0.938956  1
  Y  Y12  1  0.561845  0.939223  0.559977  1
  Y  Y13  1  0.940338  0.561696  0.936874  1
  Y  Y14  1  0.562123  0.560074  0.938902  1
  Y  Y15  1  0.940778  0.937962  0.560630  1
  Cd  Cd16  1  0.253489  0.582008  0.582252  1
  In  In17  1  0.582197  0.583400  0.583283  1
  In  In18  1  0.582197  0.583400  0.251121  1
  In  In19  1  0.581878  0.251401  0.583361  1
  Ir  Ir20  1  0.141263  0.141730  0.141211  1
  Ir  Ir21  1  0.141263  0.141730  0.575797  1
  Ir  Ir22  1  0.142287  0.575761  0.140977  1
  Ir  Ir23  1  0.575268  0.143147  0.140793  1
