# generated using pymatgen
data_Ca7Ac8Er5Pb16
_symmetry_space_group_name_H-M   'P 1'
_cell_length_a   8.32705804
_cell_length_b   8.79205752
_cell_length_c   16.48585400
_cell_angle_alpha   90.07688483
_cell_angle_beta   90.14328332
_cell_angle_gamma   90.24208801
_symmetry_Int_Tables_number   1
_chemical_formula_structural   Ca7Ac8Er5Pb16
_chemical_formula_sum   'Ca7 Ac8 Er5 Pb16'
_cell_volume   1206.94625055
_cell_formula_units_Z   1
loop_
 _symmetry_equiv_pos_site_id
 _symmetry_equiv_pos_as_xyz
  1  'x, y, z'
loop_
 _atom_site_type_symbol
 _atom_site_label
 _atom_site_symmetry_multiplicity
 _atom_site_fract_x
 _atom_site_fract_y
 _atom_site_fract_z
 _atom_site_occupancy
  Ca  Ca0  1  0.832135  0.662612  0.123826  1
  Ca  Ca1  1  0.666742  0.162422  0.877827  1
  Ca  Ca2  1  0.166304  0.336479  0.620415  1
  Ca  Ca3  1  0.830451  0.496540  0.748532  1
  Ca  Ca4  1  0.329969  0.003385  0.750272  1
  Ca  Ca5  1  0.169846  0.501154  0.248988  1
  Ca  Ca6  1  0.670970  0.996520  0.250636  1
  Ac  Ac7  1  0.498565  0.681992  0.593355  1
  Ac  Ac8  1  0.999517  0.818193  0.905963  1
  Ac  Ac9  1  0.501942  0.319568  0.095609  1
  Ac  Ac10  1  0.999865  0.182298  0.405862  1
  Ac  Ac11  1  0.499321  0.320021  0.405628  1
  Ac  Ac12  1  0.997430  0.182367  0.095111  1
  Ac  Ac13  1  0.502173  0.684033  0.906350  1
  Ac  Ac14  1  0.001683  0.816619  0.592946  1
  Er  Er15  1  0.662959  0.167557  0.623745  1
  Er  Er16  1  0.163065  0.333405  0.875999  1
  Er  Er17  1  0.335827  0.834834  0.126040  1
  Er  Er18  1  0.836380  0.665216  0.375989  1
  Er  Er19  1  0.335604  0.834618  0.375649  1
  Pb  Pb20  1  0.681242  0.955284  0.460555  1
  Pb  Pb21  1  0.185903  0.543518  0.038350  1
  Pb  Pb22  1  0.313788  0.044217  0.962868  1
  Pb  Pb23  1  0.812263  0.456520  0.537570  1
  Pb  Pb24  1  0.325712  0.039837  0.538627  1
  Pb  Pb25  1  0.828703  0.458515  0.957231  1
  Pb  Pb26  1  0.671005  0.957905  0.043147  1
  Pb  Pb27  1  0.178261  0.546497  0.456279  1
  Pb  Pb28  1  0.465181  0.378014  0.753238  1
  Pb  Pb29  1  0.965723  0.120178  0.746486  1
  Pb  Pb30  1  0.531174  0.627243  0.253391  1
  Pb  Pb31  1  0.035342  0.878357  0.251742  1
  Pb  Pb32  1  0.702024  0.861891  0.747946  1
  Pb  Pb33  1  0.202128  0.638483  0.750824  1
  Pb  Pb34  1  0.300692  0.134339  0.250949  1
  Pb  Pb35  1  0.800109  0.359365  0.252059  1
