# generated using pymatgen
data_Li3SiSnPt3
_symmetry_space_group_name_H-M   'P 1'
_cell_length_a   6.91667763
_cell_length_b   6.91667781
_cell_length_c   6.91667717
_cell_angle_alpha   61.81039814
_cell_angle_beta   61.81039993
_cell_angle_gamma   61.81040154
_symmetry_Int_Tables_number   1
_chemical_formula_structural   Li3SiSnPt3
_chemical_formula_sum   'Li6 Si2 Sn2 Pt6'
_cell_volume   243.46714940
_cell_formula_units_Z   2
loop_
 _symmetry_equiv_pos_site_id
 _symmetry_equiv_pos_as_xyz
  1  'x, y, z'
loop_
 _atom_site_type_symbol
 _atom_site_label
 _atom_site_symmetry_multiplicity
 _atom_site_fract_x
 _atom_site_fract_y
 _atom_site_fract_z
 _atom_site_occupancy
  Li  Li0  1  0.564601  0.828022  0.341752  1
  Li  Li1  1  0.341752  0.564601  0.828022  1
  Li  Li2  1  0.828022  0.341752  0.564601  1
  Li  Li3  1  0.658248  0.171978  0.435399  1
  Li  Li4  1  0.171978  0.435399  0.658248  1
  Li  Li5  1  0.435399  0.658248  0.171978  1
  Si  Si6  1  0.899153  0.899153  0.899153  1
  Si  Si7  1  0.100847  0.100847  0.100847  1
  Sn  Sn8  1  0.282355  0.282355  0.282355  1
  Sn  Sn9  1  0.717645  0.717645  0.717645  1
  Pt  Pt10  1  0.894268  0.500000  0.105732  1
  Pt  Pt11  1  0.105732  0.894268  0.500000  1
  Pt  Pt12  1  0.500000  0.105732  0.894268  1
  Pt  Pt13  1  0.257360  0.000000  0.742640  1
  Pt  Pt14  1  0.742640  0.257360  0.000000  1
  Pt  Pt15  1  0.000000  0.742640  0.257360  1
