# generated using pymatgen
data_Ce5Nd8Dy7Si16
_symmetry_space_group_name_H-M   'P 1'
_cell_length_a   7.50189304
_cell_length_b   7.86984216
_cell_length_c   14.94197700
_cell_angle_alpha   89.96225100
_cell_angle_beta   90.11086616
_cell_angle_gamma   90.07890534
_symmetry_Int_Tables_number   1
_chemical_formula_structural   Ce5Nd8Dy7Si16
_chemical_formula_sum   'Ce5 Nd8 Dy7 Si16'
_cell_volume   882.15243083
_cell_formula_units_Z   1
loop_
 _symmetry_equiv_pos_site_id
 _symmetry_equiv_pos_as_xyz
  1  'x, y, z'
loop_
 _atom_site_type_symbol
 _atom_site_label
 _atom_site_symmetry_multiplicity
 _atom_site_fract_x
 _atom_site_fract_y
 _atom_site_fract_z
 _atom_site_occupancy
  Ce  Ce0  1  0.649638  0.985322  0.250240  1
  Ce  Ce1  1  0.150266  0.514157  0.249562  1
  Ce  Ce2  1  0.847804  0.495852  0.752083  1
  Ce  Ce3  1  0.362754  0.002762  0.755495  1
  Ce  Ce4  1  0.671581  0.819825  0.872357  1
  Nd  Nd5  1  0.970839  0.815572  0.100631  1
  Nd  Nd6  1  0.470752  0.685041  0.399270  1
  Nd  Nd7  1  0.527421  0.315236  0.899565  1
  Nd  Nd8  1  0.031659  0.185270  0.600607  1
  Nd  Nd9  1  0.030257  0.185367  0.897930  1
  Nd  Nd10  1  0.529125  0.314239  0.600649  1
  Nd  Nd11  1  0.470909  0.686611  0.101170  1
  Nd  Nd12  1  0.969940  0.814999  0.399382  1
  Dy  Dy13  1  0.178898  0.680267  0.621941  1
  Dy  Dy14  1  0.820295  0.319680  0.123605  1
  Dy  Dy15  1  0.320708  0.180780  0.376695  1
  Dy  Dy16  1  0.320933  0.181026  0.124863  1
  Dy  Dy17  1  0.820634  0.319140  0.376709  1
  Dy  Dy18  1  0.180608  0.677779  0.877409  1
  Dy  Dy19  1  0.678990  0.819380  0.622743  1
  Si  Si20  1  0.763165  0.614644  0.250636  1
  Si  Si21  1  0.261489  0.885243  0.250629  1
  Si  Si22  1  0.742837  0.121702  0.747145  1
  Si  Si23  1  0.234911  0.379748  0.748547  1
  Si  Si24  1  0.026824  0.114655  0.250445  1
  Si  Si25  1  0.528022  0.385899  0.250673  1
  Si  Si26  1  0.467291  0.607961  0.746826  1
  Si  Si27  1  0.978318  0.890346  0.747603  1
  Si  Si28  1  0.857045  0.529445  0.961352  1
  Si  Si29  1  0.355688  0.970891  0.539195  1
  Si  Si30  1  0.642553  0.031233  0.039723  1
  Si  Si31  1  0.144347  0.469736  0.460915  1
  Si  Si32  1  0.146656  0.468412  0.039220  1
  Si  Si33  1  0.644505  0.030883  0.461293  1
  Si  Si34  1  0.348694  0.971296  0.963740  1
  Si  Si35  1  0.853642  0.529602  0.539152  1
