# generated using pymatgen
data_HoScP7(IrRu5)2
_symmetry_space_group_name_H-M   'P 1'
_cell_length_a   9.37415800
_cell_length_b   9.43622184
_cell_length_c   3.93572300
_cell_angle_alpha   90.00000000
_cell_angle_beta   90.00000000
_cell_angle_gamma   120.15652095
_symmetry_Int_Tables_number   1
_chemical_formula_structural   HoScP7(IrRu5)2
_chemical_formula_sum   'Ho1 Sc1 P7 Ir2 Ru10'
_cell_volume   301.02213537
_cell_formula_units_Z   1
loop_
 _symmetry_equiv_pos_site_id
 _symmetry_equiv_pos_as_xyz
  1  'x, y, z'
loop_
 _atom_site_type_symbol
 _atom_site_label
 _atom_site_symmetry_multiplicity
 _atom_site_fract_x
 _atom_site_fract_y
 _atom_site_fract_z
 _atom_site_occupancy
  Ho  Ho0  1  0.330332  0.665362  0.000000  1
  Sc  Sc1  1  0.668698  0.333959  0.500000  1
  P  P2  1  0.600127  0.717319  0.500000  1
  P  P3  1  0.000647  0.000991  0.000000  1
  P  P4  1  0.277273  0.878474  0.500000  1
  P  P5  1  0.114410  0.402156  0.500000  1
  P  P6  1  0.882847  0.573719  0.000000  1
  P  P7  1  0.428326  0.304641  0.000000  1
  P  P8  1  0.696802  0.121184  0.000000  1
  Ir  Ir9  1  0.551165  0.943539  0.500000  1
  Ir  Ir10  1  0.391306  0.446656  0.500000  1
  Ru  Ru11  1  0.913957  0.125550  0.500000  1
  Ru  Ru12  1  0.214004  0.087597  0.500000  1
  Ru  Ru13  1  0.874934  0.791350  0.500000  1
  Ru  Ru14  1  0.725752  0.891783  0.000000  1
  Ru  Ru15  1  0.109532  0.837437  0.000000  1
  Ru  Ru16  1  0.167289  0.272808  0.000000  1
  Ru  Ru17  1  0.433287  0.069726  0.000000  1
  Ru  Ru18  1  0.932859  0.360589  0.000000  1
  Ru  Ru19  1  0.639184  0.568648  0.000000  1
  Ru  Ru20  1  0.047269  0.606511  0.500000  1
