# generated using pymatgen
data_Th3GeSb2
_symmetry_space_group_name_H-M   'P 1'
_cell_length_a   7.70615621
_cell_length_b   7.70615541
_cell_length_c   7.70615646
_cell_angle_alpha   146.67469368
_cell_angle_beta   131.70011239
_cell_angle_gamma   59.94727886
_symmetry_Int_Tables_number   1
_chemical_formula_structural   Th3GeSb2
_chemical_formula_sum   'Th3 Ge1 Sb2'
_cell_volume   186.01964754
_cell_formula_units_Z   1
loop_
 _symmetry_equiv_pos_site_id
 _symmetry_equiv_pos_as_xyz
  1  'x, y, z'
loop_
 _atom_site_type_symbol
 _atom_site_label
 _atom_site_symmetry_multiplicity
 _atom_site_fract_x
 _atom_site_fract_y
 _atom_site_fract_z
 _atom_site_occupancy
  Th  Th0  1  0.346607  0.346607  0.000000  1
  Th  Th1  1  0.000000  0.000000  0.000000  1
  Th  Th2  1  0.653393  0.653393  0.000000  1
  Ge  Ge3  1  0.500000  0.000000  0.500000  1
  Sb  Sb4  1  0.171679  0.671679  0.500000  1
  Sb  Sb5  1  0.828321  0.328321  0.500000  1
