# generated using pymatgen
data_Rb3TbSi2O7
_symmetry_space_group_name_H-M   'P 1'
_cell_length_a   10.02802400
_cell_length_b   10.02802390
_cell_length_c   14.57879100
_cell_angle_alpha   90.00000000
_cell_angle_beta   90.00000000
_cell_angle_gamma   119.99999372
_symmetry_Int_Tables_number   1
_chemical_formula_structural   Rb3TbSi2O7
_chemical_formula_sum   'Rb18 Tb6 Si12 O42'
_cell_volume   1269.64671803
_cell_formula_units_Z   6
loop_
 _symmetry_equiv_pos_site_id
 _symmetry_equiv_pos_as_xyz
  1  'x, y, z'
loop_
 _atom_site_type_symbol
 _atom_site_label
 _atom_site_symmetry_multiplicity
 _atom_site_fract_x
 _atom_site_fract_y
 _atom_site_fract_z
 _atom_site_occupancy
  Rb  Rb0  1  0.000000  0.668774  0.404415  1
  Rb  Rb1  1  0.668775  0.000000  0.095585  1
  Rb  Rb2  1  0.333333  0.666667  0.750000  1
  Rb  Rb3  1  0.000000  0.331226  0.595585  1
  Rb  Rb4  1  0.668774  0.668774  0.904415  1
  Rb  Rb5  1  0.331226  0.331226  0.404415  1
  Rb  Rb6  1  0.331225  0.000000  0.595585  1
  Rb  Rb7  1  0.666667  0.333333  0.250000  1
  Rb  Rb8  1  0.331225  0.000000  0.904415  1
  Rb  Rb9  1  0.000000  0.000000  0.000000  1
  Rb  Rb10  1  0.668775  0.000000  0.404415  1
  Rb  Rb11  1  0.000000  0.668774  0.095585  1
  Rb  Rb12  1  0.666667  0.333333  0.750000  1
  Rb  Rb13  1  0.668774  0.668774  0.595585  1
  Rb  Rb14  1  0.000000  0.331226  0.904415  1
  Rb  Rb15  1  0.333333  0.666667  0.250000  1
  Rb  Rb16  1  0.000000  0.000000  0.500000  1
  Rb  Rb17  1  0.331226  0.331226  0.095585  1
  Tb  Tb18  1  0.333333  0.666667  0.500000  1
  Tb  Tb19  1  0.666667  0.333333  0.000000  1
  Tb  Tb20  1  0.666667  0.333333  0.500000  1
  Tb  Tb21  1  0.000000  0.000000  0.750000  1
  Tb  Tb22  1  0.333333  0.666667  0.000000  1
  Tb  Tb23  1  0.000000  0.000000  0.250000  1
  Si  Si24  1  0.656933  0.000000  0.856669  1
  Si  Si25  1  0.343067  0.000000  0.143331  1
  Si  Si26  1  0.656933  0.656933  0.356669  1
  Si  Si27  1  0.000000  0.656933  0.856669  1
  Si  Si28  1  0.000000  0.656933  0.643331  1
  Si  Si29  1  0.343067  0.343067  0.643331  1
  Si  Si30  1  0.343067  0.343067  0.856669  1
  Si  Si31  1  0.656933  0.656933  0.143331  1
  Si  Si32  1  0.000000  0.343067  0.143331  1
  Si  Si33  1  0.343067  0.000000  0.356669  1
  Si  Si34  1  0.000000  0.343067  0.356669  1
  Si  Si35  1  0.656933  0.000000  0.643331  1
  O  O36  1  0.846565  0.324343  0.091704  1
  O  O37  1  0.675656  0.522221  0.091704  1
  O  O38  1  0.000000  0.180113  0.150351  1
  O  O39  1  0.522221  0.675656  0.091704  1
  O  O40  1  0.819886  0.819886  0.349650  1
  O  O41  1  0.675656  0.153435  0.908296  1
  O  O42  1  0.180114  0.180114  0.849650  1
  O  O43  1  0.000000  0.819887  0.650351  1
  O  O44  1  0.590762  0.590762  0.250000  1
  O  O45  1  0.522221  0.846565  0.591704  1
  O  O46  1  0.675656  0.522221  0.408296  1
  O  O47  1  0.153435  0.675657  0.591704  1
  O  O48  1  0.000000  0.819887  0.849649  1
  O  O49  1  0.153435  0.477779  0.408296  1
  O  O50  1  0.324344  0.477779  0.908296  1
  O  O51  1  0.846565  0.522221  0.591704  1
  O  O52  1  0.000000  0.409240  0.250000  1
  O  O53  1  0.477779  0.153435  0.091704  1
  O  O54  1  0.324344  0.846565  0.408296  1
  O  O55  1  0.409239  0.000000  0.250000  1
  O  O56  1  0.522221  0.675656  0.408296  1
  O  O57  1  0.153435  0.675657  0.908296  1
  O  O58  1  0.477779  0.153435  0.408296  1
  O  O59  1  0.180114  0.180114  0.650350  1
  O  O60  1  0.675656  0.153435  0.591704  1
  O  O61  1  0.477779  0.324344  0.908296  1
  O  O62  1  0.180114  0.000001  0.349649  1
  O  O63  1  0.409238  0.409238  0.750000  1
  O  O64  1  0.819886  0.819886  0.150350  1
  O  O65  1  0.846565  0.324343  0.408296  1
  O  O66  1  0.153435  0.477779  0.091704  1
  O  O67  1  0.819886  0.999999  0.849649  1
  O  O68  1  0.846565  0.522221  0.908296  1
  O  O69  1  0.000000  0.180113  0.349649  1
  O  O70  1  0.819886  0.999999  0.650351  1
  O  O71  1  0.324344  0.477779  0.591704  1
  O  O72  1  0.324344  0.846565  0.091704  1
  O  O73  1  0.000000  0.590760  0.750000  1
  O  O74  1  0.522221  0.846565  0.908296  1
  O  O75  1  0.590761  0.000000  0.750000  1
  O  O76  1  0.180114  0.000001  0.150351  1
  O  O77  1  0.477779  0.324344  0.591704  1
