# generated using pymatgen
data_Ca3CdPdRu3O14
_symmetry_space_group_name_H-M   'P 1'
_cell_length_a   7.34542505
_cell_length_b   7.20642253
_cell_length_c   7.34542400
_cell_angle_alpha   59.35986190
_cell_angle_beta   60.00000474
_cell_angle_gamma   59.35985762
_symmetry_Int_Tables_number   1
_chemical_formula_structural   Ca3CdPdRu3O14
_chemical_formula_sum   'Ca3 Cd1 Pd1 Ru3 O14'
_cell_volume   272.25004235
_cell_formula_units_Z   1
loop_
 _symmetry_equiv_pos_site_id
 _symmetry_equiv_pos_as_xyz
  1  'x, y, z'
loop_
 _atom_site_type_symbol
 _atom_site_label
 _atom_site_symmetry_multiplicity
 _atom_site_fract_x
 _atom_site_fract_y
 _atom_site_fract_z
 _atom_site_occupancy
  Ca  Ca0  1  0.125000  0.125000  0.625000  1
  Ca  Ca1  1  0.625000  0.125000  0.125000  1
  Ca  Ca2  1  0.125000  0.125000  0.125000  1
  Cd  Cd3  1  0.125000  0.625000  0.125000  1
  Pd  Pd4  1  0.625000  0.125000  0.625000  1
  Ru  Ru5  1  0.625000  0.625000  0.125000  1
  Ru  Ru6  1  0.125000  0.625000  0.625000  1
  Ru  Ru7  1  0.625000  0.625000  0.625000  1
  O  O8  1  0.697248  0.674851  0.313950  1
  O  O9  1  0.936050  0.575149  0.552752  1
  O  O10  1  0.542377  0.951629  0.963617  1
  O  O11  1  0.963617  0.951629  0.542377  1
  O  O12  1  0.936050  0.575149  0.936050  1
  O  O13  1  0.542377  0.951629  0.542377  1
  O  O14  1  0.313950  0.674851  0.313950  1
  O  O15  1  0.313950  0.674851  0.697248  1
  O  O16  1  0.707623  0.298371  0.286383  1
  O  O17  1  0.707623  0.298371  0.707623  1
  O  O18  1  0.552752  0.575149  0.936050  1
  O  O19  1  0.286383  0.298371  0.707623  1
  O  O20  1  0.244224  0.267326  0.244224  1
  O  O21  1  0.005776  0.982674  0.005776  1
