# generated using pymatgen
data_Eu5Pb3F
_symmetry_space_group_name_H-M   'P 1'
_cell_length_a   9.83965262
_cell_length_b   9.83965176
_cell_length_c   9.84137500
_cell_angle_alpha   128.33040681
_cell_angle_beta   128.33041025
_cell_angle_gamma   75.97807974
_symmetry_Int_Tables_number   1
_chemical_formula_structural   Eu5Pb3F
_chemical_formula_sum   'Eu10 Pb6 F2'
_cell_volume   570.42727358
_cell_formula_units_Z   2
loop_
 _symmetry_equiv_pos_site_id
 _symmetry_equiv_pos_as_xyz
  1  'x, y, z'
loop_
 _atom_site_type_symbol
 _atom_site_label
 _atom_site_symmetry_multiplicity
 _atom_site_fract_x
 _atom_site_fract_y
 _atom_site_fract_z
 _atom_site_occupancy
  Eu  Eu0  1  0.500119  0.500106  0.999780  1
  Eu  Eu1  1  0.000106  0.000119  0.999780  1
  Eu  Eu2  1  0.188565  0.688565  0.177311  1
  Eu  Eu3  1  0.012217  0.188341  0.500382  1
  Eu  Eu4  1  0.688341  0.512217  0.500382  1
  Eu  Eu5  1  0.488279  0.988279  0.176776  1
  Eu  Eu6  1  0.811434  0.311434  0.823497  1
  Eu  Eu7  1  0.988308  0.811493  0.499652  1
  Eu  Eu8  1  0.311493  0.488308  0.499652  1
  Eu  Eu9  1  0.511499  0.011499  0.823299  1
  Pb  Pb10  1  0.249667  0.250131  0.999821  1
  Pb  Pb11  1  0.750131  0.749667  0.999821  1
  Pb  Pb12  1  0.869527  0.369527  0.238871  1
  Pb  Pb13  1  0.131082  0.631082  0.762014  1
  Pb  Pb14  1  0.369245  0.130849  0.500010  1
  Pb  Pb15  1  0.630849  0.869245  0.500010  1
  F  F16  1  0.249548  0.749548  0.499066  1
  F  F17  1  0.749588  0.249588  0.499880  1
