# generated using pymatgen
data_ScNb5As4
_symmetry_space_group_name_H-M   'P 1'
_cell_length_a   10.10826800
_cell_length_b   10.10826800
_cell_length_c   3.52121500
_cell_angle_alpha   90.00000000
_cell_angle_beta   90.00000000
_cell_angle_gamma   90.00000000
_symmetry_Int_Tables_number   1
_chemical_formula_structural   ScNb5As4
_chemical_formula_sum   'Sc2 Nb10 As8'
_cell_volume   359.78747365
_cell_formula_units_Z   2
loop_
 _symmetry_equiv_pos_site_id
 _symmetry_equiv_pos_as_xyz
  1  'x, y, z'
loop_
 _atom_site_type_symbol
 _atom_site_label
 _atom_site_symmetry_multiplicity
 _atom_site_fract_x
 _atom_site_fract_y
 _atom_site_fract_z
 _atom_site_occupancy
  Sc  Sc0  1  0.000000  0.500000  0.500000  1
  Sc  Sc1  1  0.500000  0.000000  0.500000  1
  Nb  Nb2  1  0.141997  0.819555  0.500000  1
  Nb  Nb3  1  0.858003  0.180445  0.500000  1
  Nb  Nb4  1  0.180445  0.141997  0.500000  1
  Nb  Nb5  1  0.819555  0.858003  0.500000  1
  Nb  Nb6  1  0.392627  0.715132  0.000000  1
  Nb  Nb7  1  0.607373  0.284868  0.000000  1
  Nb  Nb8  1  0.284868  0.392627  0.000000  1
  Nb  Nb9  1  0.715132  0.607373  0.000000  1
  Nb  Nb10  1  0.500000  0.500000  0.500000  1
  Nb  Nb11  1  0.000000  0.000000  0.000000  1
  As  As12  1  0.245881  0.585417  0.500000  1
  As  As13  1  0.754119  0.414583  0.500000  1
  As  As14  1  0.414583  0.245881  0.500000  1
  As  As15  1  0.585417  0.754119  0.500000  1
  As  As16  1  0.283035  0.963231  0.000000  1
  As  As17  1  0.716965  0.036769  0.000000  1
  As  As18  1  0.036769  0.283035  0.000000  1
  As  As19  1  0.963231  0.716965  0.000000  1
