# generated using pymatgen
data_Sc2Mn2FeCo9P7
_symmetry_space_group_name_H-M   'P 1'
_cell_length_a   8.96129647
_cell_length_b   8.97330539
_cell_length_c   3.53977700
_cell_angle_alpha   90.00000000
_cell_angle_beta   90.00000000
_cell_angle_gamma   119.93717399
_symmetry_Int_Tables_number   1
_chemical_formula_structural   Sc2Mn2FeCo9P7
_chemical_formula_sum   'Sc2 Mn2 Fe1 Co9 P7'
_cell_volume   246.66323482
_cell_formula_units_Z   1
loop_
 _symmetry_equiv_pos_site_id
 _symmetry_equiv_pos_as_xyz
  1  'x, y, z'
loop_
 _atom_site_type_symbol
 _atom_site_label
 _atom_site_symmetry_multiplicity
 _atom_site_fract_x
 _atom_site_fract_y
 _atom_site_fract_z
 _atom_site_occupancy
  Sc  Sc0  1  0.003217  0.002530  0.000000  1
  Sc  Sc1  1  0.665625  0.333289  0.500000  1
  Mn  Mn2  1  0.109098  0.565123  0.500000  1
  Mn  Mn3  1  0.457494  0.888785  0.500000  1
  Fe  Fe4  1  0.428011  0.540445  0.500000  1
  Co  Co5  1  0.396234  0.297521  0.000000  1
  Co  Co6  1  0.899530  0.603638  0.000000  1
  Co  Co7  1  0.702581  0.099565  0.000000  1
  Co  Co8  1  0.613209  0.785719  0.000000  1
  Co  Co9  1  0.171888  0.388095  0.000000  1
  Co  Co10  1  0.216994  0.826151  0.000000  1
  Co  Co11  1  0.771708  0.717694  0.500000  1
  Co  Co12  1  0.945942  0.226694  0.500000  1
  Co  Co13  1  0.280945  0.054272  0.500000  1
  P  P14  1  0.629865  0.549595  0.000000  1
  P  P15  1  0.915544  0.366486  0.000000  1
  P  P16  1  0.449907  0.083787  0.000000  1
  P  P17  1  0.747251  0.955971  0.500000  1
  P  P18  1  0.215868  0.261090  0.500000  1
  P  P19  1  0.044032  0.789543  0.500000  1
  P  P20  1  0.335055  0.664006  0.000000  1
