# generated using pymatgen
data_Nd6ScMn(Co4P3)4
_symmetry_space_group_name_H-M   'P 1'
_cell_length_a   3.77192000
_cell_length_b   10.73972600
_cell_length_c   12.48609700
_cell_angle_alpha   90.00000000
_cell_angle_beta   90.00000000
_cell_angle_gamma   90.00000000
_symmetry_Int_Tables_number   1
_chemical_formula_structural   Nd6ScMn(Co4P3)4
_chemical_formula_sum   'Nd6 Sc1 Mn1 Co16 P12'
_cell_volume   505.80413916
_cell_formula_units_Z   1
loop_
 _symmetry_equiv_pos_site_id
 _symmetry_equiv_pos_as_xyz
  1  'x, y, z'
loop_
 _atom_site_type_symbol
 _atom_site_label
 _atom_site_symmetry_multiplicity
 _atom_site_fract_x
 _atom_site_fract_y
 _atom_site_fract_z
 _atom_site_occupancy
  Nd  Nd0  1  0.000000  0.500000  0.526842  1
  Nd  Nd1  1  0.500000  0.000000  0.477633  1
  Nd  Nd2  1  0.500000  0.820911  0.206562  1
  Nd  Nd3  1  0.500000  0.179089  0.206562  1
  Nd  Nd4  1  0.000000  0.681601  0.795024  1
  Nd  Nd5  1  0.000000  0.318399  0.795024  1
  Sc  Sc6  1  0.500000  0.500000  0.151037  1
  Mn  Mn7  1  0.000000  0.000000  0.840494  1
  Co  Co8  1  0.500000  0.500000  0.704771  1
  Co  Co9  1  0.000000  0.000000  0.294940  1
  Co  Co10  1  0.000000  0.500000  0.985778  1
  Co  Co11  1  0.500000  0.000000  0.010364  1
  Co  Co12  1  0.500000  0.327385  0.991550  1
  Co  Co13  1  0.500000  0.672615  0.991550  1
  Co  Co14  1  0.000000  0.162763  0.001653  1
  Co  Co15  1  0.000000  0.837237  0.001653  1
  Co  Co16  1  0.500000  0.295011  0.433527  1
  Co  Co17  1  0.500000  0.704989  0.433527  1
  Co  Co18  1  0.000000  0.202451  0.570831  1
  Co  Co19  1  0.000000  0.797549  0.570831  1
  Co  Co20  1  0.500000  0.882576  0.709437  1
  Co  Co21  1  0.500000  0.117424  0.709437  1
  Co  Co22  1  0.000000  0.620466  0.296863  1
  Co  Co23  1  0.000000  0.379534  0.296863  1
  P  P24  1  0.500000  0.500000  0.886902  1
  P  P25  1  0.000000  0.000000  0.112032  1
  P  P26  1  0.500000  0.500000  0.353521  1
  P  P27  1  0.000000  0.000000  0.657880  1
  P  P28  1  0.500000  0.305278  0.615356  1
  P  P29  1  0.500000  0.694722  0.615356  1
  P  P30  1  0.000000  0.193455  0.387406  1
  P  P31  1  0.000000  0.806545  0.387406  1
  P  P32  1  0.500000  0.850698  0.891534  1
  P  P33  1  0.500000  0.149302  0.891534  1
  P  P34  1  0.000000  0.661045  0.099159  1
  P  P35  1  0.000000  0.338955  0.099159  1
