# generated using pymatgen
data_Er2NbB2Ru5
_symmetry_space_group_name_H-M   'P 1'
_cell_length_a   9.66019800
_cell_length_b   9.66019800
_cell_length_c   3.12693300
_cell_angle_alpha   90.00000000
_cell_angle_beta   90.00000000
_cell_angle_gamma   90.00000000
_symmetry_Int_Tables_number   1
_chemical_formula_structural   Er2NbB2Ru5
_chemical_formula_sum   'Er4 Nb2 B4 Ru10'
_cell_volume   291.80359082
_cell_formula_units_Z   2
loop_
 _symmetry_equiv_pos_site_id
 _symmetry_equiv_pos_as_xyz
  1  'x, y, z'
loop_
 _atom_site_type_symbol
 _atom_site_label
 _atom_site_symmetry_multiplicity
 _atom_site_fract_x
 _atom_site_fract_y
 _atom_site_fract_z
 _atom_site_occupancy
  Er  Er0  1  0.824988  0.675012  0.000000  1
  Er  Er1  1  0.175012  0.324988  0.000000  1
  Er  Er2  1  0.324988  0.824988  0.000000  1
  Er  Er3  1  0.675012  0.175012  0.000000  1
  Nb  Nb4  1  0.500000  0.500000  0.000000  1
  Nb  Nb5  1  0.000000  0.000000  0.000000  1
  B  B6  1  0.620436  0.879564  0.000000  1
  B  B7  1  0.379564  0.120436  0.000000  1
  B  B8  1  0.120436  0.620436  0.000000  1
  B  B9  1  0.879564  0.379564  0.000000  1
  Ru  Ru10  1  0.570846  0.718301  0.500000  1
  Ru  Ru11  1  0.429154  0.281699  0.500000  1
  Ru  Ru12  1  0.070846  0.781699  0.500000  1
  Ru  Ru13  1  0.929154  0.218301  0.500000  1
  Ru  Ru14  1  0.281699  0.570846  0.500000  1
  Ru  Ru15  1  0.718301  0.429154  0.500000  1
  Ru  Ru16  1  0.218301  0.070846  0.500000  1
  Ru  Ru17  1  0.781699  0.929154  0.500000  1
  Ru  Ru18  1  0.500000  0.000000  0.500000  1
  Ru  Ru19  1  0.000000  0.500000  0.500000  1
