# generated using pymatgen
data_Ba7Cr6CuF34
_symmetry_space_group_name_H-M   'P 1'
_cell_length_a   10.37828045
_cell_length_b   10.37827999
_cell_length_c   7.81951100
_cell_angle_alpha   80.36749955
_cell_angle_beta   80.36749999
_cell_angle_gamma   67.96042366
_symmetry_Int_Tables_number   1
_chemical_formula_structural   Ba7Cr6CuF34
_chemical_formula_sum   'Ba7 Cr6 Cu1 F34'
_cell_volume   764.62424214
_cell_formula_units_Z   1
loop_
 _symmetry_equiv_pos_site_id
 _symmetry_equiv_pos_as_xyz
  1  'x, y, z'
loop_
 _atom_site_type_symbol
 _atom_site_label
 _atom_site_symmetry_multiplicity
 _atom_site_fract_x
 _atom_site_fract_y
 _atom_site_fract_z
 _atom_site_occupancy
  Ba  Ba0  1  0.438563  0.841508  0.700370  1
  Ba  Ba1  1  0.158492  0.561437  0.299630  1
  Ba  Ba2  1  0.561437  0.158492  0.299630  1
  Ba  Ba3  1  0.841508  0.438563  0.700370  1
  Ba  Ba4  1  0.734238  0.734238  0.126031  1
  Ba  Ba5  1  0.265762  0.265762  0.873969  1
  Ba  Ba6  1  0.000000  0.000000  0.000000  1
  Cr  Cr7  1  0.351810  0.869390  0.201376  1
  Cr  Cr8  1  0.130610  0.648190  0.798624  1
  Cr  Cr9  1  0.648190  0.130610  0.798624  1
  Cr  Cr10  1  0.869390  0.351810  0.201376  1
  Cr  Cr11  1  0.825839  0.825839  0.542784  1
  Cr  Cr12  1  0.174161  0.174161  0.457216  1
  Cu  Cu13  1  0.500000  0.500000  0.500000  1
  F  F14  1  0.560703  0.560703  0.673043  1
  F  F15  1  0.439297  0.439297  0.326957  1
  F  F16  1  0.889501  0.889501  0.308680  1
  F  F17  1  0.110499  0.110499  0.691320  1
  F  F18  1  0.746729  0.746729  0.762247  1
  F  F19  1  0.253271  0.253271  0.237753  1
  F  F20  1  0.354025  0.120331  0.541793  1
  F  F21  1  0.879669  0.645975  0.458207  1
  F  F22  1  0.645975  0.879669  0.458207  1
  F  F23  1  0.120331  0.354025  0.541793  1
  F  F24  1  0.229592  0.985922  0.385181  1
  F  F25  1  0.014078  0.770408  0.614819  1
  F  F26  1  0.770408  0.014078  0.614819  1
  F  F27  1  0.985922  0.229592  0.385181  1
  F  F28  1  0.244859  0.517089  0.968919  1
  F  F29  1  0.482911  0.755141  0.031081  1
  F  F30  1  0.755141  0.482911  0.031081  1
  F  F31  1  0.517089  0.244859  0.968919  1
  F  F32  1  0.005632  0.264127  0.009847  1
  F  F33  1  0.735873  0.994368  0.990153  1
  F  F34  1  0.994368  0.735873  0.990153  1
  F  F35  1  0.264127  0.005632  0.009847  1
  F  F36  1  0.042634  0.513510  0.801660  1
  F  F37  1  0.486490  0.957366  0.198340  1
  F  F38  1  0.957366  0.486490  0.198340  1
  F  F39  1  0.513510  0.042634  0.801660  1
  F  F40  1  0.793238  0.207977  0.200235  1
  F  F41  1  0.792023  0.206762  0.799765  1
  F  F42  1  0.206762  0.792023  0.799765  1
  F  F43  1  0.207977  0.793238  0.200235  1
  F  F44  1  0.273570  0.555003  0.613441  1
  F  F45  1  0.444997  0.726430  0.386559  1
  F  F46  1  0.726430  0.444997  0.386559  1
  F  F47  1  0.555003  0.273570  0.613441  1
