# generated using pymatgen
data_Lu12Fe2Co3Bi
_symmetry_space_group_name_H-M   'P 1'
_cell_length_a   8.12868757
_cell_length_b   8.12868734
_cell_length_c   8.12868638
_cell_angle_alpha   111.41208754
_cell_angle_beta   111.63062388
_cell_angle_gamma   105.44452818
_symmetry_Int_Tables_number   1
_chemical_formula_structural   Lu12Fe2Co3Bi
_chemical_formula_sum   'Lu12 Fe2 Co3 Bi1'
_cell_volume   411.94634011
_cell_formula_units_Z   1
loop_
 _symmetry_equiv_pos_site_id
 _symmetry_equiv_pos_as_xyz
  1  'x, y, z'
loop_
 _atom_site_type_symbol
 _atom_site_label
 _atom_site_symmetry_multiplicity
 _atom_site_fract_x
 _atom_site_fract_y
 _atom_site_fract_z
 _atom_site_occupancy
  Lu  Lu0  1  0.282795  0.184961  0.467756  1
  Lu  Lu1  1  0.717205  0.815039  0.532244  1
  Lu  Lu2  1  0.282795  0.815039  0.097834  1
  Lu  Lu3  1  0.717205  0.184961  0.902166  1
  Lu  Lu4  1  0.619473  0.311094  0.308378  1
  Lu  Lu5  1  0.380527  0.688906  0.691622  1
  Lu  Lu6  1  0.002716  0.311094  0.691622  1
  Lu  Lu7  1  0.997284  0.688906  0.308378  1
  Lu  Lu8  1  0.210108  0.407010  0.196904  1
  Lu  Lu9  1  0.789892  0.592990  0.803096  1
  Lu  Lu10  1  0.210108  0.013204  0.803096  1
  Lu  Lu11  1  0.789892  0.986796  0.196904  1
  Fe  Fe12  1  0.000000  0.379567  0.379567  1
  Fe  Fe13  1  0.000000  0.620433  0.620433  1
  Co  Co14  1  0.388277  0.888277  0.500000  1
  Co  Co15  1  0.611723  0.111723  0.500000  1
  Co  Co16  1  0.000000  0.000000  0.000000  1
  Bi  Bi17  1  0.500000  0.500000  0.000000  1
