# generated using pymatgen
data_TiZnCoO4
_symmetry_space_group_name_H-M   'P 1'
_cell_length_a   6.05767100
_cell_length_b   6.05767100
_cell_length_c   8.46056700
_cell_angle_alpha   90.00000000
_cell_angle_beta   90.00000000
_cell_angle_gamma   90.00000000
_symmetry_Int_Tables_number   1
_chemical_formula_structural   TiZnCoO4
_chemical_formula_sum   'Ti4 Zn4 Co4 O16'
_cell_volume   310.46370369
_cell_formula_units_Z   4
loop_
 _symmetry_equiv_pos_site_id
 _symmetry_equiv_pos_as_xyz
  1  'x, y, z'
loop_
 _atom_site_type_symbol
 _atom_site_label
 _atom_site_symmetry_multiplicity
 _atom_site_fract_x
 _atom_site_fract_y
 _atom_site_fract_z
 _atom_site_occupancy
  Ti  Ti0  1  0.500000  0.237742  0.000000  1
  Ti  Ti1  1  0.762258  0.500000  0.250000  1
  Ti  Ti2  1  0.237742  0.500000  0.750000  1
  Ti  Ti3  1  0.500000  0.762258  0.500000  1
  Zn  Zn4  1  0.252233  0.252233  0.375000  1
  Zn  Zn5  1  0.747767  0.252233  0.625000  1
  Zn  Zn6  1  0.252233  0.747767  0.125000  1
  Zn  Zn7  1  0.747767  0.747767  0.875000  1
  Co  Co8  1  0.000000  0.249426  0.000000  1
  Co  Co9  1  0.750574  0.000000  0.250000  1
  Co  Co10  1  0.249426  0.000000  0.750000  1
  Co  Co11  1  0.000000  0.750574  0.500000  1
  O  O12  1  0.975717  0.734538  0.251843  1
  O  O13  1  0.265462  0.975717  0.501843  1
  O  O14  1  0.734538  0.024283  0.001843  1
  O  O15  1  0.975717  0.265462  0.248157  1
  O  O16  1  0.024283  0.734538  0.748157  1
  O  O17  1  0.024283  0.265462  0.751843  1
  O  O18  1  0.734538  0.975717  0.498157  1
  O  O19  1  0.265462  0.024283  0.998157  1
  O  O20  1  0.515917  0.265053  0.233048  1
  O  O21  1  0.734947  0.515917  0.483048  1
  O  O22  1  0.265053  0.484083  0.983048  1
  O  O23  1  0.515917  0.734947  0.266952  1
  O  O24  1  0.484083  0.265053  0.766952  1
  O  O25  1  0.484083  0.734947  0.733048  1
  O  O26  1  0.265053  0.515917  0.516952  1
  O  O27  1  0.734947  0.484083  0.016952  1
