# generated using pymatgen
data_Dy2Fe6P6Ir3W
_symmetry_space_group_name_H-M   'P 1'
_cell_length_a   3.79260700
_cell_length_b   10.35139800
_cell_length_c   12.20759300
_cell_angle_alpha   90.00000000
_cell_angle_beta   90.00000000
_cell_angle_gamma   90.00000000
_symmetry_Int_Tables_number   1
_chemical_formula_structural   Dy2Fe6P6Ir3W
_chemical_formula_sum   'Dy4 Fe12 P12 Ir6 W2'
_cell_volume   479.25526303
_cell_formula_units_Z   2
loop_
 _symmetry_equiv_pos_site_id
 _symmetry_equiv_pos_as_xyz
  1  'x, y, z'
loop_
 _atom_site_type_symbol
 _atom_site_label
 _atom_site_symmetry_multiplicity
 _atom_site_fract_x
 _atom_site_fract_y
 _atom_site_fract_z
 _atom_site_occupancy
  Dy  Dy0  1  0.250000  0.582207  0.713093  1
  Dy  Dy1  1  0.250000  0.917793  0.213093  1
  Dy  Dy2  1  0.750000  0.419952  0.287690  1
  Dy  Dy3  1  0.750000  0.080048  0.787690  1
  Fe  Fe4  1  0.250000  0.223240  0.170749  1
  Fe  Fe5  1  0.250000  0.276760  0.670749  1
  Fe  Fe6  1  0.750000  0.779533  0.826595  1
  Fe  Fe7  1  0.750000  0.720467  0.326595  1
  Fe  Fe8  1  0.250000  0.878354  0.695412  1
  Fe  Fe9  1  0.250000  0.621646  0.195412  1
  Fe  Fe10  1  0.750000  0.120674  0.305037  1
  Fe  Fe11  1  0.750000  0.379326  0.805037  1
  Fe  Fe12  1  0.250000  0.457021  0.937744  1
  Fe  Fe13  1  0.250000  0.042979  0.437744  1
  Fe  Fe14  1  0.750000  0.537023  0.062395  1
  Fe  Fe15  1  0.750000  0.962977  0.562395  1
  P  P16  1  0.250000  0.428328  0.113947  1
  P  P17  1  0.250000  0.071672  0.613947  1
  P  P18  1  0.750000  0.575977  0.887092  1
  P  P19  1  0.750000  0.924023  0.387092  1
  P  P20  1  0.250000  0.272960  0.851337  1
  P  P21  1  0.250000  0.227040  0.351337  1
  P  P22  1  0.750000  0.725097  0.143272  1
  P  P23  1  0.750000  0.774903  0.643272  1
  P  P24  1  0.250000  0.602773  0.377266  1
  P  P25  1  0.250000  0.897227  0.877266  1
  P  P26  1  0.750000  0.394589  0.623967  1
  P  P27  1  0.750000  0.105411  0.123967  1
  Ir  Ir28  1  0.750000  0.293075  0.015924  1
  Ir  Ir29  1  0.750000  0.206925  0.515924  1
  Ir  Ir30  1  0.250000  0.401668  0.476184  1
  Ir  Ir31  1  0.250000  0.098332  0.976184  1
  Ir  Ir32  1  0.750000  0.593362  0.523492  1
  Ir  Ir33  1  0.750000  0.906638  0.023492  1
  W  W34  1  0.250000  0.701578  0.988802  1
  W  W35  1  0.250000  0.798422  0.488802  1
