# generated using pymatgen
data_Ta12B12IrOs11
_symmetry_space_group_name_H-M   'P 1'
_cell_length_a   3.11087300
_cell_length_b   9.10183869
_cell_length_c   15.86328051
_cell_angle_alpha   89.50296502
_cell_angle_beta   90.00000000
_cell_angle_gamma   90.00000000
_symmetry_Int_Tables_number   1
_chemical_formula_structural   Ta12B12IrOs11
_chemical_formula_sum   'Ta12 B12 Ir1 Os11'
_cell_volume   449.14656073
_cell_formula_units_Z   1
loop_
 _symmetry_equiv_pos_site_id
 _symmetry_equiv_pos_as_xyz
  1  'x, y, z'
loop_
 _atom_site_type_symbol
 _atom_site_label
 _atom_site_symmetry_multiplicity
 _atom_site_fract_x
 _atom_site_fract_y
 _atom_site_fract_z
 _atom_site_occupancy
  Ta  Ta0  1  0.000000  0.800345  0.495293  1
  Ta  Ta1  1  0.000000  0.203620  0.505068  1
  Ta  Ta2  1  0.000000  0.296052  0.005195  1
  Ta  Ta3  1  0.000000  0.697534  0.993076  1
  Ta  Ta4  1  0.000000  0.516037  0.593479  1
  Ta  Ta5  1  0.000000  0.487185  0.406060  1
  Ta  Ta6  1  0.000000  0.013697  0.907828  1
  Ta  Ta7  1  0.000000  0.978321  0.094584  1
  Ta  Ta8  1  0.000000  0.692104  0.199535  1
  Ta  Ta9  1  0.000000  0.309398  0.797701  1
  Ta  Ta10  1  0.000000  0.194452  0.299240  1
  Ta  Ta11  1  0.000000  0.810852  0.701922  1
  B  B12  1  0.500000  0.606233  0.497072  1
  B  B13  1  0.500000  0.398010  0.502678  1
  B  B14  1  0.500000  0.101145  0.004276  1
  B  B15  1  0.500000  0.892645  0.998134  1
  B  B16  1  0.000000  0.607869  0.831803  1
  B  B17  1  0.000000  0.390207  0.167651  1
  B  B18  1  0.000000  0.107803  0.667999  1
  B  B19  1  0.000000  0.894741  0.333661  1
  B  B20  1  0.500000  0.714930  0.597245  1
  B  B21  1  0.500000  0.287516  0.402713  1
  B  B22  1  0.500000  0.212401  0.902827  1
  B  B23  1  0.500000  0.776219  0.092458  1
  Ir  Ir24  1  0.500000  0.950358  0.239329  1
  Os  Os25  1  0.500000  0.723272  0.353960  1
  Os  Os26  1  0.500000  0.279812  0.644622  1
  Os  Os27  1  0.500000  0.218137  0.146003  1
  Os  Os28  1  0.500000  0.778675  0.853938  1
  Os  Os29  1  0.500000  0.513258  0.092274  1
  Os  Os30  1  0.500000  0.480485  0.904957  1
  Os  Os31  1  0.500000  0.019557  0.408611  1
  Os  Os32  1  0.500000  0.983950  0.594218  1
  Os  Os33  1  0.500000  0.559361  0.733988  1
  Os  Os34  1  0.500000  0.444227  0.264811  1
  Os  Os35  1  0.500000  0.059590  0.765792  1
