# generated using pymatgen
data_Nd2Mg3Zn3Si2Ge
_symmetry_space_group_name_H-M   'P 1'
_cell_length_a   7.89052160
_cell_length_b   7.89061347
_cell_length_c   4.10613900
_cell_angle_alpha   90.00000000
_cell_angle_beta   90.00000000
_cell_angle_gamma   120.00037772
_symmetry_Int_Tables_number   1
_chemical_formula_structural   Nd2Mg3Zn3Si2Ge
_chemical_formula_sum   'Nd2 Mg3 Zn3 Si2 Ge1'
_cell_volume   221.40076043
_cell_formula_units_Z   1
loop_
 _symmetry_equiv_pos_site_id
 _symmetry_equiv_pos_as_xyz
  1  'x, y, z'
loop_
 _atom_site_type_symbol
 _atom_site_label
 _atom_site_symmetry_multiplicity
 _atom_site_fract_x
 _atom_site_fract_y
 _atom_site_fract_z
 _atom_site_occupancy
  Nd  Nd0  1  0.664546  0.332959  0.000000  1
  Nd  Nd1  1  0.335454  0.668414  0.000000  1
  Mg  Mg2  1  0.716604  0.998856  0.500000  1
  Mg  Mg3  1  0.000000  0.721826  0.500000  1
  Mg  Mg4  1  0.283396  0.282253  0.500000  1
  Zn  Zn5  1  0.196506  0.999752  0.000000  1
  Zn  Zn6  1  0.803494  0.803246  0.000000  1
  Zn  Zn7  1  0.000000  0.190307  0.000000  1
  Si  Si8  1  0.383232  0.999810  0.500000  1
  Si  Si9  1  0.616768  0.616578  0.500000  1
  Ge  Ge10  1  0.000000  0.386001  0.500000  1
