# generated using pymatgen
data_Pr4CuPt2Rh
_symmetry_space_group_name_H-M   'P 1'
_cell_length_a   4.57075900
_cell_length_b   5.77589155
_cell_length_c   7.43790308
_cell_angle_alpha   89.91420618
_cell_angle_beta   90.00000000
_cell_angle_gamma   90.00000000
_symmetry_Int_Tables_number   1
_chemical_formula_structural   Pr4CuPt2Rh
_chemical_formula_sum   'Pr4 Cu1 Pt2 Rh1'
_cell_volume   196.36197023
_cell_formula_units_Z   1
loop_
 _symmetry_equiv_pos_site_id
 _symmetry_equiv_pos_as_xyz
  1  'x, y, z'
loop_
 _atom_site_type_symbol
 _atom_site_label
 _atom_site_symmetry_multiplicity
 _atom_site_fract_x
 _atom_site_fract_y
 _atom_site_fract_z
 _atom_site_occupancy
  Pr  Pr0  1  0.000000  0.637247  0.314830  1
  Pr  Pr1  1  0.000000  0.860868  0.823788  1
  Pr  Pr2  1  0.500000  0.369312  0.689949  1
  Pr  Pr3  1  0.500000  0.140590  0.172261  1
  Cu  Cu4  1  0.000000  0.128746  0.465311  1
  Pt  Pt5  1  0.500000  0.877362  0.535768  1
  Pt  Pt6  1  0.500000  0.651056  0.048136  1
  Rh  Rh7  1  0.000000  0.334821  0.949957  1
