# generated using pymatgen
data_La4YbGe3H
_symmetry_space_group_name_H-M   'P 1'
_cell_length_a   9.10367887
_cell_length_b   9.10367885
_cell_length_c   9.10345806
_cell_angle_alpha   127.97258532
_cell_angle_beta   127.97258730
_cell_angle_gamma   76.67470127
_symmetry_Int_Tables_number   1
_chemical_formula_structural   La4YbGe3H
_chemical_formula_sum   'La8 Yb2 Ge6 H2'
_cell_volume   455.33627545
_cell_formula_units_Z   2
loop_
 _symmetry_equiv_pos_site_id
 _symmetry_equiv_pos_as_xyz
  1  'x, y, z'
loop_
 _atom_site_type_symbol
 _atom_site_label
 _atom_site_symmetry_multiplicity
 _atom_site_fract_x
 _atom_site_fract_y
 _atom_site_fract_z
 _atom_site_occupancy
  La  La0  1  0.523594  0.023594  0.845493  1
  La  La1  1  0.178103  0.678103  0.154501  1
  La  La2  1  0.023716  0.178053  0.500010  1
  La  La3  1  0.678053  0.523716  0.500010  1
  La  La4  1  0.476406  0.976406  0.154507  1
  La  La5  1  0.821897  0.321897  0.845499  1
  La  La6  1  0.976284  0.821947  0.499990  1
  La  La7  1  0.321947  0.476284  0.499990  1
  Yb  Yb8  1  0.500000  0.500000  0.000000  1
  Yb  Yb9  1  0.000000  0.000000  0.000000  1
  Ge  Ge10  1  0.249997  0.250003  0.000000  1
  Ge  Ge11  1  0.750003  0.749997  0.000000  1
  Ge  Ge12  1  0.878721  0.378721  0.257444  1
  Ge  Ge13  1  0.121279  0.621279  0.742556  1
  Ge  Ge14  1  0.378627  0.121373  0.500000  1
  Ge  Ge15  1  0.621373  0.878627  0.500000  1
  H  H16  1  0.250004  0.750004  0.500001  1
  H  H17  1  0.749996  0.249996  0.499999  1
