# generated using pymatgen
data_GdY2Ho5(WO6)4
_symmetry_space_group_name_H-M   'P 1'
_cell_length_a   5.40238800
_cell_length_b   7.71069859
_cell_length_c   11.47658022
_cell_angle_alpha   75.51449996
_cell_angle_beta   90.00000000
_cell_angle_gamma   90.00000000
_symmetry_Int_Tables_number   1
_chemical_formula_structural   GdY2Ho5(WO6)4
_chemical_formula_sum   'Gd1 Y2 Ho5 W4 O24'
_cell_volume   462.87315769
_cell_formula_units_Z   1
loop_
 _symmetry_equiv_pos_site_id
 _symmetry_equiv_pos_as_xyz
  1  'x, y, z'
loop_
 _atom_site_type_symbol
 _atom_site_label
 _atom_site_symmetry_multiplicity
 _atom_site_fract_x
 _atom_site_fract_y
 _atom_site_fract_z
 _atom_site_occupancy
  Gd  Gd0  1  0.684039  0.500000  0.750000  1
  Y  Y1  1  0.740913  0.000000  0.750000  1
  Y  Y2  1  0.315885  0.500000  0.250000  1
  Ho  Ho3  1  0.261071  0.000000  0.250000  1
  Ho  Ho4  1  0.185468  0.795454  0.577093  1
  Ho  Ho5  1  0.815158  0.794909  0.078285  1
  Ho  Ho6  1  0.185468  0.204546  0.922907  1
  Ho  Ho7  1  0.815158  0.205091  0.421715  1
  W  W8  1  0.254705  0.724624  0.885735  1
  W  W9  1  0.745209  0.724111  0.384575  1
  W  W10  1  0.254705  0.275376  0.614265  1
  W  W11  1  0.745209  0.275889  0.115425  1
  O  O12  1  0.043539  0.939982  0.896950  1
  O  O13  1  0.533526  0.846671  0.931224  1
  O  O14  1  0.957147  0.940534  0.394469  1
  O  O15  1  0.455675  0.791492  0.727190  1
  O  O16  1  0.467372  0.847526  0.430557  1
  O  O17  1  0.982545  0.713527  0.770888  1
  O  O18  1  0.541723  0.791514  0.226938  1
  O  O19  1  0.852136  0.635923  0.546706  1
  O  O20  1  0.356446  0.490315  0.886792  1
  O  O21  1  0.018605  0.710651  0.271170  1
  O  O22  1  0.356446  0.509685  0.613208  1
  O  O23  1  0.852136  0.364077  0.953294  1
  O  O24  1  0.150059  0.636727  0.048569  1
  O  O25  1  0.639733  0.490407  0.385731  1
  O  O26  1  0.982545  0.286473  0.729112  1
  O  O27  1  0.639733  0.509593  0.114269  1
  O  O28  1  0.150059  0.363273  0.451431  1
  O  O29  1  0.455675  0.208508  0.772810  1
  O  O30  1  0.018605  0.289349  0.228830  1
  O  O31  1  0.533526  0.153329  0.568776  1
  O  O32  1  0.541723  0.208486  0.273062  1
  O  O33  1  0.043539  0.060018  0.603050  1
  O  O34  1  0.467372  0.152474  0.069443  1
  O  O35  1  0.957147  0.059466  0.105531  1
