# generated using pymatgen
data_GdBi3(CO5)2
_symmetry_space_group_name_H-M   'P 1'
_cell_length_a   6.72310400
_cell_length_b   7.95994256
_cell_length_c   8.25483600
_cell_angle_alpha   91.57560635
_cell_angle_beta   90.00000000
_cell_angle_gamma   90.00000000
_symmetry_Int_Tables_number   1
_chemical_formula_structural   GdBi3(CO5)2
_chemical_formula_sum   'Gd2 Bi6 C4 O20'
_cell_volume   441.59482987
_cell_formula_units_Z   2
loop_
 _symmetry_equiv_pos_site_id
 _symmetry_equiv_pos_as_xyz
  1  'x, y, z'
loop_
 _atom_site_type_symbol
 _atom_site_label
 _atom_site_symmetry_multiplicity
 _atom_site_fract_x
 _atom_site_fract_y
 _atom_site_fract_z
 _atom_site_occupancy
  Gd  Gd0  1  0.065253  0.658258  0.178764  1
  Gd  Gd1  1  0.565253  0.841742  0.321236  1
  Bi  Bi2  1  0.564887  0.370232  0.160522  1
  Bi  Bi3  1  0.064887  0.129768  0.339478  1
  Bi  Bi4  1  0.929108  0.361621  0.853947  1
  Bi  Bi5  1  0.429108  0.138379  0.646053  1
  Bi  Bi6  1  0.428907  0.639341  0.854474  1
  Bi  Bi7  1  0.928907  0.860659  0.645526  1
  C  C8  1  0.744870  0.467873  0.502621  1
  C  C9  1  0.244870  0.032127  0.997379  1
  C  C10  1  0.259469  0.535952  0.481595  1
  C  C11  1  0.759469  0.964048  0.018405  1
  O  O12  1  0.325264  0.466244  0.609860  1
  O  O13  1  0.171889  0.446132  0.367725  1
  O  O14  1  0.825264  0.033756  0.890140  1
  O  O15  1  0.687610  0.561003  0.382359  1
  O  O16  1  0.320894  0.956553  0.870020  1
  O  O17  1  0.820894  0.543447  0.629980  1
  O  O18  1  0.187610  0.938997  0.117641  1
  O  O19  1  0.226942  0.192587  0.008715  1
  O  O20  1  0.774541  0.802906  0.040634  1
  O  O21  1  0.274541  0.697094  0.459366  1
  O  O22  1  0.726942  0.307413  0.491285  1
  O  O23  1  0.671889  0.053868  0.132275  1
  O  O24  1  0.878332  0.420595  0.113649  1
  O  O25  1  0.378332  0.079405  0.386351  1
  O  O26  1  0.586643  0.393858  0.890226  1
  O  O27  1  0.086643  0.106142  0.609774  1
  O  O28  1  0.917559  0.869980  0.370585  1
  O  O29  1  0.417559  0.630020  0.129415  1
  O  O30  1  0.617835  0.910140  0.597103  1
  O  O31  1  0.117835  0.589860  0.902897  1
