# generated using pymatgen
data_Ac3Mg3ZnGa2
_symmetry_space_group_name_H-M   'P 1'
_cell_length_a   4.68851800
_cell_length_b   7.90524972
_cell_length_c   7.90524900
_cell_angle_alpha   120.00000117
_cell_angle_beta   90.00000000
_cell_angle_gamma   90.00000000
_symmetry_Int_Tables_number   1
_chemical_formula_structural   Ac3Mg3ZnGa2
_chemical_formula_sum   'Ac3 Mg3 Zn1 Ga2'
_cell_volume   253.74492307
_cell_formula_units_Z   1
loop_
 _symmetry_equiv_pos_site_id
 _symmetry_equiv_pos_as_xyz
  1  'x, y, z'
loop_
 _atom_site_type_symbol
 _atom_site_label
 _atom_site_symmetry_multiplicity
 _atom_site_fract_x
 _atom_site_fract_y
 _atom_site_fract_z
 _atom_site_occupancy
  Ac  Ac0  1  0.000000  0.421063  0.421063  1
  Ac  Ac1  1  0.000000  0.000000  0.578937  1
  Ac  Ac2  1  0.000000  0.578937  0.000000  1
  Mg  Mg3  1  0.500000  0.758668  0.758668  1
  Mg  Mg4  1  0.500000  0.000000  0.241332  1
  Mg  Mg5  1  0.500000  0.241332  0.000000  1
  Zn  Zn6  1  0.000000  0.000000  0.000000  1
  Ga  Ga7  1  0.500000  0.666667  0.333333  1
  Ga  Ga8  1  0.500000  0.333333  0.666667  1
