# generated using pymatgen
data_Tm8Hf11Si16Os
_symmetry_space_group_name_H-M   'P 1'
_cell_length_a   7.19809506
_cell_length_b   7.19809506
_cell_length_c   13.16244560
_cell_angle_alpha   89.92068843
_cell_angle_beta   90.07931028
_cell_angle_gamma   90.03468170
_symmetry_Int_Tables_number   1
_chemical_formula_structural   Tm8Hf11Si16Os
_chemical_formula_sum   'Tm8 Hf11 Si16 Os1'
_cell_volume   681.97873625
_cell_formula_units_Z   1
loop_
 _symmetry_equiv_pos_site_id
 _symmetry_equiv_pos_as_xyz
  1  'x, y, z'
loop_
 _atom_site_type_symbol
 _atom_site_label
 _atom_site_symmetry_multiplicity
 _atom_site_fract_x
 _atom_site_fract_y
 _atom_site_fract_z
 _atom_site_occupancy
  Tm  Tm0  1  0.998686  0.344167  0.211722  1
  Tm  Tm1  1  0.005145  0.654537  0.717567  1
  Tm  Tm2  1  0.155397  0.494940  0.465158  1
  Tm  Tm3  1  0.501753  0.846701  0.032811  1
  Tm  Tm4  1  0.846701  0.501753  0.967189  1
  Tm  Tm5  1  0.494940  0.155397  0.534842  1
  Tm  Tm6  1  0.344167  0.998686  0.788278  1
  Tm  Tm7  1  0.654537  0.005145  0.282433  1
  Hf  Hf8  1  0.824691  0.824691  0.500000  1
  Hf  Hf9  1  0.324439  0.675337  0.247760  1
  Hf  Hf10  1  0.675337  0.324439  0.752240  1
  Hf  Hf11  1  0.145912  0.998748  0.371917  1
  Hf  Hf12  1  0.853291  0.003849  0.878418  1
  Hf  Hf13  1  0.501863  0.646523  0.625589  1
  Hf  Hf14  1  0.352598  0.497745  0.876601  1
  Hf  Hf15  1  0.497745  0.352598  0.123399  1
  Hf  Hf16  1  0.646523  0.501863  0.374411  1
  Hf  Hf17  1  0.998748  0.145912  0.628083  1
  Hf  Hf18  1  0.003849  0.853291  0.121582  1
  Si  Si19  1  0.358700  0.294955  0.315907  1
  Si  Si20  1  0.641285  0.704958  0.819085  1
  Si  Si21  1  0.205615  0.859854  0.567573  1
  Si  Si22  1  0.138175  0.794170  0.930465  1
  Si  Si23  1  0.794170  0.138175  0.069535  1
  Si  Si24  1  0.859854  0.205615  0.432427  1
  Si  Si25  1  0.294955  0.358700  0.684093  1
  Si  Si26  1  0.704958  0.641285  0.180915  1
  Si  Si27  1  0.294387  0.054200  0.179958  1
  Si  Si28  1  0.702103  0.950911  0.686093  1
  Si  Si29  1  0.449661  0.798406  0.434622  1
  Si  Si30  1  0.204420  0.546963  0.064220  1
  Si  Si31  1  0.546963  0.204420  0.935780  1
  Si  Si32  1  0.798406  0.449661  0.565378  1
  Si  Si33  1  0.054200  0.294387  0.820042  1
  Si  Si34  1  0.950911  0.702103  0.313907  1
  Os  Os35  1  0.174921  0.174921  0.000000  1
