# generated using pymatgen
data_Fe4ReMo(P2Ru)2
_symmetry_space_group_name_H-M   'P 1'
_cell_length_a   3.74468900
_cell_length_b   5.79420118
_cell_length_c   6.59437725
_cell_angle_alpha   90.07710776
_cell_angle_beta   90.00000000
_cell_angle_gamma   90.00000000
_symmetry_Int_Tables_number   1
_chemical_formula_structural   Fe4ReMo(P2Ru)2
_chemical_formula_sum   'Fe4 Re1 Mo1 P4 Ru2'
_cell_volume   143.08124845
_cell_formula_units_Z   1
loop_
 _symmetry_equiv_pos_site_id
 _symmetry_equiv_pos_as_xyz
  1  'x, y, z'
loop_
 _atom_site_type_symbol
 _atom_site_label
 _atom_site_symmetry_multiplicity
 _atom_site_fract_x
 _atom_site_fract_y
 _atom_site_fract_z
 _atom_site_occupancy
  Fe  Fe0  1  0.250000  0.859765  0.934688  1
  Fe  Fe1  1  0.250000  0.356612  0.564977  1
  Fe  Fe2  1  0.750000  0.139567  0.069497  1
  Fe  Fe3  1  0.750000  0.642174  0.431904  1
  Re  Re4  1  0.250000  0.971190  0.334530  1
  Mo  Mo5  1  0.250000  0.471945  0.167016  1
  P  P6  1  0.250000  0.234208  0.878828  1
  P  P7  1  0.250000  0.731432  0.620964  1
  P  P8  1  0.750000  0.769271  0.117605  1
  P  P9  1  0.750000  0.267565  0.381936  1
  Ru  Ru10  1  0.750000  0.026472  0.660919  1
  Ru  Ru11  1  0.750000  0.529798  0.837137  1
