# generated using pymatgen
data_Y4V3OsF28
_symmetry_space_group_name_H-M   'P 1'
_cell_length_a   5.56157172
_cell_length_b   8.89381127
_cell_length_c   11.88473505
_cell_angle_alpha   62.85201231
_cell_angle_beta   89.88233628
_cell_angle_gamma   89.91098979
_symmetry_Int_Tables_number   1
_chemical_formula_structural   Y4V3OsF28
_chemical_formula_sum   'Y4 V3 Os1 F28'
_cell_volume   523.09605485
_cell_formula_units_Z   1
loop_
 _symmetry_equiv_pos_site_id
 _symmetry_equiv_pos_as_xyz
  1  'x, y, z'
loop_
 _atom_site_type_symbol
 _atom_site_label
 _atom_site_symmetry_multiplicity
 _atom_site_fract_x
 _atom_site_fract_y
 _atom_site_fract_z
 _atom_site_occupancy
  Y  Y0  1  0.258564  0.820320  0.267933  1
  Y  Y1  1  0.740453  0.194638  0.728335  1
  Y  Y2  1  0.755814  0.189157  0.229123  1
  Y  Y3  1  0.240492  0.806474  0.761822  1
  V  V4  1  0.243758  0.273743  0.954502  1
  V  V5  1  0.251655  0.276839  0.452094  1
  V  V6  1  0.745055  0.727561  0.541528  1
  Os  Os7  1  0.756444  0.726191  0.046920  1
  F  F8  1  0.950390  0.709407  0.421207  1
  F  F9  1  0.042320  0.293497  0.572236  1
  F  F10  1  0.459950  0.290695  0.076022  1
  F  F11  1  0.560431  0.699728  0.923557  1
  F  F12  1  0.468223  0.725535  0.139468  1
  F  F13  1  0.509278  0.266076  0.851756  1
  F  F14  1  0.983190  0.269533  0.356685  1
  F  F15  1  0.017685  0.737387  0.633781  1
  F  F16  1  0.950550  0.741482  0.177290  1
  F  F17  1  0.032303  0.250897  0.832791  1
  F  F18  1  0.460523  0.254224  0.332182  1
  F  F19  1  0.545332  0.749356  0.664965  1
  F  F20  1  0.767145  0.485754  0.144830  1
  F  F21  1  0.233441  0.519497  0.859725  1
  F  F22  1  0.263540  0.508819  0.359807  1
  F  F23  1  0.736002  0.496867  0.634503  1
  F  F24  1  0.966669  0.287211  0.049953  1
  F  F25  1  0.050465  0.717047  0.961348  1
  F  F26  1  0.463598  0.715836  0.453066  1
  F  F27  1  0.527199  0.287320  0.545455  1
  F  F28  1  0.737513  0.957641  0.451864  1
  F  F29  1  0.254455  0.045834  0.544614  1
  F  F30  1  0.236206  0.030258  0.058466  1
  F  F31  1  0.752262  0.965865  0.957137  1
  F  F32  1  0.593293  0.965009  0.231704  1
  F  F33  1  0.435064  0.015073  0.768342  1
  F  F34  1  0.084304  0.029618  0.276542  1
  F  F35  1  0.926435  0.969611  0.738445  1
