# generated using pymatgen
data_TmMn4ReP3
_symmetry_space_group_name_H-M   'P 1'
_cell_length_a   3.70998700
_cell_length_b   10.58969400
_cell_length_c   12.07084700
_cell_angle_alpha   90.00000000
_cell_angle_beta   90.00000000
_cell_angle_gamma   90.00000000
_symmetry_Int_Tables_number   1
_chemical_formula_structural   TmMn4ReP3
_chemical_formula_sum   'Tm4 Mn16 Re4 P12'
_cell_volume   474.23493540
_cell_formula_units_Z   4
loop_
 _symmetry_equiv_pos_site_id
 _symmetry_equiv_pos_as_xyz
  1  'x, y, z'
loop_
 _atom_site_type_symbol
 _atom_site_label
 _atom_site_symmetry_multiplicity
 _atom_site_fract_x
 _atom_site_fract_y
 _atom_site_fract_z
 _atom_site_occupancy
  Tm  Tm0  1  0.250000  0.585361  0.705739  1
  Tm  Tm1  1  0.250000  0.914639  0.205739  1
  Tm  Tm2  1  0.750000  0.414639  0.294261  1
  Tm  Tm3  1  0.750000  0.085361  0.794261  1
  Mn  Mn4  1  0.250000  0.411345  0.494006  1
  Mn  Mn5  1  0.250000  0.088655  0.994006  1
  Mn  Mn6  1  0.750000  0.588655  0.505994  1
  Mn  Mn7  1  0.750000  0.911345  0.005994  1
  Mn  Mn8  1  0.250000  0.211792  0.181817  1
  Mn  Mn9  1  0.250000  0.288208  0.681817  1
  Mn  Mn10  1  0.750000  0.788208  0.818183  1
  Mn  Mn11  1  0.750000  0.711792  0.318183  1
  Mn  Mn12  1  0.250000  0.882656  0.694179  1
  Mn  Mn13  1  0.250000  0.617344  0.194179  1
  Mn  Mn14  1  0.750000  0.117344  0.305821  1
  Mn  Mn15  1  0.750000  0.382656  0.805821  1
  Mn  Mn16  1  0.250000  0.465423  0.934117  1
  Mn  Mn17  1  0.250000  0.034577  0.434117  1
  Mn  Mn18  1  0.750000  0.534577  0.065883  1
  Mn  Mn19  1  0.750000  0.965423  0.565883  1
  Re  Re20  1  0.250000  0.710274  0.985607  1
  Re  Re21  1  0.250000  0.789726  0.485607  1
  Re  Re22  1  0.750000  0.289726  0.014393  1
  Re  Re23  1  0.750000  0.210274  0.514393  1
  P  P24  1  0.250000  0.412197  0.117022  1
  P  P25  1  0.250000  0.087803  0.617022  1
  P  P26  1  0.750000  0.587803  0.882978  1
  P  P27  1  0.750000  0.912197  0.382978  1
  P  P28  1  0.250000  0.261636  0.874197  1
  P  P29  1  0.250000  0.238364  0.374197  1
  P  P30  1  0.750000  0.738364  0.125803  1
  P  P31  1  0.750000  0.761636  0.625803  1
  P  P32  1  0.250000  0.592374  0.385118  1
  P  P33  1  0.250000  0.907626  0.885118  1
  P  P34  1  0.750000  0.407626  0.614882  1
  P  P35  1  0.750000  0.092374  0.114882  1
