# generated using pymatgen
data_Cs3Li2ZrAs3
_symmetry_space_group_name_H-M   'P 1'
_cell_length_a   10.68837567
_cell_length_b   10.68837641
_cell_length_c   16.95122700
_cell_angle_alpha   90.00000000
_cell_angle_beta   90.00000000
_cell_angle_gamma   143.15415212
_symmetry_Int_Tables_number   1
_chemical_formula_structural   Cs3Li2ZrAs3
_chemical_formula_sum   'Cs12 Li8 Zr4 As12'
_cell_volume   1161.26857814
_cell_formula_units_Z   4
loop_
 _symmetry_equiv_pos_site_id
 _symmetry_equiv_pos_as_xyz
  1  'x, y, z'
loop_
 _atom_site_type_symbol
 _atom_site_label
 _atom_site_symmetry_multiplicity
 _atom_site_fract_x
 _atom_site_fract_y
 _atom_site_fract_z
 _atom_site_occupancy
  Cs  Cs0  1  0.949202  0.605874  0.827860  1
  Cs  Cs1  1  0.550798  0.894126  0.327860  1
  Cs  Cs2  1  0.394126  0.050798  0.172140  1
  Cs  Cs3  1  0.050798  0.394126  0.172140  1
  Cs  Cs4  1  0.894126  0.550798  0.327860  1
  Cs  Cs5  1  0.449202  0.105874  0.672140  1
  Cs  Cs6  1  0.605874  0.949202  0.827860  1
  Cs  Cs7  1  0.287248  0.287248  0.319377  1
  Cs  Cs8  1  0.787248  0.787248  0.180623  1
  Cs  Cs9  1  0.212752  0.212752  0.819377  1
  Cs  Cs10  1  0.712752  0.712752  0.680623  1
  Cs  Cs11  1  0.105874  0.449202  0.672140  1
  Li  Li12  1  0.917407  0.082593  0.000000  1
  Li  Li13  1  0.582593  0.417407  0.500000  1
  Li  Li14  1  0.082593  0.917407  0.000000  1
  Li  Li15  1  0.417407  0.582593  0.500000  1
  Li  Li16  1  0.749817  0.250183  0.000000  1
  Li  Li17  1  0.750183  0.249817  0.500000  1
  Li  Li18  1  0.250183  0.749817  0.000000  1
  Li  Li19  1  0.249817  0.750183  0.500000  1
  Zr  Zr20  1  0.587358  0.412642  0.000000  1
  Zr  Zr21  1  0.912642  0.087358  0.500000  1
  Zr  Zr22  1  0.412642  0.587358  0.000000  1
  Zr  Zr23  1  0.087358  0.912642  0.500000  1
  As  As24  1  0.896792  0.572343  0.082246  1
  As  As25  1  0.427657  0.103208  0.917754  1
  As  As26  1  0.603208  0.927657  0.582246  1
  As  As27  1  0.927657  0.603208  0.582246  1
  As  As28  1  0.103208  0.427657  0.917754  1
  As  As29  1  0.572343  0.896792  0.082246  1
  As  As30  1  0.396792  0.072343  0.417754  1
  As  As31  1  0.224896  0.224896  0.579920  1
  As  As32  1  0.724896  0.724896  0.920080  1
  As  As33  1  0.275104  0.275104  0.079920  1
  As  As34  1  0.072343  0.396792  0.417754  1
  As  As35  1  0.775104  0.775104  0.420080  1
