# generated using pymatgen
data_Dy9Ho(Bi3C)2
_symmetry_space_group_name_H-M   'P 1'
_cell_length_a   9.14763200
_cell_length_b   9.14762968
_cell_length_c   6.48834800
_cell_angle_alpha   90.00000000
_cell_angle_beta   90.00000000
_cell_angle_gamma   119.86690534
_symmetry_Int_Tables_number   1
_chemical_formula_structural   Dy9Ho(Bi3C)2
_chemical_formula_sum   'Dy9 Ho1 Bi6 C2'
_cell_volume   470.82869110
_cell_formula_units_Z   1
loop_
 _symmetry_equiv_pos_site_id
 _symmetry_equiv_pos_as_xyz
  1  'x, y, z'
loop_
 _atom_site_type_symbol
 _atom_site_label
 _atom_site_symmetry_multiplicity
 _atom_site_fract_x
 _atom_site_fract_y
 _atom_site_fract_z
 _atom_site_occupancy
  Dy  Dy0  1  0.666476  0.333043  0.000021  1
  Dy  Dy1  1  0.333043  0.666476  0.000021  1
  Dy  Dy2  1  0.333043  0.666476  0.499979  1
  Dy  Dy3  1  0.666476  0.333043  0.499979  1
  Dy  Dy4  1  0.209209  0.000313  0.750000  1
  Dy  Dy5  1  0.000313  0.209209  0.750000  1
  Dy  Dy6  1  0.207634  0.207634  0.250000  1
  Dy  Dy7  1  0.791223  0.999587  0.250000  1
  Dy  Dy8  1  0.999587  0.791223  0.250000  1
  Ho  Ho9  1  0.795574  0.795574  0.750000  1
  Bi  Bi10  1  0.401675  0.401675  0.750000  1
  Bi  Bi11  1  0.598290  0.999151  0.750000  1
  Bi  Bi12  1  0.999151  0.598290  0.750000  1
  Bi  Bi13  1  0.598024  0.598024  0.250000  1
  Bi  Bi14  1  0.401242  0.000097  0.250000  1
  Bi  Bi15  1  0.000097  0.401242  0.250000  1
  C  C16  1  0.999473  0.999473  0.999684  1
  C  C17  1  0.999473  0.999473  0.500316  1
