# generated using pymatgen
data_CaTbRh2O7
_symmetry_space_group_name_H-M   'P 1'
_cell_length_a   7.24665302
_cell_length_b   7.24665369
_cell_length_c   7.27565500
_cell_angle_alpha   59.86753001
_cell_angle_beta   59.86752696
_cell_angle_gamma   59.72108756
_symmetry_Int_Tables_number   1
_chemical_formula_structural   CaTbRh2O7
_chemical_formula_sum   'Ca2 Tb2 Rh4 O14'
_cell_volume   269.05398606
_cell_formula_units_Z   2
loop_
 _symmetry_equiv_pos_site_id
 _symmetry_equiv_pos_as_xyz
  1  'x, y, z'
loop_
 _atom_site_type_symbol
 _atom_site_label
 _atom_site_symmetry_multiplicity
 _atom_site_fract_x
 _atom_site_fract_y
 _atom_site_fract_z
 _atom_site_occupancy
  Ca  Ca0  1  0.125000  0.625000  0.125000  1
  Ca  Ca1  1  0.625000  0.125000  0.125000  1
  Tb  Tb2  1  0.125000  0.125000  0.125000  1
  Tb  Tb3  1  0.125000  0.125000  0.625000  1
  Rh  Rh4  1  0.625000  0.625000  0.625000  1
  Rh  Rh5  1  0.625000  0.625000  0.125000  1
  Rh  Rh6  1  0.125000  0.625000  0.625000  1
  Rh  Rh7  1  0.625000  0.125000  0.625000  1
  O  O8  1  0.245485  0.245485  0.254515  1
  O  O9  1  0.294418  0.711070  0.296255  1
  O  O10  1  0.957357  0.957357  0.542643  1
  O  O11  1  0.538930  0.955582  0.551743  1
  O  O12  1  0.700746  0.700746  0.299254  1
  O  O13  1  0.955582  0.538930  0.551743  1
  O  O14  1  0.711070  0.294418  0.698257  1
  O  O15  1  0.292643  0.292643  0.707357  1
  O  O16  1  0.711070  0.294418  0.296255  1
  O  O17  1  0.294418  0.711070  0.698257  1
  O  O18  1  0.955582  0.538930  0.953745  1
  O  O19  1  0.549254  0.549254  0.950746  1
  O  O20  1  0.004515  0.004515  0.995485  1
  O  O21  1  0.538930  0.955582  0.953745  1
