# generated using pymatgen
data_SmZr(ZnNi4)2
_symmetry_space_group_name_H-M   'P 1'
_cell_length_a   4.83585700
_cell_length_b   4.83585605
_cell_length_c   8.44311087
_cell_angle_alpha   73.35871534
_cell_angle_beta   90.00000000
_cell_angle_gamma   119.99999965
_symmetry_Int_Tables_number   1
_chemical_formula_structural   SmZr(ZnNi4)2
_chemical_formula_sum   'Sm1 Zr1 Zn2 Ni8'
_cell_volume   161.37392799
_cell_formula_units_Z   1
loop_
 _symmetry_equiv_pos_site_id
 _symmetry_equiv_pos_as_xyz
  1  'x, y, z'
loop_
 _atom_site_type_symbol
 _atom_site_label
 _atom_site_symmetry_multiplicity
 _atom_site_fract_x
 _atom_site_fract_y
 _atom_site_fract_z
 _atom_site_occupancy
  Sm  Sm0  1  0.999769  0.999540  0.000691  1
  Zr  Zr1  1  0.500741  0.001481  0.497778  1
  Zn  Zn2  1  0.872941  0.745885  0.381174  1
  Zn  Zn3  1  0.379581  0.759162  0.861257  1
  Ni  Ni4  1  0.434260  0.369262  0.196478  1
  Ni  Ni5  1  0.936533  0.381250  0.682218  1
  Ni  Ni6  1  0.434260  0.868520  0.196478  1
  Ni  Ni7  1  0.936533  0.873064  0.682218  1
  Ni  Ni8  1  0.187479  0.374959  0.437562  1
  Ni  Ni9  1  0.688184  0.376367  0.935449  1
  Ni  Ni10  1  0.935002  0.369262  0.196478  1
  Ni  Ni11  1  0.444717  0.381250  0.682218  1
