# generated using pymatgen
data_Tm6Ti3Al21Tc8
_symmetry_space_group_name_H-M   'P 1'
_cell_length_a   8.87673908
_cell_length_b   8.87673742
_cell_length_c   9.66912305
_cell_angle_alpha   90.00977473
_cell_angle_beta   89.99022446
_cell_angle_gamma   119.98773048
_symmetry_Int_Tables_number   1
_chemical_formula_structural   Tm6Ti3Al21Tc8
_chemical_formula_sum   'Tm6 Ti3 Al21 Tc8'
_cell_volume   659.90013806
_cell_formula_units_Z   1
loop_
 _symmetry_equiv_pos_site_id
 _symmetry_equiv_pos_as_xyz
  1  'x, y, z'
loop_
 _atom_site_type_symbol
 _atom_site_label
 _atom_site_symmetry_multiplicity
 _atom_site_fract_x
 _atom_site_fract_y
 _atom_site_fract_z
 _atom_site_occupancy
  Tm  Tm0  1  0.806588  0.193412  0.752616  1
  Tm  Tm1  1  0.193805  0.806195  0.251043  1
  Tm  Tm2  1  0.386706  0.193310  0.752532  1
  Tm  Tm3  1  0.612462  0.806212  0.251119  1
  Tm  Tm4  1  0.806690  0.613294  0.752532  1
  Tm  Tm5  1  0.193788  0.387538  0.251119  1
  Ti  Ti6  1  0.666693  0.333307  0.010713  1
  Ti  Ti7  1  0.333363  0.666637  0.997169  1
  Ti  Ti8  1  0.333279  0.666721  0.500249  1
  Al  Al9  1  0.666686  0.333314  0.514490  1
  Al  Al10  1  0.838584  0.161416  0.421524  1
  Al  Al11  1  0.159927  0.840073  0.574737  1
  Al  Al12  1  0.322714  0.161448  0.421438  1
  Al  Al13  1  0.159762  0.840238  0.925474  1
  Al  Al14  1  0.680170  0.839984  0.574797  1
  Al  Al15  1  0.840396  0.159604  0.075447  1
  Al  Al16  1  0.838552  0.677286  0.421438  1
  Al  Al17  1  0.680511  0.840213  0.925325  1
  Al  Al18  1  0.160016  0.319830  0.574797  1
  Al  Al19  1  0.319248  0.159662  0.075623  1
  Al  Al20  1  0.159787  0.319489  0.925325  1
  Al  Al21  1  0.840338  0.680752  0.075623  1
  Al  Al22  1  0.439698  0.560302  0.747655  1
  Al  Al23  1  0.560771  0.439229  0.248997  1
  Al  Al24  1  0.120261  0.560152  0.747667  1
  Al  Al25  1  0.878681  0.439375  0.248992  1
  Al  Al26  1  0.439848  0.879739  0.747667  1
  Al  Al27  1  0.560625  0.121319  0.248992  1
  Al  Al28  1  0.999964  0.000036  0.750649  1
  Al  Al29  1  0.000020  0.999980  0.250572  1
  Tc  Tc30  1  0.500106  0.499894  0.996320  1
  Tc  Tc31  1  0.999740  0.499896  0.996317  1
  Tc  Tc32  1  0.499080  0.500920  0.497933  1
  Tc  Tc33  1  0.500104  0.000260  0.996317  1
  Tc  Tc34  1  0.001906  0.500878  0.497987  1
  Tc  Tc35  1  0.499122  0.998094  0.497987  1
  Tc  Tc36  1  0.000008  0.999992  0.000800  1
  Tc  Tc37  1  0.000000  0.000000  0.500005  1
