# generated using pymatgen
data_TaSe23
_symmetry_space_group_name_H-M   'P 1'
_cell_length_a   5.47981727
_cell_length_b   10.19867044
_cell_length_c   16.83485300
_cell_angle_alpha   90.13933130
_cell_angle_beta   87.65978431
_cell_angle_gamma   90.47881021
_symmetry_Int_Tables_number   1
_chemical_formula_structural   TaSe23
_chemical_formula_sum   'Ta1 Se23'
_cell_volume   940.02734465
_cell_formula_units_Z   1
loop_
 _symmetry_equiv_pos_site_id
 _symmetry_equiv_pos_as_xyz
  1  'x, y, z'
loop_
 _atom_site_type_symbol
 _atom_site_label
 _atom_site_symmetry_multiplicity
 _atom_site_fract_x
 _atom_site_fract_y
 _atom_site_fract_z
 _atom_site_occupancy
  Ta  Ta0  1  0.498291  0.318793  0.450339  1
  Se  Se1  1  0.468804  0.838247  0.407559  1
  Se  Se2  1  0.028644  0.310599  0.118507  1
  Se  Se3  1  0.831918  0.154296  0.447584  1
  Se  Se4  1  0.262300  0.899708  0.519719  1
  Se  Se5  1  0.238176  0.249299  0.998961  1
  Se  Se6  1  0.735673  0.716891  0.003497  1
  Se  Se7  1  0.157213  0.261345  0.364291  1
  Se  Se8  1  0.669292  0.550218  0.419769  1
  Se  Se9  1  0.772564  0.132373  0.158916  1
  Se  Se10  1  0.217664  0.850261  0.138012  1
  Se  Se11  1  0.762134  0.690565  0.600939  1
  Se  Se12  1  0.280796  0.413579  0.584101  1
  Se  Se13  1  0.223943  0.858333  0.862846  1
  Se  Se14  1  0.768995  0.136011  0.852163  1
  Se  Se15  1  0.970579  0.664542  0.113303  1
  Se  Se16  1  0.557760  0.887472  0.627567  1
  Se  Se17  1  0.328641  0.175803  0.565121  1
  Se  Se18  1  0.978802  0.670263  0.887756  1
  Se  Se19  1  0.015681  0.315771  0.888949  1
  Se  Se20  1  0.635138  0.403653  0.311203  1
  Se  Se21  1  0.010803  0.985943  0.231813  1
  Se  Se22  1  0.562381  0.520070  0.673204  1
  Se  Se23  1  0.023808  0.995961  0.773885  1
