# generated using pymatgen
data_Tb3Nd4ThSe12
_symmetry_space_group_name_H-M   'P 1'
_cell_length_a   4.15391900
_cell_length_b   11.03290567
_cell_length_c   11.35998100
_cell_angle_alpha   90.34123498
_cell_angle_beta   90.00000000
_cell_angle_gamma   90.00000000
_symmetry_Int_Tables_number   1
_chemical_formula_structural   Tb3Nd4ThSe12
_chemical_formula_sum   'Tb3 Nd4 Th1 Se12'
_cell_volume   520.61638397
_cell_formula_units_Z   1
loop_
 _symmetry_equiv_pos_site_id
 _symmetry_equiv_pos_as_xyz
  1  'x, y, z'
loop_
 _atom_site_type_symbol
 _atom_site_label
 _atom_site_symmetry_multiplicity
 _atom_site_fract_x
 _atom_site_fract_y
 _atom_site_fract_z
 _atom_site_occupancy
  Tb  Tb0  1  0.250000  0.312132  0.989111  1
  Tb  Tb1  1  0.750000  0.810058  0.510921  1
  Tb  Tb2  1  0.750000  0.687848  0.010721  1
  Nd  Nd3  1  0.750000  0.503898  0.696891  1
  Nd  Nd4  1  0.750000  0.998039  0.194919  1
  Nd  Nd5  1  0.250000  0.504667  0.301567  1
  Nd  Nd6  1  0.250000  0.995945  0.808613  1
  Th  Th7  1  0.250000  0.188456  0.489074  1
  Se  Se8  1  0.250000  0.298142  0.729266  1
  Se  Se9  1  0.250000  0.202439  0.229960  1
  Se  Se10  1  0.750000  0.704361  0.269007  1
  Se  Se11  1  0.750000  0.795725  0.769243  1
  Se  Se12  1  0.750000  0.052513  0.619574  1
  Se  Se13  1  0.750000  0.445572  0.114905  1
  Se  Se14  1  0.250000  0.942460  0.383931  1
  Se  Se15  1  0.250000  0.553256  0.885102  1
  Se  Se16  1  0.250000  0.629711  0.542803  1
  Se  Se17  1  0.250000  0.869284  0.043426  1
  Se  Se18  1  0.750000  0.375452  0.453825  1
  Se  Se19  1  0.750000  0.130045  0.957141  1
