# generated using pymatgen
data_PmSe7
_symmetry_space_group_name_H-M   'P 1'
_cell_length_a   8.77358530
_cell_length_b   7.91775521
_cell_length_c   11.73437000
_cell_angle_alpha   74.52303814
_cell_angle_beta   121.17894456
_cell_angle_gamma   149.25122686
_symmetry_Int_Tables_number   1
_chemical_formula_structural   PmSe7
_chemical_formula_sum   'Pm1 Se7'
_cell_volume   325.68038623
_cell_formula_units_Z   1
loop_
 _symmetry_equiv_pos_site_id
 _symmetry_equiv_pos_as_xyz
  1  'x, y, z'
loop_
 _atom_site_type_symbol
 _atom_site_label
 _atom_site_symmetry_multiplicity
 _atom_site_fract_x
 _atom_site_fract_y
 _atom_site_fract_z
 _atom_site_occupancy
  Pm  Pm0  1  0.612172  0.781922  0.057129  1
  Se  Se1  1  0.413663  0.999808  0.911563  1
  Se  Se2  1  0.871458  0.912197  0.372059  1
  Se  Se3  1  0.338747  0.637720  0.211040  1
  Se  Se4  1  0.212283  0.091494  0.110773  1
  Se  Se5  1  0.786236  0.039163  0.819830  1
  Se  Se6  1  0.638312  0.418373  0.366838  1
  Se  Se7  1  0.632589  0.201295  0.774464  1
