# generated using pymatgen
data_Tb6Tm9Th(CdNi)4
_symmetry_space_group_name_H-M   'P 1'
_cell_length_a   9.48051479
_cell_length_b   9.48051488
_cell_length_c   9.48051518
_cell_angle_alpha   60.18998637
_cell_angle_beta   60.18998780
_cell_angle_gamma   60.18998611
_symmetry_Int_Tables_number   1
_chemical_formula_structural   Tb6Tm9Th(CdNi)4
_chemical_formula_sum   'Tb6 Tm9 Th1 Cd4 Ni4'
_cell_volume   605.12519498
_cell_formula_units_Z   1
loop_
 _symmetry_equiv_pos_site_id
 _symmetry_equiv_pos_as_xyz
  1  'x, y, z'
loop_
 _atom_site_type_symbol
 _atom_site_label
 _atom_site_symmetry_multiplicity
 _atom_site_fract_x
 _atom_site_fract_y
 _atom_site_fract_z
 _atom_site_occupancy
  Tb  Tb0  1  0.938589  0.563665  0.563665  1
  Tb  Tb1  1  0.561203  0.937755  0.937755  1
  Tb  Tb2  1  0.563665  0.938589  0.563665  1
  Tb  Tb3  1  0.937755  0.561203  0.937755  1
  Tb  Tb4  1  0.563665  0.563665  0.938589  1
  Tb  Tb5  1  0.937755  0.937755  0.561203  1
  Tm  Tm6  1  0.348148  0.348148  0.951739  1
  Tm  Tm7  1  0.348148  0.951739  0.348148  1
  Tm  Tm8  1  0.951739  0.348148  0.348148  1
  Tm  Tm9  1  0.814573  0.187366  0.187366  1
  Tm  Tm10  1  0.187901  0.813820  0.813820  1
  Tm  Tm11  1  0.187366  0.814573  0.187366  1
  Tm  Tm12  1  0.813820  0.187901  0.813820  1
  Tm  Tm13  1  0.187366  0.187366  0.814573  1
  Tm  Tm14  1  0.813820  0.813820  0.187901  1
  Th  Th15  1  0.344600  0.344600  0.344600  1
  Cd  Cd16  1  0.580098  0.580098  0.580098  1
  Cd  Cd17  1  0.582151  0.582151  0.257014  1
  Cd  Cd18  1  0.582151  0.257014  0.582151  1
  Cd  Cd19  1  0.257014  0.582151  0.582151  1
  Ni  Ni20  1  0.142585  0.142585  0.142585  1
  Ni  Ni21  1  0.141719  0.141719  0.572453  1
  Ni  Ni22  1  0.141719  0.572453  0.141719  1
  Ni  Ni23  1  0.572453  0.141719  0.141719  1
