# generated using pymatgen
data_Yb2Lu2TaOs7
_symmetry_space_group_name_H-M   'P 1'
_cell_length_a   5.40312600
_cell_length_b   5.40312604
_cell_length_c   8.57383900
_cell_angle_alpha   90.00000000
_cell_angle_beta   90.00000000
_cell_angle_gamma   119.99998751
_symmetry_Int_Tables_number   1
_chemical_formula_structural   Yb2Lu2TaOs7
_chemical_formula_sum   'Yb2 Lu2 Ta1 Os7'
_cell_volume   216.76851595
_cell_formula_units_Z   1
loop_
 _symmetry_equiv_pos_site_id
 _symmetry_equiv_pos_as_xyz
  1  'x, y, z'
loop_
 _atom_site_type_symbol
 _atom_site_label
 _atom_site_symmetry_multiplicity
 _atom_site_fract_x
 _atom_site_fract_y
 _atom_site_fract_z
 _atom_site_occupancy
  Yb  Yb0  1  0.333333  0.666667  0.441048  1
  Yb  Yb1  1  0.666667  0.333333  0.558952  1
  Lu  Lu2  1  0.666667  0.333333  0.923919  1
  Lu  Lu3  1  0.333333  0.666667  0.076081  1
  Ta  Ta4  1  0.000000  0.000000  0.000000  1
  Os  Os5  1  0.173553  0.347105  0.752102  1
  Os  Os6  1  0.173553  0.826447  0.752102  1
  Os  Os7  1  0.347105  0.173553  0.247898  1
  Os  Os8  1  0.826447  0.652895  0.247898  1
  Os  Os9  1  0.652895  0.826447  0.752102  1
  Os  Os10  1  0.826447  0.173553  0.247898  1
  Os  Os11  1  0.000000  0.000000  0.500000  1
