# generated using pymatgen
data_Tb7Pr(AlRu)8
_symmetry_space_group_name_H-M   'P 1'
_cell_length_a   4.09782700
_cell_length_b   7.04745182
_cell_length_c   16.02693777
_cell_angle_alpha   89.94646020
_cell_angle_beta   90.00000000
_cell_angle_gamma   90.00000000
_symmetry_Int_Tables_number   1
_chemical_formula_structural   Tb7Pr(AlRu)8
_chemical_formula_sum   'Tb7 Pr1 Al8 Ru8'
_cell_volume   462.84555356
_cell_formula_units_Z   1
loop_
 _symmetry_equiv_pos_site_id
 _symmetry_equiv_pos_as_xyz
  1  'x, y, z'
loop_
 _atom_site_type_symbol
 _atom_site_label
 _atom_site_symmetry_multiplicity
 _atom_site_fract_x
 _atom_site_fract_y
 _atom_site_fract_z
 _atom_site_occupancy
  Tb  Tb0  1  0.750000  0.964732  0.219656  1
  Tb  Tb1  1  0.250000  0.160666  0.561498  1
  Tb  Tb2  1  0.750000  0.842906  0.436442  1
  Tb  Tb3  1  0.750000  0.464675  0.280832  1
  Tb  Tb4  1  0.750000  0.338884  0.063484  1
  Tb  Tb5  1  0.250000  0.657382  0.938737  1
  Tb  Tb6  1  0.250000  0.034741  0.781367  1
  Pr  Pr7  1  0.250000  0.533917  0.721071  1
  Al  Al8  1  0.750000  0.503609  0.562478  1
  Al  Al9  1  0.750000  0.358420  0.852280  1
  Al  Al10  1  0.750000  0.997342  0.935975  1
  Al  Al11  1  0.750000  0.869631  0.648852  1
  Al  Al12  1  0.250000  0.501619  0.434130  1
  Al  Al13  1  0.250000  0.997144  0.066028  1
  Al  Al14  1  0.250000  0.634837  0.151144  1
  Al  Al15  1  0.250000  0.137156  0.348877  1
  Ru  Ru16  1  0.750000  0.751340  0.813708  1
  Ru  Ru17  1  0.250000  0.231698  0.937505  1
  Ru  Ru18  1  0.750000  0.267029  0.435636  1
  Ru  Ru19  1  0.250000  0.753867  0.311597  1
  Ru  Ru20  1  0.750000  0.763936  0.064599  1
  Ru  Ru21  1  0.750000  0.242451  0.685433  1
  Ru  Ru22  1  0.250000  0.252968  0.187366  1
  Ru  Ru23  1  0.250000  0.739051  0.561306  1
