# generated using pymatgen
data_K2V5CoSe6
_symmetry_space_group_name_H-M   'P 1'
_cell_length_a   8.94517483
_cell_length_b   9.07270281
_cell_length_c   4.33315300
_cell_angle_alpha   90.00000000
_cell_angle_beta   90.00000000
_cell_angle_gamma   117.40522070
_symmetry_Int_Tables_number   1
_chemical_formula_structural   K2V5CoSe6
_chemical_formula_sum   'K2 V5 Co1 Se6'
_cell_volume   312.19913421
_cell_formula_units_Z   1
loop_
 _symmetry_equiv_pos_site_id
 _symmetry_equiv_pos_as_xyz
  1  'x, y, z'
loop_
 _atom_site_type_symbol
 _atom_site_label
 _atom_site_symmetry_multiplicity
 _atom_site_fract_x
 _atom_site_fract_y
 _atom_site_fract_z
 _atom_site_occupancy
  K  K0  1  0.332764  0.660100  0.250000  1
  K  K1  1  0.664290  0.340216  0.750000  1
  V  V2  1  0.157279  0.188598  0.250000  1
  V  V3  1  0.026038  0.854974  0.250000  1
  V  V4  1  0.826624  0.967792  0.250000  1
  V  V5  1  0.173410  0.032115  0.750000  1
  V  V6  1  0.973525  0.144550  0.750000  1
  Co  Co7  1  0.850969  0.819419  0.750000  1
  Se  Se8  1  0.344653  0.046527  0.250000  1
  Se  Se9  1  0.929921  0.282170  0.250000  1
  Se  Se10  1  0.715356  0.658570  0.250000  1
  Se  Se11  1  0.287634  0.347658  0.750000  1
  Se  Se12  1  0.053315  0.718770  0.750000  1
  Se  Se13  1  0.664220  0.938539  0.750000  1
