# generated using pymatgen
data_HfZr4InRh10
_symmetry_space_group_name_H-M   'P 1'
_cell_length_a   4.21124500
_cell_length_b   5.67609023
_cell_length_c   11.14999825
_cell_angle_alpha   89.02523658
_cell_angle_beta   90.00000000
_cell_angle_gamma   90.00000000
_symmetry_Int_Tables_number   1
_chemical_formula_structural   HfZr4InRh10
_chemical_formula_sum   'Hf1 Zr4 In1 Rh10'
_cell_volume   266.48437180
_cell_formula_units_Z   1
loop_
 _symmetry_equiv_pos_site_id
 _symmetry_equiv_pos_as_xyz
  1  'x, y, z'
loop_
 _atom_site_type_symbol
 _atom_site_label
 _atom_site_symmetry_multiplicity
 _atom_site_fract_x
 _atom_site_fract_y
 _atom_site_fract_z
 _atom_site_occupancy
  Hf  Hf0  1  0.000000  0.000000  0.000000  1
  Zr  Zr1  1  0.500000  0.180429  0.640573  1
  Zr  Zr2  1  0.500000  0.819571  0.359427  1
  Zr  Zr3  1  0.500000  0.667512  0.854763  1
  Zr  Zr4  1  0.500000  0.332488  0.145237  1
  In  In5  1  0.000000  0.500000  0.500000  1
  Rh  Rh6  1  0.500000  0.190531  0.891000  1
  Rh  Rh7  1  0.500000  0.809469  0.109000  1
  Rh  Rh8  1  0.500000  0.706819  0.615593  1
  Rh  Rh9  1  0.500000  0.293181  0.384407  1
  Rh  Rh10  1  0.000000  0.428443  0.748796  1
  Rh  Rh11  1  0.000000  0.571557  0.251204  1
  Rh  Rh12  1  0.000000  0.000000  0.500000  1
  Rh  Rh13  1  0.000000  0.500000  0.000000  1
  Rh  Rh14  1  0.000000  0.074538  0.244070  1
  Rh  Rh15  1  0.000000  0.925462  0.755930  1
