# generated using pymatgen
data_Hf18ReMo5(AsW)2
_symmetry_space_group_name_H-M   'P 1'
_cell_length_a   8.69662924
_cell_length_b   8.68913059
_cell_length_c   8.68113821
_cell_angle_alpha   90.00000165
_cell_angle_beta   90.02195508
_cell_angle_gamma   119.97147650
_symmetry_Int_Tables_number   1
_chemical_formula_structural   Hf18ReMo5(AsW)2
_chemical_formula_sum   'Hf18 Re1 Mo5 As2 W2'
_cell_volume   568.27597195
_cell_formula_units_Z   1
loop_
 _symmetry_equiv_pos_site_id
 _symmetry_equiv_pos_as_xyz
  1  'x, y, z'
loop_
 _atom_site_type_symbol
 _atom_site_label
 _atom_site_symmetry_multiplicity
 _atom_site_fract_x
 _atom_site_fract_y
 _atom_site_fract_z
 _atom_site_occupancy
  Hf  Hf0  1  0.194051  0.388194  0.046192  1
  Hf  Hf1  1  0.804648  0.609938  0.545616  1
  Hf  Hf2  1  0.611522  0.805761  0.046442  1
  Hf  Hf3  1  0.194051  0.805856  0.046192  1
  Hf  Hf4  1  0.804648  0.194712  0.545616  1
  Hf  Hf5  1  0.390571  0.195286  0.545168  1
  Hf  Hf6  1  0.805907  0.612335  0.953625  1
  Hf  Hf7  1  0.805907  0.193573  0.953625  1
  Hf  Hf8  1  0.388087  0.194044  0.953989  1
  Hf  Hf9  1  0.609250  0.804624  0.454552  1
  Hf  Hf10  1  0.195355  0.804618  0.454648  1
  Hf  Hf11  1  0.195355  0.390734  0.454648  1
  Hf  Hf12  1  0.540180  0.080369  0.248992  1
  Hf  Hf13  1  0.460104  0.920002  0.751043  1
  Hf  Hf14  1  0.919707  0.459853  0.248950  1
  Hf  Hf15  1  0.540180  0.459810  0.248992  1
  Hf  Hf16  1  0.460104  0.540103  0.751043  1
  Hf  Hf17  1  0.080103  0.540052  0.751036  1
  Re  Re18  1  0.000057  0.000028  0.000098  1
  Mo  Mo19  1  0.889819  0.779553  0.250282  1
  Mo  Mo20  1  0.110045  0.220417  0.749536  1
  Mo  Mo21  1  0.220285  0.110143  0.250241  1
  Mo  Mo22  1  0.889819  0.110267  0.250282  1
  Mo  Mo23  1  0.110045  0.889628  0.749536  1
  As  As24  1  0.333283  0.666642  0.249048  1
  As  As25  1  0.666591  0.333295  0.750953  1
  W  W26  1  0.000190  0.000095  0.499730  1
  W  W27  1  0.780135  0.890068  0.749929  1
