# generated using pymatgen
data_SrSn4(AsO4)6
_symmetry_space_group_name_H-M   'P 1'
_cell_length_a   8.78684284
_cell_length_b   8.78684167
_cell_length_c   9.50332578
_cell_angle_alpha   62.46414710
_cell_angle_beta   62.46414882
_cell_angle_gamma   59.99999911
_symmetry_Int_Tables_number   1
_chemical_formula_structural   SrSn4(AsO4)6
_chemical_formula_sum   'Sr1 Sn4 As6 O24'
_cell_volume   537.32273913
_cell_formula_units_Z   1
loop_
 _symmetry_equiv_pos_site_id
 _symmetry_equiv_pos_as_xyz
  1  'x, y, z'
loop_
 _atom_site_type_symbol
 _atom_site_label
 _atom_site_symmetry_multiplicity
 _atom_site_fract_x
 _atom_site_fract_y
 _atom_site_fract_z
 _atom_site_occupancy
  Sr  Sr0  1  0.500000  0.500000  0.500000  1
  Sn  Sn1  1  0.148644  0.148644  0.554066  1
  Sn  Sn2  1  0.851356  0.851356  0.445934  1
  Sn  Sn3  1  0.645849  0.645849  0.062455  1
  Sn  Sn4  1  0.354151  0.354151  0.937545  1
  As  As5  1  0.964346  0.248054  0.252746  1
  As  As6  1  0.248054  0.534855  0.252746  1
  As  As7  1  0.534855  0.964346  0.252746  1
  As  As8  1  0.035654  0.751946  0.747254  1
  As  As9  1  0.751946  0.465145  0.747254  1
  As  As10  1  0.465145  0.035654  0.747254  1
  O  O11  1  0.972700  0.294869  0.406077  1
  O  O12  1  0.294869  0.326354  0.406077  1
  O  O13  1  0.326354  0.972700  0.406077  1
  O  O14  1  0.027300  0.705131  0.593923  1
  O  O15  1  0.705131  0.673646  0.593923  1
  O  O16  1  0.673646  0.027300  0.593923  1
  O  O17  1  0.480167  0.883922  0.938442  1
  O  O18  1  0.883922  0.697469  0.938442  1
  O  O19  1  0.697469  0.480167  0.938442  1
  O  O20  1  0.519833  0.116078  0.061558  1
  O  O21  1  0.116078  0.302531  0.061558  1
  O  O22  1  0.302531  0.519833  0.061558  1
  O  O23  1  0.002437  0.975409  0.703798  1
  O  O24  1  0.975409  0.318356  0.703798  1
  O  O25  1  0.318356  0.002437  0.703798  1
  O  O26  1  0.997563  0.024591  0.296202  1
  O  O27  1  0.024591  0.681644  0.296202  1
  O  O28  1  0.681644  0.997563  0.296202  1
  O  O29  1  0.619392  0.743555  0.241858  1
  O  O30  1  0.743555  0.395195  0.241858  1
  O  O31  1  0.395195  0.619392  0.241858  1
  O  O32  1  0.380608  0.256445  0.758142  1
  O  O33  1  0.256445  0.604805  0.758142  1
  O  O34  1  0.604805  0.380608  0.758142  1
