# generated using pymatgen
data_Sm3Dy5(Ho3Sn4)4
_symmetry_space_group_name_H-M   'P 1'
_cell_length_a   8.04706432
_cell_length_b   8.20158587
_cell_length_c   15.48087000
_cell_angle_alpha   90.05254824
_cell_angle_beta   90.16488003
_cell_angle_gamma   89.91301389
_symmetry_Int_Tables_number   1
_chemical_formula_structural   Sm3Dy5(Ho3Sn4)4
_chemical_formula_sum   'Sm3 Dy5 Ho12 Sn16'
_cell_volume   1021.71129107
_cell_formula_units_Z   1
loop_
 _symmetry_equiv_pos_site_id
 _symmetry_equiv_pos_as_xyz
  1  'x, y, z'
loop_
 _atom_site_type_symbol
 _atom_site_label
 _atom_site_symmetry_multiplicity
 _atom_site_fract_x
 _atom_site_fract_y
 _atom_site_fract_z
 _atom_site_occupancy
  Sm  Sm0  1  0.983619  0.820868  0.403123  1
  Sm  Sm1  1  0.515973  0.321017  0.595992  1
  Sm  Sm2  1  0.016714  0.179184  0.904178  1
  Dy  Dy3  1  0.518815  0.321417  0.902668  1
  Dy  Dy4  1  0.017802  0.179245  0.597258  1
  Dy  Dy5  1  0.482551  0.679171  0.402671  1
  Dy  Dy6  1  0.981672  0.820108  0.097647  1
  Dy  Dy7  1  0.481821  0.678720  0.096855  1
  Ho  Ho8  1  0.364370  0.836665  0.877594  1
  Ho  Ho9  1  0.863002  0.663300  0.622636  1
  Ho  Ho10  1  0.636597  0.163125  0.376618  1
  Ho  Ho11  1  0.135859  0.337056  0.122505  1
  Ho  Ho12  1  0.635520  0.163108  0.122906  1
  Ho  Ho13  1  0.136446  0.336960  0.376866  1
  Ho  Ho14  1  0.363947  0.836879  0.622869  1
  Ho  Ho15  1  0.864941  0.662779  0.877719  1
  Ho  Ho16  1  0.196120  0.502985  0.750245  1
  Ho  Ho17  1  0.696101  0.996979  0.750111  1
  Ho  Ho18  1  0.803842  0.497184  0.249556  1
  Ho  Ho19  1  0.304142  0.002907  0.249646  1
  Sn  Sn20  1  0.297101  0.036262  0.042623  1
  Sn  Sn21  1  0.797454  0.461607  0.457724  1
  Sn  Sn22  1  0.702750  0.962256  0.541837  1
  Sn  Sn23  1  0.205754  0.538817  0.958804  1
  Sn  Sn24  1  0.702118  0.959798  0.959317  1
  Sn  Sn25  1  0.201187  0.540604  0.540746  1
  Sn  Sn26  1  0.298660  0.040006  0.458879  1
  Sn  Sn27  1  0.795175  0.461964  0.041660  1
  Sn  Sn28  1  0.562031  0.620050  0.750425  1
  Sn  Sn29  1  0.061878  0.879516  0.750092  1
  Sn  Sn30  1  0.438198  0.380696  0.249887  1
  Sn  Sn31  1  0.938312  0.120005  0.249647  1
  Sn  Sn32  1  0.326634  0.146597  0.750608  1
  Sn  Sn33  1  0.826781  0.353294  0.749487  1
  Sn  Sn34  1  0.671937  0.852213  0.249529  1
  Sn  Sn35  1  0.174177  0.646656  0.249072  1
