# generated using pymatgen
data_Ho16Lu3MgIr12
_symmetry_space_group_name_H-M   'P 1'
_cell_length_a   10.79250200
_cell_length_b   10.79250200
_cell_length_c   6.29699500
_cell_angle_alpha   90.00000000
_cell_angle_beta   90.00000000
_cell_angle_gamma   90.00000000
_symmetry_Int_Tables_number   1
_chemical_formula_structural   Ho16Lu3MgIr12
_chemical_formula_sum   'Ho16 Lu3 Mg1 Ir12'
_cell_volume   733.46200966
_cell_formula_units_Z   1
loop_
 _symmetry_equiv_pos_site_id
 _symmetry_equiv_pos_as_xyz
  1  'x, y, z'
loop_
 _atom_site_type_symbol
 _atom_site_label
 _atom_site_symmetry_multiplicity
 _atom_site_fract_x
 _atom_site_fract_y
 _atom_site_fract_z
 _atom_site_occupancy
  Ho  Ho0  1  0.284314  0.084855  0.378839  1
  Ho  Ho1  1  0.290118  0.912052  0.879419  1
  Ho  Ho2  1  0.709882  0.087948  0.879419  1
  Ho  Ho3  1  0.715686  0.915145  0.378839  1
  Ho  Ho4  1  0.588656  0.791397  0.878934  1
  Ho  Ho5  1  0.587601  0.208500  0.377418  1
  Ho  Ho6  1  0.412399  0.791500  0.377418  1
  Ho  Ho7  1  0.411344  0.208603  0.878934  1
  Ho  Ho8  1  0.208500  0.412399  0.622582  1
  Ho  Ho9  1  0.208603  0.588656  0.121066  1
  Ho  Ho10  1  0.791397  0.411344  0.121066  1
  Ho  Ho11  1  0.791500  0.587601  0.622582  1
  Ho  Ho12  1  0.912052  0.709882  0.120581  1
  Ho  Ho13  1  0.915145  0.284314  0.621161  1
  Ho  Ho14  1  0.084855  0.715686  0.621161  1
  Ho  Ho15  1  0.087948  0.290118  0.120581  1
  Lu  Lu16  1  0.000000  0.000000  0.000000  1
  Lu  Lu17  1  0.500000  0.500000  0.000000  1
  Lu  Lu18  1  0.500000  0.500000  0.500000  1
  Mg  Mg19  1  0.000000  0.000000  0.500000  1
  Ir  Ir20  1  0.847094  0.153460  0.246833  1
  Ir  Ir21  1  0.846540  0.847094  0.753167  1
  Ir  Ir22  1  0.153460  0.152906  0.753167  1
  Ir  Ir23  1  0.152906  0.846540  0.246833  1
  Ir  Ir24  1  0.652737  0.347660  0.748612  1
  Ir  Ir25  1  0.652340  0.652737  0.251388  1
  Ir  Ir26  1  0.347660  0.347263  0.251388  1
  Ir  Ir27  1  0.347263  0.652340  0.748612  1
  Ir  Ir28  1  0.500000  0.000000  0.123993  1
  Ir  Ir29  1  0.500000  0.000000  0.620894  1
  Ir  Ir30  1  0.000000  0.500000  0.876007  1
  Ir  Ir31  1  0.000000  0.500000  0.379106  1
