# generated using pymatgen
data_Pu2Fe9P6W
_symmetry_space_group_name_H-M   'P 1'
_cell_length_a   3.66646800
_cell_length_b   10.35648300
_cell_length_c   11.90242600
_cell_angle_alpha   90.00000000
_cell_angle_beta   90.00000000
_cell_angle_gamma   90.00000000
_symmetry_Int_Tables_number   1
_chemical_formula_structural   Pu2Fe9P6W
_chemical_formula_sum   'Pu4 Fe18 P12 W2'
_cell_volume   451.95551017
_cell_formula_units_Z   2
loop_
 _symmetry_equiv_pos_site_id
 _symmetry_equiv_pos_as_xyz
  1  'x, y, z'
loop_
 _atom_site_type_symbol
 _atom_site_label
 _atom_site_symmetry_multiplicity
 _atom_site_fract_x
 _atom_site_fract_y
 _atom_site_fract_z
 _atom_site_occupancy
  Pu  Pu0  1  0.250000  0.581004  0.701838  1
  Pu  Pu1  1  0.250000  0.918996  0.201838  1
  Pu  Pu2  1  0.750000  0.419191  0.293140  1
  Pu  Pu3  1  0.750000  0.080809  0.793140  1
  Fe  Fe4  1  0.750000  0.292663  0.009798  1
  Fe  Fe5  1  0.750000  0.207337  0.509798  1
  Fe  Fe6  1  0.250000  0.404600  0.484244  1
  Fe  Fe7  1  0.250000  0.095400  0.984244  1
  Fe  Fe8  1  0.750000  0.591690  0.518339  1
  Fe  Fe9  1  0.750000  0.908310  0.018339  1
  Fe  Fe10  1  0.250000  0.220927  0.171587  1
  Fe  Fe11  1  0.250000  0.279073  0.671587  1
  Fe  Fe12  1  0.750000  0.783030  0.830096  1
  Fe  Fe13  1  0.750000  0.716970  0.330096  1
  Fe  Fe14  1  0.250000  0.887676  0.701008  1
  Fe  Fe15  1  0.250000  0.612324  0.201008  1
  Fe  Fe16  1  0.750000  0.124859  0.301133  1
  Fe  Fe17  1  0.750000  0.375141  0.801133  1
  Fe  Fe18  1  0.250000  0.457790  0.932760  1
  Fe  Fe19  1  0.250000  0.042210  0.432760  1
  Fe  Fe20  1  0.750000  0.530189  0.065747  1
  Fe  Fe21  1  0.750000  0.969811  0.565747  1
  P  P22  1  0.250000  0.418699  0.112370  1
  P  P23  1  0.250000  0.081301  0.612370  1
  P  P24  1  0.750000  0.574934  0.882979  1
  P  P25  1  0.750000  0.925066  0.382979  1
  P  P26  1  0.250000  0.265069  0.862759  1
  P  P27  1  0.250000  0.234931  0.362759  1
  P  P28  1  0.750000  0.723494  0.143415  1
  P  P29  1  0.750000  0.776506  0.643415  1
  P  P30  1  0.250000  0.595546  0.389445  1
  P  P31  1  0.250000  0.904454  0.889445  1
  P  P32  1  0.750000  0.391175  0.608312  1
  P  P33  1  0.750000  0.108825  0.108312  1
  W  W34  1  0.250000  0.702110  0.991032  1
  W  W35  1  0.250000  0.797890  0.491032  1
