# generated using pymatgen
data_Y12ZnCo4Au
_symmetry_space_group_name_H-M   'P 1'
_cell_length_a   8.31003434
_cell_length_b   8.31012241
_cell_length_c   8.31003515
_cell_angle_alpha   107.32936365
_cell_angle_beta   109.76495726
_cell_angle_gamma   111.34400315
_symmetry_Int_Tables_number   1
_chemical_formula_structural   Y12ZnCo4Au
_chemical_formula_sum   'Y12 Zn1 Co4 Au1'
_cell_volume   441.21912723
_cell_formula_units_Z   1
loop_
 _symmetry_equiv_pos_site_id
 _symmetry_equiv_pos_as_xyz
  1  'x, y, z'
loop_
 _atom_site_type_symbol
 _atom_site_label
 _atom_site_symmetry_multiplicity
 _atom_site_fract_x
 _atom_site_fract_y
 _atom_site_fract_z
 _atom_site_occupancy
  Y  Y0  1  0.692754  0.257192  0.949944  1
  Y  Y1  1  0.307246  0.742808  0.050056  1
  Y  Y2  1  0.692752  0.742808  0.435562  1
  Y  Y3  1  0.307248  0.257192  0.564438  1
  Y  Y4  1  0.813999  0.140281  0.326282  1
  Y  Y5  1  0.814093  0.487630  0.673538  1
  Y  Y6  1  0.186001  0.859719  0.673718  1
  Y  Y7  1  0.185907  0.512370  0.326462  1
  Y  Y8  1  0.597450  0.775513  0.821874  1
  Y  Y9  1  0.953639  0.775513  0.178063  1
  Y  Y10  1  0.046361  0.224487  0.821937  1
  Y  Y11  1  0.402550  0.224487  0.178126  1
  Zn  Zn12  1  0.500000  0.500000  0.000000  1
  Co  Co13  1  0.833709  0.500000  0.333709  1
  Co  Co14  1  0.166291  0.500000  0.666291  1
  Co  Co15  1  0.999971  0.113210  0.113239  1
  Co  Co16  1  0.000029  0.886790  0.886761  1
  Au  Au17  1  0.500000  0.000000  0.500000  1
