# generated using pymatgen
data_Ti3BeGe2Os3
_symmetry_space_group_name_H-M   'P 1'
_cell_length_a   6.74543559
_cell_length_b   6.37350118
_cell_length_c   7.46095626
_cell_angle_alpha   115.28514819
_cell_angle_beta   116.87522032
_cell_angle_gamma   89.99999953
_symmetry_Int_Tables_number   1
_chemical_formula_structural   Ti3BeGe2Os3
_chemical_formula_sum   'Ti6 Be2 Ge4 Os6'
_cell_volume   251.18271089
_cell_formula_units_Z   2
loop_
 _symmetry_equiv_pos_site_id
 _symmetry_equiv_pos_as_xyz
  1  'x, y, z'
loop_
 _atom_site_type_symbol
 _atom_site_label
 _atom_site_symmetry_multiplicity
 _atom_site_fract_x
 _atom_site_fract_y
 _atom_site_fract_z
 _atom_site_occupancy
  Ti  Ti0  1  0.246786  0.445925  0.391849  1
  Ti  Ti1  1  0.854936  0.554075  0.608151  1
  Ti  Ti2  1  0.636124  0.749133  0.998265  1
  Ti  Ti3  1  0.637858  0.250867  0.001735  1
  Ti  Ti4  1  0.857753  0.055570  0.611140  1
  Ti  Ti5  1  0.246614  0.944430  0.388860  1
  Be  Be6  1  0.247597  0.250852  0.001705  1
  Be  Be7  1  0.245892  0.749148  0.998295  1
  Ge  Ge8  1  0.580023  0.834605  0.666710  1
  Ge  Ge9  1  0.913312  0.165395  0.333290  1
  Ge  Ge10  1  0.913312  0.667895  0.333290  1
  Ge  Ge11  1  0.580023  0.332105  0.666710  1
  Os  Os12  1  0.000722  0.000000  0.000000  1
  Os  Os13  1  0.000722  0.500000  0.000000  1
  Os  Os14  1  0.492746  0.623746  0.246130  1
  Os  Os15  1  0.246616  0.376254  0.753870  1
  Os  Os16  1  0.246616  0.877615  0.753870  1
  Os  Os17  1  0.492746  0.122385  0.246130  1
