# generated using pymatgen
data_Tb3Y(Co5As3)4
_symmetry_space_group_name_H-M   'P 1'
_cell_length_a   3.79165200
_cell_length_b   12.19986800
_cell_length_c   10.70505300
_cell_angle_alpha   90.00226181
_cell_angle_beta   90.00000000
_cell_angle_gamma   90.00000000
_symmetry_Int_Tables_number   1
_chemical_formula_structural   Tb3Y(Co5As3)4
_chemical_formula_sum   'Tb3 Y1 Co20 As12'
_cell_volume   495.19063648
_cell_formula_units_Z   1
loop_
 _symmetry_equiv_pos_site_id
 _symmetry_equiv_pos_as_xyz
  1  'x, y, z'
loop_
 _atom_site_type_symbol
 _atom_site_label
 _atom_site_symmetry_multiplicity
 _atom_site_fract_x
 _atom_site_fract_y
 _atom_site_fract_z
 _atom_site_occupancy
  Tb  Tb0  1  0.750000  0.702146  0.081472  1
  Tb  Tb1  1  0.250000  0.297832  0.918529  1
  Tb  Tb2  1  0.250000  0.797801  0.581520  1
  Y  Y3  1  0.750000  0.202225  0.418468  1
  Co  Co4  1  0.750000  0.696782  0.383180  1
  Co  Co5  1  0.250000  0.303203  0.616760  1
  Co  Co6  1  0.250000  0.803215  0.883188  1
  Co  Co7  1  0.750000  0.196775  0.116828  1
  Co  Co8  1  0.750000  0.990999  0.212076  1
  Co  Co9  1  0.250000  0.008990  0.787954  1
  Co  Co10  1  0.250000  0.508989  0.712101  1
  Co  Co11  1  0.750000  0.491066  0.287857  1
  Co  Co12  1  0.750000  0.677035  0.783415  1
  Co  Co13  1  0.250000  0.322996  0.216669  1
  Co  Co14  1  0.250000  0.822987  0.283364  1
  Co  Co15  1  0.750000  0.177017  0.716602  1
  Co  Co16  1  0.750000  0.931988  0.969094  1
  Co  Co17  1  0.250000  0.068029  0.030955  1
  Co  Co18  1  0.250000  0.567991  0.469073  1
  Co  Co19  1  0.750000  0.431920  0.530884  1
  Co  Co20  1  0.750000  0.987929  0.592922  1
  Co  Co21  1  0.250000  0.012119  0.407044  1
  Co  Co22  1  0.250000  0.512052  0.092908  1
  Co  Co23  1  0.750000  0.487960  0.907130  1
  As  As24  1  0.750000  0.613485  0.584240  1
  As  As25  1  0.250000  0.386371  0.415748  1
  As  As26  1  0.250000  0.886517  0.084270  1
  As  As27  1  0.750000  0.113496  0.915757  1
  As  As28  1  0.750000  0.890714  0.398921  1
  As  As29  1  0.250000  0.109305  0.600911  1
  As  As30  1  0.250000  0.609279  0.898950  1
  As  As31  1  0.750000  0.390774  0.101048  1
  As  As32  1  0.750000  0.870233  0.769141  1
  As  As33  1  0.250000  0.129784  0.231011  1
  As  As34  1  0.250000  0.629758  0.269139  1
  As  As35  1  0.750000  0.370238  0.730869  1
