# generated using pymatgen
data_Tm3HfGa2Rh3
_symmetry_space_group_name_H-M   'P 1'
_cell_length_a   7.00549500
_cell_length_b   7.15146499
_cell_length_c   4.04789700
_cell_angle_alpha   90.00000000
_cell_angle_beta   90.00000000
_cell_angle_gamma   119.32706436
_symmetry_Int_Tables_number   1
_chemical_formula_structural   Tm3HfGa2Rh3
_chemical_formula_sum   'Tm3 Hf1 Ga2 Rh3'
_cell_volume   176.80685392
_cell_formula_units_Z   1
loop_
 _symmetry_equiv_pos_site_id
 _symmetry_equiv_pos_as_xyz
  1  'x, y, z'
loop_
 _atom_site_type_symbol
 _atom_site_label
 _atom_site_symmetry_multiplicity
 _atom_site_fract_x
 _atom_site_fract_y
 _atom_site_fract_z
 _atom_site_occupancy
  Tm  Tm0  1  0.613712  0.000000  0.499999  1
  Tm  Tm1  1  0.417480  0.431727  0.499999  1
  Tm  Tm2  1  0.985754  0.568274  0.499999  1
  Hf  Hf3  1  0.240987  0.000000  0.000000  1
  Ga  Ga4  1  0.001126  0.252637  0.000000  1
  Ga  Ga5  1  0.748489  0.747362  0.000000  1
  Rh  Rh6  1  0.656295  0.325682  0.000000  1
  Rh  Rh7  1  0.330612  0.674317  0.000000  1
  Rh  Rh8  1  0.005545  0.000000  0.499999  1
