# generated using pymatgen
data_Ce4CrTc2Os5
_symmetry_space_group_name_H-M   'P 1'
_cell_length_a   5.22884399
_cell_length_b   5.01501054
_cell_length_c   9.18246100
_cell_angle_alpha   90.00000000
_cell_angle_beta   90.00000000
_cell_angle_gamma   114.42520062
_symmetry_Int_Tables_number   1
_chemical_formula_structural   Ce4CrTc2Os5
_chemical_formula_sum   'Ce4 Cr1 Tc2 Os5'
_cell_volume   219.23882809
_cell_formula_units_Z   1
loop_
 _symmetry_equiv_pos_site_id
 _symmetry_equiv_pos_as_xyz
  1  'x, y, z'
loop_
 _atom_site_type_symbol
 _atom_site_label
 _atom_site_symmetry_multiplicity
 _atom_site_fract_x
 _atom_site_fract_y
 _atom_site_fract_z
 _atom_site_occupancy
  Ce  Ce0  1  0.331469  0.665732  0.437775  1
  Ce  Ce1  1  0.667624  0.333879  0.567767  1
  Ce  Ce2  1  0.667624  0.333879  0.932233  1
  Ce  Ce3  1  0.331469  0.665732  0.062225  1
  Cr  Cr4  1  0.166541  0.833635  0.750000  1
  Tc  Tc5  1  0.830744  0.171018  0.250000  1
  Tc  Tc6  1  0.832364  0.663347  0.250000  1
  Os  Os7  1  0.004796  0.993575  0.503927  1
  Os  Os8  1  0.004796  0.993575  0.996073  1
  Os  Os9  1  0.339113  0.170291  0.250000  1
  Os  Os10  1  0.166791  0.343869  0.750000  1
  Os  Os11  1  0.656669  0.831469  0.750000  1
