# generated using pymatgen
data_Hf9Mo3WSe
_symmetry_space_group_name_H-M   'P 1'
_cell_length_a   8.73432300
_cell_length_b   8.73432223
_cell_length_c   8.64910000
_cell_angle_alpha   90.00000000
_cell_angle_beta   90.00000000
_cell_angle_gamma   119.99999914
_symmetry_Int_Tables_number   1
_chemical_formula_structural   Hf9Mo3WSe
_chemical_formula_sum   'Hf18 Mo6 W2 Se2'
_cell_volume   571.42601995
_cell_formula_units_Z   2
loop_
 _symmetry_equiv_pos_site_id
 _symmetry_equiv_pos_as_xyz
  1  'x, y, z'
loop_
 _atom_site_type_symbol
 _atom_site_label
 _atom_site_symmetry_multiplicity
 _atom_site_fract_x
 _atom_site_fract_y
 _atom_site_fract_z
 _atom_site_occupancy
  Hf  Hf0  1  0.541666  0.083332  0.250000  1
  Hf  Hf1  1  0.458334  0.916668  0.750000  1
  Hf  Hf2  1  0.916668  0.458334  0.250000  1
  Hf  Hf3  1  0.083332  0.541666  0.750000  1
  Hf  Hf4  1  0.541666  0.458334  0.250000  1
  Hf  Hf5  1  0.458334  0.541666  0.750000  1
  Hf  Hf6  1  0.194378  0.388755  0.045630  1
  Hf  Hf7  1  0.805622  0.611245  0.954370  1
  Hf  Hf8  1  0.611245  0.805622  0.045630  1
  Hf  Hf9  1  0.805622  0.611245  0.545630  1
  Hf  Hf10  1  0.388755  0.194378  0.954370  1
  Hf  Hf11  1  0.194378  0.388755  0.454370  1
  Hf  Hf12  1  0.194378  0.805622  0.045630  1
  Hf  Hf13  1  0.388755  0.194378  0.545630  1
  Hf  Hf14  1  0.805622  0.194378  0.954370  1
  Hf  Hf15  1  0.611245  0.805622  0.454370  1
  Hf  Hf16  1  0.805622  0.194378  0.545630  1
  Hf  Hf17  1  0.194378  0.805622  0.454370  1
  Mo  Mo18  1  0.889503  0.779008  0.250000  1
  Mo  Mo19  1  0.110497  0.220992  0.750000  1
  Mo  Mo20  1  0.220992  0.110497  0.250000  1
  Mo  Mo21  1  0.779008  0.889503  0.750000  1
  Mo  Mo22  1  0.889503  0.110497  0.250000  1
  Mo  Mo23  1  0.110497  0.889503  0.750000  1
  W  W24  1  0.000000  0.000000  0.000000  1
  W  W25  1  0.000000  0.000000  0.500000  1
  Se  Se26  1  0.333333  0.666667  0.250000  1
  Se  Se27  1  0.666667  0.333333  0.750000  1
