# generated using pymatgen
data_Dy4LuGa2Bi
_symmetry_space_group_name_H-M   'P 1'
_cell_length_a   8.77551725
_cell_length_b   8.77551613
_cell_length_c   8.77551680
_cell_angle_alpha   126.00159463
_cell_angle_beta   126.00158856
_cell_angle_gamma   79.88552229
_symmetry_Int_Tables_number   1
_chemical_formula_structural   Dy4LuGa2Bi
_chemical_formula_sum   'Dy8 Lu2 Ga4 Bi2'
_cell_volume   427.13542353
_cell_formula_units_Z   2
loop_
 _symmetry_equiv_pos_site_id
 _symmetry_equiv_pos_as_xyz
  1  'x, y, z'
loop_
 _atom_site_type_symbol
 _atom_site_label
 _atom_site_symmetry_multiplicity
 _atom_site_fract_x
 _atom_site_fract_y
 _atom_site_fract_z
 _atom_site_occupancy
  Dy  Dy0  1  0.514405  0.014405  0.810933  1
  Dy  Dy1  1  0.203471  0.703471  0.189067  1
  Dy  Dy2  1  0.014405  0.203471  0.500000  1
  Dy  Dy3  1  0.703471  0.514405  0.500000  1
  Dy  Dy4  1  0.485595  0.985595  0.189067  1
  Dy  Dy5  1  0.796529  0.296529  0.810933  1
  Dy  Dy6  1  0.985595  0.796529  0.500000  1
  Dy  Dy7  1  0.296529  0.485595  0.500000  1
  Lu  Lu8  1  0.500000  0.500000  0.000000  1
  Lu  Lu9  1  0.000000  0.000000  0.000000  1
  Ga  Ga10  1  0.143730  0.643730  0.787458  1
  Ga  Ga11  1  0.856270  0.356270  0.212542  1
  Ga  Ga12  1  0.643730  0.856270  0.500000  1
  Ga  Ga13  1  0.356270  0.143730  0.500000  1
  Bi  Bi14  1  0.250000  0.250000  0.000000  1
  Bi  Bi15  1  0.750000  0.750000  0.000000  1
