# generated using pymatgen
data_Nd6Al24Ir5Os3
_symmetry_space_group_name_H-M   'P 1'
_cell_length_a   8.88296900
_cell_length_b   8.92497617
_cell_length_c   9.66584008
_cell_angle_alpha   90.13713741
_cell_angle_beta   90.00000000
_cell_angle_gamma   119.84442912
_symmetry_Int_Tables_number   1
_chemical_formula_structural   Nd6Al24Ir5Os3
_chemical_formula_sum   'Nd6 Al24 Ir5 Os3'
_cell_volume   664.67979702
_cell_formula_units_Z   1
loop_
 _symmetry_equiv_pos_site_id
 _symmetry_equiv_pos_as_xyz
  1  'x, y, z'
loop_
 _atom_site_type_symbol
 _atom_site_label
 _atom_site_symmetry_multiplicity
 _atom_site_fract_x
 _atom_site_fract_y
 _atom_site_fract_z
 _atom_site_occupancy
  Nd  Nd0  1  0.190802  0.381603  0.250208  1
  Nd  Nd1  1  0.809198  0.618397  0.749792  1
  Nd  Nd2  1  0.617813  0.811321  0.250565  1
  Nd  Nd3  1  0.382187  0.188679  0.749435  1
  Nd  Nd4  1  0.193508  0.811321  0.250565  1
  Nd  Nd5  1  0.806492  0.188679  0.749435  1
  Al  Al6  1  0.333451  0.666904  0.022942  1
  Al  Al7  1  0.666549  0.333096  0.977058  1
  Al  Al8  1  0.665901  0.331800  0.522575  1
  Al  Al9  1  0.334099  0.668200  0.477425  1
  Al  Al10  1  0.163746  0.327491  0.574009  1
  Al  Al11  1  0.836254  0.672509  0.425991  1
  Al  Al12  1  0.671643  0.836842  0.574062  1
  Al  Al13  1  0.836589  0.673176  0.074265  1
  Al  Al14  1  0.328357  0.163158  0.425938  1
  Al  Al15  1  0.163411  0.326824  0.925735  1
  Al  Al16  1  0.165199  0.836842  0.574062  1
  Al  Al17  1  0.328020  0.164969  0.074548  1
  Al  Al18  1  0.834801  0.163158  0.425938  1
  Al  Al19  1  0.671980  0.835031  0.925452  1
  Al  Al20  1  0.836950  0.164969  0.074548  1
  Al  Al21  1  0.163050  0.835031  0.925452  1
  Al  Al22  1  0.563470  0.126939  0.250719  1
  Al  Al23  1  0.436530  0.873061  0.749281  1
  Al  Al24  1  0.874707  0.438269  0.249716  1
  Al  Al25  1  0.125293  0.561731  0.750284  1
  Al  Al26  1  0.563563  0.438269  0.249716  1
  Al  Al27  1  0.436437  0.561731  0.750284  1
  Al  Al28  1  0.000941  0.001882  0.250033  1
  Al  Al29  1  0.999059  0.998118  0.749967  1
  Ir  Ir30  1  0.500000  0.000000  0.000000  1
  Ir  Ir31  1  0.000000  0.500000  0.000000  1
  Ir  Ir32  1  0.500000  0.500000  0.000000  1
  Ir  Ir33  1  0.000000  0.500000  0.500000  1
  Ir  Ir34  1  0.500000  0.500000  0.500000  1
  Os  Os35  1  0.500000  0.000000  0.500000  1
  Os  Os36  1  0.000000  0.000000  0.000000  1
  Os  Os37  1  0.000000  0.000000  0.500000  1
