# generated using pymatgen
data_Li4Ho4SnSb3
_symmetry_space_group_name_H-M   'P 1'
_cell_length_a   9.43470300
_cell_length_b   9.43470334
_cell_length_c   7.00382400
_cell_angle_alpha   90.00000000
_cell_angle_beta   90.00000000
_cell_angle_gamma   120.00000933
_symmetry_Int_Tables_number   1
_chemical_formula_structural   Li4Ho4SnSb3
_chemical_formula_sum   'Li8 Ho8 Sn2 Sb6'
_cell_volume   539.91115098
_cell_formula_units_Z   2
loop_
 _symmetry_equiv_pos_site_id
 _symmetry_equiv_pos_as_xyz
  1  'x, y, z'
loop_
 _atom_site_type_symbol
 _atom_site_label
 _atom_site_symmetry_multiplicity
 _atom_site_fract_x
 _atom_site_fract_y
 _atom_site_fract_z
 _atom_site_occupancy
  Li  Li0  1  0.167544  0.335090  0.277978  1
  Li  Li1  1  0.167544  0.832456  0.277978  1
  Li  Li2  1  0.664910  0.832456  0.277978  1
  Li  Li3  1  0.832456  0.664910  0.777978  1
  Li  Li4  1  0.832456  0.167544  0.777978  1
  Li  Li5  1  0.335090  0.167544  0.777978  1
  Li  Li6  1  0.333333  0.666667  0.688231  1
  Li  Li7  1  0.666667  0.333333  0.188231  1
  Ho  Ho8  1  0.508723  0.017444  0.493560  1
  Ho  Ho9  1  0.508723  0.491277  0.493560  1
  Ho  Ho10  1  0.982556  0.491277  0.493560  1
  Ho  Ho11  1  0.491277  0.982556  0.993560  1
  Ho  Ho12  1  0.491277  0.508723  0.993560  1
  Ho  Ho13  1  0.017444  0.508723  0.993560  1
  Ho  Ho14  1  0.000000  0.000000  0.501076  1
  Ho  Ho15  1  0.000000  0.000000  0.001076  1
  Sn  Sn16  1  0.333333  0.666667  0.255816  1
  Sn  Sn17  1  0.666667  0.333333  0.755816  1
  Sb  Sb18  1  0.166205  0.332410  0.737083  1
  Sb  Sb19  1  0.166205  0.833795  0.737083  1
  Sb  Sb20  1  0.667590  0.833795  0.737083  1
  Sb  Sb21  1  0.833795  0.667590  0.237083  1
  Sb  Sb22  1  0.833795  0.166205  0.237083  1
  Sb  Sb23  1  0.332410  0.166205  0.237083  1
