# generated using pymatgen
data_Y3Lu13(AlRh)4
_symmetry_space_group_name_H-M   'P 1'
_cell_length_a   9.36161764
_cell_length_b   9.35715497
_cell_length_c   9.35329603
_cell_angle_alpha   60.13151556
_cell_angle_beta   60.01370697
_cell_angle_gamma   60.02679831
_symmetry_Int_Tables_number   1
_chemical_formula_structural   Y3Lu13(AlRh)4
_chemical_formula_sum   'Y3 Lu13 Al4 Rh4'
_cell_volume   580.10596900
_cell_formula_units_Z   1
loop_
 _symmetry_equiv_pos_site_id
 _symmetry_equiv_pos_as_xyz
  1  'x, y, z'
loop_
 _atom_site_type_symbol
 _atom_site_label
 _atom_site_symmetry_multiplicity
 _atom_site_fract_x
 _atom_site_fract_y
 _atom_site_fract_z
 _atom_site_occupancy
  Y  Y0  1  0.186880  0.813608  0.186834  1
  Y  Y1  1  0.814627  0.816478  0.183961  1
  Y  Y2  1  0.184566  0.186345  0.814133  1
  Lu  Lu3  1  0.602879  0.601526  0.601242  1
  Lu  Lu4  1  0.603139  0.604143  0.191004  1
  Lu  Lu5  1  0.602756  0.190310  0.604509  1
  Lu  Lu6  1  0.191200  0.602356  0.603181  1
  Lu  Lu7  1  0.056291  0.442380  0.444518  1
  Lu  Lu8  1  0.444714  0.057216  0.056720  1
  Lu  Lu9  1  0.443969  0.056136  0.444008  1
  Lu  Lu10  1  0.056848  0.443717  0.056767  1
  Lu  Lu11  1  0.444878  0.442749  0.055995  1
  Lu  Lu12  1  0.056282  0.056809  0.445083  1
  Lu  Lu13  1  0.188598  0.812048  0.810188  1
  Lu  Lu14  1  0.809672  0.190783  0.189248  1
  Lu  Lu15  1  0.812558  0.187931  0.812661  1
  Al  Al16  1  0.828642  0.828470  0.828424  1
  Al  Al17  1  0.827244  0.827482  0.516148  1
  Al  Al18  1  0.827774  0.514678  0.827938  1
  Al  Al19  1  0.516032  0.827469  0.827262  1
  Rh  Rh20  1  0.395434  0.391572  0.390756  1
  Rh  Rh21  1  0.392778  0.393370  0.822585  1
  Rh  Rh22  1  0.389776  0.823493  0.394299  1
  Rh  Rh23  1  0.822465  0.388934  0.392538  1
