# generated using pymatgen
data_Y3LuAu2
_symmetry_space_group_name_H-M   'P 1'
_cell_length_a   4.89880200
_cell_length_b   7.19224100
_cell_length_c   8.91143900
_cell_angle_alpha   90.00000000
_cell_angle_beta   90.00000000
_cell_angle_gamma   90.00000000
_symmetry_Int_Tables_number   1
_chemical_formula_structural   Y3LuAu2
_chemical_formula_sum   'Y6 Lu2 Au4'
_cell_volume   313.97997936
_cell_formula_units_Z   2
loop_
 _symmetry_equiv_pos_site_id
 _symmetry_equiv_pos_as_xyz
  1  'x, y, z'
loop_
 _atom_site_type_symbol
 _atom_site_label
 _atom_site_symmetry_multiplicity
 _atom_site_fract_x
 _atom_site_fract_y
 _atom_site_fract_z
 _atom_site_occupancy
  Y  Y0  1  0.750000  0.148868  0.079427  1
  Y  Y1  1  0.750000  0.648868  0.420573  1
  Y  Y2  1  0.250000  0.486261  0.173595  1
  Y  Y3  1  0.250000  0.986261  0.326405  1
  Y  Y4  1  0.750000  0.517044  0.820855  1
  Y  Y5  1  0.750000  0.017044  0.679145  1
  Lu  Lu6  1  0.250000  0.852898  0.922131  1
  Lu  Lu7  1  0.250000  0.352898  0.577869  1
  Au  Au8  1  0.250000  0.250707  0.892942  1
  Au  Au9  1  0.250000  0.750707  0.607058  1
  Au  Au10  1  0.750000  0.744221  0.096632  1
  Au  Au11  1  0.750000  0.244221  0.403368  1
