# generated using pymatgen
data_Ho3ThAl17GaIr6
_symmetry_space_group_name_H-M   'P 1'
_cell_length_a   7.57047400
_cell_length_b   7.58113573
_cell_length_c   9.48957100
_cell_angle_alpha   90.00000000
_cell_angle_beta   90.00000000
_cell_angle_gamma   119.48131122
_symmetry_Int_Tables_number   1
_chemical_formula_structural   Ho3ThAl17GaIr6
_chemical_formula_sum   'Ho3 Th1 Al17 Ga1 Ir6'
_cell_volume   474.11185617
_cell_formula_units_Z   1
loop_
 _symmetry_equiv_pos_site_id
 _symmetry_equiv_pos_as_xyz
  1  'x, y, z'
loop_
 _atom_site_type_symbol
 _atom_site_label
 _atom_site_symmetry_multiplicity
 _atom_site_fract_x
 _atom_site_fract_y
 _atom_site_fract_z
 _atom_site_occupancy
  Ho  Ho0  1  0.004165  0.328928  0.750000  1
  Ho  Ho1  1  0.673171  0.994656  0.250000  1
  Ho  Ho2  1  0.328219  0.004800  0.750000  1
  Th  Th3  1  0.994468  0.672571  0.250000  1
  Al  Al4  1  0.871134  0.873557  0.750000  1
  Al  Al5  1  0.001609  0.331116  0.071968  1
  Al  Al6  1  0.999129  0.664346  0.918685  1
  Al  Al7  1  0.999129  0.664346  0.581315  1
  Al  Al8  1  0.340314  0.005150  0.428309  1
  Al  Al9  1  0.001609  0.331116  0.428032  1
  Al  Al10  1  0.664702  0.000176  0.575644  1
  Al  Al11  1  0.664702  0.000176  0.924356  1
  Al  Al12  1  0.340314  0.005150  0.071691  1
  Al  Al13  1  0.332398  0.332468  0.556708  1
  Al  Al14  1  0.662590  0.666063  0.453965  1
  Al  Al15  1  0.662590  0.666063  0.046035  1
  Al  Al16  1  0.332398  0.332468  0.943292  1
  Al  Al17  1  0.343164  0.548608  0.250000  1
  Al  Al18  1  0.658325  0.449385  0.750000  1
  Al  Al19  1  0.544130  0.335624  0.250000  1
  Al  Al20  1  0.450315  0.661074  0.750000  1
  Ga  Ga21  1  0.134080  0.136332  0.250000  1
  Ir  Ir22  1  0.672663  0.329277  0.000557  1
  Ir  Ir23  1  0.326449  0.670983  0.000590  1
  Ir  Ir24  1  0.326449  0.670983  0.499410  1
  Ir  Ir25  1  0.672663  0.329277  0.499443  1
  Ir  Ir26  1  0.999560  0.997653  0.998575  1
  Ir  Ir27  1  0.999560  0.997653  0.501425  1
