# generated using pymatgen
data_Ce2TcWC3
_symmetry_space_group_name_H-M   'P 1'
_cell_length_a   6.28449851
_cell_length_b   6.28449852
_cell_length_c   5.74029203
_cell_angle_alpha   65.73384469
_cell_angle_beta   65.73384246
_cell_angle_gamma   30.87334341
_symmetry_Int_Tables_number   1
_chemical_formula_structural   Ce2TcWC3
_chemical_formula_sum   'Ce2 Tc1 W1 C3'
_cell_volume   105.23200389
_cell_formula_units_Z   1
loop_
 _symmetry_equiv_pos_site_id
 _symmetry_equiv_pos_as_xyz
  1  'x, y, z'
loop_
 _atom_site_type_symbol
 _atom_site_label
 _atom_site_symmetry_multiplicity
 _atom_site_fract_x
 _atom_site_fract_y
 _atom_site_fract_z
 _atom_site_occupancy
  Ce  Ce0  1  0.396858  0.396858  0.806976  1
  Ce  Ce1  1  0.603459  0.603459  0.200062  1
  Tc  Tc2  1  0.841001  0.841001  0.320512  1
  W  W3  1  0.159384  0.159384  0.674096  1
  C  C4  1  0.999699  0.999699  0.998400  1
  C  C5  1  0.251900  0.251900  0.261694  1
  C  C6  1  0.747699  0.747699  0.738261  1
