# generated using pymatgen
data_YbSmGaIr2
_symmetry_space_group_name_H-M   'P 1'
_cell_length_a   5.70833988
_cell_length_b   5.70833873
_cell_length_c   7.72658800
_cell_angle_alpha   102.34248644
_cell_angle_beta   102.34248391
_cell_angle_gamma   58.02512517
_symmetry_Int_Tables_number   1
_chemical_formula_structural   YbSmGaIr2
_chemical_formula_sum   'Yb2 Sm2 Ga2 Ir4'
_cell_volume   207.09501949
_cell_formula_units_Z   2
loop_
 _symmetry_equiv_pos_site_id
 _symmetry_equiv_pos_as_xyz
  1  'x, y, z'
loop_
 _atom_site_type_symbol
 _atom_site_label
 _atom_site_symmetry_multiplicity
 _atom_site_fract_x
 _atom_site_fract_y
 _atom_site_fract_z
 _atom_site_occupancy
  Yb  Yb0  1  0.499052  0.792075  0.646738  1
  Yb  Yb1  1  0.207925  0.500948  0.853262  1
  Sm  Sm2  1  0.791528  0.497725  0.142950  1
  Sm  Sm3  1  0.502275  0.208472  0.357049  1
  Ga  Ga4  1  0.119302  0.880698  0.249999  1
  Ga  Ga5  1  0.890664  0.109336  0.750000  1
  Ir  Ir6  1  0.287144  0.995733  0.014297  1
  Ir  Ir7  1  0.004266  0.712856  0.485703  1
  Ir  Ir8  1  0.982673  0.284829  0.509751  1
  Ir  Ir9  1  0.715170  0.017326  0.990250  1
