# generated using pymatgen
data_HoTm2V(Co4P3)2
_symmetry_space_group_name_H-M   'P 1'
_cell_length_a   3.66902900
_cell_length_b   10.50836900
_cell_length_c   12.17135600
_cell_angle_alpha   90.00000000
_cell_angle_beta   90.00000000
_cell_angle_gamma   90.00000000
_symmetry_Int_Tables_number   1
_chemical_formula_structural   HoTm2V(Co4P3)2
_chemical_formula_sum   'Ho2 Tm4 V2 Co16 P12'
_cell_volume   469.27284532
_cell_formula_units_Z   2
loop_
 _symmetry_equiv_pos_site_id
 _symmetry_equiv_pos_as_xyz
  1  'x, y, z'
loop_
 _atom_site_type_symbol
 _atom_site_label
 _atom_site_symmetry_multiplicity
 _atom_site_fract_x
 _atom_site_fract_y
 _atom_site_fract_z
 _atom_site_occupancy
  Ho  Ho0  1  0.000000  0.500000  0.523508  1
  Ho  Ho1  1  0.500000  0.000000  0.476492  1
  Tm  Tm2  1  0.500000  0.818819  0.204343  1
  Tm  Tm3  1  0.500000  0.181181  0.204343  1
  Tm  Tm4  1  0.000000  0.681181  0.795657  1
  Tm  Tm5  1  0.000000  0.318819  0.795657  1
  V  V6  1  0.500000  0.500000  0.154482  1
  V  V7  1  0.000000  0.000000  0.845518  1
  Co  Co8  1  0.000000  0.500000  0.986520  1
  Co  Co9  1  0.500000  0.000000  0.013480  1
  Co  Co10  1  0.500000  0.295897  0.431058  1
  Co  Co11  1  0.500000  0.704103  0.431058  1
  Co  Co12  1  0.000000  0.204103  0.568942  1
  Co  Co13  1  0.000000  0.795897  0.568942  1
  Co  Co14  1  0.500000  0.878170  0.707656  1
  Co  Co15  1  0.500000  0.121830  0.707656  1
  Co  Co16  1  0.000000  0.621830  0.292344  1
  Co  Co17  1  0.000000  0.378170  0.292344  1
  Co  Co18  1  0.500000  0.332312  0.992750  1
  Co  Co19  1  0.500000  0.667688  0.992750  1
  Co  Co20  1  0.000000  0.167688  0.007250  1
  Co  Co21  1  0.000000  0.832312  0.007250  1
  Co  Co22  1  0.500000  0.500000  0.702275  1
  Co  Co23  1  0.000000  0.000000  0.297725  1
  P  P24  1  0.500000  0.311594  0.616566  1
  P  P25  1  0.500000  0.688406  0.616566  1
  P  P26  1  0.000000  0.188406  0.383434  1
  P  P27  1  0.000000  0.811594  0.383434  1
  P  P28  1  0.500000  0.500000  0.881248  1
  P  P29  1  0.000000  0.000000  0.118752  1
  P  P30  1  0.500000  0.845304  0.891246  1
  P  P31  1  0.500000  0.154696  0.891246  1
  P  P32  1  0.000000  0.654696  0.108754  1
  P  P33  1  0.000000  0.345304  0.108754  1
  P  P34  1  0.500000  0.500000  0.347610  1
  P  P35  1  0.000000  0.000000  0.652390  1
