# generated using pymatgen
data_Pr4Ga9GePd6
_symmetry_space_group_name_H-M   'P 1'
_cell_length_a   8.72918007
_cell_length_b   8.75047438
_cell_length_c   8.75047361
_cell_angle_alpha   140.36511758
_cell_angle_beta   107.67113944
_cell_angle_gamma   85.80693499
_symmetry_Int_Tables_number   1
_chemical_formula_structural   Pr4Ga9GePd6
_chemical_formula_sum   'Pr4 Ga9 Ge1 Pd6'
_cell_volume   391.80040098
_cell_formula_units_Z   1
loop_
 _symmetry_equiv_pos_site_id
 _symmetry_equiv_pos_as_xyz
  1  'x, y, z'
loop_
 _atom_site_type_symbol
 _atom_site_label
 _atom_site_symmetry_multiplicity
 _atom_site_fract_x
 _atom_site_fract_y
 _atom_site_fract_z
 _atom_site_occupancy
  Pr  Pr0  1  0.863591  0.638268  0.225322  1
  Pr  Pr1  1  0.138053  0.365923  0.772129  1
  Pr  Pr2  1  0.409267  0.136542  0.272725  1
  Pr  Pr3  1  0.585932  0.859731  0.726201  1
  Ga  Ga4  1  0.501988  0.751820  0.253823  1
  Ga  Ga5  1  0.501988  0.248165  0.750169  1
  Ga  Ga6  1  0.210223  0.962931  0.748770  1
  Ga  Ga7  1  0.787215  0.537268  0.748116  1
  Ga  Ga8  1  0.787215  0.039100  0.249947  1
  Ga  Ga9  1  0.210223  0.461454  0.247293  1
  Ga  Ga10  1  0.062140  0.898813  0.163327  1
  Ga  Ga11  1  0.933320  0.096119  0.837201  1
  Ga  Ga12  1  0.737927  0.401969  0.335958  1
  Ge  Ge13  1  0.265269  0.602978  0.662290  1
  Pd  Pd14  1  0.002739  0.749622  0.752172  1
  Pd  Pd15  1  0.002739  0.250567  0.253117  1
  Pd  Pd16  1  0.260131  0.857397  0.402733  1
  Pd  Pd17  1  0.743024  0.143320  0.599704  1
  Pd  Pd18  1  0.453519  0.356724  0.096795  1
  Pd  Pd19  1  0.543496  0.641290  0.902207  1
