# generated using pymatgen
data_Eu3(DyGe2)2
_symmetry_space_group_name_H-M   'P 1'
_cell_length_a   7.62150200
_cell_length_b   15.56019500
_cell_length_c   8.06948700
_cell_angle_alpha   90.00000000
_cell_angle_beta   90.00000000
_cell_angle_gamma   90.00000000
_symmetry_Int_Tables_number   1
_chemical_formula_structural   Eu3(DyGe2)2
_chemical_formula_sum   'Eu12 Dy8 Ge16'
_cell_volume   956.97706479
_cell_formula_units_Z   4
loop_
 _symmetry_equiv_pos_site_id
 _symmetry_equiv_pos_as_xyz
  1  'x, y, z'
loop_
 _atom_site_type_symbol
 _atom_site_label
 _atom_site_symmetry_multiplicity
 _atom_site_fract_x
 _atom_site_fract_y
 _atom_site_fract_z
 _atom_site_occupancy
  Eu  Eu0  1  0.019047  0.405874  0.181452  1
  Eu  Eu1  1  0.480952  0.594126  0.681453  1
  Eu  Eu2  1  0.519048  0.094126  0.318546  1
  Eu  Eu3  1  0.980953  0.905875  0.818547  1
  Eu  Eu4  1  0.980953  0.594126  0.818547  1
  Eu  Eu5  1  0.519048  0.405874  0.318546  1
  Eu  Eu6  1  0.480952  0.905875  0.681453  1
  Eu  Eu7  1  0.019047  0.094126  0.181452  1
  Eu  Eu8  1  0.658655  0.750000  0.976817  1
  Eu  Eu9  1  0.841346  0.250000  0.476817  1
  Eu  Eu10  1  0.158656  0.750000  0.523183  1
  Eu  Eu11  1  0.341345  0.250000  0.023183  1
  Dy  Dy12  1  0.319685  0.621576  0.174481  1
  Dy  Dy13  1  0.180315  0.378424  0.674481  1
  Dy  Dy14  1  0.819684  0.878424  0.325519  1
  Dy  Dy15  1  0.680316  0.121576  0.825518  1
  Dy  Dy16  1  0.680316  0.378424  0.825518  1
  Dy  Dy17  1  0.819684  0.621576  0.325519  1
  Dy  Dy18  1  0.180315  0.121576  0.674481  1
  Dy  Dy19  1  0.319685  0.878424  0.174481  1
  Ge  Ge20  1  0.762538  0.750000  0.605406  1
  Ge  Ge21  1  0.737462  0.250000  0.105407  1
  Ge  Ge22  1  0.027061  0.750000  0.128891  1
  Ge  Ge23  1  0.472938  0.250000  0.628890  1
  Ge  Ge24  1  0.527062  0.750000  0.371110  1
  Ge  Ge25  1  0.972937  0.250000  0.871111  1
  Ge  Ge26  1  0.152489  0.538873  0.464156  1
  Ge  Ge27  1  0.347510  0.461128  0.964155  1
  Ge  Ge28  1  0.652490  0.961128  0.035844  1
  Ge  Ge29  1  0.847511  0.038873  0.535844  1
  Ge  Ge30  1  0.847511  0.461128  0.535844  1
  Ge  Ge31  1  0.652490  0.538873  0.035844  1
  Ge  Ge32  1  0.347510  0.038873  0.964155  1
  Ge  Ge33  1  0.152489  0.961128  0.464156  1
  Ge  Ge34  1  0.262539  0.750000  0.894594  1
  Ge  Ge35  1  0.237461  0.250000  0.394594  1
