# generated using pymatgen
data_Tb8Zr12Si15Sn
_symmetry_space_group_name_H-M   'P 1'
_cell_length_a   7.37626720
_cell_length_b   7.40885684
_cell_length_c   13.59324818
_cell_angle_alpha   89.77916980
_cell_angle_beta   90.02032687
_cell_angle_gamma   89.84244242
_symmetry_Int_Tables_number   1
_chemical_formula_structural   Tb8Zr12Si15Sn
_chemical_formula_sum   'Tb8 Zr12 Si15 Sn1'
_cell_volume   742.85866443
_cell_formula_units_Z   1
loop_
 _symmetry_equiv_pos_site_id
 _symmetry_equiv_pos_as_xyz
  1  'x, y, z'
loop_
 _atom_site_type_symbol
 _atom_site_label
 _atom_site_symmetry_multiplicity
 _atom_site_fract_x
 _atom_site_fract_y
 _atom_site_fract_z
 _atom_site_occupancy
  Tb  Tb0  1  0.988311  0.347444  0.210789  1
  Tb  Tb1  1  0.005428  0.653125  0.714693  1
  Tb  Tb2  1  0.145650  0.505138  0.469420  1
  Tb  Tb3  1  0.506340  0.844999  0.034088  1
  Tb  Tb4  1  0.847443  0.503864  0.962364  1
  Tb  Tb5  1  0.497186  0.151736  0.540242  1
  Tb  Tb6  1  0.346843  0.995192  0.786340  1
  Tb  Tb7  1  0.659573  0.998475  0.284980  1
  Zr  Zr8  1  0.176135  0.175966  0.999138  1
  Zr  Zr9  1  0.823871  0.825693  0.501283  1
  Zr  Zr10  1  0.324888  0.682034  0.248140  1
  Zr  Zr11  1  0.676255  0.323658  0.750283  1
  Zr  Zr12  1  0.139564  0.988381  0.374138  1
  Zr  Zr13  1  0.854240  0.003749  0.873861  1
  Zr  Zr14  1  0.503364  0.648005  0.624957  1
  Zr  Zr15  1  0.353290  0.495247  0.875247  1
  Zr  Zr16  1  0.496662  0.353092  0.119525  1
  Zr  Zr17  1  0.657282  0.515093  0.379294  1
  Zr  Zr18  1  0.994896  0.147320  0.626398  1
  Zr  Zr19  1  0.002718  0.851140  0.123646  1
  Si  Si20  1  0.639807  0.705588  0.815989  1
  Si  Si21  1  0.205431  0.862356  0.567002  1
  Si  Si22  1  0.140240  0.793473  0.932998  1
  Si  Si23  1  0.795216  0.138835  0.064181  1
  Si  Si24  1  0.859229  0.205768  0.434577  1
  Si  Si25  1  0.294519  0.360497  0.684578  1
  Si  Si26  1  0.703882  0.639235  0.183582  1
  Si  Si27  1  0.293988  0.044735  0.182213  1
  Si  Si28  1  0.706373  0.946579  0.687858  1
  Si  Si29  1  0.446515  0.797017  0.437144  1
  Si  Si30  1  0.205493  0.552177  0.062683  1
  Si  Si31  1  0.552721  0.204174  0.935359  1
  Si  Si32  1  0.792492  0.447263  0.565315  1
  Si  Si33  1  0.052820  0.294140  0.813141  1
  Si  Si34  1  0.949389  0.703157  0.311572  1
  Sn  Sn35  1  0.361943  0.295655  0.322978  1
