# generated using pymatgen
data_YPaReB6
_symmetry_space_group_name_H-M   'P 1'
_cell_length_a   9.19587200
_cell_length_b   11.53201200
_cell_length_c   3.71628700
_cell_angle_alpha   90.00000000
_cell_angle_beta   90.00000000
_cell_angle_gamma   90.00000000
_symmetry_Int_Tables_number   1
_chemical_formula_structural   YPaReB6
_chemical_formula_sum   'Y4 Pa4 Re4 B24'
_cell_volume   394.10073910
_cell_formula_units_Z   4
loop_
 _symmetry_equiv_pos_site_id
 _symmetry_equiv_pos_as_xyz
  1  'x, y, z'
loop_
 _atom_site_type_symbol
 _atom_site_label
 _atom_site_symmetry_multiplicity
 _atom_site_fract_x
 _atom_site_fract_y
 _atom_site_fract_z
 _atom_site_occupancy
  Y  Y0  1  0.444850  0.125146  0.000000  1
  Y  Y1  1  0.555148  0.874855  0.000000  1
  Y  Y2  1  0.944851  0.374853  0.000000  1
  Y  Y3  1  0.055149  0.625146  0.000000  1
  Pa  Pa4  1  0.823539  0.086989  0.000000  1
  Pa  Pa5  1  0.176462  0.913011  0.000000  1
  Pa  Pa6  1  0.323539  0.413012  0.000000  1
  Pa  Pa7  1  0.676461  0.586989  0.000000  1
  Re  Re8  1  0.138132  0.177902  0.000000  1
  Re  Re9  1  0.861869  0.822098  0.000000  1
  Re  Re10  1  0.638131  0.322098  0.000000  1
  Re  Re11  1  0.361869  0.677903  0.000000  1
  B  B12  1  0.133551  0.314292  0.500002  1
  B  B13  1  0.866448  0.685709  0.500002  1
  B  B14  1  0.633552  0.185709  0.500002  1
  B  B15  1  0.366449  0.814292  0.500002  1
  B  B16  1  0.482316  0.286629  0.500002  1
  B  B17  1  0.517685  0.713371  0.500002  1
  B  B18  1  0.982315  0.213371  0.500002  1
  B  B19  1  0.017684  0.786629  0.500002  1
  B  B20  1  0.115189  0.468120  0.500002  1
  B  B21  1  0.884811  0.531880  0.500002  1
  B  B22  1  0.615189  0.031881  0.500002  1
  B  B23  1  0.384812  0.968120  0.500002  1
  B  B24  1  0.052152  0.066596  0.500002  1
  B  B25  1  0.947848  0.933403  0.500002  1
  B  B26  1  0.552153  0.433404  0.500002  1
  B  B27  1  0.447848  0.566596  0.500002  1
  B  B28  1  0.246959  0.079553  0.500002  1
  B  B29  1  0.753041  0.920447  0.500002  1
  B  B30  1  0.746960  0.420447  0.500002  1
  B  B31  1  0.253041  0.579553  0.500002  1
  B  B32  1  0.292617  0.233753  0.500002  1
  B  B33  1  0.707382  0.766246  0.500002  1
  B  B34  1  0.792617  0.266247  0.500002  1
  B  B35  1  0.207382  0.733754  0.500002  1
