# generated using pymatgen
data_Lu10In8Ir2RuPt
_symmetry_space_group_name_H-M   'P 1'
_cell_length_a   3.53805500
_cell_length_b   7.96370090
_cell_length_c   18.09607677
_cell_angle_alpha   89.92191660
_cell_angle_beta   90.00000000
_cell_angle_gamma   90.00000000
_symmetry_Int_Tables_number   1
_chemical_formula_structural   Lu10In8Ir2RuPt
_chemical_formula_sum   'Lu10 In8 Ir2 Ru1 Pt1'
_cell_volume   509.87479864
_cell_formula_units_Z   1
loop_
 _symmetry_equiv_pos_site_id
 _symmetry_equiv_pos_as_xyz
  1  'x, y, z'
loop_
 _atom_site_type_symbol
 _atom_site_label
 _atom_site_symmetry_multiplicity
 _atom_site_fract_x
 _atom_site_fract_y
 _atom_site_fract_z
 _atom_site_occupancy
  Lu  Lu0  1  0.000000  0.118093  0.413928  1
  Lu  Lu1  1  0.000000  0.881771  0.588588  1
  Lu  Lu2  1  0.000000  0.380268  0.910295  1
  Lu  Lu3  1  0.000000  0.618960  0.085773  1
  Lu  Lu4  1  0.000000  0.240990  0.222980  1
  Lu  Lu5  1  0.000000  0.750998  0.778847  1
  Lu  Lu6  1  0.000000  0.254334  0.721793  1
  Lu  Lu7  1  0.000000  0.755257  0.278695  1
  Lu  Lu8  1  0.000000  0.998732  0.999670  1
  Lu  Lu9  1  0.000000  0.501028  0.499711  1
  In  In10  1  0.500000  0.428859  0.352559  1
  In  In11  1  0.500000  0.567770  0.649185  1
  In  In12  1  0.500000  0.069018  0.850908  1
  In  In13  1  0.500000  0.933297  0.147548  1
  In  In14  1  0.500000  0.292021  0.065155  1
  In  In15  1  0.500000  0.701699  0.933130  1
  In  In16  1  0.500000  0.206783  0.566803  1
  In  In17  1  0.500000  0.793484  0.433204  1
  Ir  Ir18  1  0.500000  0.027615  0.304220  1
  Ir  Ir19  1  0.500000  0.975518  0.696885  1
  Ru  Ru20  1  0.500000  0.476093  0.803430  1
  Pt  Pt21  1  0.500000  0.527410  0.196691  1
