# generated using pymatgen
data_LuPa3(GaOs)4
_symmetry_space_group_name_H-M   'P 1'
_cell_length_a   4.18953400
_cell_length_b   6.75930366
_cell_length_c   8.05589876
_cell_angle_alpha   89.89674976
_cell_angle_beta   90.00000000
_cell_angle_gamma   90.00000000
_symmetry_Int_Tables_number   1
_chemical_formula_structural   LuPa3(GaOs)4
_chemical_formula_sum   'Lu1 Pa3 Ga4 Os4'
_cell_volume   228.12924947
_cell_formula_units_Z   1
loop_
 _symmetry_equiv_pos_site_id
 _symmetry_equiv_pos_as_xyz
  1  'x, y, z'
loop_
 _atom_site_type_symbol
 _atom_site_label
 _atom_site_symmetry_multiplicity
 _atom_site_fract_x
 _atom_site_fract_y
 _atom_site_fract_z
 _atom_site_occupancy
  Lu  Lu0  1  0.750000  0.534813  0.815454  1
  Pa  Pa1  1  0.250000  0.967023  0.311214  1
  Pa  Pa2  1  0.250000  0.466309  0.182282  1
  Pa  Pa3  1  0.750000  0.037305  0.687559  1
  Ga  Ga4  1  0.250000  0.367626  0.565861  1
  Ga  Ga5  1  0.250000  0.845498  0.935642  1
  Ga  Ga6  1  0.750000  0.640026  0.446820  1
  Ga  Ga7  1  0.750000  0.142706  0.056972  1
  Os  Os8  1  0.250000  0.238166  0.875549  1
  Os  Os9  1  0.250000  0.763169  0.616795  1
  Os  Os10  1  0.750000  0.748157  0.134104  1
  Os  Os11  1  0.750000  0.249203  0.371748  1
