# generated using pymatgen
data_Ho4Mg3ZrRh4
_symmetry_space_group_name_H-M   'P 1'
_cell_length_a   4.17090200
_cell_length_b   7.11452412
_cell_length_c   8.54639460
_cell_angle_alpha   87.91953839
_cell_angle_beta   90.00000000
_cell_angle_gamma   90.00000000
_symmetry_Int_Tables_number   1
_chemical_formula_structural   Ho4Mg3ZrRh4
_chemical_formula_sum   'Ho4 Mg3 Zr1 Rh4'
_cell_volume   253.43839828
_cell_formula_units_Z   1
loop_
 _symmetry_equiv_pos_site_id
 _symmetry_equiv_pos_as_xyz
  1  'x, y, z'
loop_
 _atom_site_type_symbol
 _atom_site_label
 _atom_site_symmetry_multiplicity
 _atom_site_fract_x
 _atom_site_fract_y
 _atom_site_fract_z
 _atom_site_occupancy
  Ho  Ho0  1  0.250000  0.524521  0.171880  1
  Ho  Ho1  1  0.750000  0.458733  0.831840  1
  Ho  Ho2  1  0.750000  0.977564  0.682023  1
  Ho  Ho3  1  0.250000  0.042044  0.321322  1
  Mg  Mg4  1  0.750000  0.356914  0.432985  1
  Mg  Mg5  1  0.750000  0.859322  0.060061  1
  Mg  Mg6  1  0.250000  0.133370  0.940606  1
  Zr  Zr7  1  0.250000  0.634958  0.559292  1
  Rh  Rh8  1  0.250000  0.749166  0.862726  1
  Rh  Rh9  1  0.750000  0.241781  0.125559  1
  Rh  Rh10  1  0.750000  0.757061  0.387870  1
  Rh  Rh11  1  0.250000  0.264566  0.623836  1
