# generated using pymatgen
data_Ac3IrO7
_symmetry_space_group_name_H-M   'P 1'
_cell_length_a   6.98630081
_cell_length_b   6.98630209
_cell_length_c   7.87162300
_cell_angle_alpha   90.00000000
_cell_angle_beta   90.00000000
_cell_angle_gamma   112.78542554
_symmetry_Int_Tables_number   1
_chemical_formula_structural   Ac3IrO7
_chemical_formula_sum   'Ac6 Ir2 O14'
_cell_volume   354.21896160
_cell_formula_units_Z   2
loop_
 _symmetry_equiv_pos_site_id
 _symmetry_equiv_pos_as_xyz
  1  'x, y, z'
loop_
 _atom_site_type_symbol
 _atom_site_label
 _atom_site_symmetry_multiplicity
 _atom_site_fract_x
 _atom_site_fract_y
 _atom_site_fract_z
 _atom_site_occupancy
  Ac  Ac0  1  0.000000  0.000000  0.500000  1
  Ac  Ac1  1  0.000000  0.000000  0.000000  1
  Ac  Ac2  1  0.535048  0.096455  0.250000  1
  Ac  Ac3  1  0.903545  0.464952  0.750000  1
  Ac  Ac4  1  0.464952  0.903545  0.750000  1
  Ac  Ac5  1  0.096455  0.535048  0.250000  1
  Ir  Ir6  1  0.500000  0.500000  0.500000  1
  Ir  Ir7  1  0.500000  0.500000  0.000000  1
  O  O8  1  0.443950  0.199050  0.540606  1
  O  O9  1  0.800950  0.556050  0.459394  1
  O  O10  1  0.443950  0.199050  0.959394  1
  O  O11  1  0.800950  0.556050  0.040606  1
  O  O12  1  0.556050  0.800950  0.459394  1
  O  O13  1  0.199050  0.443950  0.540606  1
  O  O14  1  0.556050  0.800950  0.040606  1
  O  O15  1  0.199050  0.443950  0.959394  1
  O  O16  1  0.161708  0.901494  0.250000  1
  O  O17  1  0.098506  0.838292  0.750000  1
  O  O18  1  0.838292  0.098506  0.750000  1
  O  O19  1  0.901494  0.161708  0.250000  1
  O  O20  1  0.419424  0.419424  0.250000  1
  O  O21  1  0.580576  0.580576  0.750000  1
