# generated using pymatgen
data_Sr15(SnP6)2
_symmetry_space_group_name_H-M   'P 1'
_cell_length_a   9.40169469
_cell_length_b   9.40169498
_cell_length_c   9.40169549
_cell_angle_alpha   87.62889460
_cell_angle_beta   87.62889683
_cell_angle_gamma   87.62889782
_symmetry_Int_Tables_number   1
_chemical_formula_structural   Sr15(SnP6)2
_chemical_formula_sum   'Sr15 Sn2 P12'
_cell_volume   828.95603511
_cell_formula_units_Z   1
loop_
 _symmetry_equiv_pos_site_id
 _symmetry_equiv_pos_as_xyz
  1  'x, y, z'
loop_
 _atom_site_type_symbol
 _atom_site_label
 _atom_site_symmetry_multiplicity
 _atom_site_fract_x
 _atom_site_fract_y
 _atom_site_fract_z
 _atom_site_occupancy
  Sr  Sr0  1  0.406851  0.285503  0.779299  1
  Sr  Sr1  1  0.779299  0.406851  0.285503  1
  Sr  Sr2  1  0.285503  0.779299  0.406851  1
  Sr  Sr3  1  0.029629  0.526473  0.658961  1
  Sr  Sr4  1  0.658961  0.029629  0.526473  1
  Sr  Sr5  1  0.526473  0.658961  0.029629  1
  Sr  Sr6  1  0.166576  0.537347  0.031767  1
  Sr  Sr7  1  0.031767  0.166576  0.537347  1
  Sr  Sr8  1  0.537347  0.031767  0.166576  1
  Sr  Sr9  1  0.775199  0.297187  0.918047  1
  Sr  Sr10  1  0.918047  0.775199  0.297187  1
  Sr  Sr11  1  0.297187  0.918047  0.775199  1
  Sr  Sr12  1  0.164403  0.164403  0.164403  1
  Sr  Sr13  1  0.390211  0.390211  0.390211  1
  Sr  Sr14  1  0.953008  0.953008  0.953008  1
  Sn  Sn15  1  0.763771  0.763771  0.763771  1
  Sn  Sn16  1  0.596632  0.596632  0.596632  1
  P  P17  1  0.703441  0.342883  0.600789  1
  P  P18  1  0.600789  0.703441  0.342883  1
  P  P19  1  0.342883  0.600789  0.703441  1
  P  P20  1  0.616657  0.979422  0.855244  1
  P  P21  1  0.855244  0.616657  0.979422  1
  P  P22  1  0.979422  0.855244  0.616657  1
  P  P23  1  0.470723  0.344957  0.083896  1
  P  P24  1  0.083896  0.470723  0.344957  1
  P  P25  1  0.344957  0.083896  0.470723  1
  P  P26  1  0.093637  0.235632  0.846586  1
  P  P27  1  0.846586  0.093637  0.235632  1
  P  P28  1  0.235632  0.846586  0.093637  1
