# generated using pymatgen
data_CaLu4Si12Ir19
_symmetry_space_group_name_H-M   'P 1'
_cell_length_a   12.80169100
_cell_length_b   12.80169208
_cell_length_c   3.97451300
_cell_angle_alpha   90.00000000
_cell_angle_beta   90.00000000
_cell_angle_gamma   120.00000496
_symmetry_Int_Tables_number   1
_chemical_formula_structural   CaLu4Si12Ir19
_chemical_formula_sum   'Ca1 Lu4 Si12 Ir19'
_cell_volume   564.09110171
_cell_formula_units_Z   1
loop_
 _symmetry_equiv_pos_site_id
 _symmetry_equiv_pos_as_xyz
  1  'x, y, z'
loop_
 _atom_site_type_symbol
 _atom_site_label
 _atom_site_symmetry_multiplicity
 _atom_site_fract_x
 _atom_site_fract_y
 _atom_site_fract_z
 _atom_site_occupancy
  Ca  Ca0  1  0.333333  0.666667  0.000000  1
  Lu  Lu1  1  0.999882  0.182705  0.500000  1
  Lu  Lu2  1  0.817295  0.817176  0.500000  1
  Lu  Lu3  1  0.182824  0.000118  0.500000  1
  Lu  Lu4  1  0.666667  0.333333  0.000000  1
  Si  Si5  1  0.480948  0.312566  0.500000  1
  Si  Si6  1  0.819301  0.000183  0.000000  1
  Si  Si7  1  0.180882  0.180699  0.000000  1
  Si  Si8  1  0.999817  0.819118  0.000000  1
  Si  Si9  1  0.367116  0.999432  0.000000  1
  Si  Si10  1  0.687434  0.168383  0.500000  1
  Si  Si11  1  0.831617  0.519052  0.500000  1
  Si  Si12  1  0.518676  0.831960  0.500000  1
  Si  Si13  1  0.168040  0.686716  0.500000  1
  Si  Si14  1  0.313284  0.481324  0.500000  1
  Si  Si15  1  0.000568  0.367685  0.000000  1
  Si  Si16  1  0.632315  0.632884  0.000000  1
  Ir  Ir17  1  0.807013  0.183219  0.000000  1
  Ir  Ir18  1  0.376205  0.192987  0.000000  1
  Ir  Ir19  1  0.639599  0.510581  0.500000  1
  Ir  Ir20  1  0.870982  0.360401  0.500000  1
  Ir  Ir21  1  0.360127  0.875495  0.500000  1
  Ir  Ir22  1  0.515368  0.639873  0.500000  1
  Ir  Ir23  1  0.124505  0.484632  0.500000  1
  Ir  Ir24  1  0.816781  0.623795  0.000000  1
  Ir  Ir25  1  0.625229  0.818164  0.000000  1
  Ir  Ir26  1  0.181836  0.807064  0.000000  1
  Ir  Ir27  1  0.192936  0.374771  0.000000  1
  Ir  Ir28  1  0.999655  0.718011  0.500000  1
  Ir  Ir29  1  0.281989  0.281644  0.500000  1
  Ir  Ir30  1  0.718356  0.000345  0.500000  1
  Ir  Ir31  1  0.999103  0.552267  0.000000  1
  Ir  Ir32  1  0.447733  0.446836  0.000000  1
  Ir  Ir33  1  0.553164  0.000897  0.000000  1
  Ir  Ir34  1  0.000000  0.000000  0.000000  1
  Ir  Ir35  1  0.489419  0.129018  0.500000  1
