# generated using pymatgen
data_YLu5Co17TcP12
_symmetry_space_group_name_H-M   'P 1'
_cell_length_a   3.66269600
_cell_length_b   10.45864500
_cell_length_c   12.12206800
_cell_angle_alpha   90.00000000
_cell_angle_beta   90.00000000
_cell_angle_gamma   90.00000000
_symmetry_Int_Tables_number   1
_chemical_formula_structural   YLu5Co17TcP12
_chemical_formula_sum   'Y1 Lu5 Co17 Tc1 P12'
_cell_volume   464.35808549
_cell_formula_units_Z   1
loop_
 _symmetry_equiv_pos_site_id
 _symmetry_equiv_pos_as_xyz
  1  'x, y, z'
loop_
 _atom_site_type_symbol
 _atom_site_label
 _atom_site_symmetry_multiplicity
 _atom_site_fract_x
 _atom_site_fract_y
 _atom_site_fract_z
 _atom_site_occupancy
  Y  Y0  1  0.500000  0.000000  0.477077  1
  Lu  Lu1  1  0.000000  0.500000  0.524712  1
  Lu  Lu2  1  0.500000  0.817968  0.206631  1
  Lu  Lu3  1  0.500000  0.182032  0.206631  1
  Lu  Lu4  1  0.000000  0.682001  0.794964  1
  Lu  Lu5  1  0.000000  0.317999  0.794964  1
  Co  Co6  1  0.000000  0.000000  0.839933  1
  Co  Co7  1  0.500000  0.500000  0.702955  1
  Co  Co8  1  0.000000  0.000000  0.294910  1
  Co  Co9  1  0.000000  0.500000  0.987226  1
  Co  Co10  1  0.500000  0.000000  0.014426  1
  Co  Co11  1  0.500000  0.331836  0.990561  1
  Co  Co12  1  0.500000  0.668164  0.990561  1
  Co  Co13  1  0.000000  0.166752  0.005868  1
  Co  Co14  1  0.000000  0.833248  0.005868  1
  Co  Co15  1  0.500000  0.297973  0.431103  1
  Co  Co16  1  0.500000  0.702027  0.431103  1
  Co  Co17  1  0.000000  0.204474  0.569220  1
  Co  Co18  1  0.000000  0.795526  0.569220  1
  Co  Co19  1  0.500000  0.877728  0.709218  1
  Co  Co20  1  0.500000  0.122272  0.709218  1
  Co  Co21  1  0.000000  0.621560  0.292226  1
  Co  Co22  1  0.000000  0.378440  0.292226  1
  Tc  Tc23  1  0.500000  0.500000  0.157162  1
  P  P24  1  0.500000  0.500000  0.880350  1
  P  P25  1  0.000000  0.000000  0.117761  1
  P  P26  1  0.500000  0.500000  0.351154  1
  P  P27  1  0.000000  0.000000  0.655630  1
  P  P28  1  0.500000  0.313121  0.617455  1
  P  P29  1  0.500000  0.686879  0.617455  1
  P  P30  1  0.000000  0.188192  0.382717  1
  P  P31  1  0.000000  0.811808  0.382717  1
  P  P32  1  0.500000  0.848406  0.890900  1
  P  P33  1  0.500000  0.151594  0.890900  1
  P  P34  1  0.000000  0.656653  0.107489  1
  P  P35  1  0.000000  0.343347  0.107489  1
