# generated using pymatgen
data_Hf3Ga3IrPd2
_symmetry_space_group_name_H-M   'P 1'
_cell_length_a   7.30817100
_cell_length_b   7.30817011
_cell_length_c   6.74916500
_cell_angle_alpha   90.00000000
_cell_angle_beta   90.00000000
_cell_angle_gamma   119.99999951
_symmetry_Int_Tables_number   1
_chemical_formula_structural   Hf3Ga3IrPd2
_chemical_formula_sum   'Hf6 Ga6 Ir2 Pd4'
_cell_volume   312.17493341
_cell_formula_units_Z   2
loop_
 _symmetry_equiv_pos_site_id
 _symmetry_equiv_pos_as_xyz
  1  'x, y, z'
loop_
 _atom_site_type_symbol
 _atom_site_label
 _atom_site_symmetry_multiplicity
 _atom_site_fract_x
 _atom_site_fract_y
 _atom_site_fract_z
 _atom_site_occupancy
  Hf  Hf0  1  0.738494  0.048687  0.000000  1
  Hf  Hf1  1  0.310193  0.261506  0.000000  1
  Hf  Hf2  1  0.951313  0.689807  0.000000  1
  Hf  Hf3  1  0.332778  0.271490  0.500000  1
  Hf  Hf4  1  0.728510  0.061287  0.500000  1
  Hf  Hf5  1  0.938713  0.667222  0.500000  1
  Ga  Ga6  1  0.602256  0.658775  0.749542  1
  Ga  Ga7  1  0.056519  0.397744  0.749542  1
  Ga  Ga8  1  0.341225  0.943481  0.749542  1
  Ga  Ga9  1  0.602256  0.658775  0.250458  1
  Ga  Ga10  1  0.056519  0.397744  0.250458  1
  Ga  Ga11  1  0.341225  0.943481  0.250458  1
  Ir  Ir12  1  0.000000  0.000000  0.263260  1
  Ir  Ir13  1  0.000000  0.000000  0.736740  1
  Pd  Pd14  1  0.333333  0.666667  0.000000  1
  Pd  Pd15  1  0.333333  0.666667  0.500000  1
  Pd  Pd16  1  0.666667  0.333333  0.771183  1
  Pd  Pd17  1  0.666667  0.333333  0.228817  1
