# generated using pymatgen
data_Tm5Pa3(Si3Rh)4
_symmetry_space_group_name_H-M   'P 1'
_cell_length_a   8.09613500
_cell_length_b   8.09613542
_cell_length_c   7.94471400
_cell_angle_alpha   90.00000000
_cell_angle_beta   90.00000000
_cell_angle_gamma   119.47753772
_symmetry_Int_Tables_number   1
_chemical_formula_structural   Tm5Pa3(Si3Rh)4
_chemical_formula_sum   'Tm5 Pa3 Si12 Rh4'
_cell_volume   453.34291618
_cell_formula_units_Z   1
loop_
 _symmetry_equiv_pos_site_id
 _symmetry_equiv_pos_as_xyz
  1  'x, y, z'
loop_
 _atom_site_type_symbol
 _atom_site_label
 _atom_site_symmetry_multiplicity
 _atom_site_fract_x
 _atom_site_fract_y
 _atom_site_fract_z
 _atom_site_occupancy
  Tm  Tm0  1  0.494764  0.990463  0.250000  1
  Tm  Tm1  1  0.009537  0.505236  0.250000  1
  Tm  Tm2  1  0.505089  0.494911  0.750000  1
  Tm  Tm3  1  0.990491  0.494845  0.750000  1
  Tm  Tm4  1  0.505155  0.009509  0.750000  1
  Pa  Pa5  1  0.000152  0.999848  0.250000  1
  Pa  Pa6  1  0.000084  0.999916  0.750000  1
  Pa  Pa7  1  0.496460  0.503540  0.250000  1
  Si  Si8  1  0.831906  0.168094  0.497660  1
  Si  Si9  1  0.836387  0.669676  0.500660  1
  Si  Si10  1  0.330324  0.163613  0.500660  1
  Si  Si11  1  0.831906  0.168094  0.002340  1
  Si  Si12  1  0.836387  0.669676  0.999340  1
  Si  Si13  1  0.330324  0.163613  0.999340  1
  Si  Si14  1  0.167791  0.832209  0.000780  1
  Si  Si15  1  0.669655  0.836432  0.998232  1
  Si  Si16  1  0.163568  0.330345  0.998232  1
  Si  Si17  1  0.167791  0.832209  0.499220  1
  Si  Si18  1  0.669655  0.836432  0.501768  1
  Si  Si19  1  0.163568  0.330345  0.501768  1
  Rh  Rh20  1  0.663333  0.336667  0.480743  1
  Rh  Rh21  1  0.663333  0.336667  0.019257  1
  Rh  Rh22  1  0.336170  0.663830  0.989679  1
  Rh  Rh23  1  0.336170  0.663830  0.510321  1
