# generated using pymatgen
data_Rb5(IrN)3
_symmetry_space_group_name_H-M   'P 1'
_cell_length_a   9.73965500
_cell_length_b   9.73965505
_cell_length_c   3.72602500
_cell_angle_alpha   90.00000000
_cell_angle_beta   90.00000000
_cell_angle_gamma   119.99999644
_symmetry_Int_Tables_number   1
_chemical_formula_structural   Rb5(IrN)3
_chemical_formula_sum   'Rb5 Ir3 N3'
_cell_volume   306.10016308
_cell_formula_units_Z   1
loop_
 _symmetry_equiv_pos_site_id
 _symmetry_equiv_pos_as_xyz
  1  'x, y, z'
loop_
 _atom_site_type_symbol
 _atom_site_label
 _atom_site_symmetry_multiplicity
 _atom_site_fract_x
 _atom_site_fract_y
 _atom_site_fract_z
 _atom_site_occupancy
  Rb  Rb0  1  0.735530  0.000000  0.500000  1
  Rb  Rb1  1  0.264471  0.264471  0.500000  1
  Rb  Rb2  1  0.666666  0.333333  0.500000  1
  Rb  Rb3  1  0.333334  0.666667  0.500000  1
  Rb  Rb4  1  0.000000  0.735530  0.500000  1
  Ir  Ir5  1  0.364200  0.000000  0.000000  1
  Ir  Ir6  1  0.000000  0.364200  0.000000  1
  Ir  Ir7  1  0.635800  0.635800  0.000000  1
  N  N8  1  0.364685  0.000000  0.500000  1
  N  N9  1  0.000000  0.364685  0.500000  1
  N  N10  1  0.635316  0.635315  0.500000  1
