# generated using pymatgen
data_TmZnCu3Au
_symmetry_space_group_name_H-M   'P 1'
_cell_length_a   5.05551733
_cell_length_b   5.05551724
_cell_length_c   5.04264039
_cell_angle_alpha   59.91549858
_cell_angle_beta   59.91549782
_cell_angle_gamma   60.00000835
_symmetry_Int_Tables_number   1
_chemical_formula_structural   TmZnCu3Au
_chemical_formula_sum   'Tm1 Zn1 Cu3 Au1'
_cell_volume   91.01612559
_cell_formula_units_Z   1
loop_
 _symmetry_equiv_pos_site_id
 _symmetry_equiv_pos_as_xyz
  1  'x, y, z'
loop_
 _atom_site_type_symbol
 _atom_site_label
 _atom_site_symmetry_multiplicity
 _atom_site_fract_x
 _atom_site_fract_y
 _atom_site_fract_z
 _atom_site_occupancy
  Tm  Tm0  1  0.002191  0.002191  0.993425  1
  Zn  Zn1  1  0.622321  0.622321  0.133038  1
  Cu  Cu2  1  0.624097  0.125767  0.626039  1
  Cu  Cu3  1  0.125767  0.624097  0.626039  1
  Cu  Cu4  1  0.624097  0.624097  0.626039  1
  Au  Au5  1  0.251526  0.251526  0.245421  1
