# generated using pymatgen
data_La2YHo(Zn5Sn)2
_symmetry_space_group_name_H-M   'P 1'
_cell_length_a   8.51095744
_cell_length_b   8.51095813
_cell_length_c   9.08970700
_cell_angle_alpha   90.00000000
_cell_angle_beta   90.00000000
_cell_angle_gamma   149.64995540
_symmetry_Int_Tables_number   1
_chemical_formula_structural   La2YHo(Zn5Sn)2
_chemical_formula_sum   'La2 Y1 Ho1 Zn10 Sn2'
_cell_volume   332.69035014
_cell_formula_units_Z   1
loop_
 _symmetry_equiv_pos_site_id
 _symmetry_equiv_pos_as_xyz
  1  'x, y, z'
loop_
 _atom_site_type_symbol
 _atom_site_label
 _atom_site_symmetry_multiplicity
 _atom_site_fract_x
 _atom_site_fract_y
 _atom_site_fract_z
 _atom_site_occupancy
  La  La0  1  0.000076  0.999924  0.499863  1
  La  La1  1  0.000076  0.999924  0.000137  1
  Y  Y2  1  0.794359  0.205641  0.750000  1
  Ho  Ho3  1  0.205828  0.794172  0.250000  1
  Zn  Zn4  1  0.812146  0.187854  0.389206  1
  Zn  Zn5  1  0.187672  0.812328  0.610382  1
  Zn  Zn6  1  0.812146  0.187854  0.110794  1
  Zn  Zn7  1  0.187672  0.812328  0.889618  1
  Zn  Zn8  1  0.659136  0.340864  0.483822  1
  Zn  Zn9  1  0.340853  0.659147  0.515783  1
  Zn  Zn10  1  0.659136  0.340864  0.016178  1
  Zn  Zn11  1  0.340853  0.659147  0.984217  1
  Zn  Zn12  1  0.394991  0.605009  0.250000  1
  Zn  Zn13  1  0.604876  0.395124  0.750000  1
  Sn  Sn14  1  0.559709  0.440291  0.250000  1
  Sn  Sn15  1  0.440472  0.559528  0.750000  1
