# generated using pymatgen
data_ZrMnBr6
_symmetry_space_group_name_H-M   'P 1'
_cell_length_a   6.82202400
_cell_length_b   6.82202256
_cell_length_c   14.28509300
_cell_angle_alpha   90.00000000
_cell_angle_beta   90.00000000
_cell_angle_gamma   119.99999730
_symmetry_Int_Tables_number   1
_chemical_formula_structural   ZrMnBr6
_chemical_formula_sum   'Zr2 Mn2 Br12'
_cell_volume   575.75817038
_cell_formula_units_Z   2
loop_
 _symmetry_equiv_pos_site_id
 _symmetry_equiv_pos_as_xyz
  1  'x, y, z'
loop_
 _atom_site_type_symbol
 _atom_site_label
 _atom_site_symmetry_multiplicity
 _atom_site_fract_x
 _atom_site_fract_y
 _atom_site_fract_z
 _atom_site_occupancy
  Zr  Zr0  1  0.333333  0.666667  0.250000  1
  Zr  Zr1  1  0.666667  0.333333  0.750000  1
  Mn  Mn2  1  0.000000  0.000000  0.250000  1
  Mn  Mn3  1  0.000000  0.000000  0.750000  1
  Br  Br4  1  0.662488  0.972630  0.142395  1
  Br  Br5  1  0.027370  0.689858  0.142395  1
  Br  Br6  1  0.310142  0.337512  0.142395  1
  Br  Br7  1  0.027370  0.337512  0.357605  1
  Br  Br8  1  0.337512  0.310142  0.642395  1
  Br  Br9  1  0.689858  0.027370  0.642395  1
  Br  Br10  1  0.972630  0.662488  0.642395  1
  Br  Br11  1  0.689858  0.662488  0.857605  1
  Br  Br12  1  0.972630  0.310142  0.857605  1
  Br  Br13  1  0.337512  0.027370  0.857605  1
  Br  Br14  1  0.662488  0.689858  0.357605  1
  Br  Br15  1  0.310142  0.972630  0.357605  1
