# generated using pymatgen
data_Y3Cd3AgIrAu
_symmetry_space_group_name_H-M   'P 1'
_cell_length_a   7.94562000
_cell_length_b   7.94562070
_cell_length_c   3.75243400
_cell_angle_alpha   90.00000000
_cell_angle_beta   90.00000000
_cell_angle_gamma   120.00000541
_symmetry_Int_Tables_number   1
_chemical_formula_structural   Y3Cd3AgIrAu
_chemical_formula_sum   'Y3 Cd3 Ag1 Ir1 Au1'
_cell_volume   205.16311801
_cell_formula_units_Z   1
loop_
 _symmetry_equiv_pos_site_id
 _symmetry_equiv_pos_as_xyz
  1  'x, y, z'
loop_
 _atom_site_type_symbol
 _atom_site_label
 _atom_site_symmetry_multiplicity
 _atom_site_fract_x
 _atom_site_fract_y
 _atom_site_fract_z
 _atom_site_occupancy
  Y  Y0  1  0.579675  0.974227  0.000000  1
  Y  Y1  1  0.025773  0.605448  0.000000  1
  Y  Y2  1  0.394552  0.420325  0.000000  1
  Cd  Cd3  1  0.268602  0.003903  0.500000  1
  Cd  Cd4  1  0.996097  0.264700  0.500000  1
  Cd  Cd5  1  0.735300  0.731398  0.500000  1
  Ag  Ag6  1  0.000000  0.000000  0.000000  1
  Ir  Ir7  1  0.333333  0.666667  0.500000  1
  Au  Au8  1  0.666667  0.333333  0.500000  1
