# generated using pymatgen
data_YEr2Ga3(Ni3Sn)3
_symmetry_space_group_name_H-M   'P 1'
_cell_length_a   9.13618900
_cell_length_b   9.13618845
_cell_length_c   4.06534700
_cell_angle_alpha   90.00000000
_cell_angle_beta   90.00000000
_cell_angle_gamma   119.99999113
_symmetry_Int_Tables_number   1
_chemical_formula_structural   YEr2Ga3(Ni3Sn)3
_chemical_formula_sum   'Y1 Er2 Ga3 Ni9 Sn3'
_cell_volume   293.87214021
_cell_formula_units_Z   1
loop_
 _symmetry_equiv_pos_site_id
 _symmetry_equiv_pos_as_xyz
  1  'x, y, z'
loop_
 _atom_site_type_symbol
 _atom_site_label
 _atom_site_symmetry_multiplicity
 _atom_site_fract_x
 _atom_site_fract_y
 _atom_site_fract_z
 _atom_site_occupancy
  Y  Y0  1  0.666667  0.333333  0.500000  1
  Er  Er1  1  0.333333  0.666667  0.500000  1
  Er  Er2  1  0.000000  0.000000  0.000000  1
  Ga  Ga3  1  0.744235  0.744363  0.500000  1
  Ga  Ga4  1  0.255637  0.999872  0.500000  1
  Ga  Ga5  1  0.000128  0.255765  0.500000  1
  Ni  Ni6  1  0.838126  0.201752  0.000000  1
  Ni  Ni7  1  0.798248  0.636374  0.000000  1
  Ni  Ni8  1  0.363626  0.161874  0.000000  1
  Ni  Ni9  1  0.202476  0.837299  0.000000  1
  Ni  Ni10  1  0.634822  0.797524  0.000000  1
  Ni  Ni11  1  0.162701  0.365178  0.000000  1
  Ni  Ni12  1  0.281326  0.281729  0.500000  1
  Ni  Ni13  1  0.718271  0.999597  0.500000  1
  Ni  Ni14  1  0.000403  0.718674  0.500000  1
  Sn  Sn15  1  0.473702  0.474125  0.000000  1
  Sn  Sn16  1  0.525875  0.999577  0.000000  1
  Sn  Sn17  1  0.000423  0.526298  0.000000  1
