# generated using pymatgen
data_Fe6SnP8PbO28
_symmetry_space_group_name_H-M   'P 1'
_cell_length_a   7.88374719
_cell_length_b   7.66920213
_cell_length_c   9.70784789
_cell_angle_alpha   67.84039998
_cell_angle_beta   90.03414229
_cell_angle_gamma   90.11762414
_symmetry_Int_Tables_number   1
_chemical_formula_structural   Fe6SnP8PbO28
_chemical_formula_sum   'Fe6 Sn1 P8 Pb1 O28'
_cell_volume   543.60074407
_cell_formula_units_Z   1
loop_
 _symmetry_equiv_pos_site_id
 _symmetry_equiv_pos_as_xyz
  1  'x, y, z'
loop_
 _atom_site_type_symbol
 _atom_site_label
 _atom_site_symmetry_multiplicity
 _atom_site_fract_x
 _atom_site_fract_y
 _atom_site_fract_z
 _atom_site_occupancy
  Fe  Fe0  1  0.622850  0.688646  0.471971  1
  Fe  Fe1  1  0.123026  0.311441  0.027975  1
  Fe  Fe2  1  0.377150  0.311354  0.528029  1
  Fe  Fe3  1  0.876974  0.688559  0.972025  1
  Fe  Fe4  1  0.500000  0.500000  0.000000  1
  Fe  Fe5  1  0.000000  0.500000  0.500000  1
  Sn  Sn6  1  0.500000  0.000000  0.000000  1
  P  P7  1  0.554786  0.895729  0.703686  1
  P  P8  1  0.056177  0.104727  0.797360  1
  P  P9  1  0.445214  0.104271  0.296314  1
  P  P10  1  0.943823  0.895273  0.202640  1
  P  P11  1  0.296712  0.612912  0.693452  1
  P  P12  1  0.796085  0.385628  0.807158  1
  P  P13  1  0.703288  0.387088  0.306548  1
  P  P14  1  0.203915  0.614372  0.192842  1
  Pb  Pb15  1  0.000000  0.000000  0.500000  1
  O  O16  1  0.514008  0.095514  0.693698  1
  O  O17  1  0.014509  0.904948  0.807269  1
  O  O18  1  0.485992  0.904486  0.306302  1
  O  O19  1  0.985491  0.095052  0.192731  1
  O  O20  1  0.676877  0.877966  0.588134  1
  O  O21  1  0.178586  0.121573  0.913269  1
  O  O22  1  0.323123  0.122034  0.411866  1
  O  O23  1  0.821414  0.878427  0.086731  1
  O  O24  1  0.612409  0.774224  0.865416  1
  O  O25  1  0.114156  0.227184  0.635949  1
  O  O26  1  0.387591  0.225776  0.134584  1
  O  O27  1  0.885844  0.772816  0.364051  1
  O  O28  1  0.371217  0.815549  0.679674  1
  O  O29  1  0.872539  0.184389  0.820620  1
  O  O30  1  0.628783  0.184451  0.320326  1
  O  O31  1  0.127461  0.815611  0.179380  1
  O  O32  1  0.126790  0.657338  0.610873  1
  O  O33  1  0.626189  0.338002  0.890207  1
  O  O34  1  0.873210  0.342662  0.389127  1
  O  O35  1  0.373811  0.661998  0.109793  1
  O  O36  1  0.421803  0.528964  0.614458  1
  O  O37  1  0.920466  0.470717  0.886449  1
  O  O38  1  0.578197  0.471036  0.385542  1
  O  O39  1  0.079534  0.529283  0.113551  1
  O  O40  1  0.285494  0.501499  0.861874  1
  O  O41  1  0.784648  0.497940  0.638820  1
  O  O42  1  0.714506  0.498501  0.138126  1
  O  O43  1  0.215352  0.502060  0.361180  1
