# generated using pymatgen
data_Th2Zn4Cu5Au3
_symmetry_space_group_name_H-M   'P 1'
_cell_length_a   5.22886200
_cell_length_b   8.39647160
_cell_length_c   10.84378151
_cell_angle_alpha   90.10532423
_cell_angle_beta   90.00000000
_cell_angle_gamma   90.00000000
_symmetry_Int_Tables_number   1
_chemical_formula_structural   Th2Zn4Cu5Au3
_chemical_formula_sum   'Th4 Zn8 Cu10 Au6'
_cell_volume   476.08448460
_cell_formula_units_Z   2
loop_
 _symmetry_equiv_pos_site_id
 _symmetry_equiv_pos_as_xyz
  1  'x, y, z'
loop_
 _atom_site_type_symbol
 _atom_site_label
 _atom_site_symmetry_multiplicity
 _atom_site_fract_x
 _atom_site_fract_y
 _atom_site_fract_z
 _atom_site_occupancy
  Th  Th0  1  0.250000  0.246777  0.562001  1
  Th  Th1  1  0.750000  0.753223  0.437999  1
  Th  Th2  1  0.250000  0.757727  0.926476  1
  Th  Th3  1  0.750000  0.242273  0.073524  1
  Zn  Zn4  1  0.750000  0.346106  0.351890  1
  Zn  Zn5  1  0.250000  0.653894  0.648110  1
  Zn  Zn6  1  0.750000  0.852858  0.151887  1
  Zn  Zn7  1  0.250000  0.147142  0.848113  1
  Zn  Zn8  1  0.750000  0.684774  0.741119  1
  Zn  Zn9  1  0.250000  0.315226  0.258881  1
  Zn  Zn10  1  0.750000  0.181350  0.748366  1
  Zn  Zn11  1  0.250000  0.818650  0.251634  1
  Cu  Cu12  1  0.508981  0.567056  0.200704  1
  Cu  Cu13  1  0.008981  0.432944  0.799296  1
  Cu  Cu14  1  0.992903  0.064198  0.315628  1
  Cu  Cu15  1  0.492903  0.935802  0.684372  1
  Cu  Cu16  1  0.750000  0.089593  0.515635  1
  Cu  Cu17  1  0.250000  0.910407  0.484365  1
  Cu  Cu18  1  0.507097  0.064198  0.315628  1
  Cu  Cu19  1  0.007097  0.935802  0.684372  1
  Cu  Cu20  1  0.991019  0.567056  0.200704  1
  Cu  Cu21  1  0.491019  0.432944  0.799296  1
  Au  Au22  1  0.750000  0.944574  0.910758  1
  Au  Au23  1  0.250000  0.055426  0.089242  1
  Au  Au24  1  0.750000  0.434926  0.583258  1
  Au  Au25  1  0.250000  0.565074  0.416742  1
  Au  Au26  1  0.750000  0.590752  0.984390  1
  Au  Au27  1  0.250000  0.409248  0.015610  1
