# generated using pymatgen
data_SmPa3Si4Ir3Pt
_symmetry_space_group_name_H-M   'P 1'
_cell_length_a   4.27134300
_cell_length_b   7.08158357
_cell_length_c   7.51009449
_cell_angle_alpha   90.22570864
_cell_angle_beta   90.00000000
_cell_angle_gamma   90.00000000
_symmetry_Int_Tables_number   1
_chemical_formula_structural   SmPa3Si4Ir3Pt
_chemical_formula_sum   'Sm1 Pa3 Si4 Ir3 Pt1'
_cell_volume   227.16261735
_cell_formula_units_Z   1
loop_
 _symmetry_equiv_pos_site_id
 _symmetry_equiv_pos_as_xyz
  1  'x, y, z'
loop_
 _atom_site_type_symbol
 _atom_site_label
 _atom_site_symmetry_multiplicity
 _atom_site_fract_x
 _atom_site_fract_y
 _atom_site_fract_z
 _atom_site_occupancy
  Sm  Sm0  1  0.250000  0.991558  0.296435  1
  Pa  Pa1  1  0.250000  0.497851  0.197586  1
  Pa  Pa2  1  0.750000  0.507874  0.800021  1
  Pa  Pa3  1  0.750000  0.000922  0.709691  1
  Si  Si4  1  0.250000  0.813774  0.915831  1
  Si  Si5  1  0.750000  0.194114  0.084824  1
  Si  Si6  1  0.750000  0.688635  0.413911  1
  Si  Si7  1  0.250000  0.313346  0.586205  1
  Ir  Ir8  1  0.250000  0.706086  0.591914  1
  Ir  Ir9  1  0.750000  0.772459  0.079124  1
  Ir  Ir10  1  0.250000  0.218291  0.909149  1
  Pt  Pt11  1  0.750000  0.295092  0.415309  1
