# generated using pymatgen
data_KCdSiAs2
_symmetry_space_group_name_H-M   'P 1'
_cell_length_a   8.24124024
_cell_length_b   8.46780548
_cell_length_c   8.68751373
_cell_angle_alpha   70.67455865
_cell_angle_beta   75.69017136
_cell_angle_gamma   73.31007778
_symmetry_Int_Tables_number   1
_chemical_formula_structural   KCdSiAs2
_chemical_formula_sum   'K4 Cd4 Si4 As8'
_cell_volume   540.18247445
_cell_formula_units_Z   4
loop_
 _symmetry_equiv_pos_site_id
 _symmetry_equiv_pos_as_xyz
  1  'x, y, z'
loop_
 _atom_site_type_symbol
 _atom_site_label
 _atom_site_symmetry_multiplicity
 _atom_site_fract_x
 _atom_site_fract_y
 _atom_site_fract_z
 _atom_site_occupancy
  K  K0  1  0.454137  0.764355  0.321283  1
  K  K1  1  0.545863  0.235645  0.678717  1
  K  K2  1  0.439004  0.800439  0.813105  1
  K  K3  1  0.560996  0.199561  0.186895  1
  Cd  Cd4  1  0.994055  0.898085  0.687756  1
  Cd  Cd5  1  0.005945  0.101915  0.312244  1
  Cd  Cd6  1  0.969602  0.822036  0.168907  1
  Cd  Cd7  1  0.030398  0.177964  0.831093  1
  Si  Si8  1  0.959456  0.584262  0.596389  1
  Si  Si9  1  0.040544  0.415738  0.403611  1
  Si  Si10  1  0.148765  0.447953  0.976696  1
  Si  Si11  1  0.851235  0.552047  0.023304  1
  As  As12  1  0.799901  0.865981  0.469258  1
  As  As13  1  0.200099  0.134019  0.530742  1
  As  As14  1  0.781591  0.413785  0.315105  1
  As  As15  1  0.218409  0.586215  0.684895  1
  As  As16  1  0.758660  0.860499  0.964820  1
  As  As17  1  0.241340  0.139501  0.035180  1
  As  As18  1  0.763309  0.454105  0.829264  1
  As  As19  1  0.236691  0.545895  0.170736  1
