# generated using pymatgen
data_Ho6Tm10In4NiRh3
_symmetry_space_group_name_H-M   'P 1'
_cell_length_a   9.52076881
_cell_length_b   9.51702172
_cell_length_c   9.54081885
_cell_angle_alpha   60.07241345
_cell_angle_beta   60.09016975
_cell_angle_gamma   60.14402080
_symmetry_Int_Tables_number   1
_chemical_formula_structural   Ho6Tm10In4NiRh3
_chemical_formula_sum   'Ho6 Tm10 In4 Ni1 Rh3'
_cell_volume   612.70000206
_cell_formula_units_Z   1
loop_
 _symmetry_equiv_pos_site_id
 _symmetry_equiv_pos_as_xyz
  1  'x, y, z'
loop_
 _atom_site_type_symbol
 _atom_site_label
 _atom_site_symmetry_multiplicity
 _atom_site_fract_x
 _atom_site_fract_y
 _atom_site_fract_z
 _atom_site_occupancy
  Ho  Ho0  1  0.062580  0.062746  0.437331  1
  Ho  Ho1  1  0.433970  0.064766  0.436160  1
  Ho  Ho2  1  0.061494  0.438512  0.060805  1
  Ho  Ho3  1  0.048988  0.651618  0.647443  1
  Ho  Ho4  1  0.436606  0.436094  0.062633  1
  Ho  Ho5  1  0.651499  0.049170  0.645691  1
  Tm  Tm6  1  0.187798  0.810267  0.190107  1
  Tm  Tm7  1  0.188762  0.188916  0.811531  1
  Tm  Tm8  1  0.810750  0.811219  0.191831  1
  Tm  Tm9  1  0.440300  0.058225  0.057663  1
  Tm  Tm10  1  0.811588  0.187529  0.189398  1
  Tm  Tm11  1  0.060974  0.437068  0.439867  1
  Tm  Tm12  1  0.810010  0.190080  0.811437  1
  Tm  Tm13  1  0.189973  0.810741  0.811827  1
  Tm  Tm14  1  0.648971  0.646908  0.051349  1
  Tm  Tm15  1  0.652598  0.654733  0.650973  1
  In  In16  1  0.415592  0.416368  0.417604  1
  In  In17  1  0.748648  0.418779  0.417642  1
  In  In18  1  0.418924  0.748284  0.417193  1
  In  In19  1  0.418172  0.417503  0.747474  1
  Ni  Ni20  1  0.860670  0.857517  0.423973  1
  Rh  Rh21  1  0.856032  0.857733  0.860293  1
  Rh  Rh22  1  0.426403  0.858993  0.861180  1
  Rh  Rh23  1  0.858701  0.426232  0.858601  1
