# generated using pymatgen
data_Zr7CrFe9Co7P12
_symmetry_space_group_name_H-M   'P 1'
_cell_length_a   12.07640643
_cell_length_b   12.06385304
_cell_length_c   3.65289700
_cell_angle_alpha   90.00000000
_cell_angle_beta   90.00000000
_cell_angle_gamma   120.08222571
_symmetry_Int_Tables_number   1
_chemical_formula_structural   Zr7CrFe9Co7P12
_chemical_formula_sum   'Zr7 Cr1 Fe9 Co7 P12'
_cell_volume   460.50185214
_cell_formula_units_Z   1
loop_
 _symmetry_equiv_pos_site_id
 _symmetry_equiv_pos_as_xyz
  1  'x, y, z'
loop_
 _atom_site_type_symbol
 _atom_site_label
 _atom_site_symmetry_multiplicity
 _atom_site_fract_x
 _atom_site_fract_y
 _atom_site_fract_z
 _atom_site_occupancy
  Zr  Zr0  1  0.557496  0.999863  0.000000  1
  Zr  Zr1  1  0.999337  0.557408  0.000000  1
  Zr  Zr2  1  0.665393  0.335178  0.000000  1
  Zr  Zr3  1  0.335034  0.664963  0.000000  1
  Zr  Zr4  1  0.811030  0.810630  0.500000  1
  Zr  Zr5  1  0.182000  0.001929  0.500000  1
  Zr  Zr6  1  0.000498  0.181032  0.500000  1
  Cr  Cr7  1  0.441580  0.441746  0.000000  1
  Fe  Fe8  1  0.201011  0.374282  0.000000  1
  Fe  Fe9  1  0.180287  0.808536  0.000000  1
  Fe  Fe10  1  0.816952  0.626325  0.000000  1
  Fe  Fe11  1  0.807877  0.178529  0.000000  1
  Fe  Fe12  1  0.374761  0.201980  0.000000  1
  Fe  Fe13  1  0.129684  0.478470  0.500000  1
  Fe  Fe14  1  0.353996  0.876865  0.500000  1
  Fe  Fe15  1  0.516669  0.639235  0.500000  1
  Fe  Fe16  1  0.637739  0.516469  0.500000  1
  Co  Co17  1  0.874652  0.356491  0.500000  1
  Co  Co18  1  0.482512  0.131178  0.500000  1
  Co  Co19  1  0.000971  0.000466  0.000000  1
  Co  Co20  1  0.723394  0.996599  0.500000  1
  Co  Co21  1  0.998673  0.724473  0.500000  1
  Co  Co22  1  0.627885  0.816992  0.000000  1
  Co  Co23  1  0.281585  0.281885  0.500000  1
  P  P24  1  0.637251  0.635012  0.000000  1
  P  P25  1  0.350027  0.007076  0.000000  1
  P  P26  1  0.003761  0.348215  0.000000  1
  P  P27  1  0.480066  0.315659  0.500000  1
  P  P28  1  0.694832  0.175478  0.500000  1
  P  P29  1  0.822793  0.519700  0.500000  1
  P  P30  1  0.517639  0.823106  0.500000  1
  P  P31  1  0.174442  0.692742  0.500000  1
  P  P32  1  0.824149  0.999926  0.000000  1
  P  P33  1  0.998421  0.822424  0.000000  1
  P  P34  1  0.316680  0.480579  0.500000  1
  P  P35  1  0.178920  0.178557  0.000000  1
