# generated using pymatgen
data_Ho4Zn3GaNi4
_symmetry_space_group_name_H-M   'P 1'
_cell_length_a   6.74972516
_cell_length_b   4.07361800
_cell_length_c   7.70454798
_cell_angle_alpha   90.00000000
_cell_angle_beta   89.81311182
_cell_angle_gamma   90.00000000
_symmetry_Int_Tables_number   1
_chemical_formula_structural   Ho4Zn3GaNi4
_chemical_formula_sum   'Ho4 Zn3 Ga1 Ni4'
_cell_volume   211.84159808
_cell_formula_units_Z   1
loop_
 _symmetry_equiv_pos_site_id
 _symmetry_equiv_pos_as_xyz
  1  'x, y, z'
loop_
 _atom_site_type_symbol
 _atom_site_label
 _atom_site_symmetry_multiplicity
 _atom_site_fract_x
 _atom_site_fract_y
 _atom_site_fract_z
 _atom_site_occupancy
  Ho  Ho0  1  0.032154  0.250000  0.186129  1
  Ho  Ho1  1  0.469516  0.750000  0.686153  1
  Ho  Ho2  1  0.529103  0.250000  0.313194  1
  Ho  Ho3  1  0.968119  0.750000  0.815875  1
  Zn  Zn4  1  0.149448  0.250000  0.566554  1
  Zn  Zn5  1  0.354750  0.750000  0.064069  1
  Zn  Zn6  1  0.647725  0.250000  0.935202  1
  Ga  Ga7  1  0.851915  0.750000  0.436107  1
  Ni  Ni8  1  0.766222  0.250000  0.611806  1
  Ni  Ni9  1  0.736631  0.750000  0.120255  1
  Ni  Ni10  1  0.265024  0.250000  0.881889  1
  Ni  Ni11  1  0.229397  0.750000  0.382766  1
