# generated using pymatgen
data_SrHf2Si6PbO18
_symmetry_space_group_name_H-M   'P 1'
_cell_length_a   6.69474100
_cell_length_b   6.69474094
_cell_length_c   10.11151600
_cell_angle_alpha   90.00000000
_cell_angle_beta   90.00000000
_cell_angle_gamma   119.99999534
_symmetry_Int_Tables_number   1
_chemical_formula_structural   SrHf2Si6PbO18
_chemical_formula_sum   'Sr1 Hf2 Si6 Pb1 O18'
_cell_volume   392.47724462
_cell_formula_units_Z   1
loop_
 _symmetry_equiv_pos_site_id
 _symmetry_equiv_pos_as_xyz
  1  'x, y, z'
loop_
 _atom_site_type_symbol
 _atom_site_label
 _atom_site_symmetry_multiplicity
 _atom_site_fract_x
 _atom_site_fract_y
 _atom_site_fract_z
 _atom_site_occupancy
  Sr  Sr0  1  0.000000  0.000000  0.000000  1
  Hf  Hf1  1  0.333333  0.666667  0.000000  1
  Hf  Hf2  1  0.333333  0.666667  0.500000  1
  Si  Si3  1  0.947280  0.381835  0.750317  1
  Si  Si4  1  0.618165  0.565446  0.750317  1
  Si  Si5  1  0.434554  0.052720  0.750317  1
  Si  Si6  1  0.947280  0.565446  0.249683  1
  Si  Si7  1  0.618165  0.052720  0.249683  1
  Si  Si8  1  0.434554  0.381835  0.249683  1
  Pb  Pb9  1  0.000000  0.000000  0.500000  1
  O  O10  1  0.871617  0.581237  0.750191  1
  O  O11  1  0.418763  0.290380  0.750191  1
  O  O12  1  0.709620  0.128383  0.750191  1
  O  O13  1  0.871617  0.290380  0.249809  1
  O  O14  1  0.418763  0.128383  0.249809  1
  O  O15  1  0.709620  0.581237  0.249809  1
  O  O16  1  0.087654  0.396042  0.884876  1
  O  O17  1  0.603958  0.691612  0.884876  1
  O  O18  1  0.308388  0.912346  0.884876  1
  O  O19  1  0.088000  0.397192  0.615248  1
  O  O20  1  0.602808  0.690808  0.615248  1
  O  O21  1  0.309192  0.912000  0.615248  1
  O  O22  1  0.088000  0.690808  0.384752  1
  O  O23  1  0.602808  0.912000  0.384752  1
  O  O24  1  0.309192  0.397192  0.384752  1
  O  O25  1  0.087654  0.691612  0.115124  1
  O  O26  1  0.603958  0.912346  0.115124  1
  O  O27  1  0.308388  0.396042  0.115124  1
