# generated using pymatgen
data_Pr5Nd7Os3Rh
_symmetry_space_group_name_H-M   'P 1'
_cell_length_a   6.55847633
_cell_length_b   7.50170669
_cell_length_c   9.74701355
_cell_angle_alpha   90.04053916
_cell_angle_beta   90.07224530
_cell_angle_gamma   90.10175220
_symmetry_Int_Tables_number   1
_chemical_formula_structural   Pr5Nd7Os3Rh
_chemical_formula_sum   'Pr5 Nd7 Os3 Rh1'
_cell_volume   479.54952581
_cell_formula_units_Z   1
loop_
 _symmetry_equiv_pos_site_id
 _symmetry_equiv_pos_as_xyz
  1  'x, y, z'
loop_
 _atom_site_type_symbol
 _atom_site_label
 _atom_site_symmetry_multiplicity
 _atom_site_fract_x
 _atom_site_fract_y
 _atom_site_fract_z
 _atom_site_occupancy
  Pr  Pr0  1  0.332758  0.674621  0.065050  1
  Pr  Pr1  1  0.857907  0.537310  0.250269  1
  Pr  Pr2  1  0.640382  0.041943  0.250119  1
  Pr  Pr3  1  0.140639  0.462828  0.749862  1
  Pr  Pr4  1  0.356921  0.961741  0.749816  1
  Nd  Nd5  1  0.170198  0.178371  0.434261  1
  Nd  Nd6  1  0.671230  0.322818  0.567316  1
  Nd  Nd7  1  0.826940  0.823827  0.930183  1
  Nd  Nd8  1  0.671486  0.322518  0.932520  1
  Nd  Nd9  1  0.826966  0.823789  0.569610  1
  Nd  Nd10  1  0.333063  0.673918  0.434799  1
  Nd  Nd11  1  0.170127  0.178366  0.065635  1
  Os  Os12  1  0.444291  0.383659  0.250708  1
  Os  Os13  1  0.947170  0.114448  0.749992  1
  Os  Os14  1  0.554536  0.615130  0.749337  1
  Rh  Rh15  1  0.055388  0.884715  0.250523  1
