# generated using pymatgen
data_Tb17Pa3Rh16
_symmetry_space_group_name_H-M   'P 1'
_cell_length_a   7.46513460
_cell_length_b   7.50437527
_cell_length_c   14.51098665
_cell_angle_alpha   90.06985778
_cell_angle_beta   89.95638969
_cell_angle_gamma   90.10985526
_symmetry_Int_Tables_number   1
_chemical_formula_structural   Tb17Pa3Rh16
_chemical_formula_sum   'Tb17 Pa3 Rh16'
_cell_volume   812.92013892
_cell_formula_units_Z   1
loop_
 _symmetry_equiv_pos_site_id
 _symmetry_equiv_pos_as_xyz
  1  'x, y, z'
loop_
 _atom_site_type_symbol
 _atom_site_label
 _atom_site_symmetry_multiplicity
 _atom_site_fract_x
 _atom_site_fract_y
 _atom_site_fract_z
 _atom_site_occupancy
  Tb  Tb0  1  0.835638  0.660578  0.378415  1
  Tb  Tb1  1  0.335044  0.838320  0.378919  1
  Tb  Tb2  1  0.836654  0.660697  0.119291  1
  Tb  Tb3  1  0.661781  0.160617  0.880776  1
  Tb  Tb4  1  0.163751  0.337140  0.621377  1
  Tb  Tb5  1  0.511253  0.682265  0.592767  1
  Tb  Tb6  1  0.012402  0.816606  0.905769  1
  Tb  Tb7  1  0.490546  0.319339  0.096003  1
  Tb  Tb8  1  0.989773  0.187976  0.405979  1
  Tb  Tb9  1  0.487145  0.319348  0.408061  1
  Tb  Tb10  1  0.984750  0.180414  0.093307  1
  Tb  Tb11  1  0.512509  0.679967  0.908707  1
  Tb  Tb12  1  0.012032  0.817892  0.590425  1
  Tb  Tb13  1  0.818804  0.514476  0.749076  1
  Tb  Tb14  1  0.320415  0.982851  0.751242  1
  Tb  Tb15  1  0.172182  0.488397  0.250420  1
  Tb  Tb16  1  0.684075  0.009293  0.252380  1
  Pa  Pa17  1  0.661461  0.155056  0.624149  1
  Pa  Pa18  1  0.161902  0.342555  0.877203  1
  Pa  Pa19  1  0.335660  0.842205  0.122740  1
  Rh  Rh20  1  0.694421  0.972305  0.469826  1
  Rh  Rh21  1  0.201448  0.543485  0.031596  1
  Rh  Rh22  1  0.296704  0.049530  0.965892  1
  Rh  Rh23  1  0.800624  0.438060  0.542255  1
  Rh  Rh24  1  0.337652  0.033133  0.548064  1
  Rh  Rh25  1  0.846170  0.462785  0.951812  1
  Rh  Rh26  1  0.646675  0.960998  0.048397  1
  Rh  Rh27  1  0.168678  0.529810  0.455896  1
  Rh  Rh28  1  0.461895  0.366468  0.750545  1
  Rh  Rh29  1  0.966862  0.134111  0.755743  1
  Rh  Rh30  1  0.528209  0.627848  0.241284  1
  Rh  Rh31  1  0.055165  0.880206  0.237722  1
  Rh  Rh32  1  0.701580  0.876324  0.741203  1
  Rh  Rh33  1  0.195323  0.625820  0.757903  1
  Rh  Rh34  1  0.319664  0.139489  0.245844  1
  Rh  Rh35  1  0.791151  0.363637  0.249007  1
