# generated using pymatgen
data_Li3Yb2ThPt3
_symmetry_space_group_name_H-M   'P 1'
_cell_length_a   7.18616285
_cell_length_b   7.18616312
_cell_length_c   4.12094000
_cell_angle_alpha   90.00000000
_cell_angle_beta   90.00000000
_cell_angle_gamma   119.39986994
_symmetry_Int_Tables_number   1
_chemical_formula_structural   Li3Yb2ThPt3
_chemical_formula_sum   'Li3 Yb2 Th1 Pt3'
_cell_volume   185.40255893
_cell_formula_units_Z   1
loop_
 _symmetry_equiv_pos_site_id
 _symmetry_equiv_pos_as_xyz
  1  'x, y, z'
loop_
 _atom_site_type_symbol
 _atom_site_label
 _atom_site_symmetry_multiplicity
 _atom_site_fract_x
 _atom_site_fract_y
 _atom_site_fract_z
 _atom_site_occupancy
  Li  Li0  1  0.988317  0.234571  0.500000  1
  Li  Li1  1  0.775374  0.775374  0.500000  1
  Li  Li2  1  0.234571  0.988317  0.500000  1
  Yb  Yb3  1  0.590702  0.999025  0.000000  1
  Yb  Yb4  1  0.999025  0.590702  0.000000  1
  Th  Th5  1  0.404092  0.404092  0.000000  1
  Pt  Pt6  1  0.654633  0.338476  0.500000  1
  Pt  Pt7  1  0.014809  0.014809  0.000000  1
  Pt  Pt8  1  0.338476  0.654633  0.500000  1
