# generated using pymatgen
data_YbSi2Ni9
_symmetry_space_group_name_H-M   'P 1'
_cell_length_a   7.53853151
_cell_length_b   7.53853199
_cell_length_c   7.53853101
_cell_angle_alpha   99.58127416
_cell_angle_beta   99.58127786
_cell_angle_gamma   131.84416497
_symmetry_Int_Tables_number   1
_chemical_formula_structural   YbSi2Ni9
_chemical_formula_sum   'Yb2 Si4 Ni18'
_cell_volume   291.38092912
_cell_formula_units_Z   2
loop_
 _symmetry_equiv_pos_site_id
 _symmetry_equiv_pos_as_xyz
  1  'x, y, z'
loop_
 _atom_site_type_symbol
 _atom_site_label
 _atom_site_symmetry_multiplicity
 _atom_site_fract_x
 _atom_site_fract_y
 _atom_site_fract_z
 _atom_site_occupancy
  Yb  Yb0  1  0.500000  0.500000  0.000000  1
  Yb  Yb1  1  0.750000  0.250000  0.500000  1
  Si  Si2  1  0.625000  0.875000  0.750000  1
  Si  Si3  1  0.125000  0.375000  0.250000  1
  Si  Si4  1  0.125000  0.875000  0.750000  1
  Si  Si5  1  0.125000  0.875000  0.250000  1
  Ni  Ni6  1  0.250000  0.750000  0.500000  1
  Ni  Ni7  1  0.000000  0.000000  0.000000  1
  Ni  Ni8  1  0.685998  0.012280  0.079208  1
  Ni  Ni9  1  0.685998  0.606791  0.673718  1
  Ni  Ni10  1  0.262280  0.435998  0.579208  1
  Ni  Ni11  1  0.262280  0.683072  0.826282  1
  Ni  Ni12  1  0.933072  0.012280  0.326282  1
  Ni  Ni13  1  0.933072  0.606791  0.920792  1
  Ni  Ni14  1  0.856791  0.435998  0.173718  1
  Ni  Ni15  1  0.856791  0.683072  0.420792  1
  Ni  Ni16  1  0.564002  0.737720  0.420792  1
  Ni  Ni17  1  0.564002  0.143209  0.826282  1
  Ni  Ni18  1  0.987720  0.314002  0.920792  1
  Ni  Ni19  1  0.987720  0.066928  0.673718  1
  Ni  Ni20  1  0.316928  0.737720  0.173718  1
  Ni  Ni21  1  0.316928  0.143209  0.579208  1
  Ni  Ni22  1  0.393209  0.314002  0.326282  1
  Ni  Ni23  1  0.393209  0.066928  0.079208  1
