# generated using pymatgen
data_Y13Er3(ScBi3)4
_symmetry_space_group_name_H-M   'P 1'
_cell_length_a   8.13086718
_cell_length_b   9.42371706
_cell_length_c   11.98823020
_cell_angle_alpha   90.00365081
_cell_angle_beta   90.02086965
_cell_angle_gamma   89.98770811
_symmetry_Int_Tables_number   1
_chemical_formula_structural   Y13Er3(ScBi3)4
_chemical_formula_sum   'Y13 Er3 Sc4 Bi12'
_cell_volume   918.57398032
_cell_formula_units_Z   1
loop_
 _symmetry_equiv_pos_site_id
 _symmetry_equiv_pos_as_xyz
  1  'x, y, z'
loop_
 _atom_site_type_symbol
 _atom_site_label
 _atom_site_symmetry_multiplicity
 _atom_site_fract_x
 _atom_site_fract_y
 _atom_site_fract_z
 _atom_site_occupancy
  Y  Y0  1  0.185469  0.749997  0.720505  1
  Y  Y1  1  0.685506  0.750117  0.779619  1
  Y  Y2  1  0.814562  0.249876  0.279581  1
  Y  Y3  1  0.314491  0.250099  0.220360  1
  Y  Y4  1  0.196761  0.563126  0.441132  1
  Y  Y5  1  0.696884  0.563369  0.058801  1
  Y  Y6  1  0.196836  0.936919  0.441163  1
  Y  Y7  1  0.303111  0.063355  0.941190  1
  Y  Y8  1  0.803118  0.436569  0.558844  1
  Y  Y9  1  0.354510  0.750256  0.214909  1
  Y  Y10  1  0.854091  0.750157  0.284814  1
  Y  Y11  1  0.645738  0.250043  0.784889  1
  Y  Y12  1  0.145766  0.250044  0.715084  1
  Er  Er13  1  0.302937  0.436096  0.941136  1
  Er  Er14  1  0.802865  0.063881  0.558907  1
  Er  Er15  1  0.697147  0.936116  0.058870  1
  Sc  Sc16  1  0.025753  0.750185  0.988265  1
  Sc  Sc17  1  0.526132  0.750045  0.511763  1
  Sc  Sc18  1  0.974248  0.250231  0.011739  1
  Sc  Sc19  1  0.474323  0.249812  0.488274  1
  Bi  Bi20  1  0.434864  0.003652  0.668448  1
  Bi  Bi21  1  0.934800  0.496371  0.831619  1
  Bi  Bi22  1  0.565436  0.503686  0.331472  1
  Bi  Bi23  1  0.065136  0.996411  0.168399  1
  Bi  Bi24  1  0.565537  0.996356  0.331593  1
  Bi  Bi25  1  0.065449  0.503686  0.168288  1
  Bi  Bi26  1  0.434558  0.496346  0.668543  1
  Bi  Bi27  1  0.934462  0.003710  0.831637  1
  Bi  Bi28  1  0.404614  0.749556  0.957953  1
  Bi  Bi29  1  0.904430  0.750643  0.542119  1
  Bi  Bi30  1  0.595380  0.249521  0.042009  1
  Bi  Bi31  1  0.095087  0.249769  0.458073  1
