# generated using pymatgen
data_CeSm11Dy4(CdCo)4
_symmetry_space_group_name_H-M   'P 1'
_cell_length_a   9.60233176
_cell_length_b   9.66501178
_cell_length_c   9.60130225
_cell_angle_alpha   60.37831422
_cell_angle_beta   59.83065858
_cell_angle_gamma   60.35014409
_symmetry_Int_Tables_number   1
_chemical_formula_structural   CeSm11Dy4(CdCo)4
_chemical_formula_sum   'Ce1 Sm11 Dy4 Cd4 Co4'
_cell_volume   632.70082717
_cell_formula_units_Z   1
loop_
 _symmetry_equiv_pos_site_id
 _symmetry_equiv_pos_as_xyz
  1  'x, y, z'
loop_
 _atom_site_type_symbol
 _atom_site_label
 _atom_site_symmetry_multiplicity
 _atom_site_fract_x
 _atom_site_fract_y
 _atom_site_fract_z
 _atom_site_occupancy
  Ce  Ce0  1  0.160226  0.515778  0.157707  1
  Sm  Sm1  1  0.685260  0.315510  0.688304  1
  Sm  Sm2  1  0.689042  0.312307  0.311880  1
  Sm  Sm3  1  0.941832  0.559629  0.560795  1
  Sm  Sm4  1  0.541355  0.150034  0.152209  1
  Sm  Sm5  1  0.153373  0.148523  0.542187  1
  Sm  Sm6  1  0.939382  0.934914  0.562800  1
  Sm  Sm7  1  0.309709  0.690660  0.312983  1
  Sm  Sm8  1  0.563325  0.935342  0.937962  1
  Sm  Sm9  1  0.561307  0.938741  0.562951  1
  Sm  Sm10  1  0.688324  0.691768  0.314025  1
  Sm  Sm11  1  0.560667  0.561484  0.939851  1
  Dy  Dy12  1  0.942225  0.558588  0.939990  1
  Dy  Dy13  1  0.310874  0.690652  0.690323  1
  Dy  Dy14  1  0.154010  0.152696  0.151901  1
  Dy  Dy15  1  0.309559  0.313401  0.691023  1
  Cd  Cd16  1  0.922052  0.242558  0.919977  1
  Cd  Cd17  1  0.923146  0.915451  0.921740  1
  Cd  Cd18  1  0.921795  0.918954  0.240335  1
  Cd  Cd19  1  0.240697  0.919368  0.920901  1
  Co  Co20  1  0.343617  0.372434  0.929642  1
  Co  Co21  1  0.355701  0.921703  0.357153  1
  Co  Co22  1  0.932402  0.370589  0.343389  1
  Co  Co23  1  0.350124  0.368913  0.349976  1
