# generated using pymatgen
data_ThGaSiRh3
_symmetry_space_group_name_H-M   'P 1'
_cell_length_a   6.74393630
_cell_length_b   6.74393606
_cell_length_c   6.74393709
_cell_angle_alpha   130.30793398
_cell_angle_beta   113.11904084
_cell_angle_gamma   87.73403295
_symmetry_Int_Tables_number   1
_chemical_formula_structural   ThGaSiRh3
_chemical_formula_sum   'Th2 Ga2 Si2 Rh6'
_cell_volume   204.80919635
_cell_formula_units_Z   2
loop_
 _symmetry_equiv_pos_site_id
 _symmetry_equiv_pos_as_xyz
  1  'x, y, z'
loop_
 _atom_site_type_symbol
 _atom_site_label
 _atom_site_symmetry_multiplicity
 _atom_site_fract_x
 _atom_site_fract_y
 _atom_site_fract_z
 _atom_site_occupancy
  Th  Th0  1  0.750000  0.071117  0.321117  1
  Th  Th1  1  0.250000  0.950248  0.700248  1
  Ga  Ga2  1  0.595921  0.404724  0.808803  1
  Ga  Ga3  1  0.904079  0.712880  0.808803  1
  Si  Si4  1  0.434292  0.630187  0.195895  1
  Si  Si5  1  0.065708  0.261603  0.195895  1
  Rh  Rh6  1  0.219359  0.506137  0.718562  1
  Rh  Rh7  1  0.787575  0.506137  0.286778  1
  Rh  Rh8  1  0.465951  0.479280  0.445232  1
  Rh  Rh9  1  0.034049  0.479280  0.013330  1
  Rh  Rh10  1  0.712425  0.999202  0.718562  1
  Rh  Rh11  1  0.280641  0.999202  0.286778  1
