# generated using pymatgen
data_Y4Sc4Cr3FeB24
_symmetry_space_group_name_H-M   'P 1'
_cell_length_a   3.45824600
_cell_length_b   8.98730097
_cell_length_c   11.36622422
_cell_angle_alpha   89.94674459
_cell_angle_beta   90.00000000
_cell_angle_gamma   90.00000000
_symmetry_Int_Tables_number   1
_chemical_formula_structural   Y4Sc4Cr3FeB24
_chemical_formula_sum   'Y4 Sc4 Cr3 Fe1 B24'
_cell_volume   353.26547934
_cell_formula_units_Z   1
loop_
 _symmetry_equiv_pos_site_id
 _symmetry_equiv_pos_as_xyz
  1  'x, y, z'
loop_
 _atom_site_type_symbol
 _atom_site_label
 _atom_site_symmetry_multiplicity
 _atom_site_fract_x
 _atom_site_fract_y
 _atom_site_fract_z
 _atom_site_occupancy
  Y  Y0  1  0.000000  0.822675  0.085654  1
  Y  Y1  1  0.000000  0.177911  0.915664  1
  Y  Y2  1  0.000000  0.321974  0.414367  1
  Y  Y3  1  0.000000  0.677884  0.585100  1
  Sc  Sc4  1  0.000000  0.442134  0.130571  1
  Sc  Sc5  1  0.000000  0.556053  0.870314  1
  Sc  Sc6  1  0.000000  0.944403  0.368840  1
  Sc  Sc7  1  0.000000  0.056523  0.629065  1
  Cr  Cr8  1  0.000000  0.859657  0.819192  1
  Cr  Cr9  1  0.000000  0.641390  0.317012  1
  Cr  Cr10  1  0.000000  0.358586  0.682099  1
  Fe  Fe11  1  0.000000  0.141406  0.182609  1
  B  B12  1  0.500000  0.056396  0.069548  1
  B  B13  1  0.500000  0.945531  0.932726  1
  B  B14  1  0.500000  0.554878  0.431828  1
  B  B15  1  0.500000  0.445211  0.568095  1
  B  B16  1  0.500000  0.250886  0.084346  1
  B  B17  1  0.500000  0.746449  0.917141  1
  B  B18  1  0.500000  0.753331  0.417021  1
  B  B19  1  0.500000  0.247022  0.582744  1
  B  B20  1  0.500000  0.292025  0.234640  1
  B  B21  1  0.500000  0.705637  0.764777  1
  B  B22  1  0.500000  0.795390  0.264205  1
  B  B23  1  0.500000  0.205452  0.735289  1
  B  B24  1  0.500000  0.129718  0.315185  1
  B  B25  1  0.500000  0.870791  0.683532  1
  B  B26  1  0.500000  0.629425  0.182996  1
  B  B27  1  0.500000  0.370130  0.816723  1
  B  B28  1  0.500000  0.481840  0.285762  1
  B  B29  1  0.500000  0.517527  0.714122  1
  B  B30  1  0.500000  0.985489  0.213119  1
  B  B31  1  0.500000  0.017732  0.786104  1
  B  B32  1  0.500000  0.096634  0.473128  1
  B  B33  1  0.500000  0.903395  0.525793  1
  B  B34  1  0.500000  0.596099  0.026290  1
  B  B35  1  0.500000  0.402417  0.974399  1
