# generated using pymatgen
data_Dy3Ho4Lu3(In2Pt)4
_symmetry_space_group_name_H-M   'P 1'
_cell_length_a   3.60607000
_cell_length_b   8.13656015
_cell_length_c   18.14714628
_cell_angle_alpha   89.90893526
_cell_angle_beta   90.00000000
_cell_angle_gamma   90.00000000
_symmetry_Int_Tables_number   1
_chemical_formula_structural   Dy3Ho4Lu3(In2Pt)4
_chemical_formula_sum   'Dy3 Ho4 Lu3 In8 Pt4'
_cell_volume   532.45484514
_cell_formula_units_Z   1
loop_
 _symmetry_equiv_pos_site_id
 _symmetry_equiv_pos_as_xyz
  1  'x, y, z'
loop_
 _atom_site_type_symbol
 _atom_site_label
 _atom_site_symmetry_multiplicity
 _atom_site_fract_x
 _atom_site_fract_y
 _atom_site_fract_z
 _atom_site_occupancy
  Dy  Dy0  1  0.000000  0.741898  0.281277  1
  Dy  Dy1  1  0.000000  0.999502  0.999537  1
  Dy  Dy2  1  0.000000  0.500250  0.500184  1
  Ho  Ho3  1  0.000000  0.617161  0.084817  1
  Ho  Ho4  1  0.000000  0.243218  0.219976  1
  Ho  Ho5  1  0.000000  0.757673  0.780269  1
  Ho  Ho6  1  0.000000  0.257454  0.719147  1
  Lu  Lu7  1  0.000000  0.117020  0.414314  1
  Lu  Lu8  1  0.000000  0.883132  0.585961  1
  Lu  Lu9  1  0.000000  0.383253  0.913589  1
  In  In10  1  0.500000  0.420055  0.351718  1
  In  In11  1  0.500000  0.579479  0.648934  1
  In  In12  1  0.500000  0.079062  0.850746  1
  In  In13  1  0.500000  0.923628  0.149644  1
  In  In14  1  0.500000  0.293498  0.064983  1
  In  In15  1  0.500000  0.704376  0.933398  1
  In  In16  1  0.500000  0.203142  0.564713  1
  In  In17  1  0.500000  0.797176  0.435668  1
  Pt  Pt18  1  0.500000  0.027006  0.305239  1
  Pt  Pt19  1  0.500000  0.973873  0.695031  1
  Pt  Pt20  1  0.500000  0.473188  0.804479  1
  Pt  Pt21  1  0.500000  0.524959  0.196375  1
