# generated using pymatgen
data_ThSc5Tc2
_symmetry_space_group_name_H-M   'P 1'
_cell_length_a   5.99920000
_cell_length_b   8.63723800
_cell_length_c   14.03734700
_cell_angle_alpha   90.00000000
_cell_angle_beta   90.00000000
_cell_angle_gamma   90.00000000
_symmetry_Int_Tables_number   1
_chemical_formula_structural   ThSc5Tc2
_chemical_formula_sum   'Th4 Sc20 Tc8'
_cell_volume   727.36644644
_cell_formula_units_Z   4
loop_
 _symmetry_equiv_pos_site_id
 _symmetry_equiv_pos_as_xyz
  1  'x, y, z'
loop_
 _atom_site_type_symbol
 _atom_site_label
 _atom_site_symmetry_multiplicity
 _atom_site_fract_x
 _atom_site_fract_y
 _atom_site_fract_z
 _atom_site_occupancy
  Th  Th0  1  0.541728  0.750000  0.351099  1
  Th  Th1  1  0.041728  0.250000  0.148901  1
  Th  Th2  1  0.458272  0.250000  0.648901  1
  Th  Th3  1  0.958272  0.750000  0.851099  1
  Sc  Sc4  1  0.810991  0.750000  0.114295  1
  Sc  Sc5  1  0.310991  0.250000  0.385705  1
  Sc  Sc6  1  0.189009  0.250000  0.885705  1
  Sc  Sc7  1  0.689009  0.750000  0.614295  1
  Sc  Sc8  1  0.432531  0.935851  0.794761  1
  Sc  Sc9  1  0.932531  0.064149  0.705239  1
  Sc  Sc10  1  0.567469  0.435851  0.205239  1
  Sc  Sc11  1  0.067469  0.564149  0.294761  1
  Sc  Sc12  1  0.567469  0.064149  0.205239  1
  Sc  Sc13  1  0.067469  0.935851  0.294761  1
  Sc  Sc14  1  0.432531  0.564149  0.794761  1
  Sc  Sc15  1  0.932531  0.435851  0.705239  1
  Sc  Sc16  1  0.243313  0.938036  0.530719  1
  Sc  Sc17  1  0.743313  0.061964  0.969281  1
  Sc  Sc18  1  0.756687  0.438036  0.469281  1
  Sc  Sc19  1  0.256687  0.561964  0.030719  1
  Sc  Sc20  1  0.756687  0.061964  0.469281  1
  Sc  Sc21  1  0.256687  0.938036  0.030719  1
  Sc  Sc22  1  0.243313  0.561964  0.530719  1
  Sc  Sc23  1  0.743313  0.438036  0.969281  1
  Tc  Tc24  1  0.919896  0.750000  0.450073  1
  Tc  Tc25  1  0.419896  0.250000  0.049927  1
  Tc  Tc26  1  0.080104  0.250000  0.549927  1
  Tc  Tc27  1  0.580104  0.750000  0.950073  1
  Tc  Tc28  1  0.366095  0.750000  0.182468  1
  Tc  Tc29  1  0.866095  0.250000  0.317532  1
  Tc  Tc30  1  0.633905  0.250000  0.817532  1
  Tc  Tc31  1  0.133905  0.750000  0.682468  1
