# generated using pymatgen
data_NdSn6IrRuRh2
_symmetry_space_group_name_H-M   'P 1'
_cell_length_a   7.01696424
_cell_length_b   7.02128825
_cell_length_c   6.98070428
_cell_angle_alpha   120.54130418
_cell_angle_beta   120.38404400
_cell_angle_gamma   89.44042626
_symmetry_Int_Tables_number   1
_chemical_formula_structural   NdSn6IrRuRh2
_chemical_formula_sum   'Nd1 Sn6 Ir1 Ru1 Rh2'
_cell_volume   240.96245577
_cell_formula_units_Z   1
loop_
 _symmetry_equiv_pos_site_id
 _symmetry_equiv_pos_as_xyz
  1  'x, y, z'
loop_
 _atom_site_type_symbol
 _atom_site_label
 _atom_site_symmetry_multiplicity
 _atom_site_fract_x
 _atom_site_fract_y
 _atom_site_fract_z
 _atom_site_occupancy
  Nd  Nd0  1  0.999629  0.006381  0.001523  1
  Sn  Sn1  1  0.471274  0.466061  0.598566  1
  Sn  Sn2  1  0.129580  0.125190  0.595018  1
  Sn  Sn3  1  0.873373  0.530648  0.403304  1
  Sn  Sn4  1  0.531257  0.873443  0.404946  1
  Sn  Sn5  1  0.995703  0.497279  0.994411  1
  Sn  Sn6  1  0.499241  0.996954  0.994525  1
  Ir  Ir7  1  0.395800  0.397188  0.159160  1
  Ru  Ru8  1  0.599710  0.244268  0.844273  1
  Rh  Rh9  1  0.760477  0.762089  0.159905  1
  Rh  Rh10  1  0.243955  0.600498  0.844368  1
