# generated using pymatgen
data_RbAlB14
_symmetry_space_group_name_H-M   'P 1'
_cell_length_a   7.47904997
_cell_length_b   7.47904979
_cell_length_c   7.47904977
_cell_angle_alpha   133.91005880
_cell_angle_beta   111.22677532
_cell_angle_gamma   86.81336278
_symmetry_Int_Tables_number   1
_chemical_formula_structural   RbAlB14
_chemical_formula_sum   'Rb2 Al2 B28'
_cell_volume   268.77362772
_cell_formula_units_Z   2
loop_
 _symmetry_equiv_pos_site_id
 _symmetry_equiv_pos_as_xyz
  1  'x, y, z'
loop_
 _atom_site_type_symbol
 _atom_site_label
 _atom_site_symmetry_multiplicity
 _atom_site_fract_x
 _atom_site_fract_y
 _atom_site_fract_z
 _atom_site_occupancy
  Rb  Rb0  1  0.098913  0.750000  0.348913  1
  Rb  Rb1  1  0.901087  0.250000  0.651087  1
  Al  Al2  1  0.500000  0.500000  0.500000  1
  Al  Al3  1  0.500000  0.000000  0.000000  1
  B  B4  1  0.893184  0.215372  0.000876  1
  B  B5  1  0.468834  0.173499  0.795812  1
  B  B6  1  0.877687  0.173024  0.204188  1
  B  B7  1  0.714496  0.392307  0.999124  1
  B  B8  1  0.577885  0.415080  0.162805  1
  B  B9  1  0.725872  0.360573  0.365298  1
  B  B10  1  0.306506  0.336610  0.969897  1
  B  B11  1  0.714496  0.715372  0.322188  1
  B  B12  1  0.877687  0.673499  0.704664  1
  B  B13  1  0.468834  0.673024  0.295336  1
  B  B14  1  0.106816  0.107693  0.322188  1
  B  B15  1  0.893184  0.892307  0.677812  1
  B  B16  1  0.531166  0.326976  0.704664  1
  B  B17  1  0.122313  0.326501  0.295336  1
  B  B18  1  0.285504  0.284628  0.677812  1
  B  B19  1  0.752274  0.915080  0.837195  1
  B  B20  1  0.495274  0.860573  0.634702  1
  B  B21  1  0.866713  0.836610  0.030103  1
  B  B22  1  0.693494  0.663390  0.030103  1
  B  B23  1  0.274128  0.639427  0.634702  1
  B  B24  1  0.422115  0.584920  0.837195  1
  B  B25  1  0.285504  0.607693  0.000876  1
  B  B26  1  0.122313  0.826976  0.795812  1
  B  B27  1  0.531166  0.826501  0.204188  1
  B  B28  1  0.106816  0.784628  0.999124  1
  B  B29  1  0.133287  0.163390  0.969897  1
  B  B30  1  0.504726  0.139427  0.365298  1
  B  B31  1  0.247726  0.084920  0.162805  1
