# generated using pymatgen
data_Sr2In(PtO4)2
_symmetry_space_group_name_H-M   'P 1'
_cell_length_a   6.68922326
_cell_length_b   6.68922213
_cell_length_c   5.63425655
_cell_angle_alpha   71.86367879
_cell_angle_beta   71.86368492
_cell_angle_gamma   57.02112153
_symmetry_Int_Tables_number   1
_chemical_formula_structural   Sr2In(PtO4)2
_chemical_formula_sum   'Sr2 In1 Pt2 O8'
_cell_volume   197.77303333
_cell_formula_units_Z   1
loop_
 _symmetry_equiv_pos_site_id
 _symmetry_equiv_pos_as_xyz
  1  'x, y, z'
loop_
 _atom_site_type_symbol
 _atom_site_label
 _atom_site_symmetry_multiplicity
 _atom_site_fract_x
 _atom_site_fract_y
 _atom_site_fract_z
 _atom_site_occupancy
  Sr  Sr0  1  0.718245  0.718245  0.340777  1
  Sr  Sr1  1  0.281755  0.281755  0.659223  1
  In  In2  1  0.000000  0.000000  0.500000  1
  Pt  Pt3  1  0.747155  0.252845  0.000000  1
  Pt  Pt4  1  0.252845  0.747155  0.000000  1
  O  O5  1  0.404807  0.404807  0.946892  1
  O  O6  1  0.595193  0.595193  0.053108  1
  O  O7  1  0.904855  0.904855  0.927685  1
  O  O8  1  0.095145  0.095145  0.072315  1
  O  O9  1  0.334071  0.875263  0.626523  1
  O  O10  1  0.875263  0.334071  0.626523  1
  O  O11  1  0.124737  0.665929  0.373477  1
  O  O12  1  0.665929  0.124737  0.373477  1
