# generated using pymatgen
data_ScNbTe10
_symmetry_space_group_name_H-M   'P 1'
_cell_length_a   8.47907194
_cell_length_b   8.47907210
_cell_length_c   13.68040200
_cell_angle_alpha   90.00000000
_cell_angle_beta   90.00000000
_cell_angle_gamma   152.85880676
_symmetry_Int_Tables_number   1
_chemical_formula_structural   ScNbTe10
_chemical_formula_sum   'Sc1 Nb1 Te10'
_cell_volume   448.67960858
_cell_formula_units_Z   1
loop_
 _symmetry_equiv_pos_site_id
 _symmetry_equiv_pos_as_xyz
  1  'x, y, z'
loop_
 _atom_site_type_symbol
 _atom_site_label
 _atom_site_symmetry_multiplicity
 _atom_site_fract_x
 _atom_site_fract_y
 _atom_site_fract_z
 _atom_site_occupancy
  Sc  Sc0  1  0.310688  0.689312  0.250000  1
  Nb  Nb1  1  0.693661  0.306339  0.750000  1
  Te  Te2  1  0.780012  0.219988  0.934270  1
  Te  Te3  1  0.209839  0.790161  0.069120  1
  Te  Te4  1  0.321109  0.678891  0.750000  1
  Te  Te5  1  0.672420  0.327580  0.250000  1
  Te  Te6  1  0.091477  0.908523  0.849622  1
  Te  Te7  1  0.919732  0.080268  0.150192  1
  Te  Te8  1  0.919732  0.080268  0.349808  1
  Te  Te9  1  0.091477  0.908523  0.650378  1
  Te  Te10  1  0.780012  0.219988  0.565730  1
  Te  Te11  1  0.209839  0.790161  0.430880  1
