# generated using pymatgen
data_Tm4Mn3VB16
_symmetry_space_group_name_H-M   'P 1'
_cell_length_a   3.38937000
_cell_length_b   5.88717030
_cell_length_c   11.37799958
_cell_angle_alpha   90.03671551
_cell_angle_beta   90.00000000
_cell_angle_gamma   90.00000000
_symmetry_Int_Tables_number   1
_chemical_formula_structural   Tm4Mn3VB16
_chemical_formula_sum   'Tm4 Mn3 V1 B16'
_cell_volume   227.03426336
_cell_formula_units_Z   1
loop_
 _symmetry_equiv_pos_site_id
 _symmetry_equiv_pos_as_xyz
  1  'x, y, z'
loop_
 _atom_site_type_symbol
 _atom_site_label
 _atom_site_symmetry_multiplicity
 _atom_site_fract_x
 _atom_site_fract_y
 _atom_site_fract_z
 _atom_site_occupancy
  Tm  Tm0  1  0.500000  0.373222  0.148922  1
  Tm  Tm1  1  0.500000  0.626587  0.850056  1
  Tm  Tm2  1  0.500000  0.123963  0.652085  1
  Tm  Tm3  1  0.500000  0.874537  0.348509  1
  Mn  Mn4  1  0.500000  0.623961  0.582933  1
  Mn  Mn5  1  0.500000  0.128775  0.915144  1
  Mn  Mn6  1  0.500000  0.871513  0.082119  1
  V  V7  1  0.500000  0.374897  0.418616  1
  B  B8  1  0.000000  0.112925  0.045973  1
  B  B9  1  0.000000  0.887446  0.952526  1
  B  B10  1  0.000000  0.389048  0.549708  1
  B  B11  1  0.000000  0.617093  0.455289  1
  B  B12  1  0.000000  0.133619  0.469232  1
  B  B13  1  0.000000  0.862805  0.534159  1
  B  B14  1  0.000000  0.362922  0.967707  1
  B  B15  1  0.000000  0.637157  0.031505  1
  B  B16  1  0.000000  0.023830  0.190584  1
  B  B17  1  0.000000  0.974905  0.808279  1
  B  B18  1  0.000000  0.477163  0.692905  1
  B  B19  1  0.000000  0.527159  0.306863  1
  B  B20  1  0.000000  0.214118  0.313336  1
  B  B21  1  0.000000  0.781206  0.684302  1
  B  B22  1  0.000000  0.282448  0.816113  1
  B  B23  1  0.000000  0.718700  0.183135  1
