# generated using pymatgen
data_ZnCd(MoO4)2
_symmetry_space_group_name_H-M   'P 1'
_cell_length_a   7.28244859
_cell_length_b   8.77311288
_cell_length_c   10.26023003
_cell_angle_alpha   97.41641151
_cell_angle_beta   105.96075467
_cell_angle_gamma   101.93233847
_symmetry_Int_Tables_number   1
_chemical_formula_structural   ZnCd(MoO4)2
_chemical_formula_sum   'Zn3 Cd3 Mo6 O24'
_cell_volume   604.46925582
_cell_formula_units_Z   3
loop_
 _symmetry_equiv_pos_site_id
 _symmetry_equiv_pos_as_xyz
  1  'x, y, z'
loop_
 _atom_site_type_symbol
 _atom_site_label
 _atom_site_symmetry_multiplicity
 _atom_site_fract_x
 _atom_site_fract_y
 _atom_site_fract_z
 _atom_site_occupancy
  Zn  Zn0  1  0.470622  0.290222  0.515848  1
  Zn  Zn1  1  0.971798  0.892502  0.713300  1
  Zn  Zn2  1  0.033977  0.116259  0.294491  1
  Cd  Cd3  1  0.244799  0.688324  0.912188  1
  Cd  Cd4  1  0.757216  0.316739  0.093809  1
  Cd  Cd5  1  0.533768  0.692967  0.486963  1
  Mo  Mo6  1  0.500232  0.993681  0.753076  1
  Mo  Mo7  1  0.500287  0.016761  0.248012  1
  Mo  Mo8  1  0.698412  0.601822  0.826725  1
  Mo  Mo9  1  0.297886  0.384591  0.165454  1
  Mo  Mo10  1  0.984495  0.724192  0.382588  1
  Mo  Mo11  1  0.011315  0.282487  0.615375  1
  O  O12  1  0.763148  0.285264  0.531748  1
  O  O13  1  0.229426  0.719334  0.466775  1
  O  O14  1  0.644680  0.867140  0.691815  1
  O  O15  1  0.362868  0.139351  0.325521  1
  O  O16  1  0.990294  0.890177  0.296308  1
  O  O17  1  0.007714  0.115938  0.701253  1
  O  O18  1  0.760255  0.454541  0.919195  1
  O  O19  1  0.247353  0.542264  0.081927  1
  O  O20  1  0.870790  0.750257  0.521090  1
  O  O21  1  0.140831  0.260943  0.484562  1
  O  O22  1  0.936483  0.737863  0.839469  1
  O  O23  1  0.057811  0.252826  0.153203  1
  O  O24  1  0.554718  0.875887  0.350160  1
  O  O25  1  0.451174  0.129893  0.642227  1
  O  O26  1  0.265032  0.882422  0.765259  1
  O  O27  1  0.737723  0.127073  0.238797  1
  O  O28  1  0.859346  0.543919  0.260743  1
  O  O29  1  0.131739  0.460835  0.739570  1
  O  O30  1  0.650319  0.101451  0.917286  1
  O  O31  1  0.344755  0.910622  0.083494  1
  O  O32  1  0.557224  0.505846  0.646956  1
  O  O33  1  0.440232  0.463402  0.344969  1
  O  O34  1  0.556279  0.698012  0.908548  1
  O  O35  1  0.434999  0.284197  0.081295  1
