# generated using pymatgen
data_Ho3NbIn2Ir3
_symmetry_space_group_name_H-M   'P 1'
_cell_length_a   7.31963905
_cell_length_b   7.04930457
_cell_length_c   4.25191100
_cell_angle_alpha   90.00000000
_cell_angle_beta   90.00000000
_cell_angle_gamma   118.78560651
_symmetry_Int_Tables_number   1
_chemical_formula_structural   Ho3NbIn2Ir3
_chemical_formula_sum   'Ho3 Nb1 In2 Ir3'
_cell_volume   192.28091887
_cell_formula_units_Z   1
loop_
 _symmetry_equiv_pos_site_id
 _symmetry_equiv_pos_as_xyz
  1  'x, y, z'
loop_
 _atom_site_type_symbol
 _atom_site_label
 _atom_site_symmetry_multiplicity
 _atom_site_fract_x
 _atom_site_fract_y
 _atom_site_fract_z
 _atom_site_occupancy
  Ho  Ho0  1  0.588520  0.586407  0.000000  1
  Ho  Ho1  1  0.411480  0.997887  0.000000  1
  Ho  Ho2  1  0.000000  0.403190  0.000000  1
  Nb  Nb3  1  0.000000  0.752991  0.500000  1
  In  In4  1  0.249780  0.251484  0.500000  1
  In  In5  1  0.750220  0.001704  0.500000  1
  Ir  Ir6  1  0.000000  0.963295  0.000000  1
  Ir  Ir7  1  0.685969  0.364505  0.500000  1
  Ir  Ir8  1  0.314031  0.678537  0.500000  1
