# generated using pymatgen
data_TbHo15Cd4(CoRu)2
_symmetry_space_group_name_H-M   'P 1'
_cell_length_a   9.61034552
_cell_length_b   9.54504041
_cell_length_c   9.54348553
_cell_angle_alpha   59.36404284
_cell_angle_beta   59.47602316
_cell_angle_gamma   59.45065762
_symmetry_Int_Tables_number   1
_chemical_formula_structural   TbHo15Cd4(CoRu)2
_chemical_formula_sum   'Tb1 Ho15 Cd4 Co2 Ru2'
_cell_volume   610.99993216
_cell_formula_units_Z   1
loop_
 _symmetry_equiv_pos_site_id
 _symmetry_equiv_pos_as_xyz
  1  'x, y, z'
loop_
 _atom_site_type_symbol
 _atom_site_label
 _atom_site_symmetry_multiplicity
 _atom_site_fract_x
 _atom_site_fract_y
 _atom_site_fract_z
 _atom_site_occupancy
  Tb  Tb0  1  0.938245  0.938917  0.559001  1
  Ho  Ho1  1  0.811002  0.188394  0.187863  1
  Ho  Ho2  1  0.936810  0.562786  0.563624  1
  Ho  Ho3  1  0.938163  0.558726  0.939259  1
  Ho  Ho4  1  0.815300  0.807709  0.186195  1
  Ho  Ho5  1  0.341077  0.348661  0.348729  1
  Ho  Ho6  1  0.558601  0.940894  0.941303  1
  Ho  Ho7  1  0.564043  0.938319  0.558864  1
  Ho  Ho8  1  0.189142  0.810356  0.810773  1
  Ho  Ho9  1  0.188539  0.187164  0.807696  1
  Ho  Ho10  1  0.344011  0.352755  0.960330  1
  Ho  Ho11  1  0.344109  0.960719  0.352378  1
  Ho  Ho12  1  0.815239  0.186345  0.808001  1
  Ho  Ho13  1  0.564769  0.558879  0.938407  1
  Ho  Ho14  1  0.188776  0.807422  0.186796  1
  Ho  Ho15  1  0.963226  0.349620  0.348905  1
  Cd  Cd16  1  0.580917  0.579971  0.257203  1
  Cd  Cd17  1  0.257892  0.579527  0.580263  1
  Cd  Cd18  1  0.581185  0.579918  0.579997  1
  Cd  Cd19  1  0.580266  0.257726  0.579960  1
  Co  Co20  1  0.139973  0.579819  0.143140  1
  Co  Co21  1  0.140068  0.143348  0.579916  1
  Ru  Ru22  1  0.579143  0.141488  0.141646  1
  Ru  Ru23  1  0.139503  0.140540  0.139754  1
