# generated using pymatgen
data_NaSb12OsRh3
_symmetry_space_group_name_H-M   'P 1'
_cell_length_a   8.16258261
_cell_length_b   8.16258221
_cell_length_c   8.16258411
_cell_angle_alpha   109.50132565
_cell_angle_beta   109.50132581
_cell_angle_gamma   109.50132587
_symmetry_Int_Tables_number   1
_chemical_formula_structural   NaSb12OsRh3
_chemical_formula_sum   'Na1 Sb12 Os1 Rh3'
_cell_volume   418.19219217
_cell_formula_units_Z   1
loop_
 _symmetry_equiv_pos_site_id
 _symmetry_equiv_pos_as_xyz
  1  'x, y, z'
loop_
 _atom_site_type_symbol
 _atom_site_label
 _atom_site_symmetry_multiplicity
 _atom_site_fract_x
 _atom_site_fract_y
 _atom_site_fract_z
 _atom_site_occupancy
  Na  Na0  1  0.000000  0.000000  0.000000  1
  Sb  Sb1  1  0.658022  0.813471  0.155372  1
  Sb  Sb2  1  0.844628  0.341978  0.186529  1
  Sb  Sb3  1  0.504474  0.842964  0.660247  1
  Sb  Sb4  1  0.842964  0.660247  0.504474  1
  Sb  Sb5  1  0.495526  0.157036  0.339753  1
  Sb  Sb6  1  0.155372  0.658022  0.813471  1
  Sb  Sb7  1  0.813471  0.155372  0.658022  1
  Sb  Sb8  1  0.186529  0.844628  0.341978  1
  Sb  Sb9  1  0.157036  0.339753  0.495526  1
  Sb  Sb10  1  0.660247  0.504474  0.842964  1
  Sb  Sb11  1  0.339753  0.495526  0.157036  1
  Sb  Sb12  1  0.341978  0.186529  0.844628  1
  Os  Os13  1  0.500000  0.500000  0.500000  1
  Rh  Rh14  1  0.000000  0.000000  0.500000  1
  Rh  Rh15  1  0.000000  0.500000  0.000000  1
  Rh  Rh16  1  0.500000  0.000000  0.000000  1
