# generated using pymatgen
data_Zr12Mn2NbAl(Ir2N)4
_symmetry_space_group_name_H-M   'P 1'
_cell_length_a   8.54184745
_cell_length_b   8.57167929
_cell_length_c   8.57168000
_cell_angle_alpha   60.20830654
_cell_angle_beta   60.11505017
_cell_angle_gamma   60.11505764
_symmetry_Int_Tables_number   1
_chemical_formula_structural   Zr12Mn2NbAl(Ir2N)4
_chemical_formula_sum   'Zr12 Mn2 Nb1 Al1 Ir8 N4'
_cell_volume   445.24921419
_cell_formula_units_Z   1
loop_
 _symmetry_equiv_pos_site_id
 _symmetry_equiv_pos_as_xyz
  1  'x, y, z'
loop_
 _atom_site_type_symbol
 _atom_site_label
 _atom_site_symmetry_multiplicity
 _atom_site_fract_x
 _atom_site_fract_y
 _atom_site_fract_z
 _atom_site_occupancy
  Zr  Zr0  1  0.809132  0.808703  0.190983  1
  Zr  Zr1  1  0.193288  0.186993  0.809606  1
  Zr  Zr2  1  0.809132  0.190983  0.808703  1
  Zr  Zr3  1  0.193288  0.809606  0.186993  1
  Zr  Zr4  1  0.192079  0.811142  0.811142  1
  Zr  Zr5  1  0.807095  0.192951  0.192951  1
  Zr  Zr6  1  0.440868  0.441297  0.059017  1
  Zr  Zr7  1  0.056712  0.063007  0.440394  1
  Zr  Zr8  1  0.440868  0.059017  0.441297  1
  Zr  Zr9  1  0.056712  0.440394  0.063007  1
  Zr  Zr10  1  0.057921  0.438858  0.438858  1
  Zr  Zr11  1  0.442905  0.057049  0.057049  1
  Mn  Mn12  1  0.625000  0.125000  0.625000  1
  Mn  Mn13  1  0.625000  0.625000  0.125000  1
  Nb  Nb14  1  0.125000  0.625000  0.625000  1
  Al  Al15  1  0.625000  0.625000  0.625000  1
  Ir  Ir16  1  0.749030  0.416659  0.416659  1
  Ir  Ir17  1  0.420797  0.750059  0.413418  1
  Ir  Ir18  1  0.420797  0.413418  0.750059  1
  Ir  Ir19  1  0.421035  0.414856  0.414856  1
  Ir  Ir20  1  0.500970  0.833341  0.833341  1
  Ir  Ir21  1  0.829203  0.499941  0.836582  1
  Ir  Ir22  1  0.829203  0.836582  0.499941  1
  Ir  Ir23  1  0.828965  0.835144  0.835144  1
  N  N24  1  0.625000  0.125000  0.125000  1
  N  N25  1  0.125000  0.625000  0.125000  1
  N  N26  1  0.125000  0.125000  0.625000  1
  N  N27  1  0.125000  0.125000  0.125000  1
