# generated using pymatgen
data_CeDy6LuSb20
_symmetry_space_group_name_H-M   'P 1'
_cell_length_a   4.21971200
_cell_length_b   13.19496833
_cell_length_c   14.70017012
_cell_angle_alpha   78.33249698
_cell_angle_beta   90.00000000
_cell_angle_gamma   90.00000000
_symmetry_Int_Tables_number   1
_chemical_formula_structural   CeDy6LuSb20
_chemical_formula_sum   'Ce1 Dy6 Lu1 Sb20'
_cell_volume   801.57835883
_cell_formula_units_Z   1
loop_
 _symmetry_equiv_pos_site_id
 _symmetry_equiv_pos_as_xyz
  1  'x, y, z'
loop_
 _atom_site_type_symbol
 _atom_site_label
 _atom_site_symmetry_multiplicity
 _atom_site_fract_x
 _atom_site_fract_y
 _atom_site_fract_z
 _atom_site_occupancy
  Ce  Ce0  1  0.250000  0.393530  0.769825  1
  Dy  Dy1  1  0.250000  0.665174  0.858657  1
  Dy  Dy2  1  0.750000  0.336914  0.146077  1
  Dy  Dy3  1  0.250000  0.670933  0.572784  1
  Dy  Dy4  1  0.750000  0.330931  0.421632  1
  Dy  Dy5  1  0.250000  0.951281  0.360300  1
  Dy  Dy6  1  0.750000  0.045757  0.638370  1
  Lu  Lu7  1  0.750000  0.605126  0.229835  1
  Sb  Sb8  1  0.250000  0.141997  0.777195  1
  Sb  Sb9  1  0.750000  0.854287  0.220576  1
  Sb  Sb10  1  0.250000  0.142621  0.481562  1
  Sb  Sb11  1  0.750000  0.857142  0.518178  1
  Sb  Sb12  1  0.250000  0.150234  0.171387  1
  Sb  Sb13  1  0.750000  0.850918  0.829530  1
  Sb  Sb14  1  0.250000  0.420336  0.978976  1
  Sb  Sb15  1  0.750000  0.580513  0.026055  1
  Sb  Sb16  1  0.750000  0.033337  0.909893  1
  Sb  Sb17  1  0.250000  0.968020  0.090746  1
  Sb  Sb18  1  0.750000  0.137641  0.321255  1
  Sb  Sb19  1  0.250000  0.860140  0.679839  1
  Sb  Sb20  1  0.750000  0.279418  0.938665  1
  Sb  Sb21  1  0.250000  0.720832  0.065885  1
  Sb  Sb22  1  0.750000  0.284308  0.652027  1
  Sb  Sb23  1  0.250000  0.713882  0.346028  1
  Sb  Sb24  1  0.750000  0.578644  0.733787  1
  Sb  Sb25  1  0.250000  0.427098  0.264829  1
  Sb  Sb26  1  0.750000  0.572614  0.445981  1
  Sb  Sb27  1  0.250000  0.426371  0.550126  1
