# generated using pymatgen
data_Zr4Cr7Si10Tc
_symmetry_space_group_name_H-M   'P 1'
_cell_length_a   4.98040228
_cell_length_b   7.64930450
_cell_length_c   9.27513558
_cell_angle_alpha   114.39956493
_cell_angle_beta   105.57391953
_cell_angle_gamma   89.99999896
_symmetry_Int_Tables_number   1
_chemical_formula_structural   Zr4Cr7Si10Tc
_chemical_formula_sum   'Zr4 Cr7 Si10 Tc1'
_cell_volume   307.49035618
_cell_formula_units_Z   1
loop_
 _symmetry_equiv_pos_site_id
 _symmetry_equiv_pos_as_xyz
  1  'x, y, z'
loop_
 _atom_site_type_symbol
 _atom_site_label
 _atom_site_symmetry_multiplicity
 _atom_site_fract_x
 _atom_site_fract_y
 _atom_site_fract_z
 _atom_site_occupancy
  Zr  Zr0  1  0.142806  0.019045  0.285612  1
  Zr  Zr1  1  0.642082  0.261739  0.284166  1
  Zr  Zr2  1  0.358569  0.737266  0.717139  1
  Zr  Zr3  1  0.859232  0.981221  0.718464  1
  Cr  Cr4  1  0.560322  0.806133  0.120644  1
  Cr  Cr5  1  0.442656  0.692115  0.382697  1
  Cr  Cr6  1  0.940042  0.692115  0.382697  1
  Cr  Cr7  1  0.059058  0.308961  0.616769  1
  Cr  Cr8  1  0.557711  0.308961  0.616769  1
  Cr  Cr9  1  0.438637  0.192133  0.877272  1
  Cr  Cr10  1  0.939704  0.685950  0.879409  1
  Si  Si11  1  0.251477  0.996231  0.999291  1
  Si  Si12  1  0.747816  0.996231  0.999291  1
  Si  Si13  1  0.564013  0.490979  0.128027  1
  Si  Si14  1  0.063918  0.641034  0.127837  1
  Si  Si15  1  0.711184  0.001583  0.422368  1
  Si  Si16  1  0.212722  0.421451  0.425443  1
  Si  Si17  1  0.789318  0.580710  0.578636  1
  Si  Si18  1  0.289454  0.997902  0.578909  1
  Si  Si19  1  0.933720  0.365124  0.867442  1
  Si  Si20  1  0.435497  0.508190  0.870996  1
  Tc  Tc21  1  0.060059  0.314924  0.120117  1
