# generated using pymatgen
data_Ce6DyZrPb10
_symmetry_space_group_name_H-M   'P 1'
_cell_length_a   9.57428200
_cell_length_b   9.57428199
_cell_length_c   6.58216600
_cell_angle_alpha   90.00000000
_cell_angle_beta   90.00000000
_cell_angle_gamma   119.99999313
_symmetry_Int_Tables_number   1
_chemical_formula_structural   Ce6DyZrPb10
_chemical_formula_sum   'Ce6 Dy1 Zr1 Pb10'
_cell_volume   522.53083322
_cell_formula_units_Z   1
loop_
 _symmetry_equiv_pos_site_id
 _symmetry_equiv_pos_as_xyz
  1  'x, y, z'
loop_
 _atom_site_type_symbol
 _atom_site_label
 _atom_site_symmetry_multiplicity
 _atom_site_fract_x
 _atom_site_fract_y
 _atom_site_fract_z
 _atom_site_occupancy
  Ce  Ce0  1  0.617275  0.000000  0.246184  1
  Ce  Ce1  1  0.382725  0.000000  0.753816  1
  Ce  Ce2  1  0.000000  0.617275  0.246184  1
  Ce  Ce3  1  0.000000  0.382725  0.753816  1
  Ce  Ce4  1  0.382725  0.382725  0.246184  1
  Ce  Ce5  1  0.617275  0.617275  0.753816  1
  Dy  Dy6  1  0.000000  0.000000  0.000000  1
  Zr  Zr7  1  0.000000  0.000000  0.500000  1
  Pb  Pb8  1  0.276893  0.000000  0.261086  1
  Pb  Pb9  1  0.723107  0.000000  0.738914  1
  Pb  Pb10  1  0.000000  0.276893  0.261086  1
  Pb  Pb11  1  0.000000  0.723107  0.738914  1
  Pb  Pb12  1  0.723107  0.723107  0.261086  1
  Pb  Pb13  1  0.276893  0.276893  0.738914  1
  Pb  Pb14  1  0.333333  0.666667  0.000000  1
  Pb  Pb15  1  0.666667  0.333333  0.000000  1
  Pb  Pb16  1  0.666667  0.333333  0.500000  1
  Pb  Pb17  1  0.333333  0.666667  0.500000  1
