# generated using pymatgen
data_Tb4Y12MgZn3Co4
_symmetry_space_group_name_H-M   'P 1'
_cell_length_a   9.45697951
_cell_length_b   9.43564977
_cell_length_c   9.43564900
_cell_angle_alpha   60.00000619
_cell_angle_beta   60.07458785
_cell_angle_gamma   60.07458718
_symmetry_Int_Tables_number   1
_chemical_formula_structural   Tb4Y12MgZn3Co4
_chemical_formula_sum   'Tb4 Y12 Mg1 Zn3 Co4'
_cell_volume   596.03225145
_cell_formula_units_Z   1
loop_
 _symmetry_equiv_pos_site_id
 _symmetry_equiv_pos_as_xyz
  1  'x, y, z'
loop_
 _atom_site_type_symbol
 _atom_site_label
 _atom_site_symmetry_multiplicity
 _atom_site_fract_x
 _atom_site_fract_y
 _atom_site_fract_z
 _atom_site_occupancy
  Tb  Tb0  1  0.349540  0.347001  0.347001  1
  Tb  Tb1  1  0.349540  0.347001  0.956459  1
  Tb  Tb2  1  0.349540  0.956459  0.347001  1
  Tb  Tb3  1  0.947237  0.350921  0.350921  1
  Y  Y4  1  0.808710  0.190629  0.190629  1
  Y  Y5  1  0.187222  0.812434  0.812434  1
  Y  Y6  1  0.187222  0.812434  0.187910  1
  Y  Y7  1  0.808710  0.190629  0.810033  1
  Y  Y8  1  0.187222  0.187910  0.812434  1
  Y  Y9  1  0.808710  0.810033  0.190629  1
  Y  Y10  1  0.932739  0.563096  0.563096  1
  Y  Y11  1  0.561516  0.937241  0.937241  1
  Y  Y12  1  0.561516  0.937241  0.564002  1
  Y  Y13  1  0.932739  0.563096  0.941069  1
  Y  Y14  1  0.561516  0.564002  0.937241  1
  Y  Y15  1  0.932739  0.941069  0.563096  1
  Mg  Mg16  1  0.288653  0.570449  0.570449  1
  Zn  Zn17  1  0.584136  0.577410  0.577410  1
  Zn  Zn18  1  0.584136  0.577410  0.261045  1
  Zn  Zn19  1  0.584136  0.261045  0.577410  1
  Co  Co20  1  0.139967  0.143482  0.143482  1
  Co  Co21  1  0.139967  0.143482  0.573069  1
  Co  Co22  1  0.139967  0.573069  0.143482  1
  Co  Co23  1  0.572620  0.142460  0.142460  1
