# generated using pymatgen
data_Nd5Er2TmAu4
_symmetry_space_group_name_H-M   'P 1'
_cell_length_a   5.01392300
_cell_length_b   7.30870847
_cell_length_c   9.09904570
_cell_angle_alpha   89.89286127
_cell_angle_beta   90.00000000
_cell_angle_gamma   90.00000000
_symmetry_Int_Tables_number   1
_chemical_formula_structural   Nd5Er2TmAu4
_chemical_formula_sum   'Nd5 Er2 Tm1 Au4'
_cell_volume   333.43668997
_cell_formula_units_Z   1
loop_
 _symmetry_equiv_pos_site_id
 _symmetry_equiv_pos_as_xyz
  1  'x, y, z'
loop_
 _atom_site_type_symbol
 _atom_site_label
 _atom_site_symmetry_multiplicity
 _atom_site_fract_x
 _atom_site_fract_y
 _atom_site_fract_z
 _atom_site_occupancy
  Nd  Nd0  1  0.750000  0.652577  0.414449  1
  Nd  Nd1  1  0.250000  0.487858  0.177765  1
  Nd  Nd2  1  0.250000  0.995795  0.324378  1
  Nd  Nd3  1  0.750000  0.509934  0.820198  1
  Nd  Nd4  1  0.750000  0.011447  0.679200  1
  Er  Er5  1  0.250000  0.349213  0.584170  1
  Er  Er6  1  0.750000  0.149057  0.078864  1
  Tm  Tm7  1  0.250000  0.851876  0.921620  1
  Au  Au8  1  0.250000  0.244175  0.903846  1
  Au  Au9  1  0.250000  0.747478  0.609369  1
  Au  Au10  1  0.750000  0.755173  0.085697  1
  Au  Au11  1  0.750000  0.245415  0.400444  1
