# generated using pymatgen
data_Li4Ca3TmSi8
_symmetry_space_group_name_H-M   'P 1'
_cell_length_a   3.79151200
_cell_length_b   7.85089433
_cell_length_c   10.47515445
_cell_angle_alpha   89.76451967
_cell_angle_beta   90.00000000
_cell_angle_gamma   90.00000000
_symmetry_Int_Tables_number   1
_chemical_formula_structural   Li4Ca3TmSi8
_chemical_formula_sum   'Li4 Ca3 Tm1 Si8'
_cell_volume   311.80877565
_cell_formula_units_Z   1
loop_
 _symmetry_equiv_pos_site_id
 _symmetry_equiv_pos_as_xyz
  1  'x, y, z'
loop_
 _atom_site_type_symbol
 _atom_site_label
 _atom_site_symmetry_multiplicity
 _atom_site_fract_x
 _atom_site_fract_y
 _atom_site_fract_z
 _atom_site_occupancy
  Li  Li0  1  0.250000  0.997535  0.388355  1
  Li  Li1  1  0.750000  0.000901  0.610412  1
  Li  Li2  1  0.250000  0.497034  0.108712  1
  Li  Li3  1  0.750000  0.509644  0.888476  1
  Ca  Ca4  1  0.750000  0.866404  0.135054  1
  Ca  Ca5  1  0.250000  0.634874  0.637806  1
  Ca  Ca6  1  0.750000  0.362929  0.365088  1
  Tm  Tm7  1  0.250000  0.127579  0.865417  1
  Si  Si8  1  0.750000  0.266378  0.058324  1
  Si  Si9  1  0.250000  0.740843  0.932794  1
  Si  Si10  1  0.750000  0.767240  0.432422  1
  Si  Si11  1  0.250000  0.225537  0.575254  1
  Si  Si12  1  0.750000  0.846296  0.824093  1
  Si  Si13  1  0.250000  0.163445  0.168582  1
  Si  Si14  1  0.750000  0.329865  0.684638  1
  Si  Si15  1  0.250000  0.663495  0.324571  1
