# generated using pymatgen
data_V10NiAs5
_symmetry_space_group_name_H-M   'P 1'
_cell_length_a   4.74418447
_cell_length_b   7.14366144
_cell_length_c   7.14366167
_cell_angle_alpha   83.66964095
_cell_angle_beta   70.60642427
_cell_angle_gamma   70.60641608
_symmetry_Int_Tables_number   1
_chemical_formula_structural   V10NiAs5
_chemical_formula_sum   'V10 Ni1 As5'
_cell_volume   215.41008260
_cell_formula_units_Z   1
loop_
 _symmetry_equiv_pos_site_id
 _symmetry_equiv_pos_as_xyz
  1  'x, y, z'
loop_
 _atom_site_type_symbol
 _atom_site_label
 _atom_site_symmetry_multiplicity
 _atom_site_fract_x
 _atom_site_fract_y
 _atom_site_fract_z
 _atom_site_occupancy
  V  V0  1  0.574001  0.698797  0.150816  1
  V  V1  1  0.775183  0.301202  0.150816  1
  V  V2  1  0.926000  0.849184  0.301202  1
  V  V3  1  0.272800  0.150816  0.301202  1
  V  V4  1  0.250002  0.500000  0.500000  1
  V  V5  1  0.750000  0.500000  0.500000  1
  V  V6  1  0.076387  0.150816  0.698797  1
  V  V7  1  0.724818  0.849184  0.698797  1
  V  V8  1  0.227201  0.698797  0.849184  1
  V  V9  1  0.423614  0.301202  0.849184  1
  Ni  Ni10  1  0.250000  0.000000  0.000000  1
  As  As11  1  0.749999  0.000000  0.000000  1
  As  As12  1  0.165581  0.500000  0.168841  1
  As  As13  1  0.334420  0.831159  0.500000  1
  As  As14  1  0.665580  0.168841  0.500000  1
  As  As15  1  0.834421  0.500000  0.831159  1
