# generated using pymatgen
data_Ho4Er4ReOsBr8
_symmetry_space_group_name_H-M   'P 1'
_cell_length_a   8.94308685
_cell_length_b   8.94308774
_cell_length_c   6.53224747
_cell_angle_alpha   89.46361008
_cell_angle_beta   89.46360785
_cell_angle_gamma   89.33448437
_symmetry_Int_Tables_number   1
_chemical_formula_structural   Ho4Er4ReOsBr8
_chemical_formula_sum   'Ho4 Er4 Re1 Os1 Br8'
_cell_volume   522.36087815
_cell_formula_units_Z   1
loop_
 _symmetry_equiv_pos_site_id
 _symmetry_equiv_pos_as_xyz
  1  'x, y, z'
loop_
 _atom_site_type_symbol
 _atom_site_label
 _atom_site_symmetry_multiplicity
 _atom_site_fract_x
 _atom_site_fract_y
 _atom_site_fract_z
 _atom_site_occupancy
  Ho  Ho0  1  0.248422  0.901070  0.011321  1
  Ho  Ho1  1  0.750922  0.099350  0.989929  1
  Ho  Ho2  1  0.098930  0.751578  0.488679  1
  Ho  Ho3  1  0.900650  0.249078  0.510071  1
  Er  Er4  1  0.753957  0.903652  0.507963  1
  Er  Er5  1  0.246071  0.096497  0.490768  1
  Er  Er6  1  0.096348  0.246043  0.992037  1
  Er  Er7  1  0.903503  0.753929  0.009232  1
  Re  Re8  1  0.995339  0.004661  0.250000  1
  Os  Os9  1  0.004962  0.995038  0.750000  1
  Br  Br10  1  0.420439  0.817579  0.412872  1
  Br  Br11  1  0.580793  0.182659  0.588757  1
  Br  Br12  1  0.182421  0.579561  0.087128  1
  Br  Br13  1  0.817341  0.419207  0.911243  1
  Br  Br14  1  0.413831  0.191186  0.090174  1
  Br  Br15  1  0.587201  0.809946  0.909083  1
  Br  Br16  1  0.808814  0.586169  0.409826  1
  Br  Br17  1  0.190054  0.412799  0.590917  1
