# generated using pymatgen
data_Nb8Zn(CoO8)3
_symmetry_space_group_name_H-M   'P 1'
_cell_length_a   5.83617500
_cell_length_b   5.09933091
_cell_length_c   14.36420006
_cell_angle_alpha   89.87087874
_cell_angle_beta   90.00000000
_cell_angle_gamma   90.00000000
_symmetry_Int_Tables_number   1
_chemical_formula_structural   Nb8Zn(CoO8)3
_chemical_formula_sum   'Nb8 Zn1 Co3 O24'
_cell_volume   427.48594811
_cell_formula_units_Z   1
loop_
 _symmetry_equiv_pos_site_id
 _symmetry_equiv_pos_as_xyz
  1  'x, y, z'
loop_
 _atom_site_type_symbol
 _atom_site_label
 _atom_site_symmetry_multiplicity
 _atom_site_fract_x
 _atom_site_fract_y
 _atom_site_fract_z
 _atom_site_occupancy
  Nb  Nb0  1  0.317661  0.502358  0.660198  1
  Nb  Nb1  1  0.181839  0.001611  0.840689  1
  Nb  Nb2  1  0.181839  0.998389  0.159311  1
  Nb  Nb3  1  0.317661  0.497642  0.339802  1
  Nb  Nb4  1  0.682637  0.996173  0.339717  1
  Nb  Nb5  1  0.818416  0.498018  0.159271  1
  Nb  Nb6  1  0.818416  0.501982  0.840729  1
  Nb  Nb7  1  0.682637  0.003827  0.660283  1
  Zn  Zn8  1  0.828597  0.500000  0.500000  1
  Co  Co9  1  0.341156  0.500000  0.000000  1
  Co  Co10  1  0.164191  0.000000  0.500000  1
  Co  Co11  1  0.658740  0.000000  0.000000  1
  O  O12  1  0.106197  0.676000  0.904552  1
  O  O13  1  0.395091  0.178001  0.596187  1
  O  O14  1  0.395091  0.821999  0.403813  1
  O  O15  1  0.106197  0.324000  0.095448  1
  O  O16  1  0.892963  0.824071  0.095551  1
  O  O17  1  0.606374  0.321599  0.403578  1
  O  O18  1  0.606374  0.678401  0.596422  1
  O  O19  1  0.892963  0.175929  0.904449  1
  O  O20  1  0.125676  0.668700  0.244124  1
  O  O21  1  0.373787  0.168205  0.254906  1
  O  O22  1  0.373787  0.831795  0.745094  1
  O  O23  1  0.125676  0.331300  0.755876  1
  O  O24  1  0.873971  0.831653  0.755918  1
  O  O25  1  0.626278  0.332078  0.744817  1
  O  O26  1  0.626278  0.667922  0.255183  1
  O  O27  1  0.873971  0.168347  0.244082  1
  O  O28  1  0.118088  0.661665  0.578924  1
  O  O29  1  0.382160  0.159602  0.922192  1
  O  O30  1  0.382160  0.840398  0.077808  1
  O  O31  1  0.118088  0.338335  0.421076  1
  O  O32  1  0.885463  0.840293  0.420831  1
  O  O33  1  0.617059  0.340931  0.078063  1
  O  O34  1  0.617059  0.659069  0.921937  1
  O  O35  1  0.885463  0.159707  0.579169  1
