# generated using pymatgen
data_Rb3NdIr2O9
_symmetry_space_group_name_H-M   'P 1'
_cell_length_a   6.17743323
_cell_length_b   6.17773894
_cell_length_c   14.92743224
_cell_angle_alpha   89.84770939
_cell_angle_beta   89.84583620
_cell_angle_gamma   119.94442007
_symmetry_Int_Tables_number   1
_chemical_formula_structural   Rb3NdIr2O9
_chemical_formula_sum   'Rb6 Nd2 Ir4 O18'
_cell_volume   493.61700018
_cell_formula_units_Z   2
loop_
 _symmetry_equiv_pos_site_id
 _symmetry_equiv_pos_as_xyz
  1  'x, y, z'
loop_
 _atom_site_type_symbol
 _atom_site_label
 _atom_site_symmetry_multiplicity
 _atom_site_fract_x
 _atom_site_fract_y
 _atom_site_fract_z
 _atom_site_occupancy
  Rb  Rb0  1  0.999987  0.000058  0.250235  1
  Rb  Rb1  1  0.000013  0.999942  0.749765  1
  Rb  Rb2  1  0.332186  0.666557  0.104321  1
  Rb  Rb3  1  0.667814  0.333443  0.895679  1
  Rb  Rb4  1  0.666563  0.332198  0.603865  1
  Rb  Rb5  1  0.333437  0.667802  0.396135  1
  Nd  Nd6  1  0.000000  0.000000  0.000000  1
  Nd  Nd7  1  0.000000  0.000000  0.500000  1
  Ir  Ir8  1  0.668258  0.336349  0.344629  1
  Ir  Ir9  1  0.331742  0.663651  0.655371  1
  Ir  Ir10  1  0.336342  0.668251  0.844682  1
  Ir  Ir11  1  0.663658  0.331749  0.155318  1
  O  O12  1  0.640479  0.820490  0.910682  1
  O  O13  1  0.532257  0.467726  0.249980  1
  O  O14  1  0.179104  0.812457  0.587122  1
  O  O15  1  0.532539  0.066578  0.251353  1
  O  O16  1  0.187538  0.820883  0.912906  1
  O  O17  1  0.933446  0.467462  0.248597  1
  O  O18  1  0.359521  0.179510  0.089318  1
  O  O19  1  0.820896  0.187543  0.412878  1
  O  O20  1  0.467461  0.933422  0.748647  1
  O  O21  1  0.467743  0.532274  0.750020  1
  O  O22  1  0.820490  0.640469  0.410659  1
  O  O23  1  0.812826  0.632317  0.086345  1
  O  O24  1  0.632320  0.812827  0.586365  1
  O  O25  1  0.187174  0.367683  0.913655  1
  O  O26  1  0.066554  0.532538  0.751403  1
  O  O27  1  0.367680  0.187173  0.413635  1
  O  O28  1  0.179510  0.359531  0.589341  1
  O  O29  1  0.812462  0.179117  0.087094  1
