# generated using pymatgen
data_Nd3ThAl17GaIr6
_symmetry_space_group_name_H-M   'P 1'
_cell_length_a   7.62597323
_cell_length_b   7.62869389
_cell_length_c   9.59277700
_cell_angle_alpha   90.00000000
_cell_angle_beta   90.00000000
_cell_angle_gamma   119.32010181
_symmetry_Int_Tables_number   1
_chemical_formula_structural   Nd3ThAl17GaIr6
_chemical_formula_sum   'Nd3 Th1 Al17 Ga1 Ir6'
_cell_volume   486.58112395
_cell_formula_units_Z   1
loop_
 _symmetry_equiv_pos_site_id
 _symmetry_equiv_pos_as_xyz
  1  'x, y, z'
loop_
 _atom_site_type_symbol
 _atom_site_label
 _atom_site_symmetry_multiplicity
 _atom_site_fract_x
 _atom_site_fract_y
 _atom_site_fract_z
 _atom_site_occupancy
  Nd  Nd0  1  0.004793  0.326537  0.750000  1
  Nd  Nd1  1  0.672144  0.994406  0.250000  1
  Nd  Nd2  1  0.326083  0.005028  0.750000  1
  Th  Th3  1  0.995158  0.672367  0.250000  1
  Al  Al4  1  0.134117  0.134323  0.250000  1
  Al  Al5  1  0.002876  0.333277  0.073110  1
  Al  Al6  1  0.997233  0.663762  0.923115  1
  Al  Al7  1  0.997233  0.663762  0.576885  1
  Al  Al8  1  0.339146  0.005383  0.426963  1
  Al  Al9  1  0.002876  0.333277  0.426890  1
  Al  Al10  1  0.664142  0.998087  0.573355  1
  Al  Al11  1  0.664142  0.998087  0.926645  1
  Al  Al12  1  0.339146  0.005383  0.073037  1
  Al  Al13  1  0.333969  0.333936  0.548305  1
  Al  Al14  1  0.663455  0.665526  0.453421  1
  Al  Al15  1  0.663455  0.665526  0.046579  1
  Al  Al16  1  0.333969  0.333936  0.951695  1
  Al  Al17  1  0.341687  0.546915  0.250000  1
  Al  Al18  1  0.659353  0.450997  0.750000  1
  Al  Al19  1  0.545405  0.339853  0.250000  1
  Al  Al20  1  0.451245  0.661335  0.750000  1
  Ga  Ga21  1  0.865482  0.867034  0.750000  1
  Ir  Ir22  1  0.673045  0.331211  0.001215  1
  Ir  Ir23  1  0.327841  0.671241  0.001219  1
  Ir  Ir24  1  0.327841  0.671241  0.498781  1
  Ir  Ir25  1  0.673045  0.331211  0.498785  1
  Ir  Ir26  1  0.000561  0.998180  0.004567  1
  Ir  Ir27  1  0.000561  0.998180  0.495433  1
