# generated using pymatgen
data_Sr2Bi2Ru3RhO14
_symmetry_space_group_name_H-M   'P 1'
_cell_length_a   7.40192435
_cell_length_b   7.36154548
_cell_length_c   7.39246015
_cell_angle_alpha   59.45345143
_cell_angle_beta   59.95764942
_cell_angle_gamma   59.81839829
_symmetry_Int_Tables_number   1
_chemical_formula_structural   Sr2Bi2Ru3RhO14
_chemical_formula_sum   'Sr2 Bi2 Ru3 Rh1 O14'
_cell_volume   283.15823834
_cell_formula_units_Z   1
loop_
 _symmetry_equiv_pos_site_id
 _symmetry_equiv_pos_as_xyz
  1  'x, y, z'
loop_
 _atom_site_type_symbol
 _atom_site_label
 _atom_site_symmetry_multiplicity
 _atom_site_fract_x
 _atom_site_fract_y
 _atom_site_fract_z
 _atom_site_occupancy
  Sr  Sr0  1  0.125000  0.625000  0.125000  1
  Sr  Sr1  1  0.125000  0.125000  0.625000  1
  Bi  Bi2  1  0.125000  0.125000  0.125000  1
  Bi  Bi3  1  0.625000  0.125000  0.125000  1
  Ru  Ru4  1  0.625000  0.625000  0.625000  1
  Ru  Ru5  1  0.625000  0.625000  0.125000  1
  Ru  Ru6  1  0.125000  0.625000  0.625000  1
  Rh  Rh7  1  0.625000  0.125000  0.625000  1
  O  O8  1  0.262313  0.237422  0.237951  1
  O  O9  1  0.304492  0.705723  0.300134  1
  O  O10  1  0.953696  0.949892  0.538241  1
  O  O11  1  0.558171  0.949892  0.538241  1
  O  O12  1  0.689651  0.705723  0.300134  1
  O  O13  1  0.939937  0.563675  0.556451  1
  O  O14  1  0.691829  0.300108  0.711759  1
  O  O15  1  0.296304  0.300108  0.711759  1
  O  O16  1  0.702264  0.299981  0.295490  1
  O  O17  1  0.310063  0.686325  0.693549  1
  O  O18  1  0.945508  0.544277  0.949866  1
  O  O19  1  0.560349  0.544277  0.949866  1
  O  O20  1  0.987687  0.012578  0.012049  1
  O  O21  1  0.547736  0.950019  0.954510  1
