# generated using pymatgen
data_Ca3SnAs2Pd3
_symmetry_space_group_name_H-M   'P 1'
_cell_length_a   7.12915200
_cell_length_b   7.12915223
_cell_length_c   4.25171600
_cell_angle_alpha   90.00000000
_cell_angle_beta   90.00000000
_cell_angle_gamma   119.99999895
_symmetry_Int_Tables_number   1
_chemical_formula_structural   Ca3SnAs2Pd3
_chemical_formula_sum   'Ca3 Sn1 As2 Pd3'
_cell_volume   187.14173270
_cell_formula_units_Z   1
loop_
 _symmetry_equiv_pos_site_id
 _symmetry_equiv_pos_as_xyz
  1  'x, y, z'
loop_
 _atom_site_type_symbol
 _atom_site_label
 _atom_site_symmetry_multiplicity
 _atom_site_fract_x
 _atom_site_fract_y
 _atom_site_fract_z
 _atom_site_occupancy
  Ca  Ca0  1  0.000000  0.561113  0.500000  1
  Ca  Ca1  1  0.438887  0.438887  0.500000  1
  Ca  Ca2  1  0.561113  0.000000  0.500000  1
  Sn  Sn3  1  0.000000  0.000000  0.500000  1
  As  As4  1  0.666667  0.333333  0.000000  1
  As  As5  1  0.333333  0.666667  0.000000  1
  Pd  Pd6  1  0.244408  0.000000  0.000000  1
  Pd  Pd7  1  0.755592  0.755592  0.000000  1
  Pd  Pd8  1  0.000000  0.244408  0.000000  1
