# generated using pymatgen
data_MnHg4(SbI2)2
_symmetry_space_group_name_H-M   'P 1'
_cell_length_a   14.00112600
_cell_length_b   8.69476464
_cell_length_c   8.77096161
_cell_angle_alpha   62.97094290
_cell_angle_beta   90.00000000
_cell_angle_gamma   90.00000000
_symmetry_Int_Tables_number   1
_chemical_formula_structural   MnHg4(SbI2)2
_chemical_formula_sum   'Mn2 Hg8 Sb4 I8'
_cell_volume   951.12280768
_cell_formula_units_Z   2
loop_
 _symmetry_equiv_pos_site_id
 _symmetry_equiv_pos_as_xyz
  1  'x, y, z'
loop_
 _atom_site_type_symbol
 _atom_site_label
 _atom_site_symmetry_multiplicity
 _atom_site_fract_x
 _atom_site_fract_y
 _atom_site_fract_z
 _atom_site_occupancy
  Mn  Mn0  1  0.837497  0.987007  0.014156  1
  Mn  Mn1  1  0.337497  0.012993  0.985844  1
  Hg  Hg2  1  0.792303  0.677473  0.668381  1
  Hg  Hg3  1  0.556880  0.035904  0.604721  1
  Hg  Hg4  1  0.056880  0.964096  0.395279  1
  Hg  Hg5  1  0.556431  0.528943  0.062572  1
  Hg  Hg6  1  0.292303  0.322527  0.331619  1
  Hg  Hg7  1  0.018716  0.468573  0.440648  1
  Hg  Hg8  1  0.518716  0.531427  0.559352  1
  Hg  Hg9  1  0.056431  0.471057  0.937428  1
  Sb  Sb10  1  0.482064  0.349815  0.382260  1
  Sb  Sb11  1  0.602628  0.695824  0.725245  1
  Sb  Sb12  1  0.982064  0.650185  0.617740  1
  Sb  Sb13  1  0.102628  0.304176  0.274755  1
  I  I14  1  0.237925  0.289937  0.760431  1
  I  I15  1  0.323892  0.725744  0.943186  1
  I  I16  1  0.024883  0.885053  0.079395  1
  I  I17  1  0.737925  0.710063  0.239569  1
  I  I18  1  0.524883  0.114947  0.920605  1
  I  I19  1  0.823892  0.274256  0.056814  1
  I  I20  1  0.805512  0.070363  0.680658  1
  I  I21  1  0.305512  0.929637  0.319342  1
