# generated using pymatgen
data_SrLaTm2(AsPt)4
_symmetry_space_group_name_H-M   'P 1'
_cell_length_a   4.30997500
_cell_length_b   4.30997452
_cell_length_c   16.24260800
_cell_angle_alpha   90.00000000
_cell_angle_beta   90.00000000
_cell_angle_gamma   120.00001134
_symmetry_Int_Tables_number   1
_chemical_formula_structural   SrLaTm2(AsPt)4
_chemical_formula_sum   'Sr1 La1 Tm2 As4 Pt4'
_cell_volume   261.29782770
_cell_formula_units_Z   1
loop_
 _symmetry_equiv_pos_site_id
 _symmetry_equiv_pos_as_xyz
  1  'x, y, z'
loop_
 _atom_site_type_symbol
 _atom_site_label
 _atom_site_symmetry_multiplicity
 _atom_site_fract_x
 _atom_site_fract_y
 _atom_site_fract_z
 _atom_site_occupancy
  Sr  Sr0  1  0.000000  0.000000  0.500000  1
  La  La1  1  0.000000  0.000000  0.000000  1
  Tm  Tm2  1  0.000000  0.000000  0.246436  1
  Tm  Tm3  1  0.000000  0.000000  0.753564  1
  As  As4  1  0.333333  0.666667  0.880279  1
  As  As5  1  0.666667  0.333333  0.119721  1
  As  As6  1  0.666667  0.333333  0.370023  1
  As  As7  1  0.333333  0.666667  0.629977  1
  Pt  Pt8  1  0.333333  0.666667  0.350156  1
  Pt  Pt9  1  0.666667  0.333333  0.649844  1
  Pt  Pt10  1  0.666667  0.333333  0.856877  1
  Pt  Pt11  1  0.333333  0.666667  0.143123  1
