# generated using pymatgen
data_Mg3AlP6N13
_symmetry_space_group_name_H-M   'P 1'
_cell_length_a   7.02509143
_cell_length_b   7.02509268
_cell_length_c   7.02509199
_cell_angle_alpha   109.66858195
_cell_angle_beta   109.66858575
_cell_angle_gamma   109.66858356
_symmetry_Int_Tables_number   1
_chemical_formula_structural   Mg3AlP6N13
_chemical_formula_sum   'Mg3 Al1 P6 N13'
_cell_volume   264.92298119
_cell_formula_units_Z   1
loop_
 _symmetry_equiv_pos_site_id
 _symmetry_equiv_pos_as_xyz
  1  'x, y, z'
loop_
 _atom_site_type_symbol
 _atom_site_label
 _atom_site_symmetry_multiplicity
 _atom_site_fract_x
 _atom_site_fract_y
 _atom_site_fract_z
 _atom_site_occupancy
  Mg  Mg0  1  0.006393  0.719382  0.006393  1
  Mg  Mg1  1  0.719382  0.006393  0.006393  1
  Mg  Mg2  1  0.006393  0.006393  0.719382  1
  Al  Al3  1  0.304007  0.304007  0.304007  1
  P  P4  1  0.495066  0.246588  0.746125  1
  P  P5  1  0.495066  0.746125  0.246588  1
  P  P6  1  0.746125  0.246588  0.495066  1
  P  P7  1  0.246588  0.495066  0.746125  1
  P  P8  1  0.746125  0.495066  0.246588  1
  P  P9  1  0.246588  0.746125  0.495066  1
  N  N10  1  0.036851  0.036851  0.036851  1
  N  N11  1  0.997678  0.730241  0.456840  1
  N  N12  1  0.260688  0.714209  0.260688  1
  N  N13  1  0.277063  0.534625  0.534625  1
  N  N14  1  0.534625  0.534625  0.277063  1
  N  N15  1  0.534625  0.277063  0.534625  1
  N  N16  1  0.730241  0.997678  0.456840  1
  N  N17  1  0.456840  0.997678  0.730241  1
  N  N18  1  0.730241  0.456840  0.997678  1
  N  N19  1  0.260688  0.260688  0.714209  1
  N  N20  1  0.714209  0.260688  0.260688  1
  N  N21  1  0.997678  0.456840  0.730241  1
  N  N22  1  0.456840  0.730241  0.997678  1
