# generated using pymatgen
data_Ca3TbAs3
_symmetry_space_group_name_H-M   'P 1'
_cell_length_a   7.69677586
_cell_length_b   7.75040135
_cell_length_c   7.69677547
_cell_angle_alpha   109.54015434
_cell_angle_beta   109.15662976
_cell_angle_gamma   109.54014289
_symmetry_Int_Tables_number   1
_chemical_formula_structural   Ca3TbAs3
_chemical_formula_sum   'Ca6 Tb2 As6'
_cell_volume   354.20831522
_cell_formula_units_Z   2
loop_
 _symmetry_equiv_pos_site_id
 _symmetry_equiv_pos_as_xyz
  1  'x, y, z'
loop_
 _atom_site_type_symbol
 _atom_site_label
 _atom_site_symmetry_multiplicity
 _atom_site_fract_x
 _atom_site_fract_y
 _atom_site_fract_z
 _atom_site_occupancy
  Ca  Ca0  1  0.364800  0.361223  0.366301  1
  Ca  Ca1  1  0.998892  0.133891  0.495172  1
  Ca  Ca2  1  0.866301  0.861223  0.864800  1
  Ca  Ca3  1  0.995172  0.633891  0.498892  1
  Ca  Ca4  1  0.635221  0.505293  0.003562  1
  Ca  Ca5  1  0.503562  0.005293  0.135221  1
  Tb  Tb6  1  0.135078  0.499474  0.000257  1
  Tb  Tb7  1  0.500257  0.999474  0.635078  1
  As  As8  1  0.876450  0.249935  0.115343  1
  As  As9  1  0.132369  0.870571  0.253041  1
  As  As10  1  0.372086  0.629613  0.751429  1
  As  As11  1  0.251429  0.129613  0.872086  1
  As  As12  1  0.753041  0.370571  0.632369  1
  As  As13  1  0.615343  0.749935  0.376450  1
