# generated using pymatgen
data_La4YPb3Se
_symmetry_space_group_name_H-M   'P 1'
_cell_length_a   9.68450601
_cell_length_b   9.68388180
_cell_length_c   7.09426501
_cell_angle_alpha   89.99568847
_cell_angle_beta   90.00215892
_cell_angle_gamma   119.99787181
_symmetry_Int_Tables_number   1
_chemical_formula_structural   La4YPb3Se
_chemical_formula_sum   'La8 Y2 Pb6 Se2'
_cell_volume   576.20139273
_cell_formula_units_Z   2
loop_
 _symmetry_equiv_pos_site_id
 _symmetry_equiv_pos_as_xyz
  1  'x, y, z'
loop_
 _atom_site_type_symbol
 _atom_site_label
 _atom_site_symmetry_multiplicity
 _atom_site_fract_x
 _atom_site_fract_y
 _atom_site_fract_z
 _atom_site_occupancy
  La  La0  1  0.748303  0.748303  0.751957  1
  La  La1  1  0.251697  0.000000  0.751957  1
  La  La2  1  0.000000  0.251678  0.751948  1
  La  La3  1  0.251697  0.251697  0.248043  1
  La  La4  1  0.748303  0.000000  0.248043  1
  La  La5  1  0.000000  0.748322  0.248052  1
  La  La6  1  0.333324  0.666663  0.500000  1
  La  La7  1  0.666676  0.333337  0.500000  1
  Y  Y8  1  0.666666  0.333332  0.000000  1
  Y  Y9  1  0.333334  0.666668  0.000000  1
  Pb  Pb10  1  0.396714  0.396708  0.756171  1
  Pb  Pb11  1  0.603286  0.999994  0.756171  1
  Pb  Pb12  1  0.000000  0.603298  0.756170  1
  Pb  Pb13  1  0.603286  0.603292  0.243829  1
  Pb  Pb14  1  0.396714  0.000006  0.243829  1
  Pb  Pb15  1  0.000000  0.396702  0.243830  1
  Se  Se16  1  0.000000  0.000000  0.000000  1
  Se  Se17  1  0.000000  0.000000  0.500000  1
