# generated using pymatgen
data_Dy5MnCo5
_symmetry_space_group_name_H-M   'P 1'
_cell_length_a   5.50400235
_cell_length_b   5.50400221
_cell_length_c   20.51038800
_cell_angle_alpha   90.00000000
_cell_angle_beta   90.00000000
_cell_angle_gamma   137.54056738
_symmetry_Int_Tables_number   1
_chemical_formula_structural   Dy5MnCo5
_chemical_formula_sum   'Dy10 Mn2 Co10'
_cell_volume   419.44847694
_cell_formula_units_Z   2
loop_
 _symmetry_equiv_pos_site_id
 _symmetry_equiv_pos_as_xyz
  1  'x, y, z'
loop_
 _atom_site_type_symbol
 _atom_site_label
 _atom_site_symmetry_multiplicity
 _atom_site_fract_x
 _atom_site_fract_y
 _atom_site_fract_z
 _atom_site_occupancy
  Dy  Dy0  1  0.288119  0.711881  0.250000  1
  Dy  Dy1  1  0.291122  0.708878  0.065545  1
  Dy  Dy2  1  0.997649  0.002351  0.843488  1
  Dy  Dy3  1  0.711881  0.288119  0.750000  1
  Dy  Dy4  1  0.708878  0.291122  0.565545  1
  Dy  Dy5  1  0.002351  0.997649  0.343488  1
  Dy  Dy6  1  0.997649  0.002351  0.656512  1
  Dy  Dy7  1  0.708878  0.291122  0.934455  1
  Dy  Dy8  1  0.002351  0.997649  0.156512  1
  Dy  Dy9  1  0.291122  0.708878  0.434455  1
  Mn  Mn10  1  0.000000  0.000000  0.500000  1
  Mn  Mn11  1  0.000000  0.000000  0.000000  1
  Co  Co12  1  0.295854  0.704146  0.653972  1
  Co  Co13  1  0.577899  0.422101  0.442794  1
  Co  Co14  1  0.414778  0.585222  0.750000  1
  Co  Co15  1  0.422101  0.577899  0.942794  1
  Co  Co16  1  0.585222  0.414778  0.250000  1
  Co  Co17  1  0.422101  0.577899  0.557206  1
  Co  Co18  1  0.704146  0.295854  0.346028  1
  Co  Co19  1  0.704146  0.295854  0.153972  1
  Co  Co20  1  0.577899  0.422101  0.057206  1
  Co  Co21  1  0.295854  0.704146  0.846028  1
