# generated using pymatgen
data_Sm5Ho3Sc11Si16Mo
_symmetry_space_group_name_H-M   'P 1'
_cell_length_a   7.12567035
_cell_length_b   7.37109178
_cell_length_c   13.96808994
_cell_angle_alpha   90.10140142
_cell_angle_beta   89.79332088
_cell_angle_gamma   89.74335062
_symmetry_Int_Tables_number   1
_chemical_formula_structural   Sm5Ho3Sc11Si16Mo
_chemical_formula_sum   'Sm5 Ho3 Sc11 Si16 Mo1'
_cell_volume   733.64623507
_cell_formula_units_Z   1
loop_
 _symmetry_equiv_pos_site_id
 _symmetry_equiv_pos_as_xyz
  1  'x, y, z'
loop_
 _atom_site_type_symbol
 _atom_site_label
 _atom_site_symmetry_multiplicity
 _atom_site_fract_x
 _atom_site_fract_y
 _atom_site_fract_z
 _atom_site_occupancy
  Sm  Sm0  1  0.011632  0.172941  0.097670  1
  Sm  Sm1  1  0.989833  0.826827  0.898130  1
  Sm  Sm2  1  0.487626  0.675328  0.899135  1
  Sm  Sm3  1  0.992008  0.829657  0.594623  1
  Sm  Sm4  1  0.512768  0.325456  0.096997  1
  Ho  Ho5  1  0.011032  0.176003  0.403148  1
  Ho  Ho6  1  0.506733  0.323408  0.409588  1
  Ho  Ho7  1  0.487441  0.675985  0.596053  1
  Sc  Sc8  1  0.164445  0.493304  0.743967  1
  Sc  Sc9  1  0.837180  0.498489  0.252799  1
  Sc  Sc10  1  0.336837  0.002366  0.253555  1
  Sc  Sc11  1  0.657830  0.003416  0.746532  1
  Sc  Sc12  1  0.664705  0.825736  0.379611  1
  Sc  Sc13  1  0.169045  0.677189  0.378783  1
  Sc  Sc14  1  0.669400  0.824718  0.125575  1
  Sc  Sc15  1  0.832717  0.324058  0.622817  1
  Sc  Sc16  1  0.333032  0.176827  0.874441  1
  Sc  Sc17  1  0.830292  0.323100  0.871065  1
  Sc  Sc18  1  0.170030  0.676399  0.126778  1
  Si  Si19  1  0.044142  0.123192  0.744293  1
  Si  Si20  1  0.963352  0.882934  0.253134  1
  Si  Si21  1  0.466274  0.619524  0.252448  1
  Si  Si22  1  0.531361  0.373120  0.744398  1
  Si  Si23  1  0.288918  0.883980  0.744683  1
  Si  Si24  1  0.710679  0.125014  0.253510  1
  Si  Si25  1  0.214601  0.375111  0.253225  1
  Si  Si26  1  0.783313  0.620708  0.745175  1
  Si  Si27  1  0.176469  0.449552  0.540600  1
  Si  Si28  1  0.841748  0.529521  0.459383  1
  Si  Si29  1  0.335644  0.971097  0.470018  1
  Si  Si30  1  0.847225  0.536727  0.038832  1
  Si  Si31  1  0.643492  0.036165  0.544900  1
  Si  Si32  1  0.151900  0.465046  0.959197  1
  Si  Si33  1  0.658431  0.037193  0.958790  1
  Si  Si34  1  0.344360  0.961846  0.038732  1
  Mo  Mo35  1  0.333504  0.178061  0.627419  1
