# generated using pymatgen
data_Pr2Dy4IrI10
_symmetry_space_group_name_H-M   'P 1'
_cell_length_a   7.81985111
_cell_length_b   9.86041176
_cell_length_c   9.89959360
_cell_angle_alpha   106.91102472
_cell_angle_beta   96.38559847
_cell_angle_gamma   105.05954026
_symmetry_Int_Tables_number   1
_chemical_formula_structural   Pr2Dy4IrI10
_chemical_formula_sum   'Pr2 Dy4 Ir1 I10'
_cell_volume   690.67261974
_cell_formula_units_Z   1
loop_
 _symmetry_equiv_pos_site_id
 _symmetry_equiv_pos_as_xyz
  1  'x, y, z'
loop_
 _atom_site_type_symbol
 _atom_site_label
 _atom_site_symmetry_multiplicity
 _atom_site_fract_x
 _atom_site_fract_y
 _atom_site_fract_z
 _atom_site_occupancy
  Pr  Pr0  1  0.117081  0.043724  0.761319  1
  Pr  Pr1  1  0.882919  0.956276  0.238681  1
  Dy  Dy2  1  0.970272  0.286216  0.086254  1
  Dy  Dy3  1  0.029728  0.713784  0.913746  1
  Dy  Dy4  1  0.347868  0.125352  0.165018  1
  Dy  Dy5  1  0.652132  0.874648  0.834982  1
  Ir  Ir6  1  0.000000  0.000000  0.000000  1
  I  I7  1  0.347991  0.447186  0.269995  1
  I  I8  1  0.652009  0.552814  0.730005  1
  I  I9  1  0.267764  0.090169  0.457246  1
  I  I10  1  0.732236  0.909831  0.542754  1
  I  I11  1  0.083561  0.378780  0.825409  1
  I  I12  1  0.916439  0.621220  0.174591  1
  I  I13  1  0.447883  0.817275  0.087718  1
  I  I14  1  0.552117  0.182725  0.912282  1
  I  I15  1  0.775209  0.261530  0.342176  1
  I  I16  1  0.224791  0.738470  0.657824  1
