# generated using pymatgen
data_Ca5Hg2Rh
_symmetry_space_group_name_H-M   'P 1'
_cell_length_a   9.27058401
_cell_length_b   9.27058584
_cell_length_c   9.27058581
_cell_angle_alpha   128.78735889
_cell_angle_beta   128.99282771
_cell_angle_gamma   75.18760207
_symmetry_Int_Tables_number   1
_chemical_formula_structural   Ca5Hg2Rh
_chemical_formula_sum   'Ca10 Hg4 Rh2'
_cell_volume   469.90802311
_cell_formula_units_Z   2
loop_
 _symmetry_equiv_pos_site_id
 _symmetry_equiv_pos_as_xyz
  1  'x, y, z'
loop_
 _atom_site_type_symbol
 _atom_site_label
 _atom_site_symmetry_multiplicity
 _atom_site_fract_x
 _atom_site_fract_y
 _atom_site_fract_z
 _atom_site_occupancy
  Ca  Ca0  1  0.466559  0.954196  0.147733  1
  Ca  Ca1  1  0.193538  0.681175  0.147733  1
  Ca  Ca2  1  0.528669  0.010251  0.819642  1
  Ca  Ca3  1  0.028669  0.209027  0.518417  1
  Ca  Ca4  1  0.693538  0.545804  0.512363  1
  Ca  Ca5  1  0.966559  0.818825  0.512363  1
  Ca  Ca6  1  0.994839  0.985651  0.980490  1
  Ca  Ca7  1  0.494839  0.514349  0.009189  1
  Ca  Ca8  1  0.809391  0.290973  0.819642  1
  Ca  Ca9  1  0.309391  0.489749  0.518417  1
  Hg  Hg10  1  0.372955  0.123624  0.496580  1
  Hg  Hg11  1  0.872955  0.376376  0.249332  1
  Hg  Hg12  1  0.758074  0.750000  0.008074  1
  Hg  Hg13  1  0.258074  0.250000  0.008074  1
  Rh  Rh14  1  0.125976  0.626099  0.752074  1
  Rh  Rh15  1  0.625976  0.873901  0.499877  1
