# generated using pymatgen
data_SrLa5(Sn5Au6)2
_symmetry_space_group_name_H-M   'P 1'
_cell_length_a   4.70846000
_cell_length_b   10.29089700
_cell_length_c   14.02769200
_cell_angle_alpha   90.00000000
_cell_angle_beta   90.00000000
_cell_angle_gamma   90.00000000
_symmetry_Int_Tables_number   1
_chemical_formula_structural   SrLa5(Sn5Au6)2
_chemical_formula_sum   'Sr1 La5 Sn10 Au12'
_cell_volume   679.70167228
_cell_formula_units_Z   1
loop_
 _symmetry_equiv_pos_site_id
 _symmetry_equiv_pos_as_xyz
  1  'x, y, z'
loop_
 _atom_site_type_symbol
 _atom_site_label
 _atom_site_symmetry_multiplicity
 _atom_site_fract_x
 _atom_site_fract_y
 _atom_site_fract_z
 _atom_site_occupancy
  Sr  Sr0  1  0.000000  0.742972  0.500000  1
  La  La1  1  0.000000  0.746093  0.810281  1
  La  La2  1  0.000000  0.746093  0.189719  1
  La  La3  1  0.500000  0.254117  0.689141  1
  La  La4  1  0.500000  0.254117  0.310859  1
  La  La5  1  0.500000  0.257428  0.000000  1
  Sn  Sn6  1  0.000000  0.380292  0.839804  1
  Sn  Sn7  1  0.000000  0.380292  0.160196  1
  Sn  Sn8  1  0.500000  0.618530  0.661781  1
  Sn  Sn9  1  0.500000  0.618530  0.338219  1
  Sn  Sn10  1  0.000000  0.024782  0.358367  1
  Sn  Sn11  1  0.000000  0.024782  0.641633  1
  Sn  Sn12  1  0.500000  0.977015  0.140413  1
  Sn  Sn13  1  0.500000  0.977015  0.859587  1
  Sn  Sn14  1  0.000000  0.276240  0.500000  1
  Sn  Sn15  1  0.500000  0.722952  0.000000  1
  Au  Au16  1  0.000000  0.117340  0.838576  1
  Au  Au17  1  0.000000  0.117340  0.161424  1
  Au  Au18  1  0.500000  0.882950  0.661649  1
  Au  Au19  1  0.500000  0.882950  0.338351  1
  Au  Au20  1  0.000000  0.544120  0.000000  1
  Au  Au21  1  0.500000  0.456074  0.500000  1
  Au  Au22  1  0.000000  0.474581  0.351813  1
  Au  Au23  1  0.000000  0.474581  0.648187  1
  Au  Au24  1  0.500000  0.524176  0.147921  1
  Au  Au25  1  0.500000  0.524176  0.852079  1
  Au  Au26  1  0.000000  0.932482  0.000000  1
  Au  Au27  1  0.500000  0.067980  0.500000  1
