# generated using pymatgen
data_TbPr2Dy5(WO6)4
_symmetry_space_group_name_H-M   'P 1'
_cell_length_a   5.46327000
_cell_length_b   7.79035048
_cell_length_c   11.58103622
_cell_angle_alpha   75.60333297
_cell_angle_beta   90.00000000
_cell_angle_gamma   90.00000000
_symmetry_Int_Tables_number   1
_chemical_formula_structural   TbPr2Dy5(WO6)4
_chemical_formula_sum   'Tb1 Pr2 Dy5 W4 O24'
_cell_volume   477.41985985
_cell_formula_units_Z   1
loop_
 _symmetry_equiv_pos_site_id
 _symmetry_equiv_pos_as_xyz
  1  'x, y, z'
loop_
 _atom_site_type_symbol
 _atom_site_label
 _atom_site_symmetry_multiplicity
 _atom_site_fract_x
 _atom_site_fract_y
 _atom_site_fract_z
 _atom_site_occupancy
  Tb  Tb0  1  0.741020  0.000000  0.750000  1
  Pr  Pr1  1  0.685479  0.500000  0.750000  1
  Pr  Pr2  1  0.314459  0.500000  0.250000  1
  Dy  Dy3  1  0.259121  0.000000  0.250000  1
  Dy  Dy4  1  0.187584  0.798044  0.576645  1
  Dy  Dy5  1  0.812477  0.798083  0.076739  1
  Dy  Dy6  1  0.187584  0.201956  0.923355  1
  Dy  Dy7  1  0.812477  0.201917  0.423261  1
  W  W8  1  0.252809  0.727572  0.884583  1
  W  W9  1  0.747174  0.727721  0.384518  1
  W  W10  1  0.252809  0.272428  0.615417  1
  W  W11  1  0.747174  0.272279  0.115482  1
  O  O12  1  0.041629  0.940852  0.896182  1
  O  O13  1  0.530200  0.846957  0.930844  1
  O  O14  1  0.959060  0.940983  0.395853  1
  O  O15  1  0.454887  0.793922  0.727815  1
  O  O16  1  0.469577  0.847200  0.430593  1
  O  O17  1  0.987152  0.719363  0.769841  1
  O  O18  1  0.544450  0.794415  0.227840  1
  O  O19  1  0.855495  0.641981  0.545127  1
  O  O20  1  0.348577  0.493910  0.887922  1
  O  O21  1  0.012981  0.719606  0.269818  1
  O  O22  1  0.348577  0.506090  0.612078  1
  O  O23  1  0.855495  0.358019  0.954873  1
  O  O24  1  0.144433  0.641904  0.045142  1
  O  O25  1  0.651475  0.493951  0.387883  1
  O  O26  1  0.987152  0.280637  0.730159  1
  O  O27  1  0.651475  0.506049  0.112117  1
  O  O28  1  0.144433  0.358096  0.454858  1
  O  O29  1  0.454887  0.206078  0.772185  1
  O  O30  1  0.012981  0.280394  0.230182  1
  O  O31  1  0.530200  0.153043  0.569156  1
  O  O32  1  0.544450  0.205585  0.272160  1
  O  O33  1  0.041629  0.059148  0.603818  1
  O  O34  1  0.469577  0.152800  0.069407  1
  O  O35  1  0.959060  0.059017  0.104147  1
