# generated using pymatgen
data_Cs6Sc3RhBr18
_symmetry_space_group_name_H-M   'P 1'
_cell_length_a   7.88019800
_cell_length_b   7.88019780
_cell_length_c   19.77170700
_cell_angle_alpha   90.00000000
_cell_angle_beta   90.00000000
_cell_angle_gamma   119.99999245
_symmetry_Int_Tables_number   1
_chemical_formula_structural   Cs6Sc3RhBr18
_chemical_formula_sum   'Cs6 Sc3 Rh1 Br18'
_cell_volume   1063.28351154
_cell_formula_units_Z   1
loop_
 _symmetry_equiv_pos_site_id
 _symmetry_equiv_pos_as_xyz
  1  'x, y, z'
loop_
 _atom_site_type_symbol
 _atom_site_label
 _atom_site_symmetry_multiplicity
 _atom_site_fract_x
 _atom_site_fract_y
 _atom_site_fract_z
 _atom_site_occupancy
  Cs  Cs0  1  0.333333  0.666667  0.071817  1
  Cs  Cs1  1  0.666667  0.333333  0.930372  1
  Cs  Cs2  1  0.666667  0.333333  0.573617  1
  Cs  Cs3  1  0.333333  0.666667  0.431788  1
  Cs  Cs4  1  0.000000  0.000000  0.250417  1
  Cs  Cs5  1  0.000000  0.000000  0.746333  1
  Sc  Sc6  1  0.666667  0.333333  0.343505  1
  Sc  Sc7  1  0.666667  0.333333  0.157433  1
  Sc  Sc8  1  0.333333  0.666667  0.838751  1
  Rh  Rh9  1  0.333333  0.666667  0.667205  1
  Br  Br10  1  0.183593  0.367186  0.595105  1
  Br  Br11  1  0.828439  0.656879  0.410020  1
  Br  Br12  1  0.632814  0.816407  0.595105  1
  Br  Br13  1  0.828114  0.656228  0.090024  1
  Br  Br14  1  0.343121  0.171561  0.410020  1
  Br  Br15  1  0.172346  0.344691  0.906721  1
  Br  Br16  1  0.183593  0.816407  0.595105  1
  Br  Br17  1  0.343772  0.171886  0.090024  1
  Br  Br18  1  0.828439  0.171561  0.410020  1
  Br  Br19  1  0.655309  0.827654  0.906721  1
  Br  Br20  1  0.828114  0.171886  0.090024  1
  Br  Br21  1  0.172346  0.827654  0.906721  1
  Br  Br22  1  0.513179  0.026358  0.250010  1
  Br  Br23  1  0.484376  0.968751  0.744374  1
  Br  Br24  1  0.973642  0.486821  0.250010  1
  Br  Br25  1  0.031249  0.515624  0.744374  1
  Br  Br26  1  0.513179  0.486821  0.250010  1
  Br  Br27  1  0.484376  0.515624  0.744374  1
