# generated using pymatgen
data_Dy7Y(HfIr3)2
_symmetry_space_group_name_H-M   'P 1'
_cell_length_a   10.84869115
_cell_length_b   10.84579900
_cell_length_c   6.25800366
_cell_angle_alpha   90.00000000
_cell_angle_beta   90.05269849
_cell_angle_gamma   90.00000000
_symmetry_Int_Tables_number   1
_chemical_formula_structural   Dy7Y(HfIr3)2
_chemical_formula_sum   'Dy14 Y2 Hf4 Ir12'
_cell_volume   736.33344366
_cell_formula_units_Z   2
loop_
 _symmetry_equiv_pos_site_id
 _symmetry_equiv_pos_as_xyz
  1  'x, y, z'
loop_
 _atom_site_type_symbol
 _atom_site_label
 _atom_site_symmetry_multiplicity
 _atom_site_fract_x
 _atom_site_fract_y
 _atom_site_fract_z
 _atom_site_occupancy
  Dy  Dy0  1  0.710944  0.085770  0.875219  1
  Dy  Dy1  1  0.710944  0.914230  0.375219  1
  Dy  Dy2  1  0.585725  0.789090  0.875301  1
  Dy  Dy3  1  0.585725  0.210910  0.375301  1
  Dy  Dy4  1  0.414379  0.789127  0.375281  1
  Dy  Dy5  1  0.414379  0.210873  0.875281  1
  Dy  Dy6  1  0.210879  0.414302  0.624613  1
  Dy  Dy7  1  0.210879  0.585698  0.124613  1
  Dy  Dy8  1  0.789123  0.414293  0.124721  1
  Dy  Dy9  1  0.789123  0.585707  0.624721  1
  Dy  Dy10  1  0.914301  0.710898  0.124605  1
  Dy  Dy11  1  0.914301  0.289102  0.624605  1
  Dy  Dy12  1  0.085611  0.710742  0.624784  1
  Dy  Dy13  1  0.085611  0.289258  0.124784  1
  Y  Y14  1  0.288700  0.085994  0.374932  1
  Y  Y15  1  0.288700  0.914006  0.874932  1
  Hf  Hf16  1  0.999961  0.000064  0.500150  1
  Hf  Hf17  1  0.999961  0.999936  0.000150  1
  Hf  Hf18  1  0.500016  0.500056  0.999898  1
  Hf  Hf19  1  0.500016  0.499944  0.499898  1
  Ir  Ir20  1  0.857266  0.142680  0.249929  1
  Ir  Ir21  1  0.857266  0.857320  0.749929  1
  Ir  Ir22  1  0.142108  0.143137  0.750780  1
  Ir  Ir23  1  0.142108  0.856863  0.250780  1
  Ir  Ir24  1  0.642725  0.357330  0.750067  1
  Ir  Ir25  1  0.642725  0.642670  0.250067  1
  Ir  Ir26  1  0.357367  0.357613  0.249732  1
  Ir  Ir27  1  0.357367  0.642387  0.749732  1
  Ir  Ir28  1  0.500938  0.000041  0.122092  1
  Ir  Ir29  1  0.500938  0.999959  0.622092  1
  Ir  Ir30  1  0.999958  0.499975  0.877895  1
  Ir  Ir31  1  0.999958  0.500025  0.377895  1
