# generated using pymatgen
data_Yb2Gd6Be3Si12Os
_symmetry_space_group_name_H-M   'P 1'
_cell_length_a   7.96690800
_cell_length_b   7.96690774
_cell_length_c   8.34179100
_cell_angle_alpha   90.00000000
_cell_angle_beta   90.00000000
_cell_angle_gamma   119.99999276
_symmetry_Int_Tables_number   1
_chemical_formula_structural   Yb2Gd6Be3Si12Os
_chemical_formula_sum   'Yb2 Gd6 Be3 Si12 Os1'
_cell_volume   458.53190350
_cell_formula_units_Z   1
loop_
 _symmetry_equiv_pos_site_id
 _symmetry_equiv_pos_as_xyz
  1  'x, y, z'
loop_
 _atom_site_type_symbol
 _atom_site_label
 _atom_site_symmetry_multiplicity
 _atom_site_fract_x
 _atom_site_fract_y
 _atom_site_fract_z
 _atom_site_occupancy
  Yb  Yb0  1  0.000000  0.000000  0.246565  1
  Yb  Yb1  1  0.000000  0.000000  0.753407  1
  Gd  Gd2  1  0.498442  0.996884  0.252112  1
  Gd  Gd3  1  0.498349  0.996700  0.747895  1
  Gd  Gd4  1  0.003116  0.501558  0.252112  1
  Gd  Gd5  1  0.003300  0.501651  0.747895  1
  Gd  Gd6  1  0.498442  0.501558  0.252112  1
  Gd  Gd7  1  0.498349  0.501651  0.747895  1
  Be  Be8  1  0.333333  0.666667  0.000523  1
  Be  Be9  1  0.666667  0.333333  0.000049  1
  Be  Be10  1  0.666667  0.333333  0.499872  1
  Si  Si11  1  0.173144  0.346287  0.000057  1
  Si  Si12  1  0.827050  0.654101  0.000110  1
  Si  Si13  1  0.653713  0.826856  0.000057  1
  Si  Si14  1  0.830250  0.660501  0.499921  1
  Si  Si15  1  0.345899  0.172950  0.000110  1
  Si  Si16  1  0.167017  0.334033  0.499878  1
  Si  Si17  1  0.173144  0.826856  0.000057  1
  Si  Si18  1  0.339499  0.169750  0.499921  1
  Si  Si19  1  0.827050  0.172950  0.000110  1
  Si  Si20  1  0.665967  0.832983  0.499878  1
  Si  Si21  1  0.830250  0.169750  0.499921  1
  Si  Si22  1  0.167017  0.832983  0.499878  1
  Os  Os23  1  0.333333  0.666667  0.499665  1
