# generated using pymatgen
data_Tb4Er8ZnInCo4
_symmetry_space_group_name_H-M   'P 1'
_cell_length_a   8.29584388
_cell_length_b   8.29584291
_cell_length_c   8.29584416
_cell_angle_alpha   110.22707893
_cell_angle_beta   111.42785180
_cell_angle_gamma   106.79385755
_symmetry_Int_Tables_number   1
_chemical_formula_structural   Tb4Er8ZnInCo4
_chemical_formula_sum   'Tb4 Er8 Zn1 In1 Co4'
_cell_volume   438.73465239
_cell_formula_units_Z   1
loop_
 _symmetry_equiv_pos_site_id
 _symmetry_equiv_pos_as_xyz
  1  'x, y, z'
loop_
 _atom_site_type_symbol
 _atom_site_label
 _atom_site_symmetry_multiplicity
 _atom_site_fract_x
 _atom_site_fract_y
 _atom_site_fract_z
 _atom_site_occupancy
  Tb  Tb0  1  0.288593  0.186802  0.475396  1
  Tb  Tb1  1  0.711407  0.813198  0.524604  1
  Tb  Tb2  1  0.288593  0.813198  0.101791  1
  Tb  Tb3  1  0.711407  0.186802  0.898209  1
  Er  Er4  1  0.620562  0.315460  0.305101  1
  Er  Er5  1  0.379438  0.684540  0.694899  1
  Er  Er6  1  0.010360  0.315460  0.694899  1
  Er  Er7  1  0.989640  0.684540  0.305101  1
  Er  Er8  1  0.221597  0.425036  0.203438  1
  Er  Er9  1  0.778403  0.574964  0.796562  1
  Er  Er10  1  0.221597  0.018158  0.796562  1
  Er  Er11  1  0.778403  0.981842  0.203438  1
  Zn  Zn12  1  0.000000  0.000000  0.000000  1
  In  In13  1  0.500000  0.500000  0.000000  1
  Co  Co14  1  0.000000  0.377493  0.377493  1
  Co  Co15  1  0.000000  0.622507  0.622507  1
  Co  Co16  1  0.386527  0.886527  0.500000  1
  Co  Co17  1  0.613473  0.113473  0.500000  1
