# generated using pymatgen
data_Tb4Al24CuPd8
_symmetry_space_group_name_H-M   'P 1'
_cell_length_a   7.54821856
_cell_length_b   7.55342645
_cell_length_c   13.14824769
_cell_angle_alpha   84.51811196
_cell_angle_beta   100.93506560
_cell_angle_gamma   119.81146821
_symmetry_Int_Tables_number   1
_chemical_formula_structural   Tb4Al24CuPd8
_chemical_formula_sum   'Tb4 Al24 Cu1 Pd8'
_cell_volume   638.63162481
_cell_formula_units_Z   1
loop_
 _symmetry_equiv_pos_site_id
 _symmetry_equiv_pos_as_xyz
  1  'x, y, z'
loop_
 _atom_site_type_symbol
 _atom_site_label
 _atom_site_symmetry_multiplicity
 _atom_site_fract_x
 _atom_site_fract_y
 _atom_site_fract_z
 _atom_site_occupancy
  Tb  Tb0  1  0.437687  0.830202  0.807733  1
  Tb  Tb1  1  0.562249  0.168635  0.191878  1
  Tb  Tb2  1  0.767082  0.501815  0.807541  1
  Tb  Tb3  1  0.231463  0.498171  0.191803  1
  Al  Al4  1  0.481983  0.166570  0.944930  1
  Al  Al5  1  0.518275  0.833637  0.055187  1
  Al  Al6  1  0.020747  0.165953  0.561688  1
  Al  Al7  1  0.978357  0.833617  0.437198  1
  Al  Al8  1  0.354110  0.832405  0.559942  1
  Al  Al9  1  0.645186  0.166331  0.439828  1
  Al  Al10  1  0.617075  0.834632  0.329805  1
  Al  Al11  1  0.382890  0.168118  0.670326  1
  Al  Al12  1  0.059419  0.492675  0.670286  1
  Al  Al13  1  0.943295  0.507121  0.329718  1
  Al  Al14  1  0.728862  0.838099  0.668843  1
  Al  Al15  1  0.268813  0.159468  0.331002  1
  Al  Al16  1  0.147839  0.499872  0.945055  1
  Al  Al17  1  0.852004  0.500254  0.054868  1
  Al  Al18  1  0.817651  0.832849  0.954882  1
  Al  Al19  1  0.182594  0.167063  0.045681  1
  Al  Al20  1  0.312891  0.499762  0.441627  1
  Al  Al21  1  0.686357  0.499808  0.559979  1
  Al  Al22  1  0.102889  0.835884  0.184145  1
  Al  Al23  1  0.897897  0.164502  0.816064  1
  Al  Al24  1  0.308032  0.370654  0.812987  1
  Al  Al25  1  0.692619  0.630692  0.185545  1
  Al  Al26  1  0.103444  0.959481  0.815588  1
  Al  Al27  1  0.897509  0.041315  0.184389  1
  Cu  Cu28  1  0.388960  0.508263  0.639065  1
  Pd  Pd29  1  0.611840  0.492362  0.363144  1
  Pd  Pd30  1  0.171416  0.828454  0.999308  1
  Pd  Pd31  1  0.828536  0.171798  0.999929  1
  Pd  Pd32  1  0.295259  0.832436  0.363139  1
  Pd  Pd33  1  0.704941  0.166788  0.637394  1
  Pd  Pd34  1  0.046692  0.824876  0.637118  1
  Pd  Pd35  1  0.953657  0.175599  0.362974  1
  Pd  Pd36  1  0.499479  0.499844  0.999411  1
