# generated using pymatgen
data_Hf18Mo6W2AuSe
_symmetry_space_group_name_H-M   'P 1'
_cell_length_a   8.76417500
_cell_length_b   8.76417458
_cell_length_c   8.64476600
_cell_angle_alpha   90.00000000
_cell_angle_beta   90.00000000
_cell_angle_gamma   119.99999780
_symmetry_Int_Tables_number   1
_chemical_formula_structural   Hf18Mo6W2AuSe
_chemical_formula_sum   'Hf18 Mo6 W2 Au1 Se1'
_cell_volume   575.05044569
_cell_formula_units_Z   1
loop_
 _symmetry_equiv_pos_site_id
 _symmetry_equiv_pos_as_xyz
  1  'x, y, z'
loop_
 _atom_site_type_symbol
 _atom_site_label
 _atom_site_symmetry_multiplicity
 _atom_site_fract_x
 _atom_site_fract_y
 _atom_site_fract_z
 _atom_site_occupancy
  Hf  Hf0  1  0.542368  0.084736  0.250000  1
  Hf  Hf1  1  0.455771  0.911541  0.750000  1
  Hf  Hf2  1  0.915264  0.457632  0.250000  1
  Hf  Hf3  1  0.088459  0.544229  0.750000  1
  Hf  Hf4  1  0.542368  0.457632  0.250000  1
  Hf  Hf5  1  0.455771  0.544229  0.750000  1
  Hf  Hf6  1  0.194228  0.388454  0.048427  1
  Hf  Hf7  1  0.805779  0.611559  0.954167  1
  Hf  Hf8  1  0.611546  0.805772  0.048427  1
  Hf  Hf9  1  0.805779  0.611559  0.545833  1
  Hf  Hf10  1  0.388441  0.194221  0.954167  1
  Hf  Hf11  1  0.194228  0.388454  0.451573  1
  Hf  Hf12  1  0.194228  0.805772  0.048427  1
  Hf  Hf13  1  0.388441  0.194221  0.545833  1
  Hf  Hf14  1  0.805779  0.194221  0.954167  1
  Hf  Hf15  1  0.611546  0.805772  0.451573  1
  Hf  Hf16  1  0.805779  0.194221  0.545833  1
  Hf  Hf17  1  0.194228  0.805772  0.451573  1
  Mo  Mo18  1  0.888728  0.777459  0.250000  1
  Mo  Mo19  1  0.110522  0.221042  0.750000  1
  Mo  Mo20  1  0.222541  0.111272  0.250000  1
  Mo  Mo21  1  0.778958  0.889478  0.750000  1
  Mo  Mo22  1  0.888728  0.111272  0.250000  1
  Mo  Mo23  1  0.110522  0.889478  0.750000  1
  W  W24  1  0.000000  0.000000  0.999312  1
  W  W25  1  0.000000  0.000000  0.500688  1
  Au  Au26  1  0.333333  0.666667  0.250000  1
  Se  Se27  1  0.666667  0.333333  0.750000  1
