# generated using pymatgen
data_Lu6IrO12
_symmetry_space_group_name_H-M   'P 1'
_cell_length_a   6.33337724
_cell_length_b   6.33337924
_cell_length_c   6.33337869
_cell_angle_alpha   98.78382320
_cell_angle_beta   98.78365063
_cell_angle_gamma   98.78356573
_symmetry_Int_Tables_number   1
_chemical_formula_structural   Lu6IrO12
_chemical_formula_sum   'Lu6 Ir1 O12'
_cell_volume   244.05567516
_cell_formula_units_Z   1
loop_
 _symmetry_equiv_pos_site_id
 _symmetry_equiv_pos_as_xyz
  1  'x, y, z'
loop_
 _atom_site_type_symbol
 _atom_site_label
 _atom_site_symmetry_multiplicity
 _atom_site_fract_x
 _atom_site_fract_y
 _atom_site_fract_z
 _atom_site_occupancy
  Lu  Lu0  1  0.318635  0.144066  0.610816  1
  Lu  Lu1  1  0.855932  0.389183  0.681366  1
  Lu  Lu2  1  0.610818  0.318635  0.144068  1
  Lu  Lu3  1  0.389182  0.681365  0.855932  1
  Lu  Lu4  1  0.144068  0.610817  0.318634  1
  Lu  Lu5  1  0.681365  0.855934  0.389184  1
  Ir  Ir6  1  0.000000  0.000000  0.000000  1
  O  O7  1  0.921631  0.037938  0.697182  1
  O  O8  1  0.302817  0.078368  0.962060  1
  O  O9  1  0.590344  0.177525  0.429074  1
  O  O10  1  0.962063  0.302819  0.078368  1
  O  O11  1  0.570925  0.409656  0.822475  1
  O  O12  1  0.177526  0.429075  0.590343  1
  O  O13  1  0.822474  0.570925  0.409657  1
  O  O14  1  0.429075  0.590344  0.177525  1
  O  O15  1  0.037937  0.697181  0.921632  1
  O  O16  1  0.409656  0.822475  0.570926  1
  O  O17  1  0.697183  0.921632  0.037940  1
  O  O18  1  0.078369  0.962062  0.302818  1
