# generated using pymatgen
data_PrHo5U4O20
_symmetry_space_group_name_H-M   'P 1'
_cell_length_a   6.65396832
_cell_length_b   7.52251380
_cell_length_c   8.45160908
_cell_angle_alpha   100.93090305
_cell_angle_beta   97.85990808
_cell_angle_gamma   107.29822045
_symmetry_Int_Tables_number   1
_chemical_formula_structural   PrHo5U4O20
_chemical_formula_sum   'Pr1 Ho5 U4 O20'
_cell_volume   388.07148422
_cell_formula_units_Z   1
loop_
 _symmetry_equiv_pos_site_id
 _symmetry_equiv_pos_as_xyz
  1  'x, y, z'
loop_
 _atom_site_type_symbol
 _atom_site_label
 _atom_site_symmetry_multiplicity
 _atom_site_fract_x
 _atom_site_fract_y
 _atom_site_fract_z
 _atom_site_occupancy
  Pr  Pr0  1  0.000000  0.500000  0.500000  1
  Ho  Ho1  1  0.614580  0.706180  0.700502  1
  Ho  Ho2  1  0.385420  0.293820  0.299498  1
  Ho  Ho3  1  0.197853  0.898328  0.894529  1
  Ho  Ho4  1  0.802147  0.101672  0.105471  1
  Ho  Ho5  1  0.000000  0.000000  0.500000  1
  U  U6  1  0.404256  0.805714  0.301072  1
  U  U7  1  0.199777  0.400087  0.901915  1
  U  U8  1  0.800223  0.599913  0.098085  1
  U  U9  1  0.595744  0.194286  0.698928  1
  O  O10  1  0.439209  0.530749  0.136724  1
  O  O11  1  0.555089  0.986213  0.841758  1
  O  O12  1  0.269271  0.143492  0.745723  1
  O  O13  1  0.368833  0.594637  0.439691  1
  O  O14  1  0.054987  0.734195  0.329744  1
  O  O15  1  0.444911  0.013787  0.158242  1
  O  O16  1  0.149777  0.182573  0.032205  1
  O  O17  1  0.560791  0.469251  0.863276  1
  O  O18  1  0.854218  0.336126  0.950787  1
  O  O19  1  0.263007  0.611203  0.766597  1
  O  O20  1  0.952240  0.782560  0.658398  1
  O  O21  1  0.354514  0.063134  0.453655  1
  O  O22  1  0.645486  0.936866  0.546345  1
  O  O23  1  0.047760  0.217440  0.341602  1
  O  O24  1  0.736993  0.388797  0.233403  1
  O  O25  1  0.145782  0.663874  0.049213  1
  O  O26  1  0.850223  0.817427  0.967795  1
  O  O27  1  0.945013  0.265805  0.670256  1
  O  O28  1  0.631167  0.405363  0.560309  1
  O  O29  1  0.730729  0.856508  0.254277  1
