# generated using pymatgen
data_HoLu11OsRh3
_symmetry_space_group_name_H-M   'P 1'
_cell_length_a   7.11713888
_cell_length_b   8.99079700
_cell_length_c   6.26416979
_cell_angle_alpha   90.00000000
_cell_angle_beta   90.00823392
_cell_angle_gamma   90.00000000
_symmetry_Int_Tables_number   1
_chemical_formula_structural   HoLu11OsRh3
_chemical_formula_sum   'Ho1 Lu11 Os1 Rh3'
_cell_volume   400.83639563
_cell_formula_units_Z   1
loop_
 _symmetry_equiv_pos_site_id
 _symmetry_equiv_pos_as_xyz
  1  'x, y, z'
loop_
 _atom_site_type_symbol
 _atom_site_label
 _atom_site_symmetry_multiplicity
 _atom_site_fract_x
 _atom_site_fract_y
 _atom_site_fract_z
 _atom_site_occupancy
  Ho  Ho0  1  0.536505  0.250000  0.879355  1
  Lu  Lu1  1  0.677633  0.055958  0.331601  1
  Lu  Lu2  1  0.178363  0.439491  0.174998  1
  Lu  Lu3  1  0.322262  0.562481  0.673636  1
  Lu  Lu4  1  0.819928  0.936485  0.821363  1
  Lu  Lu5  1  0.322262  0.937519  0.673636  1
  Lu  Lu6  1  0.819928  0.563515  0.821363  1
  Lu  Lu7  1  0.677633  0.444042  0.331601  1
  Lu  Lu8  1  0.178363  0.060509  0.174998  1
  Lu  Lu9  1  0.033524  0.250000  0.623268  1
  Lu  Lu10  1  0.464775  0.750000  0.119913  1
  Lu  Lu11  1  0.966964  0.750000  0.378077  1
  Os  Os12  1  0.612797  0.750000  0.532813  1
  Rh  Rh13  1  0.892303  0.250000  0.042637  1
  Rh  Rh14  1  0.385882  0.250000  0.458529  1
  Rh  Rh15  1  0.110875  0.750000  0.962210  1
