# generated using pymatgen
data_DyY15MgCo4Hg3
_symmetry_space_group_name_H-M   'P 1'
_cell_length_a   9.53956733
_cell_length_b   9.52809371
_cell_length_c   9.52809300
_cell_angle_alpha   59.99999899
_cell_angle_beta   60.03977735
_cell_angle_gamma   60.03976709
_symmetry_Int_Tables_number   1
_chemical_formula_structural   DyY15MgCo4Hg3
_chemical_formula_sum   'Dy1 Y15 Mg1 Co4 Hg3'
_cell_volume   612.75448885
_cell_formula_units_Z   1
loop_
 _symmetry_equiv_pos_site_id
 _symmetry_equiv_pos_as_xyz
  1  'x, y, z'
loop_
 _atom_site_type_symbol
 _atom_site_label
 _atom_site_symmetry_multiplicity
 _atom_site_fract_x
 _atom_site_fract_y
 _atom_site_fract_z
 _atom_site_occupancy
  Dy  Dy0  1  0.953349  0.348883  0.348883  1
  Y  Y1  1  0.810071  0.189463  0.189463  1
  Y  Y2  1  0.185577  0.813547  0.813547  1
  Y  Y3  1  0.185577  0.813547  0.187329  1
  Y  Y4  1  0.810071  0.189463  0.811004  1
  Y  Y5  1  0.185577  0.187329  0.813547  1
  Y  Y6  1  0.810071  0.811004  0.189463  1
  Y  Y7  1  0.936598  0.562386  0.562386  1
  Y  Y8  1  0.561874  0.937446  0.937446  1
  Y  Y9  1  0.561874  0.937446  0.563233  1
  Y  Y10  1  0.936598  0.562386  0.938629  1
  Y  Y11  1  0.561874  0.563233  0.937446  1
  Y  Y12  1  0.936598  0.938629  0.562386  1
  Y  Y13  1  0.347533  0.345695  0.345695  1
  Y  Y14  1  0.347533  0.345695  0.961076  1
  Y  Y15  1  0.347533  0.961076  0.345695  1
  Mg  Mg16  1  0.286142  0.571286  0.571286  1
  Co  Co17  1  0.138287  0.142778  0.142778  1
  Co  Co18  1  0.138287  0.142778  0.576156  1
  Co  Co19  1  0.138287  0.576156  0.142778  1
  Co  Co20  1  0.576288  0.141237  0.141237  1
  Hg  Hg21  1  0.581466  0.585211  0.585211  1
  Hg  Hg22  1  0.581466  0.585211  0.248112  1
  Hg  Hg23  1  0.581466  0.248112  0.585211  1
