# generated using pymatgen
data_DyY4Ti3(Co4As3)4
_symmetry_space_group_name_H-M   'P 1'
_cell_length_a   12.58807301
_cell_length_b   12.58807353
_cell_length_c   3.80639100
_cell_angle_alpha   90.00000000
_cell_angle_beta   90.00000000
_cell_angle_gamma   120.00486066
_symmetry_Int_Tables_number   1
_chemical_formula_structural   DyY4Ti3(Co4As3)4
_chemical_formula_sum   'Dy1 Y4 Ti3 Co16 As12'
_cell_volume   522.32556205
_cell_formula_units_Z   1
loop_
 _symmetry_equiv_pos_site_id
 _symmetry_equiv_pos_as_xyz
  1  'x, y, z'
loop_
 _atom_site_type_symbol
 _atom_site_label
 _atom_site_symmetry_multiplicity
 _atom_site_fract_x
 _atom_site_fract_y
 _atom_site_fract_z
 _atom_site_occupancy
  Dy  Dy0  1  0.186076  0.186076  0.500000  1
  Y  Y1  1  0.813933  0.000011  0.500000  1
  Y  Y2  1  0.000011  0.813933  0.500000  1
  Y  Y3  1  0.333322  0.666656  0.000000  1
  Y  Y4  1  0.666656  0.333322  0.000000  1
  Ti  Ti5  1  0.563963  0.563963  0.000000  1
  Ti  Ti6  1  0.436003  0.000022  0.000000  1
  Ti  Ti7  1  0.000022  0.436003  0.000000  1
  Co  Co8  1  0.716406  0.716406  0.500000  1
  Co  Co9  1  0.283564  0.000049  0.500000  1
  Co  Co10  1  0.000049  0.283564  0.500000  1
  Co  Co11  1  0.177195  0.376031  0.000000  1
  Co  Co12  1  0.623868  0.801046  0.000000  1
  Co  Co13  1  0.198948  0.822839  0.000000  1
  Co  Co14  1  0.801046  0.623868  0.000000  1
  Co  Co15  1  0.822839  0.198948  0.000000  1
  Co  Co16  1  0.376031  0.177195  0.000000  1
  Co  Co17  1  0.356136  0.479734  0.500000  1
  Co  Co18  1  0.520192  0.876371  0.500000  1
  Co  Co19  1  0.123633  0.643817  0.500000  1
  Co  Co20  1  0.876371  0.520192  0.500000  1
  Co  Co21  1  0.643817  0.123633  0.500000  1
  Co  Co22  1  0.479734  0.356136  0.500000  1
  Co  Co23  1  0.000154  0.000154  0.000000  1
  As  As24  1  0.821720  0.821720  0.000000  1
  As  As25  1  0.178359  0.000141  0.000000  1
  As  As26  1  0.000141  0.178359  0.000000  1
  As  As27  1  0.168713  0.482777  0.500000  1
  As  As28  1  0.517200  0.685957  0.500000  1
  As  As29  1  0.314072  0.831283  0.500000  1
  As  As30  1  0.685957  0.517200  0.500000  1
  As  As31  1  0.831283  0.314072  0.500000  1
  As  As32  1  0.482777  0.168713  0.500000  1
  As  As33  1  0.359868  0.359868  0.000000  1
  As  As34  1  0.639935  0.000007  0.000000  1
  As  As35  1  0.000007  0.639935  0.000000  1
