# generated using pymatgen
data_La20Ga5Si6P
_symmetry_space_group_name_H-M   'P 1'
_cell_length_a   7.89968454
_cell_length_b   7.89968398
_cell_length_c   14.45296100
_cell_angle_alpha   89.96425761
_cell_angle_beta   90.03574239
_cell_angle_gamma   89.96533884
_symmetry_Int_Tables_number   1
_chemical_formula_structural   La20Ga5Si6P
_chemical_formula_sum   'La20 Ga5 Si6 P1'
_cell_volume   901.93668001
_cell_formula_units_Z   1
loop_
 _symmetry_equiv_pos_site_id
 _symmetry_equiv_pos_as_xyz
  1  'x, y, z'
loop_
 _atom_site_type_symbol
 _atom_site_label
 _atom_site_symmetry_multiplicity
 _atom_site_fract_x
 _atom_site_fract_y
 _atom_site_fract_z
 _atom_site_occupancy
  La  La0  1  0.815108  0.831047  0.606573  1
  La  La1  1  0.183612  0.831800  0.105772  1
  La  La2  1  0.165104  0.813544  0.392735  1
  La  La3  1  0.001271  0.499598  0.723536  1
  La  La4  1  0.831800  0.183612  0.394228  1
  La  La5  1  0.685466  0.668544  0.393484  1
  La  La6  1  0.667460  0.314198  0.606656  1
  La  La7  1  0.330972  0.684937  0.606492  1
  La  La8  1  0.996702  0.506393  0.221931  1
  La  La9  1  0.668544  0.685466  0.106516  1
  La  La10  1  0.684937  0.330972  0.893508  1
  La  La11  1  0.831047  0.815108  0.893427  1
  La  La12  1  0.317848  0.336417  0.397212  1
  La  La13  1  0.184694  0.167589  0.605852  1
  La  La14  1  0.813544  0.165104  0.107265  1
  La  La15  1  0.314198  0.667460  0.893344  1
  La  La16  1  0.336417  0.317848  0.102788  1
  La  La17  1  0.506393  0.996702  0.278069  1
  La  La18  1  0.167589  0.184694  0.894148  1
  La  La19  1  0.499598  0.001271  0.776464  1
  Ga  Ga20  1  0.997343  0.499445  0.502997  1
  Ga  Ga21  1  0.498390  0.998640  0.497707  1
  Ga  Ga22  1  0.499445  0.997343  0.997003  1
  Ga  Ga23  1  0.121504  0.121504  0.250000  1
  Ga  Ga24  1  0.998640  0.498390  0.002293  1
  Si  Si25  1  0.613682  0.386649  0.250344  1
  Si  Si26  1  0.112963  0.886911  0.750103  1
  Si  Si27  1  0.386891  0.386891  0.750000  1
  Si  Si28  1  0.386649  0.613682  0.249656  1
  Si  Si29  1  0.613151  0.613151  0.750000  1
  Si  Si30  1  0.886911  0.112963  0.749897  1
  P  P31  1  0.882128  0.882128  0.250000  1
