# generated using pymatgen
data_La11Y(Si7Cl3)2
_symmetry_space_group_name_H-M   'P 1'
_cell_length_a   4.08984400
_cell_length_b   11.81642700
_cell_length_c   16.61220900
_cell_angle_alpha   90.00000000
_cell_angle_beta   90.00000000
_cell_angle_gamma   90.00000000
_symmetry_Int_Tables_number   1
_chemical_formula_structural   La11Y(Si7Cl3)2
_chemical_formula_sum   'La11 Y1 Si14 Cl6'
_cell_volume   802.82392345
_cell_formula_units_Z   1
loop_
 _symmetry_equiv_pos_site_id
 _symmetry_equiv_pos_as_xyz
  1  'x, y, z'
loop_
 _atom_site_type_symbol
 _atom_site_label
 _atom_site_symmetry_multiplicity
 _atom_site_fract_x
 _atom_site_fract_y
 _atom_site_fract_z
 _atom_site_occupancy
  La  La0  1  0.500000  0.336434  0.500000  1
  La  La1  1  0.000000  0.664172  0.000000  1
  La  La2  1  0.500000  0.355725  0.753075  1
  La  La3  1  0.000000  0.645060  0.743327  1
  La  La4  1  0.500000  0.355725  0.246925  1
  La  La5  1  0.000000  0.645060  0.256673  1
  La  La6  1  0.500000  0.058220  0.878054  1
  La  La7  1  0.000000  0.939425  0.620812  1
  La  La8  1  0.500000  0.058220  0.121946  1
  La  La9  1  0.000000  0.939425  0.379188  1
  La  La10  1  0.500000  0.355647  0.000000  1
  Y  Y11  1  0.000000  0.645884  0.500000  1
  Si  Si12  1  0.000000  0.148368  0.000000  1
  Si  Si13  1  0.500000  0.849477  0.500000  1
  Si  Si14  1  0.500000  0.566146  0.876650  1
  Si  Si15  1  0.000000  0.437457  0.619934  1
  Si  Si16  1  0.500000  0.566146  0.123350  1
  Si  Si17  1  0.000000  0.437457  0.380066  1
  Si  Si18  1  0.000000  0.251600  0.874334  1
  Si  Si19  1  0.500000  0.746353  0.622913  1
  Si  Si20  1  0.000000  0.251600  0.125666  1
  Si  Si21  1  0.500000  0.746353  0.377087  1
  Si  Si22  1  0.000000  0.457629  0.875438  1
  Si  Si23  1  0.500000  0.543976  0.619550  1
  Si  Si24  1  0.500000  0.543976  0.380450  1
  Si  Si25  1  0.000000  0.457629  0.124562  1
  Cl  Cl26  1  0.500000  0.105226  0.693469  1
  Cl  Cl27  1  0.000000  0.893504  0.805102  1
  Cl  Cl28  1  0.000000  0.136984  0.500000  1
  Cl  Cl29  1  0.500000  0.862393  0.000000  1
  Cl  Cl30  1  0.500000  0.105226  0.306531  1
  Cl  Cl31  1  0.000000  0.893504  0.194898  1
