# generated using pymatgen
data_La6Pr9Nd(CdPt)4
_symmetry_space_group_name_H-M   'P 1'
_cell_length_a   10.10466505
_cell_length_b   10.13638192
_cell_length_c   10.15720372
_cell_angle_alpha   59.72539493
_cell_angle_beta   60.21564860
_cell_angle_gamma   60.23968431
_symmetry_Int_Tables_number   1
_chemical_formula_structural   La6Pr9Nd(CdPt)4
_chemical_formula_sum   'La6 Pr9 Nd1 Cd4 Pt4'
_cell_volume   736.60460602
_cell_formula_units_Z   1
loop_
 _symmetry_equiv_pos_site_id
 _symmetry_equiv_pos_as_xyz
  1  'x, y, z'
loop_
 _atom_site_type_symbol
 _atom_site_label
 _atom_site_symmetry_multiplicity
 _atom_site_fract_x
 _atom_site_fract_y
 _atom_site_fract_z
 _atom_site_occupancy
  La  La0  1  0.348154  0.350393  0.350312  1
  La  La1  1  0.351090  0.348623  0.949457  1
  La  La2  1  0.350312  0.951143  0.348154  1
  La  La3  1  0.949457  0.350830  0.351090  1
  La  La4  1  0.809581  0.190641  0.190994  1
  La  La5  1  0.190994  0.808784  0.809581  1
  Pr  Pr6  1  0.807412  0.192588  0.807412  1
  Pr  Pr7  1  0.192601  0.192370  0.807909  1
  Pr  Pr8  1  0.807909  0.807119  0.192601  1
  Pr  Pr9  1  0.935695  0.566639  0.564473  1
  Pr  Pr10  1  0.564473  0.933193  0.935695  1
  Pr  Pr11  1  0.564664  0.935336  0.564664  1
  Pr  Pr12  1  0.934759  0.565241  0.934759  1
  Pr  Pr13  1  0.563711  0.565849  0.936569  1
  Pr  Pr14  1  0.936569  0.933871  0.563711  1
  Nd  Nd15  1  0.192334  0.807666  0.192334  1
  Cd  Cd16  1  0.581151  0.580311  0.580178  1
  Cd  Cd17  1  0.579895  0.581367  0.258253  1
  Cd  Cd18  1  0.580178  0.258358  0.581151  1
  Cd  Cd19  1  0.258253  0.580483  0.579895  1
  Pt  Pt20  1  0.140747  0.142772  0.144149  1
  Pt  Pt21  1  0.143740  0.140264  0.572170  1
  Pt  Pt22  1  0.144149  0.572333  0.140747  1
  Pt  Pt23  1  0.572170  0.143827  0.143740  1
