# generated using pymatgen
data_RbTbNpSe6
_symmetry_space_group_name_H-M   'P 1'
_cell_length_a   11.80054302
_cell_length_b   11.80054266
_cell_length_c   11.80054132
_cell_angle_alpha   159.60451280
_cell_angle_beta   152.40831282
_cell_angle_gamma   34.55518970
_symmetry_Int_Tables_number   1
_chemical_formula_structural   RbTbNpSe6
_chemical_formula_sum   'Rb1 Tb1 Np1 Se6'
_cell_volume   264.98447011
_cell_formula_units_Z   1
loop_
 _symmetry_equiv_pos_site_id
 _symmetry_equiv_pos_as_xyz
  1  'x, y, z'
loop_
 _atom_site_type_symbol
 _atom_site_label
 _atom_site_symmetry_multiplicity
 _atom_site_fract_x
 _atom_site_fract_y
 _atom_site_fract_z
 _atom_site_occupancy
  Rb  Rb0  1  0.998052  0.998052  0.000000  1
  Tb  Tb1  1  0.314689  0.814689  0.500000  1
  Np  Np2  1  0.688013  0.188013  0.500000  1
  Se  Se3  1  0.175531  0.391365  0.784167  1
  Se  Se4  1  0.222563  0.222563  0.000000  1
  Se  Se5  1  0.396268  0.610440  0.785830  1
  Se  Se6  1  0.607199  0.391365  0.215833  1
  Se  Se7  1  0.824611  0.610440  0.214170  1
  Se  Se8  1  0.773074  0.773074  0.000000  1
