# generated using pymatgen
data_NbSCl7O
_symmetry_space_group_name_H-M   'P 1'
_cell_length_a   7.69484300
_cell_length_b   9.62364800
_cell_length_c   17.02002400
_cell_angle_alpha   90.00000000
_cell_angle_beta   90.00000000
_cell_angle_gamma   90.00000000
_symmetry_Int_Tables_number   1
_chemical_formula_structural   NbSCl7O
_chemical_formula_sum   'Nb4 S4 Cl28 O4'
_cell_volume   1260.37465407
_cell_formula_units_Z   4
loop_
 _symmetry_equiv_pos_site_id
 _symmetry_equiv_pos_as_xyz
  1  'x, y, z'
loop_
 _atom_site_type_symbol
 _atom_site_label
 _atom_site_symmetry_multiplicity
 _atom_site_fract_x
 _atom_site_fract_y
 _atom_site_fract_z
 _atom_site_occupancy
  Nb  Nb0  1  0.501458  0.750000  0.366169  1
  Nb  Nb1  1  0.498542  0.250000  0.633831  1
  Nb  Nb2  1  0.998542  0.750000  0.866169  1
  Nb  Nb3  1  0.001458  0.250000  0.133831  1
  S  S4  1  0.666925  0.250000  0.839684  1
  S  S5  1  0.333075  0.750000  0.160316  1
  S  S6  1  0.833075  0.250000  0.339684  1
  S  S7  1  0.166925  0.750000  0.660316  1
  Cl  Cl8  1  0.516290  0.414222  0.878419  1
  Cl  Cl9  1  0.483710  0.585778  0.121581  1
  Cl  Cl10  1  0.478643  0.992339  0.350607  1
  Cl  Cl11  1  0.242193  0.250000  0.217250  1
  Cl  Cl12  1  0.516290  0.085778  0.878419  1
  Cl  Cl13  1  0.716153  0.250000  0.082514  1
  Cl  Cl14  1  0.978643  0.492339  0.149393  1
  Cl  Cl15  1  0.021357  0.507661  0.850607  1
  Cl  Cl16  1  0.483710  0.914222  0.121581  1
  Cl  Cl17  1  0.851782  0.750000  0.981729  1
  Cl  Cl18  1  0.148218  0.250000  0.018271  1
  Cl  Cl19  1  0.521357  0.007661  0.649393  1
  Cl  Cl20  1  0.021357  0.992339  0.850607  1
  Cl  Cl21  1  0.016290  0.585778  0.621581  1
  Cl  Cl22  1  0.521357  0.492339  0.649393  1
  Cl  Cl23  1  0.283847  0.750000  0.917486  1
  Cl  Cl24  1  0.742193  0.750000  0.282750  1
  Cl  Cl25  1  0.016290  0.914222  0.621581  1
  Cl  Cl26  1  0.983710  0.414222  0.378419  1
  Cl  Cl27  1  0.216153  0.750000  0.417486  1
  Cl  Cl28  1  0.351782  0.250000  0.518271  1
  Cl  Cl29  1  0.648218  0.750000  0.481729  1
  Cl  Cl30  1  0.257807  0.250000  0.717250  1
  Cl  Cl31  1  0.978643  0.007661  0.149393  1
  Cl  Cl32  1  0.757807  0.750000  0.782750  1
  Cl  Cl33  1  0.478643  0.507661  0.350607  1
  Cl  Cl34  1  0.983710  0.085778  0.378419  1
  Cl  Cl35  1  0.783847  0.250000  0.582514  1
  O  O36  1  0.160556  0.750000  0.746754  1
  O  O37  1  0.839445  0.250000  0.253246  1
  O  O38  1  0.660555  0.250000  0.753246  1
  O  O39  1  0.339444  0.750000  0.246754  1
