# generated using pymatgen
data_Tb17Tm3(IrRh5)2
_symmetry_space_group_name_H-M   'P 1'
_cell_length_a   10.92297430
_cell_length_b   10.92388800
_cell_length_c   6.36220548
_cell_angle_alpha   89.99956362
_cell_angle_beta   89.99117100
_cell_angle_gamma   90.00022035
_symmetry_Int_Tables_number   1
_chemical_formula_structural   Tb17Tm3(IrRh5)2
_chemical_formula_sum   'Tb17 Tm3 Ir2 Rh10'
_cell_volume   759.14692356
_cell_formula_units_Z   1
loop_
 _symmetry_equiv_pos_site_id
 _symmetry_equiv_pos_as_xyz
  1  'x, y, z'
loop_
 _atom_site_type_symbol
 _atom_site_label
 _atom_site_symmetry_multiplicity
 _atom_site_fract_x
 _atom_site_fract_y
 _atom_site_fract_z
 _atom_site_occupancy
  Tb  Tb0  1  0.290632  0.089902  0.378696  1
  Tb  Tb1  1  0.290190  0.910244  0.879041  1
  Tb  Tb2  1  0.709517  0.088069  0.878175  1
  Tb  Tb3  1  0.709028  0.911830  0.377847  1
  Tb  Tb4  1  0.586474  0.789104  0.878521  1
  Tb  Tb5  1  0.586356  0.210976  0.378622  1
  Tb  Tb6  1  0.411183  0.789335  0.379145  1
  Tb  Tb7  1  0.411045  0.210634  0.879048  1
  Tb  Tb8  1  0.211658  0.413187  0.620686  1
  Tb  Tb9  1  0.211604  0.586924  0.120769  1
  Tb  Tb10  1  0.790096  0.411448  0.121620  1
  Tb  Tb11  1  0.790045  0.588411  0.621486  1
  Tb  Tb12  1  0.912142  0.709851  0.121306  1
  Tb  Tb13  1  0.912032  0.290596  0.621627  1
  Tb  Tb14  1  0.090248  0.708957  0.621964  1
  Tb  Tb15  1  0.090098  0.290551  0.121595  1
  Tb  Tb16  1  0.999676  0.999519  0.500057  1
  Tm  Tm17  1  0.999715  0.000463  0.000045  1
  Tm  Tm18  1  0.499827  0.499558  0.999873  1
  Tm  Tm19  1  0.499846  0.500443  0.499875  1
  Ir  Ir20  1  0.348710  0.347708  0.250158  1
  Ir  Ir21  1  0.348673  0.652223  0.750024  1
  Rh  Rh22  1  0.846368  0.152977  0.248673  1
  Rh  Rh23  1  0.846249  0.847129  0.752073  1
  Rh  Rh24  1  0.152120  0.152777  0.751388  1
  Rh  Rh25  1  0.152074  0.847159  0.247868  1
  Rh  Rh26  1  0.653080  0.348040  0.749865  1
  Rh  Rh27  1  0.653016  0.651987  0.249936  1
  Rh  Rh28  1  0.500318  0.999746  0.123128  1
  Rh  Rh29  1  0.500337  0.000272  0.623052  1
  Rh  Rh30  1  0.998813  0.499860  0.876883  1
  Rh  Rh31  1  0.998831  0.500120  0.376951  1
