# generated using pymatgen
data_ZrTaNb6O12
_symmetry_space_group_name_H-M   'P 1'
_cell_length_a   6.82550893
_cell_length_b   6.82550929
_cell_length_c   6.82550885
_cell_angle_alpha   73.99054490
_cell_angle_beta   73.99053528
_cell_angle_gamma   73.99053192
_symmetry_Int_Tables_number   1
_chemical_formula_structural   ZrTaNb6O12
_chemical_formula_sum   'Zr1 Ta1 Nb6 O12'
_cell_volume   286.84995480
_cell_formula_units_Z   1
loop_
 _symmetry_equiv_pos_site_id
 _symmetry_equiv_pos_as_xyz
  1  'x, y, z'
loop_
 _atom_site_type_symbol
 _atom_site_label
 _atom_site_symmetry_multiplicity
 _atom_site_fract_x
 _atom_site_fract_y
 _atom_site_fract_z
 _atom_site_occupancy
  Zr  Zr0  1  0.276626  0.276626  0.276626  1
  Ta  Ta1  1  0.724393  0.724393  0.724393  1
  Nb  Nb2  1  0.944702  0.112066  0.713643  1
  Nb  Nb3  1  0.713643  0.944702  0.112066  1
  Nb  Nb4  1  0.112066  0.713643  0.944702  1
  Nb  Nb5  1  0.056452  0.890388  0.286597  1
  Nb  Nb6  1  0.286597  0.056452  0.890388  1
  Nb  Nb7  1  0.890388  0.286597  0.056452  1
  O  O8  1  0.171117  0.588062  0.250640  1
  O  O9  1  0.250640  0.171117  0.588062  1
  O  O10  1  0.588062  0.250640  0.171117  1
  O  O11  1  0.824937  0.426454  0.744676  1
  O  O12  1  0.744676  0.824937  0.426454  1
  O  O13  1  0.426454  0.744676  0.824937  1
  O  O14  1  0.648601  0.022485  0.801702  1
  O  O15  1  0.801702  0.648601  0.022485  1
  O  O16  1  0.964818  0.195199  0.356441  1
  O  O17  1  0.195199  0.356441  0.964818  1
  O  O18  1  0.356441  0.964818  0.195199  1
  O  O19  1  0.022485  0.801702  0.648601  1
