# generated using pymatgen
data_Y3TmAl17GaIr6
_symmetry_space_group_name_H-M   'P 1'
_cell_length_a   7.54282073
_cell_length_b   7.54537526
_cell_length_c   9.49861200
_cell_angle_alpha   90.00000000
_cell_angle_beta   90.00000000
_cell_angle_gamma   119.39146114
_symmetry_Int_Tables_number   1
_chemical_formula_structural   Y3TmAl17GaIr6
_chemical_formula_sum   'Y3 Tm1 Al17 Ga1 Ir6'
_cell_volume   471.01636083
_cell_formula_units_Z   1
loop_
 _symmetry_equiv_pos_site_id
 _symmetry_equiv_pos_as_xyz
  1  'x, y, z'
loop_
 _atom_site_type_symbol
 _atom_site_label
 _atom_site_symmetry_multiplicity
 _atom_site_fract_x
 _atom_site_fract_y
 _atom_site_fract_z
 _atom_site_occupancy
  Y  Y0  1  0.993881  0.674843  0.250000  1
  Y  Y1  1  0.004925  0.327556  0.750000  1
  Y  Y2  1  0.674897  0.993849  0.250000  1
  Tm  Tm3  1  0.327160  0.004822  0.750000  1
  Al  Al4  1  0.869968  0.869381  0.750000  1
  Al  Al5  1  0.001626  0.335928  0.073112  1
  Al  Al6  1  0.998940  0.664796  0.925415  1
  Al  Al7  1  0.998940  0.664796  0.574585  1
  Al  Al8  1  0.335924  0.001604  0.427646  1
  Al  Al9  1  0.001626  0.335928  0.426888  1
  Al  Al10  1  0.663500  0.998302  0.574657  1
  Al  Al11  1  0.663500  0.998302  0.925343  1
  Al  Al12  1  0.335924  0.001604  0.072354  1
  Al  Al13  1  0.333370  0.332777  0.554326  1
  Al  Al14  1  0.665499  0.665474  0.449779  1
  Al  Al15  1  0.665499  0.665474  0.050221  1
  Al  Al16  1  0.333370  0.332777  0.945674  1
  Al  Al17  1  0.338803  0.549748  0.250000  1
  Al  Al18  1  0.659847  0.450376  0.750000  1
  Al  Al19  1  0.549550  0.338597  0.250000  1
  Al  Al20  1  0.451247  0.661541  0.750000  1
  Ga  Ga21  1  0.135820  0.135753  0.250000  1
  Ir  Ir22  1  0.670727  0.327299  0.999798  1
  Ir  Ir23  1  0.327602  0.671298  0.999782  1
  Ir  Ir24  1  0.327602  0.671298  0.500218  1
  Ir  Ir25  1  0.670727  0.327299  0.500202  1
  Ir  Ir26  1  0.999765  0.999292  0.997224  1
  Ir  Ir27  1  0.999765  0.999292  0.502776  1
