# generated using pymatgen
data_La4CdAgPd4
_symmetry_space_group_name_H-M   'P 1'
_cell_length_a   7.87903300
_cell_length_b   7.87903300
_cell_length_c   4.00270100
_cell_angle_alpha   90.00000000
_cell_angle_beta   90.00000000
_cell_angle_gamma   90.00000000
_symmetry_Int_Tables_number   1
_chemical_formula_structural   La4CdAgPd4
_chemical_formula_sum   'La4 Cd1 Ag1 Pd4'
_cell_volume   248.48431987
_cell_formula_units_Z   1
loop_
 _symmetry_equiv_pos_site_id
 _symmetry_equiv_pos_as_xyz
  1  'x, y, z'
loop_
 _atom_site_type_symbol
 _atom_site_label
 _atom_site_symmetry_multiplicity
 _atom_site_fract_x
 _atom_site_fract_y
 _atom_site_fract_z
 _atom_site_occupancy
  La  La0  1  0.678599  0.172360  0.500000  1
  La  La1  1  0.321401  0.827640  0.500000  1
  La  La2  1  0.172360  0.321401  0.500000  1
  La  La3  1  0.827640  0.678599  0.500000  1
  Cd  Cd4  1  0.500000  0.500000  0.000000  1
  Ag  Ag5  1  0.000000  0.000000  0.000000  1
  Pd  Pd6  1  0.128906  0.627912  0.000000  1
  Pd  Pd7  1  0.871094  0.372088  0.000000  1
  Pd  Pd8  1  0.627912  0.871094  0.000000  1
  Pd  Pd9  1  0.372088  0.128906  0.000000  1
