# generated using pymatgen
data_PuMgSiIr2
_symmetry_space_group_name_H-M   'P 1'
_cell_length_a   4.05380000
_cell_length_b   4.05380000
_cell_length_c   11.19382800
_cell_angle_alpha   90.00000000
_cell_angle_beta   90.00000000
_cell_angle_gamma   90.00000000
_symmetry_Int_Tables_number   1
_chemical_formula_structural   PuMgSiIr2
_chemical_formula_sum   'Pu2 Mg2 Si2 Ir4'
_cell_volume   183.95147143
_cell_formula_units_Z   2
loop_
 _symmetry_equiv_pos_site_id
 _symmetry_equiv_pos_as_xyz
  1  'x, y, z'
loop_
 _atom_site_type_symbol
 _atom_site_label
 _atom_site_symmetry_multiplicity
 _atom_site_fract_x
 _atom_site_fract_y
 _atom_site_fract_z
 _atom_site_occupancy
  Pu  Pu0  1  0.000000  0.500000  0.242874  1
  Pu  Pu1  1  0.500000  0.000000  0.757126  1
  Mg  Mg2  1  0.000000  0.000000  0.500000  1
  Mg  Mg3  1  0.500000  0.500000  0.500000  1
  Si  Si4  1  0.000000  0.500000  0.885599  1
  Si  Si5  1  0.500000  0.000000  0.114401  1
  Ir  Ir6  1  0.000000  0.000000  0.000000  1
  Ir  Ir7  1  0.500000  0.500000  0.000000  1
  Ir  Ir8  1  0.000000  0.500000  0.673334  1
  Ir  Ir9  1  0.500000  0.000000  0.326666  1
