# generated using pymatgen
data_Yb(WC)4
_symmetry_space_group_name_H-M   'P 1'
_cell_length_a   8.39118000
_cell_length_b   8.39118000
_cell_length_c   3.23898600
_cell_angle_alpha   90.00000000
_cell_angle_beta   90.00000000
_cell_angle_gamma   90.00000000
_symmetry_Int_Tables_number   1
_chemical_formula_structural   Yb(WC)4
_chemical_formula_sum   'Yb2 W8 C8'
_cell_volume   228.06316414
_cell_formula_units_Z   2
loop_
 _symmetry_equiv_pos_site_id
 _symmetry_equiv_pos_as_xyz
  1  'x, y, z'
loop_
 _atom_site_type_symbol
 _atom_site_label
 _atom_site_symmetry_multiplicity
 _atom_site_fract_x
 _atom_site_fract_y
 _atom_site_fract_z
 _atom_site_occupancy
  Yb  Yb0  1  0.000000  0.000000  0.000000  1
  Yb  Yb1  1  0.500000  0.500000  0.500000  1
  W  W2  1  0.380117  0.175299  0.000000  1
  W  W3  1  0.175299  0.619883  0.000000  1
  W  W4  1  0.317147  0.869120  0.500000  1
  W  W5  1  0.130880  0.317147  0.500000  1
  W  W6  1  0.619883  0.824701  0.000000  1
  W  W7  1  0.682853  0.130880  0.500000  1
  W  W8  1  0.869120  0.682853  0.500000  1
  W  W9  1  0.824701  0.380117  0.000000  1
  C  C10  1  0.768929  0.904365  0.500000  1
  C  C11  1  0.231071  0.095635  0.500000  1
  C  C12  1  0.904365  0.231071  0.500000  1
  C  C13  1  0.275033  0.395767  0.000000  1
  C  C14  1  0.395767  0.724967  0.000000  1
  C  C15  1  0.095635  0.768929  0.500000  1
  C  C16  1  0.604233  0.275033  0.000000  1
  C  C17  1  0.724967  0.604233  0.000000  1
