# generated using pymatgen
data_Eu2(Al3Pd)3
_symmetry_space_group_name_H-M   'P 1'
_cell_length_a   7.73193543
_cell_length_b   7.73193500
_cell_length_c   9.65263100
_cell_angle_alpha   90.00000000
_cell_angle_beta   90.00000000
_cell_angle_gamma   119.45979466
_symmetry_Int_Tables_number   1
_chemical_formula_structural   Eu2(Al3Pd)3
_chemical_formula_sum   'Eu4 Al18 Pd6'
_cell_volume   502.44805773
_cell_formula_units_Z   2
loop_
 _symmetry_equiv_pos_site_id
 _symmetry_equiv_pos_as_xyz
  1  'x, y, z'
loop_
 _atom_site_type_symbol
 _atom_site_label
 _atom_site_symmetry_multiplicity
 _atom_site_fract_x
 _atom_site_fract_y
 _atom_site_fract_z
 _atom_site_occupancy
  Eu  Eu0  1  0.996615  0.669693  0.250000  1
  Eu  Eu1  1  0.003385  0.330307  0.750000  1
  Eu  Eu2  1  0.669693  0.996615  0.250000  1
  Eu  Eu3  1  0.330307  0.003385  0.750000  1
  Al  Al4  1  0.131918  0.131918  0.250000  1
  Al  Al5  1  0.868082  0.868082  0.750000  1
  Al  Al6  1  0.002533  0.334773  0.074519  1
  Al  Al7  1  0.997467  0.665227  0.925481  1
  Al  Al8  1  0.997467  0.665227  0.574519  1
  Al  Al9  1  0.334773  0.002533  0.425481  1
  Al  Al10  1  0.002533  0.334773  0.425481  1
  Al  Al11  1  0.665227  0.997467  0.574519  1
  Al  Al12  1  0.665227  0.997467  0.925481  1
  Al  Al13  1  0.334773  0.002533  0.074519  1
  Al  Al14  1  0.334399  0.334399  0.554064  1
  Al  Al15  1  0.665601  0.665601  0.445936  1
  Al  Al16  1  0.665601  0.665601  0.054064  1
  Al  Al17  1  0.334399  0.334399  0.945936  1
  Al  Al18  1  0.338909  0.544480  0.250000  1
  Al  Al19  1  0.661091  0.455520  0.750000  1
  Al  Al20  1  0.544480  0.338909  0.250000  1
  Al  Al21  1  0.455520  0.661091  0.750000  1
  Pd  Pd22  1  0.670962  0.329038  0.000000  1
  Pd  Pd23  1  0.329038  0.670962  0.000000  1
  Pd  Pd24  1  0.329038  0.670962  0.500000  1
  Pd  Pd25  1  0.670962  0.329038  0.500000  1
  Pd  Pd26  1  0.000000  0.000000  0.000000  1
  Pd  Pd27  1  0.000000  0.000000  0.500000  1
