# generated using pymatgen
data_ZrSc(NbP)2
_symmetry_space_group_name_H-M   'P 1'
_cell_length_a   3.56699100
_cell_length_b   6.94406100
_cell_length_c   8.34450200
_cell_angle_alpha   90.00000000
_cell_angle_beta   90.00000000
_cell_angle_gamma   90.00000000
_symmetry_Int_Tables_number   1
_chemical_formula_structural   ZrSc(NbP)2
_chemical_formula_sum   'Zr2 Sc2 Nb4 P4'
_cell_volume   206.68833363
_cell_formula_units_Z   2
loop_
 _symmetry_equiv_pos_site_id
 _symmetry_equiv_pos_as_xyz
  1  'x, y, z'
loop_
 _atom_site_type_symbol
 _atom_site_label
 _atom_site_symmetry_multiplicity
 _atom_site_fract_x
 _atom_site_fract_y
 _atom_site_fract_z
 _atom_site_occupancy
  Zr  Zr0  1  0.250000  0.035148  0.666474  1
  Zr  Zr1  1  0.750000  0.464852  0.166474  1
  Sc  Sc2  1  0.250000  0.534353  0.832794  1
  Sc  Sc3  1  0.750000  0.965647  0.332794  1
  Nb  Nb4  1  0.250000  0.137233  0.059235  1
  Nb  Nb5  1  0.750000  0.861655  0.940220  1
  Nb  Nb6  1  0.250000  0.638345  0.440220  1
  Nb  Nb7  1  0.750000  0.362767  0.559235  1
  P  P8  1  0.750000  0.736753  0.642855  1
  P  P9  1  0.250000  0.763247  0.142855  1
  P  P10  1  0.750000  0.239429  0.858421  1
  P  P11  1  0.250000  0.260571  0.358421  1
