# generated using pymatgen
data_PmZn4Pt
_symmetry_space_group_name_H-M   'P 1'
_cell_length_a   5.31548001
_cell_length_b   5.31546127
_cell_length_c   4.38150900
_cell_angle_alpha   90.00000000
_cell_angle_beta   90.00000000
_cell_angle_gamma   60.00194082
_symmetry_Int_Tables_number   1
_chemical_formula_structural   PmZn4Pt
_chemical_formula_sum   'Pm1 Zn4 Pt1'
_cell_volume   107.21271149
_cell_formula_units_Z   1
loop_
 _symmetry_equiv_pos_site_id
 _symmetry_equiv_pos_as_xyz
  1  'x, y, z'
loop_
 _atom_site_type_symbol
 _atom_site_label
 _atom_site_symmetry_multiplicity
 _atom_site_fract_x
 _atom_site_fract_y
 _atom_site_fract_z
 _atom_site_occupancy
  Pm  Pm0  1  0.999999  0.000001  0.000000  1
  Zn  Zn1  1  0.333338  0.333340  0.000000  1
  Zn  Zn2  1  0.500082  0.000569  0.499999  1
  Zn  Zn3  1  0.000568  0.499346  0.499999  1
  Zn  Zn4  1  0.499346  0.500081  0.499999  1
  Pt  Pt5  1  0.666663  0.666666  0.000000  1
