# generated using pymatgen
data_Os3O7
_symmetry_space_group_name_H-M   'P 1'
_cell_length_a   7.63271700
_cell_length_b   7.63271827
_cell_length_c   4.57761000
_cell_angle_alpha   90.00000000
_cell_angle_beta   90.00000000
_cell_angle_gamma   119.99999883
_symmetry_Int_Tables_number   1
_chemical_formula_structural   Os3O7
_chemical_formula_sum   'Os6 O14'
_cell_volume   230.95523928
_cell_formula_units_Z   2
loop_
 _symmetry_equiv_pos_site_id
 _symmetry_equiv_pos_as_xyz
  1  'x, y, z'
loop_
 _atom_site_type_symbol
 _atom_site_label
 _atom_site_symmetry_multiplicity
 _atom_site_fract_x
 _atom_site_fract_y
 _atom_site_fract_z
 _atom_site_occupancy
  Os  Os0  1  0.384085  0.454572  0.449360  1
  Os  Os1  1  0.070486  0.615915  0.449360  1
  Os  Os2  1  0.545428  0.929514  0.449360  1
  Os  Os3  1  0.262903  0.050899  0.949532  1
  Os  Os4  1  0.949099  0.212003  0.949532  1
  Os  Os5  1  0.787998  0.737097  0.949532  1
  O  O6  1  0.000000  0.000000  0.132737  1
  O  O7  1  0.733522  0.137614  0.208029  1
  O  O8  1  0.404091  0.266478  0.208029  1
  O  O9  1  0.862387  0.595909  0.208029  1
  O  O10  1  0.141086  0.430052  0.220646  1
  O  O11  1  0.569948  0.711035  0.220646  1
  O  O12  1  0.288965  0.858914  0.220646  1
  O  O13  1  0.333333  0.666666  0.632848  1
  O  O14  1  0.470874  0.070795  0.708204  1
  O  O15  1  0.929206  0.400080  0.708204  1
  O  O16  1  0.599921  0.529126  0.708204  1
  O  O17  1  0.192208  0.236563  0.720699  1
  O  O18  1  0.044354  0.807792  0.720699  1
  O  O19  1  0.763437  0.955646  0.720699  1
