# generated using pymatgen
data_GdHo2Mg3Al2Hg
_symmetry_space_group_name_H-M   'P 1'
_cell_length_a   7.47290500
_cell_length_b   7.51541724
_cell_length_c   4.43475400
_cell_angle_alpha   90.00000000
_cell_angle_beta   90.00000000
_cell_angle_gamma   119.81305897
_symmetry_Int_Tables_number   1
_chemical_formula_structural   GdHo2Mg3Al2Hg
_chemical_formula_sum   'Gd1 Ho2 Mg3 Al2 Hg1'
_cell_volume   216.10148152
_cell_formula_units_Z   1
loop_
 _symmetry_equiv_pos_site_id
 _symmetry_equiv_pos_as_xyz
  1  'x, y, z'
loop_
 _atom_site_type_symbol
 _atom_site_label
 _atom_site_symmetry_multiplicity
 _atom_site_fract_x
 _atom_site_fract_y
 _atom_site_fract_z
 _atom_site_occupancy
  Gd  Gd0  1  0.574296  0.000000  0.000000  1
  Ho  Ho1  1  0.999337  0.574923  0.000000  1
  Ho  Ho2  1  0.424415  0.425077  0.000000  1
  Mg  Mg3  1  0.752489  0.751821  0.500000  1
  Mg  Mg4  1  0.246863  0.000000  0.500000  1
  Mg  Mg5  1  0.000667  0.248179  0.500000  1
  Al  Al6  1  0.667541  0.336249  0.500000  1
  Al  Al7  1  0.331292  0.663751  0.500000  1
  Hg  Hg8  1  0.003100  0.000000  0.000000  1
