# generated using pymatgen
data_Ba5PrRe3O16
_symmetry_space_group_name_H-M   'P 1'
_cell_length_a   6.08534863
_cell_length_b   6.10097446
_cell_length_c   10.80630200
_cell_angle_alpha   93.41026707
_cell_angle_beta   93.28803993
_cell_angle_gamma   90.07782178
_symmetry_Int_Tables_number   1
_chemical_formula_structural   Ba5PrRe3O16
_chemical_formula_sum   'Ba5 Pr1 Re3 O16'
_cell_volume   399.82646759
_cell_formula_units_Z   1
loop_
 _symmetry_equiv_pos_site_id
 _symmetry_equiv_pos_as_xyz
  1  'x, y, z'
loop_
 _atom_site_type_symbol
 _atom_site_label
 _atom_site_symmetry_multiplicity
 _atom_site_fract_x
 _atom_site_fract_y
 _atom_site_fract_z
 _atom_site_occupancy
  Ba  Ba0  1  0.508132  0.031717  0.215906  1
  Ba  Ba1  1  0.032785  0.504090  0.217167  1
  Ba  Ba2  1  0.999999  0.999999  0.500000  1
  Ba  Ba3  1  0.967220  0.495913  0.782823  1
  Ba  Ba4  1  0.491875  0.968281  0.784075  1
  Pr  Pr5  1  0.499998  0.499985  0.000000  1
  Re  Re6  1  0.000001  0.999983  0.000008  1
  Re  Re7  1  0.563295  0.563357  0.393117  1
  Re  Re8  1  0.436713  0.436657  0.606881  1
  O  O9  1  0.746052  0.190463  0.001857  1
  O  O10  1  0.813025  0.750547  0.022948  1
  O  O11  1  0.046803  0.049190  0.171700  1
  O  O12  1  0.476293  0.475447  0.208509  1
  O  O13  1  0.763640  0.763886  0.332012  1
  O  O14  1  0.325763  0.750562  0.374929  1
  O  O15  1  0.752869  0.327542  0.375322  1
  O  O16  1  0.329622  0.328014  0.438672  1
  O  O17  1  0.670392  0.672013  0.561348  1
  O  O18  1  0.247150  0.672447  0.624681  1
  O  O19  1  0.674215  0.249466  0.625072  1
  O  O20  1  0.236382  0.236141  0.667971  1
  O  O21  1  0.523700  0.524550  0.791483  1
  O  O22  1  0.953183  0.950795  0.828312  1
  O  O23  1  0.186962  0.249435  0.977064  1
  O  O24  1  0.253926  0.809511  0.998154  1
