# generated using pymatgen
data_Th3AlHg2Pd3
_symmetry_space_group_name_H-M   'P 1'
_cell_length_a   7.58632100
_cell_length_b   7.75448083
_cell_length_c   4.02261100
_cell_angle_alpha   90.00000000
_cell_angle_beta   90.00000000
_cell_angle_gamma   119.28519225
_symmetry_Int_Tables_number   1
_chemical_formula_structural   Th3AlHg2Pd3
_chemical_formula_sum   'Th3 Al1 Hg2 Pd3'
_cell_volume   206.39821184
_cell_formula_units_Z   1
loop_
 _symmetry_equiv_pos_site_id
 _symmetry_equiv_pos_as_xyz
  1  'x, y, z'
loop_
 _atom_site_type_symbol
 _atom_site_label
 _atom_site_symmetry_multiplicity
 _atom_site_fract_x
 _atom_site_fract_y
 _atom_site_fract_z
 _atom_site_occupancy
  Th  Th0  1  0.002454  0.595366  0.500000  1
  Th  Th1  1  0.407086  0.404634  0.500000  1
  Th  Th2  1  0.588374  0.000000  0.500000  1
  Al  Al3  1  0.249047  0.000000  0.000000  1
  Hg  Hg4  1  0.999072  0.255942  0.000000  1
  Hg  Hg5  1  0.743129  0.744058  0.000000  1
  Pd  Pd6  1  0.042192  0.000000  0.500000  1
  Pd  Pd7  1  0.326753  0.684862  0.000000  1
  Pd  Pd8  1  0.641891  0.315138  0.000000  1
