# generated using pymatgen
data_Tm16AlIn6Ag
_symmetry_space_group_name_H-M   'P 1'
_cell_length_a   10.55439800
_cell_length_b   10.55471775
_cell_length_c   6.74615500
_cell_angle_alpha   89.99964715
_cell_angle_beta   89.99997286
_cell_angle_gamma   119.99899788
_symmetry_Int_Tables_number   1
_chemical_formula_structural   Tm16AlIn6Ag
_chemical_formula_sum   'Tm16 Al1 In6 Ag1'
_cell_volume   650.83578463
_cell_formula_units_Z   1
loop_
 _symmetry_equiv_pos_site_id
 _symmetry_equiv_pos_as_xyz
  1  'x, y, z'
loop_
 _atom_site_type_symbol
 _atom_site_label
 _atom_site_symmetry_multiplicity
 _atom_site_fract_x
 _atom_site_fract_y
 _atom_site_fract_z
 _atom_site_occupancy
  Tm  Tm0  1  0.516740  0.033426  0.519338  1
  Tm  Tm1  1  0.966575  0.483270  0.519390  1
  Tm  Tm2  1  0.516729  0.483286  0.519367  1
  Tm  Tm3  1  0.480291  0.960619  0.016639  1
  Tm  Tm4  1  0.039425  0.519742  0.016629  1
  Tm  Tm5  1  0.480268  0.519747  0.016616  1
  Tm  Tm6  1  0.170055  0.340151  0.738794  1
  Tm  Tm7  1  0.659839  0.829933  0.738760  1
  Tm  Tm8  1  0.170069  0.829909  0.738752  1
  Tm  Tm9  1  0.826900  0.653752  0.237247  1
  Tm  Tm10  1  0.346273  0.173106  0.237230  1
  Tm  Tm11  1  0.826827  0.173137  0.237267  1
  Tm  Tm12  1  0.666669  0.333302  0.867255  1
  Tm  Tm13  1  0.333324  0.666650  0.345894  1
  Tm  Tm14  1  0.999974  0.000055  0.500721  1
  Tm  Tm15  1  0.000026  0.000004  0.003357  1
  Al  Al16  1  0.333348  0.666637  0.801845  1
  In  In17  1  0.835120  0.670226  0.750741  1
  In  In18  1  0.329762  0.164875  0.750749  1
  In  In19  1  0.835098  0.164850  0.750809  1
  In  In20  1  0.164565  0.329083  0.253358  1
  In  In21  1  0.670912  0.835418  0.253326  1
  In  In22  1  0.164525  0.835465  0.253320  1
  Ag  Ag23  1  0.666686  0.333362  0.290599  1
