# generated using pymatgen
data_Tb7Y3(SnBi)3
_symmetry_space_group_name_H-M   'P 1'
_cell_length_a   9.09796972
_cell_length_b   9.12430619
_cell_length_c   6.49861000
_cell_angle_alpha   90.00000000
_cell_angle_beta   90.00000000
_cell_angle_gamma   119.94268403
_symmetry_Int_Tables_number   1
_chemical_formula_structural   Tb7Y3(SnBi)3
_chemical_formula_sum   'Tb7 Y3 Sn3 Bi3'
_cell_volume   467.46164458
_cell_formula_units_Z   1
loop_
 _symmetry_equiv_pos_site_id
 _symmetry_equiv_pos_as_xyz
  1  'x, y, z'
loop_
 _atom_site_type_symbol
 _atom_site_label
 _atom_site_symmetry_multiplicity
 _atom_site_fract_x
 _atom_site_fract_y
 _atom_site_fract_z
 _atom_site_occupancy
  Tb  Tb0  1  0.759325  0.753599  0.250000  1
  Tb  Tb1  1  0.764912  0.005732  0.750000  1
  Tb  Tb2  1  0.325773  0.659320  0.498609  1
  Tb  Tb3  1  0.671802  0.337954  0.498589  1
  Tb  Tb4  1  0.999968  0.755743  0.750000  1
  Tb  Tb5  1  0.325773  0.659320  0.001391  1
  Tb  Tb6  1  0.671802  0.337954  0.001411  1
  Y  Y7  1  0.005171  0.245911  0.250000  1
  Y  Y8  1  0.236210  0.999623  0.250000  1
  Y  Y9  1  0.237628  0.243240  0.750000  1
  Sn  Sn10  1  0.998015  0.392399  0.750000  1
  Sn  Sn11  1  0.392894  0.389952  0.250000  1
  Sn  Sn12  1  0.001330  0.608828  0.250000  1
  Bi  Bi13  1  0.608475  0.611142  0.750000  1
  Bi  Bi14  1  0.391956  0.000747  0.750000  1
  Bi  Bi15  1  0.608968  0.998538  0.250000  1
