# generated using pymatgen
data_Ho10Tl5In3(PdRh)2
_symmetry_space_group_name_H-M   'P 1'
_cell_length_a   3.61734200
_cell_length_b   8.17463604
_cell_length_c   18.34710527
_cell_angle_alpha   89.96610370
_cell_angle_beta   90.00000000
_cell_angle_gamma   90.00000000
_symmetry_Int_Tables_number   1
_chemical_formula_structural   Ho10Tl5In3(PdRh)2
_chemical_formula_sum   'Ho10 Tl5 In3 Pd2 Rh2'
_cell_volume   542.53214240
_cell_formula_units_Z   1
loop_
 _symmetry_equiv_pos_site_id
 _symmetry_equiv_pos_as_xyz
  1  'x, y, z'
loop_
 _atom_site_type_symbol
 _atom_site_label
 _atom_site_symmetry_multiplicity
 _atom_site_fract_x
 _atom_site_fract_y
 _atom_site_fract_z
 _atom_site_occupancy
  Ho  Ho0  1  0.000000  0.498776  0.498838  1
  Ho  Ho1  1  0.000000  0.000035  0.000267  1
  Ho  Ho2  1  0.000000  0.732485  0.278996  1
  Ho  Ho3  1  0.000000  0.268642  0.721035  1
  Ho  Ho4  1  0.000000  0.745625  0.781620  1
  Ho  Ho5  1  0.000000  0.253774  0.218650  1
  Ho  Ho6  1  0.000000  0.615041  0.089063  1
  Ho  Ho7  1  0.000000  0.384985  0.911862  1
  Ho  Ho8  1  0.000000  0.884454  0.587535  1
  Ho  Ho9  1  0.000000  0.115678  0.412561  1
  Tl  Tl10  1  0.500000  0.708017  0.934262  1
  Tl  Tl11  1  0.500000  0.292472  0.066062  1
  Tl  Tl12  1  0.500000  0.791566  0.433777  1
  Tl  Tl13  1  0.500000  0.205365  0.565026  1
  Tl  Tl14  1  0.500000  0.580299  0.648806  1
  In  In15  1  0.500000  0.419937  0.349284  1
  In  In16  1  0.500000  0.919355  0.150857  1
  In  In17  1  0.500000  0.081000  0.849362  1
  Pd  Pd18  1  0.500000  0.977287  0.698505  1
  Pd  Pd19  1  0.500000  0.025455  0.301721  1
  Rh  Rh20  1  0.500000  0.526136  0.197146  1
  Rh  Rh21  1  0.500000  0.473616  0.804763  1
