# generated using pymatgen
data_La16Cd4TcPt3
_symmetry_space_group_name_H-M   'P 1'
_cell_length_a   10.22651507
_cell_length_b   10.22651495
_cell_length_c   10.22651422
_cell_angle_alpha   59.43193202
_cell_angle_beta   59.43193225
_cell_angle_gamma   59.43193332
_symmetry_Int_Tables_number   1
_chemical_formula_structural   La16Cd4TcPt3
_chemical_formula_sum   'La16 Cd4 Tc1 Pt3'
_cell_volume   746.48009791
_cell_formula_units_Z   1
loop_
 _symmetry_equiv_pos_site_id
 _symmetry_equiv_pos_as_xyz
  1  'x, y, z'
loop_
 _atom_site_type_symbol
 _atom_site_label
 _atom_site_symmetry_multiplicity
 _atom_site_fract_x
 _atom_site_fract_y
 _atom_site_fract_z
 _atom_site_occupancy
  La  La0  1  0.599957  0.599957  0.599957  1
  La  La1  1  0.595182  0.595182  0.207092  1
  La  La2  1  0.595182  0.207092  0.595182  1
  La  La3  1  0.207092  0.595182  0.595182  1
  La  La4  1  0.067457  0.438549  0.438549  1
  La  La5  1  0.441903  0.056756  0.056756  1
  La  La6  1  0.438549  0.067457  0.438549  1
  La  La7  1  0.056756  0.441903  0.056756  1
  La  La8  1  0.438549  0.438549  0.067457  1
  La  La9  1  0.056756  0.056756  0.441903  1
  La  La10  1  0.187042  0.813664  0.813664  1
  La  La11  1  0.805073  0.189432  0.189432  1
  La  La12  1  0.813664  0.187042  0.813664  1
  La  La13  1  0.189432  0.805073  0.189432  1
  La  La14  1  0.813664  0.813664  0.187042  1
  La  La15  1  0.189432  0.189432  0.805073  1
  Cd  Cd16  1  0.829343  0.829343  0.829343  1
  Cd  Cd17  1  0.829875  0.829875  0.509798  1
  Cd  Cd18  1  0.829875  0.509798  0.829875  1
  Cd  Cd19  1  0.509798  0.829875  0.829875  1
  Tc  Tc20  1  0.391015  0.391015  0.391015  1
  Pt  Pt21  1  0.394418  0.394418  0.825568  1
  Pt  Pt22  1  0.394418  0.825568  0.394418  1
  Pt  Pt23  1  0.825568  0.394418  0.394418  1
