# generated using pymatgen
data_PrSm3V4F28
_symmetry_space_group_name_H-M   'P 1'
_cell_length_a   5.60571617
_cell_length_b   9.03559057
_cell_length_c   12.04618001
_cell_angle_alpha   62.87452445
_cell_angle_beta   89.98192148
_cell_angle_gamma   89.97264693
_symmetry_Int_Tables_number   1
_chemical_formula_structural   PrSm3V4F28
_chemical_formula_sum   'Pr1 Sm3 V4 F28'
_cell_volume   543.04011461
_cell_formula_units_Z   1
loop_
 _symmetry_equiv_pos_site_id
 _symmetry_equiv_pos_as_xyz
  1  'x, y, z'
loop_
 _atom_site_type_symbol
 _atom_site_label
 _atom_site_symmetry_multiplicity
 _atom_site_fract_x
 _atom_site_fract_y
 _atom_site_fract_z
 _atom_site_occupancy
  Pr  Pr0  1  0.758288  0.808584  0.768426  1
  Sm  Sm1  1  0.259044  0.196756  0.730322  1
  Sm  Sm2  1  0.241290  0.193184  0.231201  1
  Sm  Sm3  1  0.741159  0.808470  0.268346  1
  V  V4  1  0.753976  0.271320  0.957214  1
  V  V5  1  0.253114  0.726296  0.541398  1
  V  V6  1  0.245450  0.725746  0.046656  1
  V  V7  1  0.745135  0.275789  0.454662  1
  F  F8  1  0.441985  0.706119  0.926123  1
  F  F9  1  0.945003  0.292814  0.575192  1
  F  F10  1  0.554016  0.290667  0.076670  1
  F  F11  1  0.055036  0.707310  0.421340  1
  F  F12  1  0.466385  0.285758  0.542863  1
  F  F13  1  0.966013  0.713159  0.960631  1
  F  F14  1  0.534435  0.715207  0.455053  1
  F  F15  1  0.033149  0.282994  0.044778  1
  F  F16  1  0.766416  0.499406  0.865553  1
  F  F17  1  0.265434  0.497051  0.633338  1
  F  F18  1  0.236241  0.496408  0.137989  1
  F  F19  1  0.734581  0.503857  0.363573  1
  F  F20  1  0.758645  0.044642  0.047107  1
  F  F21  1  0.258552  0.952981  0.452301  1
  F  F22  1  0.241132  0.951848  0.955573  1
  F  F23  1  0.741257  0.048388  0.544436  1
  F  F24  1  0.980102  0.729958  0.632573  1
  F  F25  1  0.481229  0.267785  0.864611  1
  F  F26  1  0.016923  0.268354  0.362737  1
  F  F27  1  0.518935  0.731874  0.137827  1
  F  F28  1  0.048199  0.745461  0.168732  1
  F  F29  1  0.546220  0.255066  0.333148  1
  F  F30  1  0.953084  0.252600  0.834724  1
  F  F31  1  0.447002  0.743324  0.665237  1
  F  F32  1  0.415735  0.972231  0.229997  1
  F  F33  1  0.916243  0.028597  0.269961  1
  F  F34  1  0.585737  0.035813  0.771187  1
  F  F35  1  0.094856  0.974182  0.728523  1
