# generated using pymatgen
data_Ho5CoP12Ru17Pt
_symmetry_space_group_name_H-M   'P 1'
_cell_length_a   12.58165631
_cell_length_b   12.47662814
_cell_length_c   3.96948400
_cell_angle_alpha   90.00000000
_cell_angle_beta   90.00000000
_cell_angle_gamma   120.39300611
_symmetry_Int_Tables_number   1
_chemical_formula_structural   Ho5CoP12Ru17Pt
_chemical_formula_sum   'Ho5 Co1 P12 Ru17 Pt1'
_cell_volume   537.48480261
_cell_formula_units_Z   1
loop_
 _symmetry_equiv_pos_site_id
 _symmetry_equiv_pos_as_xyz
  1  'x, y, z'
loop_
 _atom_site_type_symbol
 _atom_site_label
 _atom_site_symmetry_multiplicity
 _atom_site_fract_x
 _atom_site_fract_y
 _atom_site_fract_z
 _atom_site_occupancy
  Ho  Ho0  1  0.661821  0.331121  0.000000  1
  Ho  Ho1  1  0.335247  0.667627  0.000000  1
  Ho  Ho2  1  0.818534  0.818576  0.500000  1
  Ho  Ho3  1  0.183616  0.999349  0.500000  1
  Ho  Ho4  1  0.000757  0.183524  0.500000  1
  Co  Co5  1  0.999913  0.999198  0.000000  1
  P  P6  1  0.685608  0.162140  0.500000  1
  P  P7  1  0.824758  0.528837  0.500000  1
  P  P8  1  0.474427  0.306025  0.500000  1
  P  P9  1  0.169959  0.692917  0.500000  1
  P  P10  1  0.524580  0.830539  0.500000  1
  P  P11  1  0.306759  0.477357  0.500000  1
  P  P12  1  0.176914  0.175541  0.000000  1
  P  P13  1  0.825489  0.002112  0.000000  1
  P  P14  1  0.001804  0.823647  0.000000  1
  P  P15  1  0.628264  0.629093  0.000000  1
  P  P16  1  0.372257  0.998626  0.000000  1
  P  P17  1  0.010019  0.371680  0.000000  1
  Ru  Ru18  1  0.632758  0.508754  0.500000  1
  Ru  Ru19  1  0.489522  0.126084  0.500000  1
  Ru  Ru20  1  0.366027  0.872884  0.500000  1
  Ru  Ru21  1  0.508385  0.635119  0.500000  1
  Ru  Ru22  1  0.124916  0.489578  0.500000  1
  Ru  Ru23  1  0.445981  0.444024  0.000000  1
  Ru  Ru24  1  0.557460  0.002253  0.000000  1
  Ru  Ru25  1  0.997706  0.551107  0.000000  1
  Ru  Ru26  1  0.812327  0.188486  0.000000  1
  Ru  Ru27  1  0.816755  0.625620  0.000000  1
  Ru  Ru28  1  0.373485  0.189409  0.000000  1
  Ru  Ru29  1  0.183620  0.807201  0.000000  1
  Ru  Ru30  1  0.626912  0.817864  0.000000  1
  Ru  Ru31  1  0.195809  0.376186  0.000000  1
  Ru  Ru32  1  0.279147  0.278782  0.500000  1
  Ru  Ru33  1  0.723077  0.002051  0.500000  1
  Ru  Ru34  1  0.000841  0.719857  0.500000  1
  Pt  Pt35  1  0.864544  0.366833  0.500000  1
