# generated using pymatgen
data_Dy4Y8ZnInCo4
_symmetry_space_group_name_H-M   'P 1'
_cell_length_a   8.37796852
_cell_length_b   8.37802311
_cell_length_c   8.37796697
_cell_angle_alpha   111.62756651
_cell_angle_beta   110.16709496
_cell_angle_gamma   106.65838731
_symmetry_Int_Tables_number   1
_chemical_formula_structural   Dy4Y8ZnInCo4
_chemical_formula_sum   'Dy4 Y8 Zn1 In1 Co4'
_cell_volume   451.79684718
_cell_formula_units_Z   1
loop_
 _symmetry_equiv_pos_site_id
 _symmetry_equiv_pos_as_xyz
  1  'x, y, z'
loop_
 _atom_site_type_symbol
 _atom_site_label
 _atom_site_symmetry_multiplicity
 _atom_site_fract_x
 _atom_site_fract_y
 _atom_site_fract_z
 _atom_site_occupancy
  Dy  Dy0  1  0.314701  0.621442  0.306740  1
  Dy  Dy1  1  0.685299  0.378558  0.693260  1
  Dy  Dy2  1  0.314631  0.007880  0.693248  1
  Dy  Dy3  1  0.685369  0.992120  0.306752  1
  Y  Y4  1  0.425511  0.224323  0.201195  1
  Y  Y5  1  0.574489  0.775677  0.798805  1
  Y  Y6  1  0.023128  0.224323  0.798812  1
  Y  Y7  1  0.976872  0.775677  0.201188  1
  Y  Y8  1  0.185419  0.287746  0.473160  1
  Y  Y9  1  0.814581  0.712254  0.526840  1
  Y  Y10  1  0.185414  0.712254  0.897672  1
  Y  Y11  1  0.814586  0.287746  0.102328  1
  Zn  Zn12  1  0.000000  0.000000  0.000000  1
  In  In13  1  0.500000  0.500000  0.000000  1
  Co  Co14  1  0.378866  0.000000  0.378866  1
  Co  Co15  1  0.621134  0.000000  0.621134  1
  Co  Co16  1  0.111480  0.611476  0.499996  1
  Co  Co17  1  0.888520  0.388524  0.500004  1
