# generated using pymatgen
data_CsRbP2Pd
_symmetry_space_group_name_H-M   'P 1'
_cell_length_a   7.93068102
_cell_length_b   7.93068029
_cell_length_c   6.24711900
_cell_angle_alpha   90.00000000
_cell_angle_beta   90.00000000
_cell_angle_gamma   127.91263258
_symmetry_Int_Tables_number   1
_chemical_formula_structural   CsRbP2Pd
_chemical_formula_sum   'Cs2 Rb2 P4 Pd2'
_cell_volume   309.99124556
_cell_formula_units_Z   2
loop_
 _symmetry_equiv_pos_site_id
 _symmetry_equiv_pos_as_xyz
  1  'x, y, z'
loop_
 _atom_site_type_symbol
 _atom_site_label
 _atom_site_symmetry_multiplicity
 _atom_site_fract_x
 _atom_site_fract_y
 _atom_site_fract_z
 _atom_site_occupancy
  Cs  Cs0  1  0.413119  0.586881  0.250000  1
  Cs  Cs1  1  0.586881  0.413119  0.750000  1
  Rb  Rb2  1  0.787136  0.212864  0.250000  1
  Rb  Rb3  1  0.212864  0.787136  0.750000  1
  P  P4  1  0.950089  0.737200  0.250000  1
  P  P5  1  0.049911  0.262800  0.750000  1
  P  P6  1  0.262800  0.049911  0.250000  1
  P  P7  1  0.737200  0.950089  0.750000  1
  Pd  Pd8  1  0.000000  0.000000  0.000000  1
  Pd  Pd9  1  0.000000  0.000000  0.500000  1
