# generated using pymatgen
data_PrNdB4(IrOs)2
_symmetry_space_group_name_H-M   'P 1'
_cell_length_a   6.95119224
_cell_length_b   6.08726976
_cell_length_c   5.62965600
_cell_angle_alpha   72.65866926
_cell_angle_beta   56.71084399
_cell_angle_gamma   50.63048127
_symmetry_Int_Tables_number   1
_chemical_formula_structural   PrNdB4(IrOs)2
_chemical_formula_sum   'Pr1 Nd1 B4 Ir2 Os2'
_cell_volume   153.47394080
_cell_formula_units_Z   1
loop_
 _symmetry_equiv_pos_site_id
 _symmetry_equiv_pos_as_xyz
  1  'x, y, z'
loop_
 _atom_site_type_symbol
 _atom_site_label
 _atom_site_symmetry_multiplicity
 _atom_site_fract_x
 _atom_site_fract_y
 _atom_site_fract_z
 _atom_site_occupancy
  Pr  Pr0  1  0.500000  0.500000  0.500000  1
  Nd  Nd1  1  0.750000  0.750000  0.750000  1
  B  B2  1  0.175727  0.824273  0.175727  1
  B  B3  1  0.063141  0.436859  0.063141  1
  B  B4  1  0.824273  0.175727  0.824273  1
  B  B5  1  0.436859  0.063141  0.436859  1
  Ir  Ir6  1  0.383689  0.383689  0.116311  1
  Ir  Ir7  1  0.116311  0.116311  0.383689  1
  Os  Os8  1  0.865032  0.865032  0.134968  1
  Os  Os9  1  0.134968  0.134968  0.865032  1
