# generated using pymatgen
data_Tb2Pr3Ho3(CdPt)2
_symmetry_space_group_name_H-M   'P 1'
_cell_length_a   9.82847969
_cell_length_b   9.82847899
_cell_length_c   9.82847800
_cell_angle_alpha   59.99999659
_cell_angle_beta   59.99999895
_cell_angle_gamma   59.99999500
_symmetry_Int_Tables_number   1
_chemical_formula_structural   Tb2Pr3Ho3(CdPt)2
_chemical_formula_sum   'Tb4 Pr6 Ho6 Cd4 Pt4'
_cell_volume   671.34212507
_cell_formula_units_Z   2
loop_
 _symmetry_equiv_pos_site_id
 _symmetry_equiv_pos_as_xyz
  1  'x, y, z'
loop_
 _atom_site_type_symbol
 _atom_site_label
 _atom_site_symmetry_multiplicity
 _atom_site_fract_x
 _atom_site_fract_y
 _atom_site_fract_z
 _atom_site_occupancy
  Tb  Tb0  1  0.350355  0.350355  0.350355  1
  Tb  Tb1  1  0.350355  0.350355  0.948936  1
  Tb  Tb2  1  0.350355  0.948936  0.350355  1
  Tb  Tb3  1  0.948936  0.350355  0.350355  1
  Pr  Pr4  1  0.938228  0.561772  0.561772  1
  Pr  Pr5  1  0.561772  0.938228  0.938228  1
  Pr  Pr6  1  0.561772  0.938228  0.561772  1
  Pr  Pr7  1  0.938228  0.561772  0.938228  1
  Pr  Pr8  1  0.561772  0.561772  0.938228  1
  Pr  Pr9  1  0.938228  0.938228  0.561772  1
  Ho  Ho10  1  0.812740  0.187260  0.187260  1
  Ho  Ho11  1  0.187260  0.812740  0.812740  1
  Ho  Ho12  1  0.187260  0.812740  0.187260  1
  Ho  Ho13  1  0.812740  0.187260  0.812740  1
  Ho  Ho14  1  0.187260  0.187260  0.812740  1
  Ho  Ho15  1  0.812740  0.812740  0.187260  1
  Cd  Cd16  1  0.579400  0.579400  0.579400  1
  Cd  Cd17  1  0.579400  0.579400  0.261801  1
  Cd  Cd18  1  0.579400  0.261801  0.579400  1
  Cd  Cd19  1  0.261801  0.579400  0.579400  1
  Pt  Pt20  1  0.142220  0.142220  0.142220  1
  Pt  Pt21  1  0.142220  0.142220  0.573340  1
  Pt  Pt22  1  0.142220  0.573340  0.142220  1
  Pt  Pt23  1  0.573340  0.142220  0.142220  1
