# generated using pymatgen
data_K2Sr3Re2N7
_symmetry_space_group_name_H-M   'P 1'
_cell_length_a   6.53153321
_cell_length_b   9.57361785
_cell_length_c   9.48918000
_cell_angle_alpha   117.53885829
_cell_angle_beta   95.32878631
_cell_angle_gamma   88.09593010
_symmetry_Int_Tables_number   1
_chemical_formula_structural   K2Sr3Re2N7
_chemical_formula_sum   'K4 Sr6 Re4 N14'
_cell_volume   523.82724300
_cell_formula_units_Z   2
loop_
 _symmetry_equiv_pos_site_id
 _symmetry_equiv_pos_as_xyz
  1  'x, y, z'
loop_
 _atom_site_type_symbol
 _atom_site_label
 _atom_site_symmetry_multiplicity
 _atom_site_fract_x
 _atom_site_fract_y
 _atom_site_fract_z
 _atom_site_occupancy
  K  K0  1  0.848808  0.591053  0.310575  1
  K  K1  1  0.270079  0.984729  0.553729  1
  K  K2  1  0.712493  0.424187  0.861464  1
  K  K3  1  0.284239  0.591520  0.158440  1
  Sr  Sr4  1  0.406288  0.798667  0.939619  1
  Sr  Sr5  1  0.591233  0.208636  0.046704  1
  Sr  Sr6  1  0.164674  0.410933  0.690467  1
  Sr  Sr7  1  0.908350  0.834695  0.746987  1
  Sr  Sr8  1  0.096810  0.169278  0.245925  1
  Sr  Sr9  1  0.739003  0.007273  0.453129  1
  Re  Re10  1  0.584880  0.353102  0.480350  1
  Re  Re11  1  0.431976  0.633018  0.523815  1
  Re  Re12  1  0.106144  0.197977  0.911382  1
  Re  Re13  1  0.881368  0.809715  0.080211  1
  N  N14  1  0.520745  0.546993  0.674757  1
  N  N15  1  0.487989  0.432895  0.327660  1
  N  N16  1  0.166509  0.682612  0.539209  1
  N  N17  1  0.850358  0.293009  0.479818  1
  N  N18  1  0.417084  0.198300  0.460687  1
  N  N19  1  0.592232  0.790078  0.538784  1
  N  N20  1  0.927648  0.103344  0.730170  1
  N  N21  1  0.039644  0.913011  0.269216  1
  N  N22  1  0.235906  0.048807  0.959499  1
  N  N23  1  0.763232  0.955868  0.022239  1
  N  N24  1  0.311546  0.310017  0.885985  1
  N  N25  1  0.960418  0.320805  0.080555  1
  N  N26  1  0.037128  0.672898  0.916445  1
  N  N27  1  0.663218  0.716580  0.112181  1
