# generated using pymatgen
data_Ta12Be3Al9C2
_symmetry_space_group_name_H-M   'P 1'
_cell_length_a   8.13511453
_cell_length_b   8.17415327
_cell_length_c   8.13511500
_cell_angle_alpha   60.15786147
_cell_angle_beta   60.00000216
_cell_angle_gamma   60.15786309
_symmetry_Int_Tables_number   1
_chemical_formula_structural   Ta12Be3Al9C2
_chemical_formula_sum   'Ta12 Be3 Al9 C2'
_cell_volume   383.43107576
_cell_formula_units_Z   1
loop_
 _symmetry_equiv_pos_site_id
 _symmetry_equiv_pos_as_xyz
  1  'x, y, z'
loop_
 _atom_site_type_symbol
 _atom_site_label
 _atom_site_symmetry_multiplicity
 _atom_site_fract_x
 _atom_site_fract_y
 _atom_site_fract_z
 _atom_site_occupancy
  Ta  Ta0  1  0.056182  0.058826  0.442497  1
  Ta  Ta1  1  0.442497  0.058826  0.442497  1
  Ta  Ta2  1  0.057347  0.441764  0.443540  1
  Ta  Ta3  1  0.443540  0.441764  0.057347  1
  Ta  Ta4  1  0.057347  0.441764  0.057347  1
  Ta  Ta5  1  0.442497  0.058826  0.056182  1
  Ta  Ta6  1  0.193818  0.191174  0.807503  1
  Ta  Ta7  1  0.807503  0.191174  0.807503  1
  Ta  Ta8  1  0.192653  0.808236  0.806460  1
  Ta  Ta9  1  0.806460  0.808236  0.192653  1
  Ta  Ta10  1  0.192653  0.808236  0.192653  1
  Ta  Ta11  1  0.807503  0.191174  0.193818  1
  Be  Be12  1  0.625000  0.625000  0.125000  1
  Be  Be13  1  0.125000  0.625000  0.625000  1
  Be  Be14  1  0.625000  0.625000  0.625000  1
  Al  Al15  1  0.410178  0.427148  0.752497  1
  Al  Al16  1  0.414842  0.755477  0.414842  1
  Al  Al17  1  0.752497  0.427148  0.410178  1
  Al  Al18  1  0.410178  0.427148  0.410178  1
  Al  Al19  1  0.839822  0.822852  0.497503  1
  Al  Al20  1  0.835158  0.494523  0.835158  1
  Al  Al21  1  0.497503  0.822852  0.839822  1
  Al  Al22  1  0.839822  0.822852  0.839822  1
  Al  Al23  1  0.625000  0.125000  0.625000  1
  C  C24  1  0.249852  0.250445  0.249852  1
  C  C25  1  0.000148  0.999555  0.000148  1
