# generated using pymatgen
data_Zn2Ni3IrO8
_symmetry_space_group_name_H-M   'P 1'
_cell_length_a   5.94786285
_cell_length_b   5.94786337
_cell_length_c   6.07493165
_cell_angle_alpha   60.68954369
_cell_angle_beta   60.68954511
_cell_angle_gamma   59.99999860
_symmetry_Int_Tables_number   1
_chemical_formula_structural   Zn2Ni3IrO8
_chemical_formula_sum   'Zn2 Ni3 Ir1 O8'
_cell_volume   153.53131561
_cell_formula_units_Z   1
loop_
 _symmetry_equiv_pos_site_id
 _symmetry_equiv_pos_as_xyz
  1  'x, y, z'
loop_
 _atom_site_type_symbol
 _atom_site_label
 _atom_site_symmetry_multiplicity
 _atom_site_fract_x
 _atom_site_fract_y
 _atom_site_fract_z
 _atom_site_occupancy
  Zn  Zn0  1  0.488592  0.488592  0.534223  1
  Zn  Zn1  1  0.761408  0.761408  0.715777  1
  Ni  Ni2  1  0.125000  0.125000  0.125000  1
  Ni  Ni3  1  0.625000  0.125000  0.125000  1
  Ni  Ni4  1  0.125000  0.625000  0.125000  1
  Ir  Ir5  1  0.125000  0.125000  0.625000  1
  O  O6  1  0.892414  0.892414  0.866121  1
  O  O7  1  0.900951  0.357586  0.383879  1
  O  O8  1  0.357586  0.900951  0.383879  1
  O  O9  1  0.358533  0.358533  0.924403  1
  O  O10  1  0.892414  0.349049  0.866121  1
  O  O11  1  0.891467  0.891467  0.325597  1
  O  O12  1  0.349049  0.892414  0.866121  1
  O  O13  1  0.357586  0.357586  0.383879  1
