# generated using pymatgen
data_Dy6Ho6Tc3Pt
_symmetry_space_group_name_H-M   'P 1'
_cell_length_a   6.29785321
_cell_length_b   7.39646285
_cell_length_c   9.15493712
_cell_angle_alpha   90.00002979
_cell_angle_beta   90.01832657
_cell_angle_gamma   89.96111530
_symmetry_Int_Tables_number   1
_chemical_formula_structural   Dy6Ho6Tc3Pt
_chemical_formula_sum   'Dy6 Ho6 Tc3 Pt1'
_cell_volume   426.45367115
_cell_formula_units_Z   1
loop_
 _symmetry_equiv_pos_site_id
 _symmetry_equiv_pos_as_xyz
  1  'x, y, z'
loop_
 _atom_site_type_symbol
 _atom_site_label
 _atom_site_symmetry_multiplicity
 _atom_site_fract_x
 _atom_site_fract_y
 _atom_site_fract_z
 _atom_site_occupancy
  Dy  Dy0  1  0.329416  0.676306  0.066828  1
  Dy  Dy1  1  0.164931  0.177657  0.436273  1
  Dy  Dy2  1  0.873058  0.542882  0.250014  1
  Dy  Dy3  1  0.623137  0.038772  0.249998  1
  Dy  Dy4  1  0.128299  0.455489  0.749991  1
  Dy  Dy5  1  0.371526  0.964704  0.750010  1
  Ho  Ho6  1  0.667729  0.318282  0.558933  1
  Ho  Ho7  1  0.837252  0.827030  0.940096  1
  Ho  Ho8  1  0.667792  0.318218  0.941078  1
  Ho  Ho9  1  0.837146  0.826931  0.559877  1
  Ho  Ho10  1  0.329449  0.676330  0.433228  1
  Ho  Ho11  1  0.164887  0.177596  0.063685  1
  Tc  Tc12  1  0.037878  0.885972  0.250022  1
  Tc  Tc13  1  0.464284  0.387278  0.249967  1
  Tc  Tc14  1  0.957107  0.113571  0.750080  1
  Pt  Pt15  1  0.546110  0.612982  0.749921  1
