# generated using pymatgen
data_YEr4SnSb2
_symmetry_space_group_name_H-M   'P 1'
_cell_length_a   8.90869635
_cell_length_b   8.87900697
_cell_length_c   6.37337500
_cell_angle_alpha   90.00000000
_cell_angle_beta   90.00000000
_cell_angle_gamma   119.88980992
_symmetry_Int_Tables_number   1
_chemical_formula_structural   YEr4SnSb2
_chemical_formula_sum   'Y2 Er8 Sn2 Sb4'
_cell_volume   437.07886386
_cell_formula_units_Z   2
loop_
 _symmetry_equiv_pos_site_id
 _symmetry_equiv_pos_as_xyz
  1  'x, y, z'
loop_
 _atom_site_type_symbol
 _atom_site_label
 _atom_site_symmetry_multiplicity
 _atom_site_fract_x
 _atom_site_fract_y
 _atom_site_fract_z
 _atom_site_occupancy
  Y  Y0  1  0.000896  0.758126  0.750000  1
  Y  Y1  1  0.000896  0.242771  0.250000  1
  Er  Er2  1  0.755176  0.756272  0.250000  1
  Er  Er3  1  0.755176  0.998904  0.750000  1
  Er  Er4  1  0.244299  0.242213  0.750000  1
  Er  Er5  1  0.244299  0.002086  0.250000  1
  Er  Er6  1  0.333411  0.666706  0.500000  1
  Er  Er7  1  0.665347  0.332673  0.000000  1
  Er  Er8  1  0.665347  0.332673  0.500000  1
  Er  Er9  1  0.333411  0.666706  0.000000  1
  Sn  Sn10  1  0.392988  0.999783  0.750000  1
  Sn  Sn11  1  0.392988  0.393206  0.250000  1
  Sb  Sb12  1  0.999261  0.609786  0.250000  1
  Sb  Sb13  1  0.999261  0.389477  0.750000  1
  Sb  Sb14  1  0.608619  0.609203  0.750000  1
  Sb  Sb15  1  0.608619  0.999417  0.250000  1
