# generated using pymatgen
data_YHgBPd6
_symmetry_space_group_name_H-M   'P 1'
_cell_length_a   5.90205513
_cell_length_b   5.90205511
_cell_length_c   5.90205600
_cell_angle_alpha   60.00000622
_cell_angle_beta   60.00000632
_cell_angle_gamma   60.00000088
_symmetry_Int_Tables_number   1
_chemical_formula_structural   YHgBPd6
_chemical_formula_sum   'Y1 Hg1 B1 Pd6'
_cell_volume   145.37672939
_cell_formula_units_Z   1
loop_
 _symmetry_equiv_pos_site_id
 _symmetry_equiv_pos_as_xyz
  1  'x, y, z'
loop_
 _atom_site_type_symbol
 _atom_site_label
 _atom_site_symmetry_multiplicity
 _atom_site_fract_x
 _atom_site_fract_y
 _atom_site_fract_z
 _atom_site_occupancy
  Y  Y0  1  0.750000  0.750000  0.750000  1
  Hg  Hg1  1  0.250000  0.250000  0.250000  1
  B  B2  1  0.000000  0.000000  0.000000  1
  Pd  Pd3  1  0.745610  0.254391  0.254391  1
  Pd  Pd4  1  0.254391  0.745610  0.254391  1
  Pd  Pd5  1  0.745609  0.745609  0.254392  1
  Pd  Pd6  1  0.254391  0.254391  0.745610  1
  Pd  Pd7  1  0.745609  0.254392  0.745609  1
  Pd  Pd8  1  0.254392  0.745609  0.745609  1
