# generated using pymatgen
data_CsPa2I11
_symmetry_space_group_name_H-M   'P 1'
_cell_length_a   8.67792923
_cell_length_b   8.77117336
_cell_length_c   21.13652093
_cell_angle_alpha   79.35066261
_cell_angle_beta   79.31818228
_cell_angle_gamma   88.18919917
_symmetry_Int_Tables_number   1
_chemical_formula_structural   CsPa2I11
_chemical_formula_sum   'Cs2 Pa4 I22'
_cell_volume   1553.70619644
_cell_formula_units_Z   2
loop_
 _symmetry_equiv_pos_site_id
 _symmetry_equiv_pos_as_xyz
  1  'x, y, z'
loop_
 _atom_site_type_symbol
 _atom_site_label
 _atom_site_symmetry_multiplicity
 _atom_site_fract_x
 _atom_site_fract_y
 _atom_site_fract_z
 _atom_site_occupancy
  Cs  Cs0  1  0.747689  0.750993  0.505182  1
  Cs  Cs1  1  0.252311  0.249007  0.494818  1
  Pa  Pa2  1  0.317266  0.815966  0.352241  1
  Pa  Pa3  1  0.682734  0.184034  0.647759  1
  Pa  Pa4  1  0.836484  0.333232  0.085392  1
  Pa  Pa5  1  0.163516  0.666768  0.914608  1
  I  I6  1  0.246882  0.774306  0.499627  1
  I  I7  1  0.753118  0.225694  0.500373  1
  I  I8  1  0.577955  0.024902  0.352663  1
  I  I9  1  0.422045  0.975098  0.647337  1
  I  I10  1  0.535811  0.549390  0.363280  1
  I  I11  1  0.464189  0.450610  0.636720  1
  I  I12  1  0.381179  0.852525  0.210939  1
  I  I13  1  0.618821  0.147475  0.789061  1
  I  I14  1  0.053473  0.599215  0.362533  1
  I  I15  1  0.946527  0.400785  0.637467  1
  I  I16  1  0.100803  0.082431  0.346757  1
  I  I17  1  0.899197  0.917569  0.653243  1
  I  I18  1  0.893820  0.024503  0.152244  1
  I  I19  1  0.106180  0.975497  0.847756  1
  I  I20  1  0.522158  0.375553  0.153724  1
  I  I21  1  0.477842  0.624447  0.846276  1
  I  I22  1  0.717561  0.211548  0.984929  1
  I  I23  1  0.282439  0.788452  0.015071  1
  I  I24  1  0.971561  0.473009  0.176751  1
  I  I25  1  0.028439  0.526991  0.823249  1
  I  I26  1  0.171681  0.336549  0.999659  1
  I  I27  1  0.828319  0.663451  0.000341  1
