# generated using pymatgen
data_Er8Si16Tc11W
_symmetry_space_group_name_H-M   'P 1'
_cell_length_a   6.78403028
_cell_length_b   6.79715669
_cell_length_c   12.61305945
_cell_angle_alpha   89.99347020
_cell_angle_beta   90.38662906
_cell_angle_gamma   90.09186538
_symmetry_Int_Tables_number   1
_chemical_formula_structural   Er8Si16Tc11W
_chemical_formula_sum   'Er8 Si16 Tc11 W1'
_cell_volume   581.60087859
_cell_formula_units_Z   1
loop_
 _symmetry_equiv_pos_site_id
 _symmetry_equiv_pos_as_xyz
  1  'x, y, z'
loop_
 _atom_site_type_symbol
 _atom_site_label
 _atom_site_symmetry_multiplicity
 _atom_site_fract_x
 _atom_site_fract_y
 _atom_site_fract_z
 _atom_site_occupancy
  Er  Er0  1  0.338870  0.995052  0.468726  1
  Er  Er1  1  0.502217  0.836096  0.719486  1
  Er  Er2  1  0.493350  0.158006  0.218488  1
  Er  Er3  1  0.836537  0.501122  0.279404  1
  Er  Er4  1  0.160354  0.493928  0.782141  1
  Er  Er5  1  0.660264  0.001272  0.971168  1
  Er  Er6  1  0.997333  0.339782  0.530262  1
  Er  Er7  1  0.003006  0.657248  0.031033  1
  Si  Si8  1  0.199449  0.123523  0.685437  1
  Si  Si9  1  0.383477  0.691308  0.936923  1
  Si  Si10  1  0.617278  0.309347  0.437542  1
  Si  Si11  1  0.690029  0.385190  0.063434  1
  Si  Si12  1  0.305535  0.618428  0.563127  1
  Si  Si13  1  0.808270  0.884746  0.187719  1
  Si  Si14  1  0.117638  0.194683  0.314426  1
  Si  Si15  1  0.882824  0.803375  0.815015  1
  Si  Si16  1  0.265050  0.980072  0.060914  1
  Si  Si17  1  0.523930  0.773113  0.313165  1
  Si  Si18  1  0.476820  0.218609  0.814339  1
  Si  Si19  1  0.782309  0.528427  0.685739  1
  Si  Si20  1  0.228653  0.479812  0.187808  1
  Si  Si21  1  0.713312  0.035616  0.565182  1
  Si  Si22  1  0.979944  0.263993  0.937532  1
  Si  Si23  1  0.029786  0.718809  0.431338  1
  Tc  Tc24  1  0.330575  0.330624  0.000661  1
  Tc  Tc25  1  0.167226  0.831976  0.249270  1
  Tc  Tc26  1  0.836100  0.165839  0.750562  1
  Tc  Tc27  1  0.669416  0.666305  0.499619  1
  Tc  Tc28  1  0.188320  0.971638  0.866279  1
  Tc  Tc29  1  0.522385  0.685827  0.120381  1
  Tc  Tc30  1  0.487256  0.326012  0.624715  1
  Tc  Tc31  1  0.675867  0.514854  0.875999  1
  Tc  Tc32  1  0.317415  0.477200  0.379104  1
  Tc  Tc33  1  0.826766  0.020110  0.376302  1
  Tc  Tc34  1  0.973169  0.188264  0.132418  1
  W  W35  1  0.009270  0.829795  0.624344  1
