# generated using pymatgen
data_Ca6Tb3NdSn8
_symmetry_space_group_name_H-M   'P 1'
_cell_length_a   7.92567569
_cell_length_b   8.46840885
_cell_length_c   16.03485445
_cell_angle_alpha   89.88370838
_cell_angle_beta   90.08617421
_cell_angle_gamma   89.87655435
_symmetry_Int_Tables_number   1
_chemical_formula_structural   Ca6Tb3NdSn8
_chemical_formula_sum   'Ca12 Tb6 Nd2 Sn16'
_cell_volume   1076.21921195
_cell_formula_units_Z   2
loop_
 _symmetry_equiv_pos_site_id
 _symmetry_equiv_pos_as_xyz
  1  'x, y, z'
loop_
 _atom_site_type_symbol
 _atom_site_label
 _atom_site_symmetry_multiplicity
 _atom_site_fract_x
 _atom_site_fract_y
 _atom_site_fract_z
 _atom_site_occupancy
  Ca  Ca0  1  0.992316  0.184836  0.407541  1
  Ca  Ca1  1  0.326300  0.828531  0.121794  1
  Ca  Ca2  1  0.173930  0.331391  0.624065  1
  Ca  Ca3  1  0.506912  0.683356  0.906150  1
  Ca  Ca4  1  0.828121  0.670426  0.121878  1
  Ca  Ca5  1  0.172208  0.331009  0.876583  1
  Ca  Ca6  1  0.155731  0.495998  0.248896  1
  Ca  Ca7  1  0.658103  0.001942  0.248211  1
  Ca  Ca8  1  0.508534  0.685084  0.595231  1
  Ca  Ca9  1  0.344244  0.997271  0.749543  1
  Ca  Ca10  1  0.673850  0.170677  0.622861  1
  Ca  Ca11  1  0.840942  0.502409  0.749908  1
  Tb  Tb12  1  0.828581  0.671684  0.377011  1
  Tb  Tb13  1  0.987861  0.187999  0.093191  1
  Tb  Tb14  1  0.012584  0.810291  0.903157  1
  Tb  Tb15  1  0.670395  0.170605  0.876089  1
  Tb  Tb16  1  0.486009  0.311173  0.095876  1
  Tb  Tb17  1  0.328806  0.827827  0.375945  1
  Nd  Nd18  1  0.012756  0.812834  0.597424  1
  Nd  Nd19  1  0.491272  0.313007  0.404584  1
  Sn  Sn20  1  0.832302  0.471684  0.539162  1
  Sn  Sn21  1  0.667545  0.966347  0.456796  1
  Sn  Sn22  1  0.719197  0.861771  0.752822  1
  Sn  Sn23  1  0.169210  0.539164  0.459321  1
  Sn  Sn24  1  0.329476  0.039188  0.961191  1
  Sn  Sn25  1  0.782557  0.359388  0.249902  1
  Sn  Sn26  1  0.829374  0.461965  0.960824  1
  Sn  Sn27  1  0.527112  0.604986  0.251323  1
  Sn  Sn28  1  0.167411  0.529664  0.041031  1
  Sn  Sn29  1  0.473073  0.392904  0.751545  1
  Sn  Sn30  1  0.214148  0.640406  0.751481  1
  Sn  Sn31  1  0.973383  0.103703  0.752715  1
  Sn  Sn32  1  0.330506  0.035696  0.536052  1
  Sn  Sn33  1  0.672715  0.972788  0.040059  1
  Sn  Sn34  1  0.284340  0.138115  0.247988  1
  Sn  Sn35  1  0.028200  0.893877  0.251849  1
