# generated using pymatgen
data_Ho4Si10IrOs5
_symmetry_space_group_name_H-M   'P 1'
_cell_length_a   8.11288617
_cell_length_b   8.10542707
_cell_length_c   5.78956586
_cell_angle_alpha   70.80873397
_cell_angle_beta   70.76990737
_cell_angle_gamma   94.21119038
_symmetry_Int_Tables_number   1
_chemical_formula_structural   Ho4Si10IrOs5
_chemical_formula_sum   'Ho4 Si10 Ir1 Os5'
_cell_volume   332.37068228
_cell_formula_units_Z   1
loop_
 _symmetry_equiv_pos_site_id
 _symmetry_equiv_pos_as_xyz
  1  'x, y, z'
loop_
 _atom_site_type_symbol
 _atom_site_label
 _atom_site_symmetry_multiplicity
 _atom_site_fract_x
 _atom_site_fract_y
 _atom_site_fract_z
 _atom_site_occupancy
  Ho  Ho0  1  0.866882  0.600069  0.754808  1
  Ho  Ho1  1  0.399834  0.131485  0.745730  1
  Ho  Ho2  1  0.130976  0.398369  0.248891  1
  Ho  Ho3  1  0.600453  0.869185  0.253899  1
  Si  Si4  1  0.065235  0.259608  0.835664  1
  Si  Si5  1  0.738311  0.931558  0.666436  1
  Si  Si6  1  0.931653  0.737787  0.166763  1
  Si  Si7  1  0.262673  0.067131  0.332698  1
  Si  Si8  1  0.209177  0.795707  0.745797  1
  Si  Si9  1  0.794486  0.207436  0.248056  1
  Si  Si10  1  0.514864  0.487045  0.750687  1
  Si  Si11  1  0.487874  0.513378  0.248187  1
  Si  Si12  1  0.773906  0.226788  0.751069  1
  Si  Si13  1  0.225970  0.776425  0.248860  1
  Ir  Ir14  1  0.255055  0.542884  0.631335  1
  Os  Os15  1  0.455198  0.743775  0.870507  1
  Os  Os16  1  0.743128  0.456072  0.369696  1
  Os  Os17  1  0.543396  0.256720  0.131898  1
  Os  Os18  1  0.004065  0.995164  0.749462  1
  Os  Os19  1  0.996864  0.003416  0.249556  1
