# generated using pymatgen
data_Lu4Zn(GeIr)6
_symmetry_space_group_name_H-M   'P 1'
_cell_length_a   7.21841123
_cell_length_b   7.21841091
_cell_length_c   7.21841107
_cell_angle_alpha   109.48787046
_cell_angle_beta   109.48786558
_cell_angle_gamma   109.43793265
_symmetry_Int_Tables_number   1
_chemical_formula_structural   Lu4Zn(GeIr)6
_chemical_formula_sum   'Lu4 Zn1 Ge6 Ir6'
_cell_volume   289.53616765
_cell_formula_units_Z   1
loop_
 _symmetry_equiv_pos_site_id
 _symmetry_equiv_pos_as_xyz
  1  'x, y, z'
loop_
 _atom_site_type_symbol
 _atom_site_label
 _atom_site_symmetry_multiplicity
 _atom_site_fract_x
 _atom_site_fract_y
 _atom_site_fract_z
 _atom_site_occupancy
  Lu  Lu0  1  0.003375  0.996625  0.500000  1
  Lu  Lu1  1  0.003375  0.503375  0.006751  1
  Lu  Lu2  1  0.496625  0.996625  0.993249  1
  Lu  Lu3  1  0.496625  0.503375  0.500000  1
  Zn  Zn4  1  0.750000  0.250000  0.500000  1
  Ge  Ge5  1  0.681403  0.681403  0.000000  1
  Ge  Ge6  1  0.304625  0.993288  0.311337  1
  Ge  Ge7  1  0.006712  0.318049  0.311337  1
  Ge  Ge8  1  0.318597  0.318597  0.000000  1
  Ge  Ge9  1  0.681951  0.993288  0.688663  1
  Ge  Ge10  1  0.006712  0.695375  0.688663  1
  Ir  Ir11  1  0.747475  0.492316  0.255159  1
  Ir  Ir12  1  0.507684  0.252525  0.744841  1
  Ir  Ir13  1  0.237157  0.492316  0.744841  1
  Ir  Ir14  1  0.250000  0.750000  0.500000  1
  Ir  Ir15  1  0.507684  0.762843  0.255159  1
  Ir  Ir16  1  0.000000  0.000000  0.000000  1
