# generated using pymatgen
data_Ba10MgTaRu(RhO10)2
_symmetry_space_group_name_H-M   'P 1'
_cell_length_a   9.33878808
_cell_length_b   9.33878699
_cell_length_c   9.37245900
_cell_angle_alpha   121.41264460
_cell_angle_beta   121.76466686
_cell_angle_gamma   87.05330273
_symmetry_Int_Tables_number   1
_chemical_formula_structural   Ba10MgTaRu(RhO10)2
_chemical_formula_sum   'Ba10 Mg1 Ta1 Ru1 Rh2 O20'
_cell_volume   564.41402666
_cell_formula_units_Z   1
loop_
 _symmetry_equiv_pos_site_id
 _symmetry_equiv_pos_as_xyz
  1  'x, y, z'
loop_
 _atom_site_type_symbol
 _atom_site_label
 _atom_site_symmetry_multiplicity
 _atom_site_fract_x
 _atom_site_fract_y
 _atom_site_fract_z
 _atom_site_occupancy
  Ba  Ba0  1  0.765015  0.155182  0.207551  1
  Ba  Ba1  1  0.352443  0.357164  0.000372  1
  Ba  Ba2  1  0.952024  0.560920  0.798524  1
  Ba  Ba3  1  0.565500  0.751743  0.607336  1
  Ba  Ba4  1  0.144153  0.953071  0.387609  1
  Ba  Ba5  1  0.643232  0.647929  0.000393  1
  Ba  Ba6  1  0.237586  0.846497  0.798505  1
  Ba  Ba7  1  0.855603  0.041857  0.607353  1
  Ba  Ba8  1  0.434542  0.243459  0.387618  1
  Ba  Ba9  1  0.052360  0.442534  0.207539  1
  Mg  Mg10  1  0.997391  0.000375  0.997764  1
  Ta  Ta11  1  0.600932  0.199723  0.800662  1
  Ru  Ru12  1  0.400888  0.799419  0.200310  1
  Rh  Rh13  1  0.198870  0.401142  0.600029  1
  Rh  Rh14  1  0.799905  0.599564  0.399464  1
  O  O15  1  0.551904  0.950567  0.205381  1
  O  O16  1  0.161084  0.159543  0.000301  1
  O  O17  1  0.744283  0.348550  0.794662  1
  O  O18  1  0.355762  0.554172  0.600729  1
  O  O19  1  0.952915  0.753084  0.397106  1
  O  O20  1  0.840803  0.839215  0.000334  1
  O  O21  1  0.446105  0.050387  0.794652  1
  O  O22  1  0.046576  0.244962  0.600755  1
  O  O23  1  0.644050  0.444199  0.397123  1
  O  O24  1  0.254798  0.653474  0.205362  1
  O  O25  1  0.696244  0.393488  0.089730  1
  O  O26  1  0.302832  0.608403  0.911248  1
  O  O27  1  0.898933  0.793386  0.692316  1
  O  O28  1  0.499705  0.999339  0.499041  1
  O  O29  1  0.102692  0.207172  0.309875  1
  O  O30  1  0.997552  0.500075  0.497628  1
  O  O31  1  0.602525  0.701042  0.303563  1
  O  O32  1  0.212493  0.896090  0.108588  1
  O  O33  1  0.791286  0.102727  0.894004  1
  O  O34  1  0.397012  0.299550  0.696575  1
