# generated using pymatgen
data_Li4UTiS6
_symmetry_space_group_name_H-M   'P 1'
_cell_length_a   6.41499383
_cell_length_b   6.41487960
_cell_length_c   6.43762187
_cell_angle_alpha   99.42779612
_cell_angle_beta   99.42904564
_cell_angle_gamma   120.03391651
_symmetry_Int_Tables_number   1
_chemical_formula_structural   Li4UTiS6
_chemical_formula_sum   'Li4 U1 Ti1 S6'
_cell_volume   216.67465474
_cell_formula_units_Z   1
loop_
 _symmetry_equiv_pos_site_id
 _symmetry_equiv_pos_as_xyz
  1  'x, y, z'
loop_
 _atom_site_type_symbol
 _atom_site_label
 _atom_site_symmetry_multiplicity
 _atom_site_fract_x
 _atom_site_fract_y
 _atom_site_fract_z
 _atom_site_occupancy
  Li  Li0  1  0.501061  0.498940  0.999995  1
  Li  Li1  1  0.990688  0.009298  0.499992  1
  Li  Li2  1  0.670691  0.329324  0.500008  1
  Li  Li3  1  0.335608  0.664397  0.499996  1
  U  U4  1  0.165702  0.834312  0.999998  1
  Ti  Ti5  1  0.832971  0.166982  0.000010  1
  S  S6  1  0.593932  0.931444  0.238055  1
  S  S7  1  0.918930  0.563268  0.239919  1
  S  S8  1  0.226318  0.241224  0.244165  1
  S  S9  1  0.758814  0.773665  0.755850  1
  S  S10  1  0.436789  0.081122  0.760089  1
  S  S11  1  0.068504  0.406033  0.761928  1
