# generated using pymatgen
data_Sc4Mn3Tc3Os2
_symmetry_space_group_name_H-M   'P 1'
_cell_length_a   5.06640735
_cell_length_b   5.10810292
_cell_length_c   8.59597600
_cell_angle_alpha   90.00000000
_cell_angle_beta   90.00000000
_cell_angle_gamma   120.27263470
_symmetry_Int_Tables_number   1
_chemical_formula_structural   Sc4Mn3Tc3Os2
_chemical_formula_sum   'Sc4 Mn3 Tc3 Os2'
_cell_volume   192.12588776
_cell_formula_units_Z   1
loop_
 _symmetry_equiv_pos_site_id
 _symmetry_equiv_pos_as_xyz
  1  'x, y, z'
loop_
 _atom_site_type_symbol
 _atom_site_label
 _atom_site_symmetry_multiplicity
 _atom_site_fract_x
 _atom_site_fract_y
 _atom_site_fract_z
 _atom_site_occupancy
  Sc  Sc0  1  0.330734  0.665367  0.438326  1
  Sc  Sc1  1  0.664305  0.332152  0.563219  1
  Sc  Sc2  1  0.664305  0.332152  0.936781  1
  Sc  Sc3  1  0.330734  0.665367  0.061674  1
  Mn  Mn4  1  0.178788  0.344053  0.750000  1
  Mn  Mn5  1  0.178788  0.834733  0.750000  1
  Mn  Mn6  1  0.343551  0.171777  0.250000  1
  Tc  Tc7  1  0.831285  0.657620  0.250000  1
  Tc  Tc8  1  0.646413  0.823205  0.750000  1
  Tc  Tc9  1  0.831285  0.173666  0.250000  1
  Os  Os10  1  0.999906  0.999953  0.993815  1
  Os  Os11  1  0.999906  0.999953  0.506185  1
