# generated using pymatgen
data_Dy4Y5Ho7(InRh)4
_symmetry_space_group_name_H-M   'P 1'
_cell_length_a   9.66025396
_cell_length_b   9.66104156
_cell_length_c   9.67125256
_cell_angle_alpha   60.01390307
_cell_angle_beta   60.01527121
_cell_angle_gamma   60.05747553
_symmetry_Int_Tables_number   1
_chemical_formula_structural   Dy4Y5Ho7(InRh)4
_chemical_formula_sum   'Dy4 Y5 Ho7 In4 Rh4'
_cell_volume   638.65205575
_cell_formula_units_Z   1
loop_
 _symmetry_equiv_pos_site_id
 _symmetry_equiv_pos_as_xyz
  1  'x, y, z'
loop_
 _atom_site_type_symbol
 _atom_site_label
 _atom_site_symmetry_multiplicity
 _atom_site_fract_x
 _atom_site_fract_y
 _atom_site_fract_z
 _atom_site_occupancy
  Dy  Dy0  1  0.148048  0.550742  0.148662  1
  Dy  Dy1  1  0.311345  0.689537  0.688450  1
  Dy  Dy2  1  0.689459  0.311069  0.688542  1
  Dy  Dy3  1  0.550730  0.147957  0.148848  1
  Y  Y4  1  0.310792  0.310346  0.689563  1
  Y  Y5  1  0.937624  0.561394  0.560518  1
  Y  Y6  1  0.560186  0.560402  0.938546  1
  Y  Y7  1  0.562129  0.937167  0.937245  1
  Y  Y8  1  0.937230  0.561950  0.937729  1
  Ho  Ho9  1  0.689706  0.310665  0.310959  1
  Ho  Ho10  1  0.689012  0.689172  0.311073  1
  Ho  Ho11  1  0.310972  0.689691  0.310822  1
  Ho  Ho12  1  0.937463  0.937874  0.561267  1
  Ho  Ho13  1  0.148356  0.148081  0.551083  1
  Ho  Ho14  1  0.560947  0.938101  0.560265  1
  Ho  Ho15  1  0.151812  0.151832  0.152363  1
  In  In16  1  0.917996  0.918081  0.248811  1
  In  In17  1  0.248921  0.918222  0.918130  1
  In  In18  1  0.918171  0.248922  0.918185  1
  In  In19  1  0.916655  0.916742  0.916911  1
  Rh  Rh20  1  0.357723  0.357286  0.355361  1
  Rh  Rh21  1  0.926993  0.358090  0.359357  1
  Rh  Rh22  1  0.359501  0.359569  0.927751  1
  Rh  Rh23  1  0.358229  0.927106  0.359557  1
