# generated using pymatgen
data_Zr2NbSi2Mo
_symmetry_space_group_name_H-M   'P 1'
_cell_length_a   3.58077900
_cell_length_b   7.02662700
_cell_length_c   8.40351200
_cell_angle_alpha   90.00000000
_cell_angle_beta   90.00000000
_cell_angle_gamma   90.00000000
_symmetry_Int_Tables_number   1
_chemical_formula_structural   Zr2NbSi2Mo
_chemical_formula_sum   'Zr4 Nb2 Si4 Mo2'
_cell_volume   211.43907130
_cell_formula_units_Z   2
loop_
 _symmetry_equiv_pos_site_id
 _symmetry_equiv_pos_as_xyz
  1  'x, y, z'
loop_
 _atom_site_type_symbol
 _atom_site_label
 _atom_site_symmetry_multiplicity
 _atom_site_fract_x
 _atom_site_fract_y
 _atom_site_fract_z
 _atom_site_occupancy
  Zr  Zr0  1  0.250000  0.044129  0.333657  1
  Zr  Zr1  1  0.250000  0.544129  0.166343  1
  Zr  Zr2  1  0.750000  0.958196  0.668107  1
  Zr  Zr3  1  0.750000  0.458196  0.831893  1
  Nb  Nb4  1  0.250000  0.129526  0.940605  1
  Nb  Nb5  1  0.250000  0.629526  0.559395  1
  Si  Si6  1  0.250000  0.254830  0.634461  1
  Si  Si7  1  0.250000  0.754830  0.865539  1
  Si  Si8  1  0.750000  0.744593  0.357653  1
  Si  Si9  1  0.750000  0.244593  0.142347  1
  Mo  Mo10  1  0.750000  0.868726  0.061184  1
  Mo  Mo11  1  0.750000  0.368726  0.438816  1
