# generated using pymatgen
data_Hf4Fe2CuSi4Ir
_symmetry_space_group_name_H-M   'P 1'
_cell_length_a   3.89179800
_cell_length_b   6.44137659
_cell_length_c   7.26122686
_cell_angle_alpha   88.50970469
_cell_angle_beta   90.00000000
_cell_angle_gamma   90.00000000
_symmetry_Int_Tables_number   1
_chemical_formula_structural   Hf4Fe2CuSi4Ir
_chemical_formula_sum   'Hf4 Fe2 Cu1 Si4 Ir1'
_cell_volume   181.96675864
_cell_formula_units_Z   1
loop_
 _symmetry_equiv_pos_site_id
 _symmetry_equiv_pos_as_xyz
  1  'x, y, z'
loop_
 _atom_site_type_symbol
 _atom_site_label
 _atom_site_symmetry_multiplicity
 _atom_site_fract_x
 _atom_site_fract_y
 _atom_site_fract_z
 _atom_site_occupancy
  Hf  Hf0  1  0.250000  0.016609  0.319673  1
  Hf  Hf1  1  0.250000  0.514325  0.197022  1
  Hf  Hf2  1  0.750000  0.992246  0.680818  1
  Hf  Hf3  1  0.750000  0.482898  0.804121  1
  Fe  Fe4  1  0.250000  0.649818  0.561797  1
  Fe  Fe5  1  0.750000  0.350725  0.433845  1
  Cu  Cu6  1  0.750000  0.842517  0.066586  1
  Si  Si7  1  0.250000  0.289175  0.601696  1
  Si  Si8  1  0.250000  0.768813  0.872117  1
  Si  Si9  1  0.750000  0.716044  0.401627  1
  Si  Si10  1  0.750000  0.232134  0.124345  1
  Ir  Ir11  1  0.250000  0.144695  0.936350  1
