# generated using pymatgen
data_Nd10Ir2Br15
_symmetry_space_group_name_H-M   'P 1'
_cell_length_a   9.64677303
_cell_length_b   10.54043941
_cell_length_c   11.31242643
_cell_angle_alpha   91.79886548
_cell_angle_beta   114.34529858
_cell_angle_gamma   110.75677024
_symmetry_Int_Tables_number   1
_chemical_formula_structural   Nd10Ir2Br15
_chemical_formula_sum   'Nd10 Ir2 Br15'
_cell_volume   958.45450900
_cell_formula_units_Z   1
loop_
 _symmetry_equiv_pos_site_id
 _symmetry_equiv_pos_as_xyz
  1  'x, y, z'
loop_
 _atom_site_type_symbol
 _atom_site_label
 _atom_site_symmetry_multiplicity
 _atom_site_fract_x
 _atom_site_fract_y
 _atom_site_fract_z
 _atom_site_occupancy
  Nd  Nd0  1  0.808015  0.410756  0.275507  1
  Nd  Nd1  1  0.191985  0.589244  0.724493  1
  Nd  Nd2  1  0.675563  0.747342  0.819370  1
  Nd  Nd3  1  0.324437  0.252658  0.180630  1
  Nd  Nd4  1  0.529474  0.702285  0.106373  1
  Nd  Nd5  1  0.470526  0.297715  0.893627  1
  Nd  Nd6  1  0.596082  0.045214  0.343243  1
  Nd  Nd7  1  0.403918  0.954786  0.656757  1
  Nd  Nd8  1  0.737479  0.080918  0.050604  1
  Nd  Nd9  1  0.262521  0.919082  0.949396  1
  Ir  Ir10  1  0.467018  0.826513  0.880337  1
  Ir  Ir11  1  0.532982  0.173487  0.119663  1
  Br  Br12  1  0.000000  0.000000  0.000000  1
  Br  Br13  1  0.638447  0.885983  0.586812  1
  Br  Br14  1  0.361553  0.114017  0.413188  1
  Br  Br15  1  0.887217  0.304872  0.525278  1
  Br  Br16  1  0.112783  0.695128  0.474722  1
  Br  Br17  1  0.305743  0.768224  0.189011  1
  Br  Br18  1  0.694257  0.231776  0.810989  1
  Br  Br19  1  0.063580  0.344982  0.227156  1
  Br  Br20  1  0.172422  0.060189  0.700467  1
  Br  Br21  1  0.827578  0.939811  0.299533  1
  Br  Br22  1  0.247531  0.415733  0.948429  1
  Br  Br23  1  0.752469  0.584267  0.051571  1
  Br  Br24  1  0.406714  0.469451  0.666195  1
  Br  Br25  1  0.593286  0.530549  0.333805  1
  Br  Br26  1  0.936420  0.655018  0.772844  1
