# generated using pymatgen
data_Pa2Te2S
_symmetry_space_group_name_H-M   'P 1'
_cell_length_a   10.56851414
_cell_length_b   10.56851384
_cell_length_c   10.56851418
_cell_angle_alpha   22.06371121
_cell_angle_beta   22.06371538
_cell_angle_gamma   22.06371629
_symmetry_Int_Tables_number   1
_chemical_formula_structural   Pa2Te2S
_chemical_formula_sum   'Pa2 Te2 S1'
_cell_volume   146.02990938
_cell_formula_units_Z   1
loop_
 _symmetry_equiv_pos_site_id
 _symmetry_equiv_pos_as_xyz
  1  'x, y, z'
loop_
 _atom_site_type_symbol
 _atom_site_label
 _atom_site_symmetry_multiplicity
 _atom_site_fract_x
 _atom_site_fract_y
 _atom_site_fract_z
 _atom_site_occupancy
  Pa  Pa0  1  0.381676  0.381676  0.381676  1
  Pa  Pa1  1  0.618324  0.618324  0.618324  1
  Te  Te2  1  0.778249  0.778249  0.778249  1
  Te  Te3  1  0.221751  0.221751  0.221751  1
  S  S4  1  0.000000  0.000000  0.000000  1
