# generated using pymatgen
data_YbFe2(PO4)2
_symmetry_space_group_name_H-M   'P 1'
_cell_length_a   4.90368300
_cell_length_b   6.32003404
_cell_length_c   10.84134051
_cell_angle_alpha   90.32084277
_cell_angle_beta   90.00000000
_cell_angle_gamma   90.00000000
_symmetry_Int_Tables_number   1
_chemical_formula_structural   YbFe2(PO4)2
_chemical_formula_sum   'Yb2 Fe4 P4 O16'
_cell_volume   335.98352402
_cell_formula_units_Z   2
loop_
 _symmetry_equiv_pos_site_id
 _symmetry_equiv_pos_as_xyz
  1  'x, y, z'
loop_
 _atom_site_type_symbol
 _atom_site_label
 _atom_site_symmetry_multiplicity
 _atom_site_fract_x
 _atom_site_fract_y
 _atom_site_fract_z
 _atom_site_occupancy
  Yb  Yb0  1  0.996445  0.756265  0.032431  1
  Yb  Yb1  1  0.496445  0.243735  0.967569  1
  Fe  Fe2  1  0.020660  0.232215  0.467437  1
  Fe  Fe3  1  0.520660  0.767785  0.532563  1
  Fe  Fe4  1  0.998384  0.499445  0.738519  1
  Fe  Fe5  1  0.498384  0.500555  0.261481  1
  P  P6  1  0.429143  0.732155  0.839626  1
  P  P7  1  0.929143  0.267845  0.160374  1
  P  P8  1  0.567878  0.265090  0.641047  1
  P  P9  1  0.067878  0.734910  0.358953  1
  O  O10  1  0.741391  0.699339  0.846356  1
  O  O11  1  0.241391  0.300661  0.153644  1
  O  O12  1  0.252201  0.283134  0.638878  1
  O  O13  1  0.752201  0.716866  0.361122  1
  O  O14  1  0.342982  0.921288  0.921011  1
  O  O15  1  0.842982  0.078712  0.078989  1
  O  O16  1  0.668572  0.076936  0.560304  1
  O  O17  1  0.168572  0.923064  0.439696  1
  O  O18  1  0.270507  0.538067  0.898345  1
  O  O19  1  0.770507  0.461933  0.101655  1
  O  O20  1  0.711091  0.467239  0.582360  1
  O  O21  1  0.211091  0.532761  0.417640  1
  O  O22  1  0.182273  0.744037  0.226081  1
  O  O23  1  0.682273  0.255963  0.773919  1
  O  O24  1  0.818475  0.257435  0.294275  1
  O  O25  1  0.318475  0.742565  0.705725  1
