# generated using pymatgen
data_Er2GaSi13Ir6
_symmetry_space_group_name_H-M   'P 1'
_cell_length_a   8.02017199
_cell_length_b   8.02017296
_cell_length_c   8.02017262
_cell_angle_alpha   57.09147591
_cell_angle_beta   57.09146702
_cell_angle_gamma   57.09147476
_symmetry_Int_Tables_number   1
_chemical_formula_structural   Er2GaSi13Ir6
_chemical_formula_sum   'Er2 Ga1 Si13 Ir6'
_cell_volume   340.33152981
_cell_formula_units_Z   1
loop_
 _symmetry_equiv_pos_site_id
 _symmetry_equiv_pos_as_xyz
  1  'x, y, z'
loop_
 _atom_site_type_symbol
 _atom_site_label
 _atom_site_symmetry_multiplicity
 _atom_site_fract_x
 _atom_site_fract_y
 _atom_site_fract_z
 _atom_site_occupancy
  Er  Er0  1  0.999468  0.999468  0.999468  1
  Er  Er1  1  0.500532  0.500532  0.500532  1
  Ga  Ga2  1  0.750000  0.750000  0.750000  1
  Si  Si3  1  0.250000  0.250000  0.250000  1
  Si  Si4  1  0.850343  0.065782  0.670814  1
  Si  Si5  1  0.670814  0.850343  0.065782  1
  Si  Si6  1  0.065782  0.670814  0.850343  1
  Si  Si7  1  0.649657  0.829186  0.434218  1
  Si  Si8  1  0.434218  0.649657  0.829186  1
  Si  Si9  1  0.829186  0.434218  0.649657  1
  Si  Si10  1  0.171262  0.561146  0.354695  1
  Si  Si11  1  0.561146  0.354695  0.171262  1
  Si  Si12  1  0.354695  0.171262  0.561146  1
  Si  Si13  1  0.938854  0.328738  0.145305  1
  Si  Si14  1  0.328738  0.145305  0.938854  1
  Si  Si15  1  0.145305  0.938854  0.328738  1
  Ir  Ir16  1  0.082458  0.417542  0.750000  1
  Ir  Ir17  1  0.250000  0.928268  0.571732  1
  Ir  Ir18  1  0.571732  0.250000  0.928268  1
  Ir  Ir19  1  0.928268  0.571732  0.250000  1
  Ir  Ir20  1  0.417542  0.750000  0.082458  1
  Ir  Ir21  1  0.750000  0.082458  0.417542  1
