# generated using pymatgen
data_Np4Al18Ir5Au
_symmetry_space_group_name_H-M   'P 1'
_cell_length_a   7.61711288
_cell_length_b   7.61711374
_cell_length_c   9.48901327
_cell_angle_alpha   90.04934644
_cell_angle_beta   90.04933973
_cell_angle_gamma   119.51256198
_symmetry_Int_Tables_number   1
_chemical_formula_structural   Np4Al18Ir5Au
_chemical_formula_sum   'Np4 Al18 Ir5 Au1'
_cell_volume   479.11982516
_cell_formula_units_Z   1
loop_
 _symmetry_equiv_pos_site_id
 _symmetry_equiv_pos_as_xyz
  1  'x, y, z'
loop_
 _atom_site_type_symbol
 _atom_site_label
 _atom_site_symmetry_multiplicity
 _atom_site_fract_x
 _atom_site_fract_y
 _atom_site_fract_z
 _atom_site_occupancy
  Np  Np0  1  0.991266  0.666768  0.252464  1
  Np  Np1  1  0.001443  0.328730  0.747245  1
  Np  Np2  1  0.671270  0.998557  0.252755  1
  Np  Np3  1  0.333232  0.008734  0.747536  1
  Al  Al4  1  0.128373  0.126425  0.250425  1
  Al  Al5  1  0.873575  0.871627  0.749575  1
  Al  Al6  1  0.009715  0.336412  0.077046  1
  Al  Al7  1  0.008243  0.673155  0.923456  1
  Al  Al8  1  0.000255  0.664212  0.574936  1
  Al  Al9  1  0.335788  0.999745  0.425064  1
  Al  Al10  1  0.002168  0.335322  0.424642  1
  Al  Al11  1  0.664678  0.997832  0.575358  1
  Al  Al12  1  0.663588  0.990285  0.922954  1
  Al  Al13  1  0.326845  0.991757  0.076544  1
  Al  Al14  1  0.332887  0.333268  0.550723  1
  Al  Al15  1  0.666732  0.667113  0.449277  1
  Al  Al16  1  0.666350  0.674443  0.060255  1
  Al  Al17  1  0.325557  0.333650  0.939745  1
  Al  Al18  1  0.342211  0.550937  0.250702  1
  Al  Al19  1  0.659587  0.456296  0.743663  1
  Al  Al20  1  0.543704  0.340413  0.256337  1
  Al  Al21  1  0.449063  0.657789  0.749298  1
  Ir  Ir22  1  0.329580  0.670420  0.000000  1
  Ir  Ir23  1  0.328606  0.671394  0.500000  1
  Ir  Ir24  1  0.672550  0.327450  0.500000  1
  Ir  Ir25  1  0.000015  0.999985  0.000000  1
  Ir  Ir26  1  0.001001  0.998999  0.500000  1
  Au  Au27  1  0.671715  0.328285  0.000000  1
