# generated using pymatgen
data_Sc10FeReAs4
_symmetry_space_group_name_H-M   'P 1'
_cell_length_a   5.84881600
_cell_length_b   7.82050184
_cell_length_c   7.98826500
_cell_angle_alpha   119.30768425
_cell_angle_beta   90.00000000
_cell_angle_gamma   90.00000000
_symmetry_Int_Tables_number   1
_chemical_formula_structural   Sc10FeReAs4
_chemical_formula_sum   'Sc10 Fe1 Re1 As4'
_cell_volume   318.62022381
_cell_formula_units_Z   1
loop_
 _symmetry_equiv_pos_site_id
 _symmetry_equiv_pos_as_xyz
  1  'x, y, z'
loop_
 _atom_site_type_symbol
 _atom_site_label
 _atom_site_symmetry_multiplicity
 _atom_site_fract_x
 _atom_site_fract_y
 _atom_site_fract_z
 _atom_site_occupancy
  Sc  Sc0  1  0.000607  0.659057  0.320840  1
  Sc  Sc1  1  0.000607  0.338215  0.679160  1
  Sc  Sc2  1  0.499393  0.338215  0.679160  1
  Sc  Sc3  1  0.499393  0.659057  0.320840  1
  Sc  Sc4  1  0.750000  0.742319  0.765028  1
  Sc  Sc5  1  0.250000  0.259748  0.231869  1
  Sc  Sc6  1  0.750000  0.977291  0.234972  1
  Sc  Sc7  1  0.250000  0.027877  0.768131  1
  Sc  Sc8  1  0.750000  0.250629  0.000000  1
  Sc  Sc9  1  0.250000  0.741685  0.000000  1
  Fe  Fe10  1  0.250000  0.409841  0.000000  1
  Re  Re11  1  0.750000  0.592147  0.000000  1
  As  As12  1  0.750000  0.378832  0.387717  1
  As  As13  1  0.250000  0.623125  0.612278  1
  As  As14  1  0.750000  0.991115  0.612283  1
  As  As15  1  0.250000  0.010846  0.387722  1
