# generated using pymatgen
data_Pr3In3GePt2
_symmetry_space_group_name_H-M   'P 1'
_cell_length_a   7.65049800
_cell_length_b   7.65049796
_cell_length_c   4.27976800
_cell_angle_alpha   90.00000000
_cell_angle_beta   90.00000000
_cell_angle_gamma   120.00000881
_symmetry_Int_Tables_number   1
_chemical_formula_structural   Pr3In3GePt2
_chemical_formula_sum   'Pr3 In3 Ge1 Pt2'
_cell_volume   216.93530171
_cell_formula_units_Z   1
loop_
 _symmetry_equiv_pos_site_id
 _symmetry_equiv_pos_as_xyz
  1  'x, y, z'
loop_
 _atom_site_type_symbol
 _atom_site_label
 _atom_site_symmetry_multiplicity
 _atom_site_fract_x
 _atom_site_fract_y
 _atom_site_fract_z
 _atom_site_occupancy
  Pr  Pr0  1  0.594406  0.006164  0.000000  1
  Pr  Pr1  1  0.993836  0.588241  0.000000  1
  Pr  Pr2  1  0.411759  0.405594  0.000000  1
  In  In3  1  0.252624  0.009467  0.500000  1
  In  In4  1  0.990533  0.243158  0.500000  1
  In  In5  1  0.756842  0.747376  0.500000  1
  Ge  Ge6  1  0.333333  0.666667  0.500000  1
  Pt  Pt7  1  0.666667  0.333333  0.500000  1
  Pt  Pt8  1  0.000000  0.000000  0.000000  1
