# generated using pymatgen
data_Lu20AgBi11
_symmetry_space_group_name_H-M   'P 1'
_cell_length_a   8.09325627
_cell_length_b   9.38429200
_cell_length_c   11.76894743
_cell_angle_alpha   90.00000000
_cell_angle_beta   89.76253836
_cell_angle_gamma   90.00000000
_symmetry_Int_Tables_number   1
_chemical_formula_structural   Lu20AgBi11
_chemical_formula_sum   'Lu20 Ag1 Bi11'
_cell_volume   893.83776121
_cell_formula_units_Z   1
loop_
 _symmetry_equiv_pos_site_id
 _symmetry_equiv_pos_as_xyz
  1  'x, y, z'
loop_
 _atom_site_type_symbol
 _atom_site_label
 _atom_site_symmetry_multiplicity
 _atom_site_fract_x
 _atom_site_fract_y
 _atom_site_fract_z
 _atom_site_occupancy
  Lu  Lu0  1  0.034450  0.250000  0.507931  1
  Lu  Lu1  1  0.980365  0.750000  0.490434  1
  Lu  Lu2  1  0.476225  0.750000  0.010032  1
  Lu  Lu3  1  0.525023  0.250000  0.990418  1
  Lu  Lu4  1  0.357762  0.250000  0.294192  1
  Lu  Lu5  1  0.646162  0.750000  0.717781  1
  Lu  Lu6  1  0.150538  0.750000  0.781121  1
  Lu  Lu7  1  0.852492  0.250000  0.217341  1
  Lu  Lu8  1  0.193664  0.250000  0.779359  1
  Lu  Lu9  1  0.808243  0.750000  0.215734  1
  Lu  Lu10  1  0.312200  0.750000  0.282325  1
  Lu  Lu11  1  0.676672  0.250000  0.710346  1
  Lu  Lu12  1  0.194110  0.066927  0.060825  1
  Lu  Lu13  1  0.805589  0.933072  0.940746  1
  Lu  Lu14  1  0.308670  0.949327  0.558607  1
  Lu  Lu15  1  0.805589  0.566928  0.940746  1
  Lu  Lu16  1  0.685312  0.071954  0.445055  1
  Lu  Lu17  1  0.194110  0.433073  0.060825  1
  Lu  Lu18  1  0.685312  0.428046  0.445055  1
  Lu  Lu19  1  0.308670  0.550673  0.558607  1
  Ag  Ag20  1  0.405509  0.250000  0.540405  1
  Bi  Bi21  1  0.596575  0.750000  0.456734  1
  Bi  Bi22  1  0.097269  0.750000  0.042792  1
  Bi  Bi23  1  0.904608  0.250000  0.953976  1
  Bi  Bi24  1  0.061153  0.001737  0.322584  1
  Bi  Bi25  1  0.936313  0.998087  0.676880  1
  Bi  Bi26  1  0.436408  0.997725  0.824972  1
  Bi  Bi27  1  0.936313  0.501913  0.676880  1
  Bi  Bi28  1  0.563567  0.003830  0.174871  1
  Bi  Bi29  1  0.061153  0.498263  0.322584  1
  Bi  Bi30  1  0.563567  0.496170  0.174871  1
  Bi  Bi31  1  0.436408  0.502275  0.824972  1
