# generated using pymatgen
data_Sr4YbU7N16
_symmetry_space_group_name_H-M   'P 1'
_cell_length_a   10.14873208
_cell_length_b   3.53628000
_cell_length_c   11.90725510
_cell_angle_alpha   90.00000000
_cell_angle_beta   89.69044871
_cell_angle_gamma   90.00000000
_symmetry_Int_Tables_number   1
_chemical_formula_structural   Sr4YbU7N16
_chemical_formula_sum   'Sr4 Yb1 U7 N16'
_cell_volume   427.33036343
_cell_formula_units_Z   1
loop_
 _symmetry_equiv_pos_site_id
 _symmetry_equiv_pos_as_xyz
  1  'x, y, z'
loop_
 _atom_site_type_symbol
 _atom_site_label
 _atom_site_symmetry_multiplicity
 _atom_site_fract_x
 _atom_site_fract_y
 _atom_site_fract_z
 _atom_site_occupancy
  Sr  Sr0  1  0.760459  0.500001  0.141702  1
  Sr  Sr1  1  0.247169  0.500001  0.345753  1
  Sr  Sr2  1  0.749627  0.000000  0.650160  1
  Sr  Sr3  1  0.252809  0.000000  0.853808  1
  Yb  Yb4  1  0.083922  0.500001  0.108997  1
  U  U5  1  0.423486  0.000000  0.114745  1
  U  U6  1  0.923103  0.000000  0.390101  1
  U  U7  1  0.577484  0.500001  0.385553  1
  U  U8  1  0.422094  0.000000  0.613337  1
  U  U9  1  0.075525  0.500001  0.614176  1
  U  U10  1  0.574112  0.500001  0.889658  1
  U  U11  1  0.929332  0.000000  0.889923  1
  N  N12  1  0.601667  0.000000  0.013562  1
  N  N13  1  0.919801  0.000000  0.056421  1
  N  N14  1  0.240927  0.000000  0.176236  1
  N  N15  1  0.490765  0.500001  0.216023  1
  N  N16  1  0.974948  0.500001  0.295264  1
  N  N17  1  0.708200  0.000000  0.340562  1
  N  N18  1  0.443866  0.000000  0.424986  1
  N  N19  1  0.114095  0.000000  0.496916  1
  N  N20  1  0.885710  0.500001  0.510606  1
  N  N21  1  0.557047  0.500001  0.574404  1
  N  N22  1  0.290579  0.500001  0.665165  1
  N  N23  1  0.006176  0.000000  0.711107  1
  N  N24  1  0.516071  0.000000  0.785430  1
  N  N25  1  0.784689  0.500001  0.842200  1
  N  N26  1  0.057694  0.500001  0.906241  1
  N  N27  1  0.388654  0.500001  0.986973  1
