# generated using pymatgen
data_Dy16MgZn(HgRh2)2
_symmetry_space_group_name_H-M   'P 1'
_cell_length_a   9.60164126
_cell_length_b   9.60910193
_cell_length_c   9.59482501
_cell_angle_alpha   59.95076620
_cell_angle_beta   59.95686157
_cell_angle_gamma   59.97430250
_symmetry_Int_Tables_number   1
_chemical_formula_structural   Dy16MgZn(HgRh2)2
_chemical_formula_sum   'Dy16 Mg1 Zn1 Hg2 Rh4'
_cell_volume   625.40666042
_cell_formula_units_Z   1
loop_
 _symmetry_equiv_pos_site_id
 _symmetry_equiv_pos_as_xyz
  1  'x, y, z'
loop_
 _atom_site_type_symbol
 _atom_site_label
 _atom_site_symmetry_multiplicity
 _atom_site_fract_x
 _atom_site_fract_y
 _atom_site_fract_z
 _atom_site_occupancy
  Dy  Dy0  1  0.064214  0.436386  0.436474  1
  Dy  Dy1  1  0.648048  0.048613  0.651566  1
  Dy  Dy2  1  0.813817  0.810968  0.188125  1
  Dy  Dy3  1  0.437228  0.066883  0.060780  1
  Dy  Dy4  1  0.437228  0.435110  0.060780  1
  Dy  Dy5  1  0.191752  0.190084  0.810239  1
  Dy  Dy6  1  0.813817  0.187091  0.188125  1
  Dy  Dy7  1  0.067834  0.436055  0.060057  1
  Dy  Dy8  1  0.437379  0.063696  0.435229  1
  Dy  Dy9  1  0.060957  0.646310  0.646424  1
  Dy  Dy10  1  0.191752  0.807924  0.810239  1
  Dy  Dy11  1  0.647799  0.651560  0.049083  1
  Dy  Dy12  1  0.190844  0.809477  0.190200  1
  Dy  Dy13  1  0.064214  0.062927  0.436474  1
  Dy  Dy14  1  0.811909  0.188294  0.811505  1
  Dy  Dy15  1  0.648048  0.651776  0.651566  1
  Mg  Mg16  1  0.715759  0.427210  0.429820  1
  Zn  Zn17  1  0.417568  0.413882  0.754669  1
  Hg  Hg18  1  0.417851  0.412695  0.415843  1
  Hg  Hg19  1  0.417851  0.753611  0.415843  1
  Rh  Rh20  1  0.859211  0.428556  0.855405  1
  Rh  Rh21  1  0.427475  0.857950  0.856625  1
  Rh  Rh22  1  0.858233  0.856119  0.429527  1
  Rh  Rh23  1  0.859211  0.856827  0.855405  1
