# generated using pymatgen
data_SmLuBi2O7
_symmetry_space_group_name_H-M   'P 1'
_cell_length_a   6.63513510
_cell_length_b   6.72417984
_cell_length_c   7.80158300
_cell_angle_alpha   106.66470530
_cell_angle_beta   89.56514396
_cell_angle_gamma   98.52900623
_symmetry_Int_Tables_number   1
_chemical_formula_structural   SmLuBi2O7
_chemical_formula_sum   'Sm2 Lu2 Bi4 O14'
_cell_volume   329.54278074
_cell_formula_units_Z   2
loop_
 _symmetry_equiv_pos_site_id
 _symmetry_equiv_pos_as_xyz
  1  'x, y, z'
loop_
 _atom_site_type_symbol
 _atom_site_label
 _atom_site_symmetry_multiplicity
 _atom_site_fract_x
 _atom_site_fract_y
 _atom_site_fract_z
 _atom_site_occupancy
  Sm  Sm0  1  0.261674  0.540787  0.885830  1
  Sm  Sm1  1  0.738326  0.459213  0.114170  1
  Lu  Lu2  1  0.462841  0.007015  0.252215  1
  Lu  Lu3  1  0.537159  0.992985  0.747785  1
  Bi  Bi4  1  0.000000  0.000000  0.500000  1
  Bi  Bi5  1  0.000000  0.000000  0.000000  1
  Bi  Bi6  1  0.724343  0.457431  0.613011  1
  Bi  Bi7  1  0.275657  0.542569  0.386989  1
  O  O8  1  0.449393  0.663418  0.170616  1
  O  O9  1  0.550607  0.336582  0.829384  1
  O  O10  1  0.305383  0.931808  0.945693  1
  O  O11  1  0.694617  0.068192  0.054307  1
  O  O12  1  0.304884  0.927847  0.517538  1
  O  O13  1  0.695116  0.072153  0.482462  1
  O  O14  1  0.537137  0.353158  0.341589  1
  O  O15  1  0.462863  0.646842  0.658411  1
  O  O16  1  0.932472  0.669960  0.956774  1
  O  O17  1  0.067528  0.330040  0.043226  1
  O  O18  1  0.084767  0.326640  0.625114  1
  O  O19  1  0.915233  0.673360  0.374886  1
  O  O20  1  0.868399  0.934750  0.734298  1
  O  O21  1  0.131601  0.065250  0.265702  1
