# generated using pymatgen
data_Hf8Ta2ZnSn7
_symmetry_space_group_name_H-M   'P 1'
_cell_length_a   5.80728800
_cell_length_b   8.63598526
_cell_length_c   8.63603500
_cell_angle_alpha   119.99981588
_cell_angle_beta   90.00005733
_cell_angle_gamma   89.99989936
_symmetry_Int_Tables_number   1
_chemical_formula_structural   Hf8Ta2ZnSn7
_chemical_formula_sum   'Hf8 Ta2 Zn1 Sn7'
_cell_volume   375.08620186
_cell_formula_units_Z   1
loop_
 _symmetry_equiv_pos_site_id
 _symmetry_equiv_pos_as_xyz
  1  'x, y, z'
loop_
 _atom_site_type_symbol
 _atom_site_label
 _atom_site_symmetry_multiplicity
 _atom_site_fract_x
 _atom_site_fract_y
 _atom_site_fract_z
 _atom_site_occupancy
  Hf  Hf0  1  0.000000  0.666664  0.333329  1
  Hf  Hf1  1  0.000000  0.333335  0.666671  1
  Hf  Hf2  1  0.736503  0.276273  0.000000  1
  Hf  Hf3  1  0.736518  0.723738  0.723723  1
  Hf  Hf4  1  0.736518  0.000015  0.276277  1
  Hf  Hf5  1  0.263490  0.723729  0.000000  1
  Hf  Hf6  1  0.263484  0.276259  0.276276  1
  Hf  Hf7  1  0.263484  0.999983  0.723724  1
  Ta  Ta8  1  0.500001  0.333338  0.666675  1
  Ta  Ta9  1  0.500001  0.666663  0.333325  1
  Zn  Zn10  1  0.500000  0.000001  0.000000  1
  Sn  Sn11  1  0.751049  0.613076  0.000000  1
  Sn  Sn12  1  0.751045  0.386936  0.386935  1
  Sn  Sn13  1  0.751045  0.000001  0.613065  1
  Sn  Sn14  1  0.248948  0.386925  0.000000  1
  Sn  Sn15  1  0.248956  0.613062  0.613064  1
  Sn  Sn16  1  0.248956  0.999999  0.386936  1
  Sn  Sn17  1  0.999998  0.000001  0.000000  1
