# generated using pymatgen
data_Sr10Cr4Fe(MoO6)5
_symmetry_space_group_name_H-M   'P 1'
_cell_length_a   9.74125246
_cell_length_b   9.74125185
_cell_length_c   9.74125243
_cell_angle_alpha   99.95298037
_cell_angle_beta   99.95297501
_cell_angle_gamma   130.86811953
_symmetry_Int_Tables_number   1
_chemical_formula_structural   Sr10Cr4Fe(MoO6)5
_chemical_formula_sum   'Sr10 Cr4 Fe1 Mo5 O30'
_cell_volume   635.74943761
_cell_formula_units_Z   1
loop_
 _symmetry_equiv_pos_site_id
 _symmetry_equiv_pos_as_xyz
  1  'x, y, z'
loop_
 _atom_site_type_symbol
 _atom_site_label
 _atom_site_symmetry_multiplicity
 _atom_site_fract_x
 _atom_site_fract_y
 _atom_site_fract_z
 _atom_site_occupancy
  Sr  Sr0  1  0.351504  0.051178  0.896728  1
  Sr  Sr1  1  0.750000  0.250000  0.500000  1
  Sr  Sr2  1  0.545224  0.648496  0.699675  1
  Sr  Sr3  1  0.948822  0.845549  0.300325  1
  Sr  Sr4  1  0.154451  0.454776  0.103272  1
  Sr  Sr5  1  0.250000  0.750000  0.500000  1
  Sr  Sr6  1  0.648496  0.948822  0.103272  1
  Sr  Sr7  1  0.454776  0.351504  0.300325  1
  Sr  Sr8  1  0.845549  0.545224  0.896728  1
  Sr  Sr9  1  0.051178  0.154451  0.699675  1
  Cr  Cr10  1  0.799215  0.399189  0.198403  1
  Cr  Cr11  1  0.600811  0.799215  0.400026  1
  Cr  Cr12  1  0.399189  0.200785  0.599974  1
  Cr  Cr13  1  0.200785  0.600811  0.801597  1
  Fe  Fe14  1  0.000000  0.000000  0.000000  1
  Mo  Mo15  1  0.899939  0.700154  0.600094  1
  Mo  Mo16  1  0.299846  0.899939  0.199785  1
  Mo  Mo17  1  0.100061  0.299846  0.399906  1
  Mo  Mo18  1  0.500000  0.500000  0.000000  1
  Mo  Mo19  1  0.700154  0.100061  0.800215  1
  O  O20  1  0.447418  0.851537  0.800858  1
  O  O21  1  0.851537  0.050677  0.404119  1
  O  O22  1  0.646559  0.447418  0.595882  1
  O  O23  1  0.050677  0.646559  0.199142  1
  O  O24  1  0.259545  0.259545  0.000000  1
  O  O25  1  0.148463  0.949323  0.595882  1
  O  O26  1  0.552582  0.148463  0.199142  1
  O  O27  1  0.353441  0.552582  0.404119  1
  O  O28  1  0.740455  0.740455  0.000000  1
  O  O29  1  0.949323  0.353441  0.800858  1
  O  O30  1  0.843050  0.026297  0.869348  1
  O  O31  1  0.641124  0.421076  0.062200  1
  O  O32  1  0.445547  0.829357  0.274904  1
  O  O33  1  0.238588  0.230401  0.468989  1
  O  O34  1  0.039610  0.631299  0.670909  1
  O  O35  1  0.358876  0.578924  0.937800  1
  O  O36  1  0.156950  0.973703  0.130652  1
  O  O37  1  0.960390  0.368701  0.329091  1
  O  O38  1  0.761412  0.769599  0.531011  1
  O  O39  1  0.554453  0.170643  0.725096  1
  O  O40  1  0.769599  0.238588  0.008186  1
  O  O41  1  0.578924  0.641124  0.220048  1
  O  O42  1  0.368701  0.039610  0.408309  1
  O  O43  1  0.170643  0.445547  0.616188  1
  O  O44  1  0.973703  0.843050  0.816753  1
  O  O45  1  0.631299  0.960390  0.591691  1
  O  O46  1  0.421076  0.358876  0.779952  1
  O  O47  1  0.230401  0.761412  0.991814  1
  O  O48  1  0.026297  0.156950  0.183247  1
  O  O49  1  0.829357  0.554453  0.383812  1
