# generated using pymatgen
data_Sc4Be2Os5Ru
_symmetry_space_group_name_H-M   'P 1'
_cell_length_a   4.91823252
_cell_length_b   5.10074610
_cell_length_c   8.59825500
_cell_angle_alpha   90.00000000
_cell_angle_beta   90.00000000
_cell_angle_gamma   118.79971116
_symmetry_Int_Tables_number   1
_chemical_formula_structural   Sc4Be2Os5Ru
_chemical_formula_sum   'Sc4 Be2 Os5 Ru1'
_cell_volume   189.02115368
_cell_formula_units_Z   1
loop_
 _symmetry_equiv_pos_site_id
 _symmetry_equiv_pos_as_xyz
  1  'x, y, z'
loop_
 _atom_site_type_symbol
 _atom_site_label
 _atom_site_symmetry_multiplicity
 _atom_site_fract_x
 _atom_site_fract_y
 _atom_site_fract_z
 _atom_site_occupancy
  Sc  Sc0  1  0.328092  0.668708  0.434499  1
  Sc  Sc1  1  0.658081  0.326129  0.564704  1
  Sc  Sc2  1  0.658081  0.326129  0.935296  1
  Sc  Sc3  1  0.328092  0.668708  0.065501  1
  Be  Be4  1  0.181925  0.839673  0.750000  1
  Be  Be5  1  0.338360  0.168730  0.250000  1
  Os  Os6  1  0.828470  0.648693  0.250000  1
  Os  Os7  1  0.674993  0.839137  0.750000  1
  Os  Os8  1  0.991470  0.994984  0.999497  1
  Os  Os9  1  0.830108  0.167099  0.250000  1
  Os  Os10  1  0.991470  0.994984  0.500503  1
  Ru  Ru11  1  0.190855  0.357024  0.750000  1
