# generated using pymatgen
data_YbZr(PPd)2
_symmetry_space_group_name_H-M   'P 1'
_cell_length_a   3.89840300
_cell_length_b   6.90649218
_cell_length_c   7.62020585
_cell_angle_alpha   90.64618905
_cell_angle_beta   90.00000000
_cell_angle_gamma   90.00000000
_symmetry_Int_Tables_number   1
_chemical_formula_structural   YbZr(PPd)2
_chemical_formula_sum   'Yb2 Zr2 P4 Pd4'
_cell_volume   205.15558281
_cell_formula_units_Z   2
loop_
 _symmetry_equiv_pos_site_id
 _symmetry_equiv_pos_as_xyz
  1  'x, y, z'
loop_
 _atom_site_type_symbol
 _atom_site_label
 _atom_site_symmetry_multiplicity
 _atom_site_fract_x
 _atom_site_fract_y
 _atom_site_fract_z
 _atom_site_occupancy
  Yb  Yb0  1  0.750000  0.967768  0.684234  1
  Yb  Yb1  1  0.250000  0.032232  0.315766  1
  Zr  Zr2  1  0.250000  0.534467  0.185395  1
  Zr  Zr3  1  0.750000  0.465533  0.814605  1
  P  P4  1  0.250000  0.731943  0.882649  1
  P  P5  1  0.750000  0.268057  0.117351  1
  P  P6  1  0.750000  0.737209  0.366864  1
  P  P7  1  0.250000  0.262791  0.633136  1
  Pd  Pd8  1  0.250000  0.643765  0.563400  1
  Pd  Pd9  1  0.750000  0.356235  0.436600  1
  Pd  Pd10  1  0.750000  0.842923  0.051714  1
  Pd  Pd11  1  0.250000  0.157077  0.948286  1
