# generated using pymatgen
data_Yb2Mn3O8
_symmetry_space_group_name_H-M   'P 1'
_cell_length_a   6.22308126
_cell_length_b   6.22308155
_cell_length_c   5.01174892
_cell_angle_alpha   72.47372439
_cell_angle_beta   72.47372143
_cell_angle_gamma   56.87792309
_symmetry_Int_Tables_number   1
_chemical_formula_structural   Yb2Mn3O8
_chemical_formula_sum   'Yb2 Mn3 O8'
_cell_volume   152.72118718
_cell_formula_units_Z   1
loop_
 _symmetry_equiv_pos_site_id
 _symmetry_equiv_pos_as_xyz
  1  'x, y, z'
loop_
 _atom_site_type_symbol
 _atom_site_label
 _atom_site_symmetry_multiplicity
 _atom_site_fract_x
 _atom_site_fract_y
 _atom_site_fract_z
 _atom_site_occupancy
  Yb  Yb0  1  0.724726  0.724726  0.337290  1
  Yb  Yb1  1  0.275274  0.275274  0.662710  1
  Mn  Mn2  1  0.000000  0.000000  0.500000  1
  Mn  Mn3  1  0.258251  0.741749  0.000000  1
  Mn  Mn4  1  0.741749  0.258251  0.000000  1
  O  O5  1  0.118357  0.674217  0.393447  1
  O  O6  1  0.325783  0.881643  0.606553  1
  O  O7  1  0.674217  0.118357  0.393447  1
  O  O8  1  0.881643  0.325783  0.606553  1
  O  O9  1  0.099027  0.099027  0.094964  1
  O  O10  1  0.900973  0.900973  0.905036  1
  O  O11  1  0.605216  0.605216  0.042926  1
  O  O12  1  0.394784  0.394784  0.957074  1
