# generated using pymatgen
data_Tb3Pr(WN3)4
_symmetry_space_group_name_H-M   'P 1'
_cell_length_a   7.34601491
_cell_length_b   7.34601567
_cell_length_c   6.29850465
_cell_angle_alpha   74.76785094
_cell_angle_beta   74.76785846
_cell_angle_gamma   82.72230602
_symmetry_Int_Tables_number   1
_chemical_formula_structural   Tb3Pr(WN3)4
_chemical_formula_sum   'Tb3 Pr1 W4 N12'
_cell_volume   315.82297621
_cell_formula_units_Z   1
loop_
 _symmetry_equiv_pos_site_id
 _symmetry_equiv_pos_as_xyz
  1  'x, y, z'
loop_
 _atom_site_type_symbol
 _atom_site_label
 _atom_site_symmetry_multiplicity
 _atom_site_fract_x
 _atom_site_fract_y
 _atom_site_fract_z
 _atom_site_occupancy
  Tb  Tb0  1  0.092102  0.907898  0.750000  1
  Tb  Tb1  1  0.294556  0.705444  0.250000  1
  Tb  Tb2  1  0.913278  0.086722  0.250000  1
  Pr  Pr3  1  0.700379  0.299621  0.750000  1
  W  W4  1  0.379481  0.200443  0.242747  1
  W  W5  1  0.618420  0.800066  0.760868  1
  W  W6  1  0.799557  0.620519  0.257253  1
  W  W7  1  0.199934  0.381580  0.739132  1
  N  N8  1  0.621471  0.111988  0.165000  1
  N  N9  1  0.358536  0.356983  0.454848  1
  N  N10  1  0.006822  0.214658  0.850366  1
  N  N11  1  0.377689  0.892393  0.844715  1
  N  N12  1  0.785342  0.993178  0.649634  1
  N  N13  1  0.107607  0.622311  0.655285  1
  N  N14  1  0.888012  0.378529  0.335000  1
  N  N15  1  0.641644  0.650735  0.540089  1
  N  N16  1  0.643017  0.641464  0.045152  1
  N  N17  1  0.349265  0.358356  0.959911  1
  N  N18  1  0.001559  0.778670  0.149974  1
  N  N19  1  0.221330  0.998441  0.350026  1
