# generated using pymatgen
data_DyHo4Bi3
_symmetry_space_group_name_H-M   'P 1'
_cell_length_a   8.24147000
_cell_length_b   9.51055500
_cell_length_c   12.01219700
_cell_angle_alpha   90.00000000
_cell_angle_beta   90.00000000
_cell_angle_gamma   90.00000000
_symmetry_Int_Tables_number   1
_chemical_formula_structural   DyHo4Bi3
_chemical_formula_sum   'Dy4 Ho16 Bi12'
_cell_volume   941.52745708
_cell_formula_units_Z   4
loop_
 _symmetry_equiv_pos_site_id
 _symmetry_equiv_pos_as_xyz
  1  'x, y, z'
loop_
 _atom_site_type_symbol
 _atom_site_label
 _atom_site_symmetry_multiplicity
 _atom_site_fract_x
 _atom_site_fract_y
 _atom_site_fract_z
 _atom_site_occupancy
  Dy  Dy0  1  0.312570  0.250000  0.218733  1
  Dy  Dy1  1  0.812570  0.250000  0.281267  1
  Dy  Dy2  1  0.687430  0.750000  0.781267  1
  Dy  Dy3  1  0.187430  0.750000  0.718733  1
  Ho  Ho4  1  0.352523  0.750000  0.215359  1
  Ho  Ho5  1  0.852523  0.750000  0.284641  1
  Ho  Ho6  1  0.647477  0.250000  0.784641  1
  Ho  Ho7  1  0.147477  0.250000  0.715359  1
  Ho  Ho8  1  0.692849  0.563916  0.058489  1
  Ho  Ho9  1  0.192849  0.936084  0.441511  1
  Ho  Ho10  1  0.307151  0.063916  0.941511  1
  Ho  Ho11  1  0.807151  0.436084  0.558489  1
  Ho  Ho12  1  0.307151  0.436084  0.941511  1
  Ho  Ho13  1  0.807151  0.063916  0.558489  1
  Ho  Ho14  1  0.692849  0.936084  0.058489  1
  Ho  Ho15  1  0.192849  0.563916  0.441511  1
  Ho  Ho16  1  0.475648  0.250000  0.488430  1
  Ho  Ho17  1  0.975648  0.250000  0.011570  1
  Ho  Ho18  1  0.524352  0.750000  0.511570  1
  Ho  Ho19  1  0.024352  0.750000  0.988430  1
  Bi  Bi20  1  0.407144  0.750000  0.957021  1
  Bi  Bi21  1  0.907144  0.750000  0.542979  1
  Bi  Bi22  1  0.592856  0.250000  0.042979  1
  Bi  Bi23  1  0.092856  0.250000  0.457021  1
  Bi  Bi24  1  0.564787  0.995391  0.325446  1
  Bi  Bi25  1  0.064787  0.504609  0.174554  1
  Bi  Bi26  1  0.435213  0.495391  0.674554  1
  Bi  Bi27  1  0.935213  0.004609  0.825446  1
  Bi  Bi28  1  0.435213  0.004609  0.674554  1
  Bi  Bi29  1  0.935213  0.495391  0.825446  1
  Bi  Bi30  1  0.564787  0.504609  0.325446  1
  Bi  Bi31  1  0.064787  0.995391  0.174554  1
