# generated using pymatgen
data_La2GaRe4Si3
_symmetry_space_group_name_H-M   'P 1'
_cell_length_a   4.19966648
_cell_length_b   4.25211727
_cell_length_c   11.06381900
_cell_angle_alpha   101.08960570
_cell_angle_beta   100.93465551
_cell_angle_gamma   89.99935385
_symmetry_Int_Tables_number   1
_chemical_formula_structural   La2GaRe4Si3
_chemical_formula_sum   'La2 Ga1 Re4 Si3'
_cell_volume   190.22616600
_cell_formula_units_Z   1
loop_
 _symmetry_equiv_pos_site_id
 _symmetry_equiv_pos_as_xyz
  1  'x, y, z'
loop_
 _atom_site_type_symbol
 _atom_site_label
 _atom_site_symmetry_multiplicity
 _atom_site_fract_x
 _atom_site_fract_y
 _atom_site_fract_z
 _atom_site_occupancy
  La  La0  1  0.841001  0.090811  0.181818  1
  La  La1  1  0.159385  0.909553  0.818816  1
  Ga  Ga2  1  0.278052  0.527881  0.056242  1
  Re  Re3  1  0.463174  0.213036  0.426260  1
  Re  Re4  1  0.965745  0.715544  0.431400  1
  Re  Re5  1  0.035051  0.285135  0.570045  1
  Re  Re6  1  0.537605  0.787644  0.575174  1
  Si  Si7  1  0.396673  0.646599  0.293470  1
  Si  Si8  1  0.604111  0.354166  0.708131  1
  Si  Si9  1  0.719208  0.469626  0.938639  1
