# generated using pymatgen
data_TbNd10Cd9Pd4
_symmetry_space_group_name_H-M   'P 1'
_cell_length_a   13.49872931
_cell_length_b   13.49872905
_cell_length_c   3.79337600
_cell_angle_alpha   90.00000000
_cell_angle_beta   90.00000000
_cell_angle_gamma   112.10149686
_symmetry_Int_Tables_number   1
_chemical_formula_structural   TbNd10Cd9Pd4
_chemical_formula_sum   'Tb1 Nd10 Cd9 Pd4'
_cell_volume   640.42149166
_cell_formula_units_Z   1
loop_
 _symmetry_equiv_pos_site_id
 _symmetry_equiv_pos_as_xyz
  1  'x, y, z'
loop_
 _atom_site_type_symbol
 _atom_site_label
 _atom_site_symmetry_multiplicity
 _atom_site_fract_x
 _atom_site_fract_y
 _atom_site_fract_z
 _atom_site_occupancy
  Tb  Tb0  1  0.690112  0.690112  0.000000  1
  Nd  Nd1  1  0.417440  0.072862  0.000000  1
  Nd  Nd2  1  0.583890  0.925700  0.000000  1
  Nd  Nd3  1  0.072862  0.417440  0.000000  1
  Nd  Nd4  1  0.925700  0.583890  0.000000  1
  Nd  Nd5  1  0.160497  0.838441  0.000000  1
  Nd  Nd6  1  0.838441  0.160497  0.000000  1
  Nd  Nd7  1  0.372756  0.629039  0.000000  1
  Nd  Nd8  1  0.629039  0.372756  0.000000  1
  Nd  Nd9  1  0.309710  0.309710  0.000000  1
  Nd  Nd10  1  0.999098  0.999098  0.000000  1
  Cd  Cd11  1  0.365358  0.839166  0.500000  1
  Cd  Cd12  1  0.635110  0.160456  0.500000  1
  Cd  Cd13  1  0.839166  0.365358  0.500000  1
  Cd  Cd14  1  0.160456  0.635110  0.500000  1
  Cd  Cd15  1  0.216749  0.074423  0.500000  1
  Cd  Cd16  1  0.782393  0.922423  0.500000  1
  Cd  Cd17  1  0.074423  0.216749  0.500000  1
  Cd  Cd18  1  0.922423  0.782393  0.500000  1
  Cd  Cd19  1  0.502110  0.502110  0.500000  1
  Pd  Pd20  1  0.451677  0.248902  0.500000  1
  Pd  Pd21  1  0.552601  0.749087  0.500000  1
  Pd  Pd22  1  0.248902  0.451677  0.500000  1
  Pd  Pd23  1  0.749087  0.552601  0.500000  1
