# generated using pymatgen
data_Ho2Lu4GaNiRu
_symmetry_space_group_name_H-M   'P 1'
_cell_length_a   8.21534675
_cell_length_b   8.21534717
_cell_length_c   8.21534715
_cell_angle_alpha   112.97698394
_cell_angle_beta   110.28700068
_cell_angle_gamma   105.24314895
_symmetry_Int_Tables_number   1
_chemical_formula_structural   Ho2Lu4GaNiRu
_chemical_formula_sum   'Ho4 Lu8 Ga2 Ni2 Ru2'
_cell_volume   424.85062488
_cell_formula_units_Z   2
loop_
 _symmetry_equiv_pos_site_id
 _symmetry_equiv_pos_as_xyz
  1  'x, y, z'
loop_
 _atom_site_type_symbol
 _atom_site_label
 _atom_site_symmetry_multiplicity
 _atom_site_fract_x
 _atom_site_fract_y
 _atom_site_fract_z
 _atom_site_occupancy
  Ho  Ho0  1  0.438136  0.244863  0.193273  1
  Ho  Ho1  1  0.561864  0.755137  0.806727  1
  Ho  Ho2  1  0.051590  0.244863  0.806727  1
  Ho  Ho3  1  0.948410  0.755137  0.193273  1
  Lu  Lu4  1  0.179015  0.277601  0.456616  1
  Lu  Lu5  1  0.820985  0.722399  0.543384  1
  Lu  Lu6  1  0.179015  0.722399  0.901414  1
  Lu  Lu7  1  0.820985  0.277601  0.098586  1
  Lu  Lu8  1  0.330085  0.642983  0.312898  1
  Lu  Lu9  1  0.669915  0.357017  0.687102  1
  Lu  Lu10  1  0.330085  0.017188  0.687102  1
  Lu  Lu11  1  0.669915  0.982812  0.312898  1
  Ga  Ga12  1  0.500000  0.500000  0.000000  1
  Ga  Ga13  1  0.000000  0.000000  0.000000  1
  Ni  Ni14  1  0.117900  0.617900  0.500000  1
  Ni  Ni15  1  0.882100  0.382100  0.500000  1
  Ru  Ru16  1  0.330139  0.000000  0.330139  1
  Ru  Ru17  1  0.669861  0.000000  0.669861  1
