# generated using pymatgen
data_Ho3Al5Pd
_symmetry_space_group_name_H-M   'P 1'
_cell_length_a   6.97939400
_cell_length_b   6.97939356
_cell_length_c   4.38107900
_cell_angle_alpha   90.00000000
_cell_angle_beta   90.00000000
_cell_angle_gamma   120.00000208
_symmetry_Int_Tables_number   1
_chemical_formula_structural   Ho3Al5Pd
_chemical_formula_sum   'Ho3 Al5 Pd1'
_cell_volume   184.81921074
_cell_formula_units_Z   1
loop_
 _symmetry_equiv_pos_site_id
 _symmetry_equiv_pos_as_xyz
  1  'x, y, z'
loop_
 _atom_site_type_symbol
 _atom_site_label
 _atom_site_symmetry_multiplicity
 _atom_site_fract_x
 _atom_site_fract_y
 _atom_site_fract_z
 _atom_site_occupancy
  Ho  Ho0  1  0.585545  0.000000  0.500000  1
  Ho  Ho1  1  0.414455  0.414455  0.500000  1
  Ho  Ho2  1  0.000000  0.585545  0.500000  1
  Al  Al3  1  0.236045  0.000000  0.000000  1
  Al  Al4  1  0.000000  0.236045  0.000000  1
  Al  Al5  1  0.666667  0.333333  0.000000  1
  Al  Al6  1  0.333333  0.666667  0.000000  1
  Al  Al7  1  0.763955  0.763955  0.000000  1
  Pd  Pd8  1  0.000000  0.000000  0.500000  1
