# generated using pymatgen
data_Ce3Nd(B4Ru)4
_symmetry_space_group_name_H-M   'P 1'
_cell_length_a   3.63323400
_cell_length_b   6.01342918
_cell_length_c   11.66377451
_cell_angle_alpha   89.98475986
_cell_angle_beta   90.00000000
_cell_angle_gamma   90.00000000
_symmetry_Int_Tables_number   1
_chemical_formula_structural   Ce3Nd(B4Ru)4
_chemical_formula_sum   'Ce3 Nd1 B16 Ru4'
_cell_volume   254.83241507
_cell_formula_units_Z   1
loop_
 _symmetry_equiv_pos_site_id
 _symmetry_equiv_pos_as_xyz
  1  'x, y, z'
loop_
 _atom_site_type_symbol
 _atom_site_label
 _atom_site_symmetry_multiplicity
 _atom_site_fract_x
 _atom_site_fract_y
 _atom_site_fract_z
 _atom_site_occupancy
  Ce  Ce0  1  0.500000  0.628046  0.149634  1
  Ce  Ce1  1  0.500000  0.372137  0.850375  1
  Ce  Ce2  1  0.500000  0.127505  0.350466  1
  Nd  Nd3  1  0.500000  0.872420  0.649715  1
  B  B4  1  0.000000  0.974308  0.190100  1
  B  B5  1  0.000000  0.026583  0.811479  1
  B  B6  1  0.000000  0.473195  0.309074  1
  B  B7  1  0.000000  0.523998  0.690240  1
  B  B8  1  0.000000  0.785982  0.314453  1
  B  B9  1  0.000000  0.218341  0.685745  1
  B  B10  1  0.000000  0.285355  0.185839  1
  B  B11  1  0.000000  0.714271  0.816295  1
  B  B12  1  0.000000  0.861613  0.466892  1
  B  B13  1  0.000000  0.139160  0.530213  1
  B  B14  1  0.000000  0.362245  0.031942  1
  B  B15  1  0.000000  0.636902  0.969101  1
  B  B16  1  0.000000  0.888205  0.045994  1
  B  B17  1  0.000000  0.111559  0.954876  1
  B  B18  1  0.000000  0.388367  0.453652  1
  B  B19  1  0.000000  0.609652  0.544782  1
  Ru  Ru20  1  0.500000  0.637835  0.404353  1
  Ru  Ru21  1  0.500000  0.360866  0.591747  1
  Ru  Ru22  1  0.500000  0.141323  0.094191  1
  Ru  Ru23  1  0.500000  0.860129  0.908842  1
