# generated using pymatgen
data_Tb7Dy9Cd4Ir3Ru
_symmetry_space_group_name_H-M   'P 1'
_cell_length_a   9.68276081
_cell_length_b   9.68275983
_cell_length_c   9.68312177
_cell_angle_alpha   59.78808070
_cell_angle_beta   59.78807306
_cell_angle_gamma   59.81047689
_symmetry_Int_Tables_number   1
_chemical_formula_structural   Tb7Dy9Cd4Ir3Ru
_chemical_formula_sum   'Tb7 Dy9 Cd4 Ir3 Ru1'
_cell_volume   638.96674975
_cell_formula_units_Z   1
loop_
 _symmetry_equiv_pos_site_id
 _symmetry_equiv_pos_as_xyz
  1  'x, y, z'
loop_
 _atom_site_type_symbol
 _atom_site_label
 _atom_site_symmetry_multiplicity
 _atom_site_fract_x
 _atom_site_fract_y
 _atom_site_fract_z
 _atom_site_occupancy
  Tb  Tb0  1  0.060424  0.060424  0.437928  1
  Tb  Tb1  1  0.188671  0.811352  0.811675  1
  Tb  Tb2  1  0.809818  0.188384  0.188107  1
  Tb  Tb3  1  0.811352  0.188671  0.811675  1
  Tb  Tb4  1  0.188384  0.809818  0.188107  1
  Tb  Tb5  1  0.811475  0.811475  0.188654  1
  Tb  Tb6  1  0.188173  0.188173  0.810075  1
  Dy  Dy7  1  0.598798  0.598798  0.598848  1
  Dy  Dy8  1  0.598192  0.598192  0.206603  1
  Dy  Dy9  1  0.597787  0.206841  0.598222  1
  Dy  Dy10  1  0.206841  0.597787  0.598222  1
  Dy  Dy11  1  0.062186  0.438662  0.438384  1
  Dy  Dy12  1  0.438147  0.060484  0.060296  1
  Dy  Dy13  1  0.438662  0.062186  0.438384  1
  Dy  Dy14  1  0.060484  0.438147  0.060296  1
  Dy  Dy15  1  0.438391  0.438391  0.062232  1
  Cd  Cd16  1  0.829759  0.829759  0.829981  1
  Cd  Cd17  1  0.830540  0.830540  0.507372  1
  Cd  Cd18  1  0.830575  0.507393  0.830586  1
  Cd  Cd19  1  0.507393  0.830575  0.830586  1
  Ir  Ir20  1  0.393194  0.393194  0.826383  1
  Ir  Ir21  1  0.393797  0.825993  0.393196  1
  Ir  Ir22  1  0.825993  0.393797  0.393196  1
  Ru  Ru23  1  0.390963  0.390963  0.390992  1
