# generated using pymatgen
data_YTh2U3(Co3Sb4)2
_symmetry_space_group_name_H-M   'P 1'
_cell_length_a   8.19920158
_cell_length_b   8.16347633
_cell_length_c   8.16347620
_cell_angle_alpha   108.98228269
_cell_angle_beta   110.20706405
_cell_angle_gamma   109.04862062
_symmetry_Int_Tables_number   1
_chemical_formula_structural   YTh2U3(Co3Sb4)2
_chemical_formula_sum   'Y1 Th2 U3 Co6 Sb8'
_cell_volume   421.49342428
_cell_formula_units_Z   1
loop_
 _symmetry_equiv_pos_site_id
 _symmetry_equiv_pos_as_xyz
  1  'x, y, z'
loop_
 _atom_site_type_symbol
 _atom_site_label
 _atom_site_symmetry_multiplicity
 _atom_site_fract_x
 _atom_site_fract_y
 _atom_site_fract_z
 _atom_site_occupancy
  Y  Y0  1  0.250000  0.130271  0.880271  1
  Th  Th1  1  0.872340  0.250316  0.125167  1
  Th  Th2  1  0.627660  0.752827  0.377976  1
  U  U3  1  0.750000  0.361518  0.611518  1
  U  U4  1  0.123003  0.872664  0.246954  1
  U  U5  1  0.376997  0.623950  0.749661  1
  Co  Co6  1  0.381181  0.252589  0.614876  1
  Co  Co7  1  0.118819  0.733695  0.871408  1
  Co  Co8  1  0.250000  0.632086  0.382086  1
  Co  Co9  1  0.750000  0.865881  0.115881  1
  Co  Co10  1  0.646163  0.377837  0.304775  1
  Co  Co11  1  0.853837  0.158611  0.731674  1
  Sb  Sb12  1  0.659432  0.495661  0.992077  1
  Sb  Sb13  1  0.491961  0.998438  0.661326  1
  Sb  Sb14  1  0.008039  0.669365  0.506477  1
  Sb  Sb15  1  0.840568  0.832645  0.836229  1
  Sb  Sb16  1  0.490202  0.991125  0.150930  1
  Sb  Sb17  1  0.165158  0.502270  0.002678  1
  Sb  Sb18  1  0.009798  0.160728  0.500923  1
  Sb  Sb19  1  0.334842  0.337521  0.337112  1
