# generated using pymatgen
data_SrTh3(Re2Si)8
_symmetry_space_group_name_H-M   'P 1'
_cell_length_a   4.17700900
_cell_length_b   7.29127144
_cell_length_c   15.70983220
_cell_angle_alpha   90.18408531
_cell_angle_beta   90.00000000
_cell_angle_gamma   90.00000000
_symmetry_Int_Tables_number   1
_chemical_formula_structural   SrTh3(Re2Si)8
_chemical_formula_sum   'Sr1 Th3 Re16 Si8'
_cell_volume   478.45156810
_cell_formula_units_Z   1
loop_
 _symmetry_equiv_pos_site_id
 _symmetry_equiv_pos_as_xyz
  1  'x, y, z'
loop_
 _atom_site_type_symbol
 _atom_site_label
 _atom_site_symmetry_multiplicity
 _atom_site_fract_x
 _atom_site_fract_y
 _atom_site_fract_z
 _atom_site_occupancy
  Sr  Sr0  1  0.000000  0.582078  0.118603  1
  Th  Th1  1  0.000000  0.414499  0.883638  1
  Th  Th2  1  0.500000  0.083102  0.381391  1
  Th  Th3  1  0.500000  0.914456  0.618385  1
  Re  Re4  1  0.000000  0.137021  0.050383  1
  Re  Re5  1  0.000000  0.861780  0.945428  1
  Re  Re6  1  0.500000  0.640933  0.450112  1
  Re  Re7  1  0.500000  0.357919  0.551671  1
  Re  Re8  1  0.000000  0.739499  0.321315  1
  Re  Re9  1  0.000000  0.262813  0.678784  1
  Re  Re10  1  0.500000  0.234442  0.180981  1
  Re  Re11  1  0.500000  0.762537  0.820256  1
  Re  Re12  1  0.000000  0.431433  0.420724  1
  Re  Re13  1  0.000000  0.569509  0.580889  1
  Re  Re14  1  0.500000  0.938087  0.079504  1
  Re  Re15  1  0.500000  0.069350  0.918258  1
  Re  Re16  1  0.000000  0.001135  0.207355  1
  Re  Re17  1  0.000000  0.002056  0.792900  1
  Re  Re18  1  0.500000  0.499500  0.295124  1
  Re  Re19  1  0.500000  0.500489  0.706068  1
  Si  Si20  1  0.000000  0.828065  0.474707  1
  Si  Si21  1  0.000000  0.171359  0.525072  1
  Si  Si22  1  0.500000  0.326023  0.026136  1
  Si  Si23  1  0.500000  0.673574  0.974650  1
  Si  Si24  1  0.000000  0.304761  0.274205  1
  Si  Si25  1  0.000000  0.696973  0.726625  1
  Si  Si26  1  0.500000  0.798138  0.223652  1
  Si  Si27  1  0.500000  0.198467  0.773185  1
