# generated using pymatgen
data_TbDy3(MnTc3)2
_symmetry_space_group_name_H-M   'P 1'
_cell_length_a   9.64638893
_cell_length_b   9.64638890
_cell_length_c   9.64638884
_cell_angle_alpha   31.78659465
_cell_angle_beta   31.78659745
_cell_angle_gamma   31.78659325
_symmetry_Int_Tables_number   1
_chemical_formula_structural   TbDy3(MnTc3)2
_chemical_formula_sum   'Tb1 Dy3 Mn2 Tc6'
_cell_volume   221.21970395
_cell_formula_units_Z   1
loop_
 _symmetry_equiv_pos_site_id
 _symmetry_equiv_pos_as_xyz
  1  'x, y, z'
loop_
 _atom_site_type_symbol
 _atom_site_label
 _atom_site_symmetry_multiplicity
 _atom_site_fract_x
 _atom_site_fract_y
 _atom_site_fract_z
 _atom_site_occupancy
  Tb  Tb0  1  0.811411  0.811411  0.811411  1
  Dy  Dy1  1  0.311363  0.311363  0.311363  1
  Dy  Dy2  1  0.688588  0.688588  0.688588  1
  Dy  Dy3  1  0.188698  0.188698  0.188698  1
  Mn  Mn4  1  0.500035  0.500035  0.500035  1
  Mn  Mn5  1  0.000018  0.000018  0.000018  1
  Tc  Tc6  1  0.249861  0.249861  0.749791  1
  Tc  Tc7  1  0.750110  0.750110  0.250153  1
  Tc  Tc8  1  0.249861  0.749791  0.249861  1
  Tc  Tc9  1  0.750110  0.250153  0.750110  1
  Tc  Tc10  1  0.749791  0.249861  0.249861  1
  Tc  Tc11  1  0.250153  0.750110  0.750110  1
