# generated using pymatgen
data_Hf8Ti7V5Ge16
_symmetry_space_group_name_H-M   'P 1'
_cell_length_a   6.68542055
_cell_length_b   6.81236557
_cell_length_c   13.01085101
_cell_angle_alpha   90.00387648
_cell_angle_beta   90.00187945
_cell_angle_gamma   90.04665052
_symmetry_Int_Tables_number   1
_chemical_formula_structural   Hf8Ti7V5Ge16
_chemical_formula_sum   'Hf8 Ti7 V5 Ge16'
_cell_volume   592.55986954
_cell_formula_units_Z   1
loop_
 _symmetry_equiv_pos_site_id
 _symmetry_equiv_pos_as_xyz
  1  'x, y, z'
loop_
 _atom_site_type_symbol
 _atom_site_label
 _atom_site_symmetry_multiplicity
 _atom_site_fract_x
 _atom_site_fract_y
 _atom_site_fract_z
 _atom_site_occupancy
  Hf  Hf0  1  0.489349  0.675296  0.592390  1
  Hf  Hf1  1  0.988649  0.825780  0.906183  1
  Hf  Hf2  1  0.510503  0.325507  0.092524  1
  Hf  Hf3  1  0.011866  0.175208  0.407500  1
  Hf  Hf4  1  0.511263  0.324518  0.408924  1
  Hf  Hf5  1  0.011002  0.174981  0.093041  1
  Hf  Hf6  1  0.489217  0.674612  0.906568  1
  Hf  Hf7  1  0.987633  0.825832  0.593530  1
  Ti  Ti8  1  0.159089  0.334767  0.873158  1
  Ti  Ti9  1  0.341551  0.834798  0.126235  1
  Ti  Ti10  1  0.839815  0.665176  0.375796  1
  Ti  Ti11  1  0.342258  0.835942  0.374400  1
  Ti  Ti12  1  0.840754  0.664478  0.126077  1
  Ti  Ti13  1  0.658736  0.165567  0.873618  1
  Ti  Ti14  1  0.158132  0.334596  0.625166  1
  V  V15  1  0.658511  0.163364  0.625905  1
  V  V16  1  0.833198  0.491034  0.749002  1
  V  V17  1  0.333717  0.010025  0.748225  1
  V  V18  1  0.166699  0.508884  0.250014  1
  V  V19  1  0.666647  0.991672  0.250640  1
  Ge  Ge20  1  0.682148  0.960749  0.460680  1
  Ge  Ge21  1  0.182085  0.540571  0.041221  1
  Ge  Ge22  1  0.317816  0.040481  0.958192  1
  Ge  Ge23  1  0.815582  0.454668  0.543127  1
  Ge  Ge24  1  0.321106  0.040743  0.542406  1
  Ge  Ge25  1  0.818337  0.459934  0.958116  1
  Ge  Ge26  1  0.682087  0.959438  0.041471  1
  Ge  Ge27  1  0.182487  0.541377  0.458531  1
  Ge  Ge28  1  0.465443  0.378723  0.747873  1
  Ge  Ge29  1  0.961279  0.120257  0.749021  1
  Ge  Ge30  1  0.536430  0.618434  0.250518  1
  Ge  Ge31  1  0.035957  0.880705  0.250349  1
  Ge  Ge32  1  0.688457  0.853251  0.749421  1
  Ge  Ge33  1  0.190574  0.647646  0.749510  1
  Ge  Ge34  1  0.311227  0.149429  0.250160  1
  Ge  Ge35  1  0.810398  0.351557  0.250508  1
