# generated using pymatgen
data_Nd3Ho(Al8Pd3)3
_symmetry_space_group_name_H-M   'P 1'
_cell_length_a   7.58394551
_cell_length_b   7.61501189
_cell_length_c   13.27796950
_cell_angle_alpha   84.56231785
_cell_angle_beta   79.11877775
_cell_angle_gamma   60.01613160
_symmetry_Int_Tables_number   1
_chemical_formula_structural   Nd3Ho(Al8Pd3)3
_chemical_formula_sum   'Nd3 Ho1 Al24 Pd9'
_cell_volume   652.25770806
_cell_formula_units_Z   1
loop_
 _symmetry_equiv_pos_site_id
 _symmetry_equiv_pos_as_xyz
  1  'x, y, z'
loop_
 _atom_site_type_symbol
 _atom_site_label
 _atom_site_symmetry_multiplicity
 _atom_site_fract_x
 _atom_site_fract_y
 _atom_site_fract_z
 _atom_site_occupancy
  Nd  Nd0  1  0.393042  0.168676  0.809014  1
  Nd  Nd1  1  0.606902  0.831561  0.191310  1
  Nd  Nd2  1  0.732933  0.497878  0.809064  1
  Ho  Ho3  1  0.266141  0.501924  0.192554  1
  Al  Al4  1  0.686384  0.833698  0.946300  1
  Al  Al5  1  0.313509  0.168325  0.055687  1
  Al  Al6  1  0.146263  0.833232  0.560210  1
  Al  Al7  1  0.854156  0.166713  0.438468  1
  Al  Al8  1  0.479304  0.166955  0.558173  1
  Al  Al9  1  0.520901  0.833197  0.440961  1
  Al  Al10  1  0.215276  0.166290  0.331856  1
  Al  Al11  1  0.785573  0.834673  0.666006  1
  Al  Al12  1  0.436827  0.507959  0.666151  1
  Al  Al13  1  0.562565  0.492143  0.331687  1
  Al  Al14  1  0.110420  0.158175  0.665047  1
  Al  Al15  1  0.891500  0.840492  0.332786  1
  Al  Al16  1  0.349376  0.501642  0.948145  1
  Al  Al17  1  0.646953  0.498729  0.055639  1
  Al  Al18  1  0.013954  0.165894  0.958118  1
  Al  Al19  1  0.986480  0.832417  0.044943  1
  Al  Al20  1  0.187296  0.499274  0.440372  1
  Al  Al21  1  0.813483  0.500580  0.558173  1
  Al  Al22  1  0.733187  0.166990  0.184420  1
  Al  Al23  1  0.264339  0.835705  0.815999  1
  Al  Al24  1  0.062045  0.632697  0.814625  1
  Al  Al25  1  0.941147  0.366616  0.185586  1
  Al  Al26  1  0.858005  0.039434  0.815739  1
  Al  Al27  1  0.141794  0.957696  0.184298  1
  Pd  Pd28  1  0.119903  0.494084  0.636412  1
  Pd  Pd29  1  0.881278  0.506311  0.362163  1
  Pd  Pd30  1  0.657216  0.171198  0.000818  1
  Pd  Pd31  1  0.342259  0.828847  0.000810  1
  Pd  Pd32  1  0.538288  0.167591  0.362224  1
  Pd  Pd33  1  0.461075  0.833105  0.636540  1
  Pd  Pd34  1  0.779538  0.173684  0.636143  1
  Pd  Pd35  1  0.221153  0.825242  0.362564  1
  Pd  Pd36  1  0.999535  0.500374  0.000993  1
