# generated using pymatgen
data_Lu8In3Pt
_symmetry_space_group_name_H-M   'P 1'
_cell_length_a   10.28875900
_cell_length_b   10.28875954
_cell_length_c   6.85339900
_cell_angle_alpha   90.00000000
_cell_angle_beta   90.00000000
_cell_angle_gamma   120.00000149
_symmetry_Int_Tables_number   1
_chemical_formula_structural   Lu8In3Pt
_chemical_formula_sum   'Lu16 In6 Pt2'
_cell_volume   628.29362616
_cell_formula_units_Z   2
loop_
 _symmetry_equiv_pos_site_id
 _symmetry_equiv_pos_as_xyz
  1  'x, y, z'
loop_
 _atom_site_type_symbol
 _atom_site_label
 _atom_site_symmetry_multiplicity
 _atom_site_fract_x
 _atom_site_fract_y
 _atom_site_fract_z
 _atom_site_occupancy
  Lu  Lu0  1  0.531190  0.062380  0.525382  1
  Lu  Lu1  1  0.937620  0.468810  0.525382  1
  Lu  Lu2  1  0.531190  0.468810  0.525382  1
  Lu  Lu3  1  0.468810  0.937620  0.025382  1
  Lu  Lu4  1  0.062380  0.531190  0.025382  1
  Lu  Lu5  1  0.468810  0.531190  0.025382  1
  Lu  Lu6  1  0.175750  0.351499  0.731086  1
  Lu  Lu7  1  0.648501  0.824250  0.731086  1
  Lu  Lu8  1  0.175750  0.824250  0.731086  1
  Lu  Lu9  1  0.824250  0.648501  0.231086  1
  Lu  Lu10  1  0.351499  0.175750  0.231086  1
  Lu  Lu11  1  0.824250  0.175750  0.231086  1
  Lu  Lu12  1  0.666667  0.333333  0.900537  1
  Lu  Lu13  1  0.333333  0.666667  0.400537  1
  Lu  Lu14  1  0.000000  0.000000  0.504609  1
  Lu  Lu15  1  0.000000  0.000000  0.004609  1
  In  In16  1  0.837639  0.675277  0.768335  1
  In  In17  1  0.324723  0.162361  0.768335  1
  In  In18  1  0.837639  0.162361  0.768335  1
  In  In19  1  0.162361  0.324723  0.268335  1
  In  In20  1  0.675277  0.837639  0.268335  1
  In  In21  1  0.162361  0.837639  0.268335  1
  Pt  Pt22  1  0.666667  0.333333  0.298285  1
  Pt  Pt23  1  0.333333  0.666667  0.798285  1
