# generated using pymatgen
data_Yb3Pr(SiPd14)2
_symmetry_space_group_name_H-M   'P 1'
_cell_length_a   8.92873100
_cell_length_b   8.92873100
_cell_length_c   7.05914200
_cell_angle_alpha   90.00000000
_cell_angle_beta   90.00000000
_cell_angle_gamma   90.00000000
_symmetry_Int_Tables_number   1
_chemical_formula_structural   Yb3Pr(SiPd14)2
_chemical_formula_sum   'Yb3 Pr1 Si2 Pd28'
_cell_volume   562.77059345
_cell_formula_units_Z   1
loop_
 _symmetry_equiv_pos_site_id
 _symmetry_equiv_pos_as_xyz
  1  'x, y, z'
loop_
 _atom_site_type_symbol
 _atom_site_label
 _atom_site_symmetry_multiplicity
 _atom_site_fract_x
 _atom_site_fract_y
 _atom_site_fract_z
 _atom_site_occupancy
  Yb  Yb0  1  0.500000  0.000000  0.939492  1
  Yb  Yb1  1  0.000000  0.000000  0.499075  1
  Yb  Yb2  1  0.500000  0.500000  0.499075  1
  Pr  Pr3  1  0.000000  0.500000  0.059191  1
  Si  Si4  1  0.500000  0.000000  0.446702  1
  Si  Si5  1  0.000000  0.500000  0.551963  1
  Pd  Pd6  1  0.335179  0.835179  0.618948  1
  Pd  Pd7  1  0.335179  0.164821  0.618948  1
  Pd  Pd8  1  0.664821  0.835179  0.618948  1
  Pd  Pd9  1  0.664821  0.164821  0.618948  1
  Pd  Pd10  1  0.167371  0.667371  0.385302  1
  Pd  Pd11  1  0.167371  0.332629  0.385302  1
  Pd  Pd12  1  0.832629  0.667371  0.385302  1
  Pd  Pd13  1  0.832629  0.332629  0.385302  1
  Pd  Pd14  1  0.500000  0.769916  0.257292  1
  Pd  Pd15  1  0.500000  0.230084  0.257292  1
  Pd  Pd16  1  0.269916  0.000000  0.257292  1
  Pd  Pd17  1  0.730084  0.000000  0.257292  1
  Pd  Pd18  1  0.000000  0.732653  0.738731  1
  Pd  Pd19  1  0.000000  0.267347  0.738731  1
  Pd  Pd20  1  0.232653  0.500000  0.738731  1
  Pd  Pd21  1  0.767347  0.500000  0.738731  1
  Pd  Pd22  1  0.500000  0.349691  0.853565  1
  Pd  Pd23  1  0.500000  0.650309  0.853565  1
  Pd  Pd24  1  0.849691  0.000000  0.853565  1
  Pd  Pd25  1  0.150309  0.000000  0.853565  1
  Pd  Pd26  1  0.000000  0.150450  0.146877  1
  Pd  Pd27  1  0.000000  0.849550  0.146877  1
  Pd  Pd28  1  0.650450  0.500000  0.146877  1
  Pd  Pd29  1  0.349550  0.500000  0.146877  1
  Pd  Pd30  1  0.251447  0.751447  0.000411  1
  Pd  Pd31  1  0.251447  0.248553  0.000411  1
  Pd  Pd32  1  0.748553  0.751447  0.000411  1
  Pd  Pd33  1  0.748553  0.248553  0.000411  1
