# generated using pymatgen
data_Y17Tm2MgIr12
_symmetry_space_group_name_H-M   'P 1'
_cell_length_a   10.91017700
_cell_length_b   10.91017700
_cell_length_c   6.31226700
_cell_angle_alpha   90.00000000
_cell_angle_beta   90.00000000
_cell_angle_gamma   90.00000000
_symmetry_Int_Tables_number   1
_chemical_formula_structural   Y17Tm2MgIr12
_chemical_formula_sum   'Y17 Tm2 Mg1 Ir12'
_cell_volume   751.36152676
_cell_formula_units_Z   1
loop_
 _symmetry_equiv_pos_site_id
 _symmetry_equiv_pos_as_xyz
  1  'x, y, z'
loop_
 _atom_site_type_symbol
 _atom_site_label
 _atom_site_symmetry_multiplicity
 _atom_site_fract_x
 _atom_site_fract_y
 _atom_site_fract_z
 _atom_site_occupancy
  Y  Y0  1  0.283724  0.084504  0.378482  1
  Y  Y1  1  0.290710  0.911828  0.878964  1
  Y  Y2  1  0.709290  0.088172  0.878964  1
  Y  Y3  1  0.716276  0.915496  0.378482  1
  Y  Y4  1  0.588382  0.790869  0.878680  1
  Y  Y5  1  0.586961  0.209072  0.376976  1
  Y  Y6  1  0.413039  0.790928  0.376976  1
  Y  Y7  1  0.411618  0.209131  0.878680  1
  Y  Y8  1  0.209072  0.413039  0.623024  1
  Y  Y9  1  0.209131  0.588382  0.121320  1
  Y  Y10  1  0.790869  0.411618  0.121320  1
  Y  Y11  1  0.790928  0.586961  0.623024  1
  Y  Y12  1  0.911828  0.709290  0.121036  1
  Y  Y13  1  0.915496  0.283724  0.621518  1
  Y  Y14  1  0.084504  0.716276  0.621518  1
  Y  Y15  1  0.088172  0.290710  0.121036  1
  Y  Y16  1  0.000000  0.000000  0.000000  1
  Tm  Tm17  1  0.500000  0.500000  0.000000  1
  Tm  Tm18  1  0.500000  0.500000  0.500000  1
  Mg  Mg19  1  0.000000  0.000000  0.500000  1
  Ir  Ir20  1  0.846749  0.154207  0.248328  1
  Ir  Ir21  1  0.845793  0.846749  0.751672  1
  Ir  Ir22  1  0.154207  0.153251  0.751672  1
  Ir  Ir23  1  0.153251  0.845793  0.248328  1
  Ir  Ir24  1  0.651988  0.348404  0.748179  1
  Ir  Ir25  1  0.651596  0.651988  0.251821  1
  Ir  Ir26  1  0.348404  0.348012  0.251821  1
  Ir  Ir27  1  0.348012  0.651596  0.748179  1
  Ir  Ir28  1  0.500000  0.000000  0.124926  1
  Ir  Ir29  1  0.500000  0.000000  0.620208  1
  Ir  Ir30  1  0.000000  0.500000  0.875074  1
  Ir  Ir31  1  0.000000  0.500000  0.379792  1
