# generated using pymatgen
data_Tb3Lu(NiAs)4
_symmetry_space_group_name_H-M   'P 1'
_cell_length_a   4.04577000
_cell_length_b   4.04576998
_cell_length_c   15.51888500
_cell_angle_alpha   90.00000000
_cell_angle_beta   90.00000000
_cell_angle_gamma   120.00001650
_symmetry_Int_Tables_number   1
_chemical_formula_structural   Tb3Lu(NiAs)4
_chemical_formula_sum   'Tb3 Lu1 Ni4 As4'
_cell_volume   219.98519404
_cell_formula_units_Z   1
loop_
 _symmetry_equiv_pos_site_id
 _symmetry_equiv_pos_as_xyz
  1  'x, y, z'
loop_
 _atom_site_type_symbol
 _atom_site_label
 _atom_site_symmetry_multiplicity
 _atom_site_fract_x
 _atom_site_fract_y
 _atom_site_fract_z
 _atom_site_occupancy
  Tb  Tb0  1  0.000000  0.000000  0.250000  1
  Tb  Tb1  1  0.000000  0.000000  0.997853  1
  Tb  Tb2  1  0.000000  0.000000  0.502147  1
  Lu  Lu3  1  0.000000  0.000000  0.750000  1
  Ni  Ni4  1  0.333333  0.666667  0.129666  1
  Ni  Ni5  1  0.666667  0.333333  0.860564  1
  Ni  Ni6  1  0.666667  0.333333  0.639436  1
  Ni  Ni7  1  0.333333  0.666667  0.370334  1
  As  As8  1  0.333333  0.666667  0.622890  1
  As  As9  1  0.666667  0.333333  0.378957  1
  As  As10  1  0.666667  0.333333  0.121043  1
  As  As11  1  0.333333  0.666667  0.877110  1
