# generated using pymatgen
data_NaDy(NbSe2)6
_symmetry_space_group_name_H-M   'P 1'
_cell_length_a   6.07276600
_cell_length_b   6.07276459
_cell_length_c   14.87809900
_cell_angle_alpha   90.00000000
_cell_angle_beta   90.00000000
_cell_angle_gamma   120.00000768
_symmetry_Int_Tables_number   1
_chemical_formula_structural   NaDy(NbSe2)6
_chemical_formula_sum   'Na1 Dy1 Nb6 Se12'
_cell_volume   475.17221212
_cell_formula_units_Z   1
loop_
 _symmetry_equiv_pos_site_id
 _symmetry_equiv_pos_as_xyz
  1  'x, y, z'
loop_
 _atom_site_type_symbol
 _atom_site_label
 _atom_site_symmetry_multiplicity
 _atom_site_fract_x
 _atom_site_fract_y
 _atom_site_fract_z
 _atom_site_occupancy
  Na  Na0  1  0.666667  0.333333  0.750000  1
  Dy  Dy1  1  0.333333  0.666667  0.250000  1
  Nb  Nb2  1  0.333333  0.666667  0.006739  1
  Nb  Nb3  1  0.000000  0.000000  0.004810  1
  Nb  Nb4  1  0.666667  0.333333  0.004205  1
  Nb  Nb5  1  0.333333  0.666667  0.493261  1
  Nb  Nb6  1  0.000000  0.000000  0.495190  1
  Nb  Nb7  1  0.666667  0.333333  0.495795  1
  Se  Se8  1  0.672896  0.665887  0.381380  1
  Se  Se9  1  0.665404  0.670511  0.606982  1
  Se  Se10  1  0.005108  0.670511  0.893018  1
  Se  Se11  1  0.665404  0.994892  0.893018  1
  Se  Se12  1  0.672896  0.007011  0.118620  1
  Se  Se13  1  0.334113  0.007011  0.381380  1
  Se  Se14  1  0.005108  0.334596  0.606982  1
  Se  Se15  1  0.329489  0.994892  0.606982  1
  Se  Se16  1  0.992989  0.665887  0.118620  1
  Se  Se17  1  0.329489  0.334596  0.893018  1
  Se  Se18  1  0.992989  0.327104  0.381380  1
  Se  Se19  1  0.334113  0.327104  0.118620  1
