# generated using pymatgen
data_SmH5Os
_symmetry_space_group_name_H-M   'P 1'
_cell_length_a   4.61286200
_cell_length_b   4.70666900
_cell_length_c   11.56429300
_cell_angle_alpha   90.00000000
_cell_angle_beta   90.00000000
_cell_angle_gamma   90.00000000
_symmetry_Int_Tables_number   1
_chemical_formula_structural   SmH5Os
_chemical_formula_sum   'Sm4 H20 Os4'
_cell_volume   251.07484675
_cell_formula_units_Z   4
loop_
 _symmetry_equiv_pos_site_id
 _symmetry_equiv_pos_as_xyz
  1  'x, y, z'
loop_
 _atom_site_type_symbol
 _atom_site_label
 _atom_site_symmetry_multiplicity
 _atom_site_fract_x
 _atom_site_fract_y
 _atom_site_fract_z
 _atom_site_occupancy
  Sm  Sm0  1  0.266919  0.251554  0.641239  1
  Sm  Sm1  1  0.766919  0.248446  0.358761  1
  Sm  Sm2  1  0.233081  0.748446  0.141239  1
  Sm  Sm3  1  0.733081  0.751554  0.858761  1
  H  H4  1  0.509722  0.516742  0.497989  1
  H  H5  1  0.009722  0.983258  0.502011  1
  H  H6  1  0.990278  0.483258  0.997989  1
  H  H7  1  0.490278  0.016742  0.002011  1
  H  H8  1  0.177651  0.999667  0.818592  1
  H  H9  1  0.677651  0.500333  0.181408  1
  H  H10  1  0.322349  0.000333  0.318592  1
  H  H11  1  0.822349  0.499667  0.681408  1
  H  H12  1  0.180243  0.507708  0.818720  1
  H  H13  1  0.680243  0.992292  0.181280  1
  H  H14  1  0.319757  0.492292  0.318720  1
  H  H15  1  0.819757  0.007708  0.681280  1
  H  H16  1  0.599480  0.251786  0.822917  1
  H  H17  1  0.099480  0.248214  0.177083  1
  H  H18  1  0.900520  0.748214  0.322917  1
  H  H19  1  0.400520  0.751786  0.677083  1
  H  H20  1  0.991319  0.012851  0.998154  1
  H  H21  1  0.491319  0.487149  0.001846  1
  H  H22  1  0.508681  0.987149  0.498154  1
  H  H23  1  0.008681  0.512851  0.501846  1
  Os  Os24  1  0.315491  0.253173  0.909482  1
  Os  Os25  1  0.815491  0.246827  0.090518  1
  Os  Os26  1  0.184509  0.746827  0.409482  1
  Os  Os27  1  0.684509  0.753173  0.590518  1
