# generated using pymatgen
data_Lu4Zr2SnO12
_symmetry_space_group_name_H-M   'P 1'
_cell_length_a   6.30384368
_cell_length_b   6.32508153
_cell_length_c   6.39757376
_cell_angle_alpha   99.57691406
_cell_angle_beta   98.97797700
_cell_angle_gamma   99.59802101
_symmetry_Int_Tables_number   1
_chemical_formula_structural   Lu4Zr2SnO12
_chemical_formula_sum   'Lu4 Zr2 Sn1 O12'
_cell_volume   243.53835478
_cell_formula_units_Z   1
loop_
 _symmetry_equiv_pos_site_id
 _symmetry_equiv_pos_as_xyz
  1  'x, y, z'
loop_
 _atom_site_type_symbol
 _atom_site_label
 _atom_site_symmetry_multiplicity
 _atom_site_fract_x
 _atom_site_fract_y
 _atom_site_fract_z
 _atom_site_occupancy
  Lu  Lu0  1  0.391983  0.698382  0.863430  1
  Lu  Lu1  1  0.692543  0.863203  0.391090  1
  Lu  Lu2  1  0.608017  0.301618  0.136570  1
  Lu  Lu3  1  0.307457  0.136797  0.608910  1
  Zr  Zr4  1  0.853401  0.393421  0.681709  1
  Zr  Zr5  1  0.146599  0.606579  0.318291  1
  Sn  Sn6  1  0.000000  0.000000  0.000000  1
  O  O7  1  0.040240  0.678839  0.904437  1
  O  O8  1  0.685531  0.929086  0.056836  1
  O  O9  1  0.920216  0.073343  0.687192  1
  O  O10  1  0.959760  0.321161  0.095563  1
  O  O11  1  0.314469  0.070914  0.943164  1
  O  O12  1  0.079784  0.926657  0.312808  1
  O  O13  1  0.586650  0.184049  0.432712  1
  O  O14  1  0.174709  0.427837  0.574347  1
  O  O15  1  0.418255  0.580159  0.178010  1
  O  O16  1  0.413350  0.815951  0.567288  1
  O  O17  1  0.825291  0.572163  0.425653  1
  O  O18  1  0.581745  0.419841  0.821990  1
