# generated using pymatgen
data_Er2Lu3In4PtAu
_symmetry_space_group_name_H-M   'P 1'
_cell_length_a   3.59890400
_cell_length_b   8.08881331
_cell_length_c   18.15339763
_cell_angle_alpha   90.01756908
_cell_angle_beta   90.00000000
_cell_angle_gamma   90.00000000
_symmetry_Int_Tables_number   1
_chemical_formula_structural   Er2Lu3In4PtAu
_chemical_formula_sum   'Er4 Lu6 In8 Pt2 Au2'
_cell_volume   528.46103919
_cell_formula_units_Z   2
loop_
 _symmetry_equiv_pos_site_id
 _symmetry_equiv_pos_as_xyz
  1  'x, y, z'
loop_
 _atom_site_type_symbol
 _atom_site_label
 _atom_site_symmetry_multiplicity
 _atom_site_fract_x
 _atom_site_fract_y
 _atom_site_fract_z
 _atom_site_occupancy
  Er  Er0  1  0.000000  0.120106  0.419215  1
  Er  Er1  1  0.000000  0.879894  0.580785  1
  Er  Er2  1  0.000000  0.000000  0.000000  1
  Er  Er3  1  0.000000  0.500000  0.500000  1
  Lu  Lu4  1  0.000000  0.383524  0.916014  1
  Lu  Lu5  1  0.000000  0.616476  0.083986  1
  Lu  Lu6  1  0.000000  0.256280  0.217364  1
  Lu  Lu7  1  0.000000  0.743720  0.782636  1
  Lu  Lu8  1  0.000000  0.265964  0.722577  1
  Lu  Lu9  1  0.000000  0.734036  0.277423  1
  In  In10  1  0.500000  0.424608  0.352034  1
  In  In11  1  0.500000  0.575392  0.647966  1
  In  In12  1  0.500000  0.076825  0.853172  1
  In  In13  1  0.500000  0.923175  0.146828  1
  In  In14  1  0.500000  0.293704  0.065265  1
  In  In15  1  0.500000  0.706296  0.934735  1
  In  In16  1  0.500000  0.210288  0.567941  1
  In  In17  1  0.500000  0.789712  0.432059  1
  Pt  Pt18  1  0.500000  0.471025  0.804420  1
  Pt  Pt19  1  0.500000  0.528975  0.195580  1
  Au  Au20  1  0.500000  0.029481  0.301014  1
  Au  Au21  1  0.500000  0.970519  0.698986  1
