# generated using pymatgen
data_YbLu3V(ReN4)3
_symmetry_space_group_name_H-M   'P 1'
_cell_length_a   7.20267262
_cell_length_b   7.25255515
_cell_length_c   6.15571098
_cell_angle_alpha   73.42693870
_cell_angle_beta   73.74729937
_cell_angle_gamma   82.45612048
_symmetry_Int_Tables_number   1
_chemical_formula_structural   YbLu3V(ReN4)3
_chemical_formula_sum   'Yb1 Lu3 V1 Re3 N12'
_cell_volume   295.42225380
_cell_formula_units_Z   1
loop_
 _symmetry_equiv_pos_site_id
 _symmetry_equiv_pos_as_xyz
  1  'x, y, z'
loop_
 _atom_site_type_symbol
 _atom_site_label
 _atom_site_symmetry_multiplicity
 _atom_site_fract_x
 _atom_site_fract_y
 _atom_site_fract_z
 _atom_site_occupancy
  Yb  Yb0  1  0.705049  0.288625  0.246807  1
  Lu  Lu1  1  0.906823  0.079761  0.766668  1
  Lu  Lu2  1  0.297696  0.714962  0.739333  1
  Lu  Lu3  1  0.087773  0.908260  0.255515  1
  V  V4  1  0.618089  0.802386  0.272021  1
  Re  Re5  1  0.201212  0.380997  0.227433  1
  Re  Re6  1  0.380657  0.200120  0.730360  1
  Re  Re7  1  0.794831  0.619914  0.771596  1
  N  N8  1  0.343713  0.370534  0.924275  1
  N  N9  1  0.009886  0.214375  0.348321  1
  N  N10  1  0.788875  0.986049  0.152750  1
  N  N11  1  0.220020  0.999048  0.844955  1
  N  N12  1  0.654265  0.640463  0.060169  1
  N  N13  1  0.885890  0.376636  0.821489  1
  N  N14  1  0.116313  0.628801  0.160810  1
  N  N15  1  0.998385  0.782565  0.654743  1
  N  N16  1  0.377966  0.883902  0.339071  1
  N  N17  1  0.628670  0.660873  0.574435  1
  N  N18  1  0.626089  0.115340  0.673201  1
  N  N19  1  0.357800  0.346387  0.436044  1
