# generated using pymatgen
data_CsPr2CuS4
_symmetry_space_group_name_H-M   'P 1'
_cell_length_a   4.15070900
_cell_length_b   7.55229976
_cell_length_c   14.23489900
_cell_angle_alpha   90.00000000
_cell_angle_beta   90.00000000
_cell_angle_gamma   74.05004599
_symmetry_Int_Tables_number   1
_chemical_formula_structural   CsPr2CuS4
_chemical_formula_sum   'Cs2 Pr4 Cu2 S8'
_cell_volume   429.04824364
_cell_formula_units_Z   2
loop_
 _symmetry_equiv_pos_site_id
 _symmetry_equiv_pos_as_xyz
  1  'x, y, z'
loop_
 _atom_site_type_symbol
 _atom_site_label
 _atom_site_symmetry_multiplicity
 _atom_site_fract_x
 _atom_site_fract_y
 _atom_site_fract_z
 _atom_site_occupancy
  Cs  Cs0  1  0.895514  0.208972  0.250000  1
  Cs  Cs1  1  0.104486  0.791028  0.750000  1
  Pr  Pr2  1  0.634001  0.731999  0.060256  1
  Pr  Pr3  1  0.634001  0.731999  0.439744  1
  Pr  Pr4  1  0.365998  0.268002  0.560256  1
  Pr  Pr5  1  0.365998  0.268002  0.939744  1
  Cu  Cu6  1  0.166148  0.667702  0.250000  1
  Cu  Cu7  1  0.833852  0.332297  0.750000  1
  S  S8  1  0.000000  0.000000  0.000000  1
  S  S9  1  0.255729  0.488541  0.110218  1
  S  S10  1  0.583451  0.833100  0.250000  1
  S  S11  1  0.255729  0.488541  0.389782  1
  S  S12  1  0.000000  0.000000  0.500000  1
  S  S13  1  0.744271  0.511458  0.610217  1
  S  S14  1  0.416549  0.166901  0.750000  1
  S  S15  1  0.744271  0.511458  0.889782  1
