# generated using pymatgen
data_Tb5Lu5(SiSb)4
_symmetry_space_group_name_H-M   'P 1'
_cell_length_a   8.29888840
_cell_length_b   8.57820701
_cell_length_c   7.78611333
_cell_angle_alpha   90.16909199
_cell_angle_beta   90.15657282
_cell_angle_gamma   125.23216192
_symmetry_Int_Tables_number   1
_chemical_formula_structural   Tb5Lu5(SiSb)4
_chemical_formula_sum   'Tb5 Lu5 Si4 Sb4'
_cell_volume   452.74730635
_cell_formula_units_Z   1
loop_
 _symmetry_equiv_pos_site_id
 _symmetry_equiv_pos_as_xyz
  1  'x, y, z'
loop_
 _atom_site_type_symbol
 _atom_site_label
 _atom_site_symmetry_multiplicity
 _atom_site_fract_x
 _atom_site_fract_y
 _atom_site_fract_z
 _atom_site_occupancy
  Tb  Tb0  1  0.810487  0.548808  0.170667  1
  Tb  Tb1  1  0.533756  0.782213  0.164090  1
  Tb  Tb2  1  0.192349  0.452615  0.829025  1
  Tb  Tb3  1  0.690519  0.951010  0.669681  1
  Tb  Tb4  1  0.307932  0.046186  0.330673  1
  Lu  Lu5  1  0.033344  0.273720  0.338402  1
  Lu  Lu6  1  0.964261  0.722589  0.661557  1
  Lu  Lu7  1  0.466261  0.223642  0.838232  1
  Lu  Lu8  1  0.000356  0.001400  0.999184  1
  Lu  Lu9  1  0.499822  0.498366  0.500584  1
  Si  Si10  1  0.367011  0.365603  0.132997  1
  Si  Si11  1  0.633698  0.632717  0.867013  1
  Si  Si12  1  0.132879  0.131519  0.631710  1
  Si  Si13  1  0.869221  0.867371  0.369689  1
  Sb  Sb14  1  0.785160  0.197930  0.015106  1
  Sb  Sb15  1  0.218280  0.809895  0.978852  1
  Sb  Sb16  1  0.720403  0.306821  0.518604  1
  Sb  Sb17  1  0.274261  0.687595  0.483935  1
