# generated using pymatgen
data_Sr3La(Si3Pd5)4
_symmetry_space_group_name_H-M   'P 1'
_cell_length_a   4.08427400
_cell_length_b   20.04223363
_cell_length_c   7.34873561
_cell_angle_alpha   89.86440217
_cell_angle_beta   90.00000000
_cell_angle_gamma   90.00000000
_symmetry_Int_Tables_number   1
_chemical_formula_structural   Sr3La(Si3Pd5)4
_chemical_formula_sum   'Sr3 La1 Si12 Pd20'
_cell_volume   601.55092143
_cell_formula_units_Z   1
loop_
 _symmetry_equiv_pos_site_id
 _symmetry_equiv_pos_as_xyz
  1  'x, y, z'
loop_
 _atom_site_type_symbol
 _atom_site_label
 _atom_site_symmetry_multiplicity
 _atom_site_fract_x
 _atom_site_fract_y
 _atom_site_fract_z
 _atom_site_occupancy
  Sr  Sr0  1  0.750000  0.642674  0.122681  1
  Sr  Sr1  1  0.250000  0.356922  0.877214  1
  Sr  Sr2  1  0.250000  0.857571  0.623613  1
  La  La3  1  0.750000  0.143366  0.376193  1
  Si  Si4  1  0.750000  0.736907  0.628065  1
  Si  Si5  1  0.250000  0.262586  0.371238  1
  Si  Si6  1  0.250000  0.763200  0.128701  1
  Si  Si7  1  0.750000  0.236467  0.873055  1
  Si  Si8  1  0.750000  0.925134  0.343712  1
  Si  Si9  1  0.250000  0.074816  0.652815  1
  Si  Si10  1  0.250000  0.574656  0.844182  1
  Si  Si11  1  0.750000  0.425316  0.155821  1
  Si  Si12  1  0.750000  0.916444  0.916774  1
  Si  Si13  1  0.250000  0.084077  0.088210  1
  Si  Si14  1  0.250000  0.583535  0.415285  1
  Si  Si15  1  0.750000  0.415918  0.583519  1
  Pd  Pd16  1  0.750000  0.799420  0.324404  1
  Pd  Pd17  1  0.250000  0.199614  0.674032  1
  Pd  Pd18  1  0.250000  0.700265  0.824341  1
  Pd  Pd19  1  0.750000  0.299877  0.176812  1
  Pd  Pd20  1  0.750000  0.993444  0.627058  1
  Pd  Pd21  1  0.250000  0.006834  0.372432  1
  Pd  Pd22  1  0.250000  0.505922  0.127220  1
  Pd  Pd23  1  0.750000  0.494348  0.872456  1
  Pd  Pd24  1  0.750000  0.512891  0.379352  1
  Pd  Pd25  1  0.250000  0.486976  0.620323  1
  Pd  Pd26  1  0.250000  0.987848  0.879199  1
  Pd  Pd27  1  0.750000  0.012959  0.120338  1
  Pd  Pd28  1  0.750000  0.796204  0.933170  1
  Pd  Pd29  1  0.250000  0.204283  0.067757  1
  Pd  Pd30  1  0.250000  0.703751  0.433807  1
  Pd  Pd31  1  0.750000  0.296090  0.569013  1
  Pd  Pd32  1  0.750000  0.616349  0.641648  1
  Pd  Pd33  1  0.250000  0.383666  0.357433  1
  Pd  Pd34  1  0.250000  0.883904  0.142479  1
  Pd  Pd35  1  0.750000  0.115762  0.855647  1
