# generated using pymatgen
data_Sc8V12Si15P
_symmetry_space_group_name_H-M   'P 1'
_cell_length_a   6.62737228
_cell_length_b   6.61651525
_cell_length_c   12.24757194
_cell_angle_alpha   89.96927400
_cell_angle_beta   89.96723729
_cell_angle_gamma   89.99275350
_symmetry_Int_Tables_number   1
_chemical_formula_structural   Sc8V12Si15P
_chemical_formula_sum   'Sc8 V12 Si15 P1'
_cell_volume   537.05720499
_cell_formula_units_Z   1
loop_
 _symmetry_equiv_pos_site_id
 _symmetry_equiv_pos_as_xyz
  1  'x, y, z'
loop_
 _atom_site_type_symbol
 _atom_site_label
 _atom_site_symmetry_multiplicity
 _atom_site_fract_x
 _atom_site_fract_y
 _atom_site_fract_z
 _atom_site_occupancy
  Sc  Sc0  1  0.003893  0.664531  0.029809  1
  Sc  Sc1  1  0.837754  0.501162  0.279782  1
  Sc  Sc2  1  0.161987  0.498408  0.780030  1
  Sc  Sc3  1  0.501458  0.837830  0.720523  1
  Sc  Sc4  1  0.496142  0.160036  0.218350  1
  Sc  Sc5  1  0.998541  0.337605  0.529958  1
  Sc  Sc6  1  0.658160  0.001677  0.971013  1
  Sc  Sc7  1  0.337710  0.998604  0.470084  1
  V  V8  1  0.330924  0.328361  0.000854  1
  V  V9  1  0.170339  0.833083  0.247495  1
  V  V10  1  0.831553  0.168359  0.749966  1
  V  V11  1  0.668473  0.668479  0.500004  1
  V  V12  1  0.010904  0.153374  0.125285  1
  V  V13  1  0.343021  0.506925  0.376523  1
  V  V14  1  0.657501  0.492859  0.877127  1
  V  V15  1  0.507122  0.343305  0.623541  1
  V  V16  1  0.489771  0.661620  0.122704  1
  V  V17  1  0.992805  0.843519  0.626792  1
  V  V18  1  0.158100  0.006186  0.876801  1
  V  V19  1  0.843366  0.992910  0.373395  1
  Si  Si20  1  0.540570  0.794068  0.315012  1
  Si  Si21  1  0.460081  0.206707  0.814340  1
  Si  Si22  1  0.794171  0.540311  0.685462  1
  Si  Si23  1  0.205971  0.459455  0.185546  1
  Si  Si24  1  0.705850  0.040060  0.564704  1
  Si  Si25  1  0.958924  0.294656  0.935142  1
  Si  Si26  1  0.040731  0.706274  0.434959  1
  Si  Si27  1  0.704353  0.371637  0.070607  1
  Si  Si28  1  0.129675  0.203983  0.320371  1
  Si  Si29  1  0.870017  0.797285  0.820621  1
  Si  Si30  1  0.203457  0.129471  0.680412  1
  Si  Si31  1  0.796380  0.869876  0.180277  1
  Si  Si32  1  0.296091  0.630158  0.570255  1
  Si  Si33  1  0.370969  0.701127  0.928474  1
  Si  Si34  1  0.629909  0.296048  0.429618  1
  P  P35  1  0.293328  0.960053  0.064164  1
