# generated using pymatgen
data_BaSn3O4
_symmetry_space_group_name_H-M   'P 1'
_cell_length_a   7.81361400
_cell_length_b   7.81361381
_cell_length_c   6.16566300
_cell_angle_alpha   90.00000000
_cell_angle_beta   90.00000000
_cell_angle_gamma   120.00000080
_symmetry_Int_Tables_number   1
_chemical_formula_structural   BaSn3O4
_chemical_formula_sum   'Ba2 Sn6 O8'
_cell_volume   325.99752802
_cell_formula_units_Z   2
loop_
 _symmetry_equiv_pos_site_id
 _symmetry_equiv_pos_as_xyz
  1  'x, y, z'
loop_
 _atom_site_type_symbol
 _atom_site_label
 _atom_site_symmetry_multiplicity
 _atom_site_fract_x
 _atom_site_fract_y
 _atom_site_fract_z
 _atom_site_occupancy
  Ba  Ba0  1  0.666667  0.333333  0.250000  1
  Ba  Ba1  1  0.333333  0.666667  0.750000  1
  Sn  Sn2  1  0.160704  0.346014  0.250000  1
  Sn  Sn3  1  0.653986  0.814690  0.250000  1
  Sn  Sn4  1  0.346014  0.160704  0.750000  1
  Sn  Sn5  1  0.185310  0.839296  0.250000  1
  Sn  Sn6  1  0.814690  0.653986  0.750000  1
  Sn  Sn7  1  0.839296  0.185310  0.750000  1
  O  O8  1  0.333333  0.666667  0.250000  1
  O  O9  1  0.666667  0.333333  0.750000  1
  O  O10  1  0.384949  0.000000  0.000000  1
  O  O11  1  0.000000  0.384949  0.000000  1
  O  O12  1  0.384949  0.000000  0.500000  1
  O  O13  1  0.615051  0.615051  0.000000  1
  O  O14  1  0.000000  0.384949  0.500000  1
  O  O15  1  0.615051  0.615051  0.500000  1
