# generated using pymatgen
data_Ba4Sr2(TaH9)3
_symmetry_space_group_name_H-M   'P 1'
_cell_length_a   9.42422900
_cell_length_b   9.32635696
_cell_length_c   5.45784200
_cell_angle_alpha   90.00000000
_cell_angle_beta   90.00000000
_cell_angle_gamma   120.34777241
_symmetry_Int_Tables_number   1
_chemical_formula_structural   Ba4Sr2(TaH9)3
_chemical_formula_sum   'Ba4 Sr2 Ta3 H27'
_cell_volume   413.97758587
_cell_formula_units_Z   1
loop_
 _symmetry_equiv_pos_site_id
 _symmetry_equiv_pos_as_xyz
  1  'x, y, z'
loop_
 _atom_site_type_symbol
 _atom_site_label
 _atom_site_symmetry_multiplicity
 _atom_site_fract_x
 _atom_site_fract_y
 _atom_site_fract_z
 _atom_site_occupancy
  Ba  Ba0  1  0.263656  0.000000  0.500000  1
  Ba  Ba1  1  0.002673  0.595788  0.000000  1
  Ba  Ba2  1  0.406885  0.404212  0.000000  1
  Ba  Ba3  1  0.601380  0.000000  0.000000  1
  Sr  Sr4  1  0.999257  0.263690  0.500000  1
  Sr  Sr5  1  0.735566  0.736310  0.500000  1
  Ta  Ta6  1  0.673408  0.338918  0.500000  1
  Ta  Ta7  1  0.334489  0.661082  0.500000  1
  Ta  Ta8  1  0.991670  0.000000  0.000000  1
  H  H9  1  0.809989  0.326096  0.741595  1
  H  H10  1  0.683009  0.486045  0.745383  1
  H  H11  1  0.531383  0.207126  0.753378  1
  H  H12  1  0.196962  0.513955  0.254617  1
  H  H13  1  0.531383  0.207126  0.246622  1
  H  H14  1  0.809989  0.326096  0.258405  1
  H  H15  1  0.683009  0.486045  0.254617  1
  H  H16  1  0.324255  0.792874  0.753378  1
  H  H17  1  0.483893  0.673904  0.741595  1
  H  H18  1  0.189548  0.000000  0.000000  1
  H  H19  1  0.788468  0.803830  0.000000  1
  H  H20  1  0.984637  0.196170  0.000000  1
  H  H21  1  0.856710  0.000000  0.250514  1
  H  H22  1  0.135017  0.146832  0.763350  1
  H  H23  1  0.988185  0.853168  0.763350  1
  H  H24  1  0.988185  0.853168  0.236650  1
  H  H25  1  0.135017  0.146832  0.236650  1
  H  H26  1  0.856710  0.000000  0.749486  1
  H  H27  1  0.138541  0.659460  0.500000  1
  H  H28  1  0.526415  0.863918  0.500000  1
  H  H29  1  0.333535  0.464047  0.500000  1
  H  H30  1  0.479081  0.340540  0.500000  1
  H  H31  1  0.869488  0.535953  0.500000  1
  H  H32  1  0.662497  0.136082  0.500000  1
  H  H33  1  0.196962  0.513955  0.745383  1
  H  H34  1  0.324255  0.792874  0.246622  1
  H  H35  1  0.483893  0.673904  0.258405  1
