# generated using pymatgen
data_Sn2As2O9
_symmetry_space_group_name_H-M   'P 1'
_cell_length_a   7.73240972
_cell_length_b   7.73240936
_cell_length_c   10.09215611
_cell_angle_alpha   125.14357419
_cell_angle_beta   125.14357049
_cell_angle_gamma   51.86986659
_symmetry_Int_Tables_number   1
_chemical_formula_structural   Sn2As2O9
_chemical_formula_sum   'Sn4 As4 O18'
_cell_volume   364.67348168
_cell_formula_units_Z   2
loop_
 _symmetry_equiv_pos_site_id
 _symmetry_equiv_pos_as_xyz
  1  'x, y, z'
loop_
 _atom_site_type_symbol
 _atom_site_label
 _atom_site_symmetry_multiplicity
 _atom_site_fract_x
 _atom_site_fract_y
 _atom_site_fract_z
 _atom_site_occupancy
  Sn  Sn0  1  0.941487  0.941487  0.116611  1
  Sn  Sn1  1  0.851774  0.851774  0.403337  1
  Sn  Sn2  1  0.148225  0.148225  0.596662  1
  Sn  Sn3  1  0.058514  0.058514  0.883390  1
  As  As4  1  0.371398  0.371398  0.039439  1
  As  As5  1  0.265131  0.265131  0.356073  1
  As  As6  1  0.734870  0.734870  0.643928  1
  As  As7  1  0.628602  0.628602  0.960562  1
  O  O8  1  0.249904  0.249904  0.044945  1
  O  O9  1  0.678571  0.678571  0.164990  1
  O  O10  1  0.666546  0.267522  0.149554  1
  O  O11  1  0.267522  0.666546  0.149554  1
  O  O12  1  0.110812  0.110812  0.147776  1
  O  O13  1  0.974968  0.974968  0.348726  1
  O  O14  1  0.548144  0.156171  0.384286  1
  O  O15  1  0.156171  0.548144  0.384286  1
  O  O16  1  0.235003  0.235003  0.493857  1
  O  O17  1  0.764997  0.764997  0.506144  1
  O  O18  1  0.843829  0.451856  0.615715  1
  O  O19  1  0.451856  0.843829  0.615715  1
  O  O20  1  0.025032  0.025032  0.651274  1
  O  O21  1  0.889189  0.889189  0.852225  1
  O  O22  1  0.732478  0.333454  0.850446  1
  O  O23  1  0.333454  0.732478  0.850446  1
  O  O24  1  0.321429  0.321429  0.835011  1
  O  O25  1  0.750096  0.750096  0.955054  1
