# generated using pymatgen
data_Pr8In2CoHg
_symmetry_space_group_name_H-M   'P 1'
_cell_length_a   10.83836608
_cell_length_b   10.83835759
_cell_length_c   7.23746800
_cell_angle_alpha   90.00341677
_cell_angle_beta   89.99658503
_cell_angle_gamma   119.98628116
_symmetry_Int_Tables_number   1
_chemical_formula_structural   Pr8In2CoHg
_chemical_formula_sum   'Pr16 In4 Co2 Hg2'
_cell_volume   736.38443320
_cell_formula_units_Z   2
loop_
 _symmetry_equiv_pos_site_id
 _symmetry_equiv_pos_as_xyz
  1  'x, y, z'
loop_
 _atom_site_type_symbol
 _atom_site_label
 _atom_site_symmetry_multiplicity
 _atom_site_fract_x
 _atom_site_fract_y
 _atom_site_fract_z
 _atom_site_occupancy
  Pr  Pr0  1  0.533023  0.075272  0.511949  1
  Pr  Pr1  1  0.924727  0.466977  0.511949  1
  Pr  Pr2  1  0.539444  0.460556  0.509783  1
  Pr  Pr3  1  0.463130  0.921800  0.008610  1
  Pr  Pr4  1  0.078201  0.536870  0.008610  1
  Pr  Pr5  1  0.460366  0.539634  0.012892  1
  Pr  Pr6  1  0.176555  0.344884  0.721645  1
  Pr  Pr7  1  0.655117  0.823444  0.721644  1
  Pr  Pr8  1  0.170212  0.829788  0.728187  1
  Pr  Pr9  1  0.826047  0.649489  0.208107  1
  Pr  Pr10  1  0.350510  0.173954  0.208106  1
  Pr  Pr11  1  0.824215  0.175785  0.226889  1
  Pr  Pr12  1  0.665449  0.334551  0.905504  1
  Pr  Pr13  1  0.332642  0.667358  0.412527  1
  Pr  Pr14  1  0.002185  0.997815  0.506163  1
  Pr  Pr15  1  0.995315  0.004685  0.010505  1
  In  In16  1  0.835106  0.164893  0.759268  1
  In  In17  1  0.164575  0.327725  0.263853  1
  In  In18  1  0.672275  0.835425  0.263854  1
  In  In19  1  0.164216  0.835785  0.263157  1
  Co  Co20  1  0.666657  0.333344  0.282371  1
  Co  Co21  1  0.332725  0.667274  0.785524  1
  Hg  Hg22  1  0.833532  0.666224  0.763450  1
  Hg  Hg23  1  0.333776  0.166468  0.763451  1
