# generated using pymatgen
data_Hf3Ga3Ni2Ir
_symmetry_space_group_name_H-M   'P 1'
_cell_length_a   7.07646400
_cell_length_b   7.07646349
_cell_length_c   3.32993600
_cell_angle_alpha   90.00000000
_cell_angle_beta   90.00000000
_cell_angle_gamma   120.00000240
_symmetry_Int_Tables_number   1
_chemical_formula_structural   Hf3Ga3Ni2Ir
_chemical_formula_sum   'Hf3 Ga3 Ni2 Ir1'
_cell_volume   144.41060238
_cell_formula_units_Z   1
loop_
 _symmetry_equiv_pos_site_id
 _symmetry_equiv_pos_as_xyz
  1  'x, y, z'
loop_
 _atom_site_type_symbol
 _atom_site_label
 _atom_site_symmetry_multiplicity
 _atom_site_fract_x
 _atom_site_fract_y
 _atom_site_fract_z
 _atom_site_occupancy
  Hf  Hf0  1  0.393658  0.399429  0.500000  1
  Hf  Hf1  1  0.600571  0.994229  0.500000  1
  Hf  Hf2  1  0.005771  0.606342  0.500000  1
  Ga  Ga3  1  0.736066  0.741500  0.000000  1
  Ga  Ga4  1  0.258500  0.994566  0.000000  1
  Ga  Ga5  1  0.005434  0.263934  0.000000  1
  Ni  Ni6  1  0.333333  0.666667  0.000000  1
  Ni  Ni7  1  0.000000  0.000000  0.500000  1
  Ir  Ir8  1  0.666667  0.333333  0.000000  1
