# generated using pymatgen
data_TbYb2HoRu8
_symmetry_space_group_name_H-M   'P 1'
_cell_length_a   5.20668990
_cell_length_b   5.22727830
_cell_length_c   8.97453526
_cell_angle_alpha   90.05516290
_cell_angle_beta   89.99202440
_cell_angle_gamma   119.47406744
_symmetry_Int_Tables_number   1
_chemical_formula_structural   TbYb2HoRu8
_chemical_formula_sum   'Tb1 Yb2 Ho1 Ru8'
_cell_volume   212.64589302
_cell_formula_units_Z   1
loop_
 _symmetry_equiv_pos_site_id
 _symmetry_equiv_pos_as_xyz
  1  'x, y, z'
loop_
 _atom_site_type_symbol
 _atom_site_label
 _atom_site_symmetry_multiplicity
 _atom_site_fract_x
 _atom_site_fract_y
 _atom_site_fract_z
 _atom_site_occupancy
  Tb  Tb0  1  0.666692  0.333050  0.572357  1
  Yb  Yb1  1  0.333314  0.667097  0.060483  1
  Yb  Yb2  1  0.666680  0.332910  0.939748  1
  Ho  Ho3  1  0.333304  0.666995  0.426665  1
  Ru  Ru4  1  0.000021  0.999980  0.499805  1
  Ru  Ru5  1  0.000040  0.000039  0.000152  1
  Ru  Ru6  1  0.170274  0.340539  0.749791  1
  Ru  Ru7  1  0.170142  0.829754  0.749898  1
  Ru  Ru8  1  0.659535  0.829730  0.749821  1
  Ru  Ru9  1  0.829756  0.659506  0.250501  1
  Ru  Ru10  1  0.829874  0.170188  0.250354  1
  Ru  Ru11  1  0.340368  0.170212  0.250426  1
