# generated using pymatgen
data_Tb3Be2Ni7
_symmetry_space_group_name_H-M   'P 1'
_cell_length_a   5.03388900
_cell_length_b   5.03619153
_cell_length_c   15.19576800
_cell_angle_alpha   90.00000000
_cell_angle_beta   90.00000000
_cell_angle_gamma   119.98371117
_symmetry_Int_Tables_number   1
_chemical_formula_structural   Tb3Be2Ni7
_chemical_formula_sum   'Tb6 Be4 Ni14'
_cell_volume   333.68018642
_cell_formula_units_Z   2
loop_
 _symmetry_equiv_pos_site_id
 _symmetry_equiv_pos_as_xyz
  1  'x, y, z'
loop_
 _atom_site_type_symbol
 _atom_site_label
 _atom_site_symmetry_multiplicity
 _atom_site_fract_x
 _atom_site_fract_y
 _atom_site_fract_z
 _atom_site_occupancy
  Tb  Tb0  1  0.666653  0.333327  0.038777  1
  Tb  Tb1  1  0.333347  0.666673  0.961223  1
  Tb  Tb2  1  0.333347  0.666673  0.538777  1
  Tb  Tb3  1  0.666653  0.333327  0.461223  1
  Tb  Tb4  1  0.666671  0.333350  0.250000  1
  Tb  Tb5  1  0.333329  0.666650  0.750000  1
  Be  Be6  1  0.666611  0.333324  0.750000  1
  Be  Be7  1  0.333389  0.666676  0.250000  1
  Be  Be8  1  0.000048  0.000030  0.750000  1
  Be  Be9  1  0.999952  0.999970  0.250000  1
  Ni  Ni10  1  0.833707  0.667352  0.636832  1
  Ni  Ni11  1  0.833589  0.166383  0.636822  1
  Ni  Ni12  1  0.332850  0.166380  0.636747  1
  Ni  Ni13  1  0.166293  0.332648  0.363168  1
  Ni  Ni14  1  0.166411  0.833617  0.363178  1
  Ni  Ni15  1  0.667150  0.833620  0.363253  1
  Ni  Ni16  1  0.166293  0.332648  0.136832  1
  Ni  Ni17  1  0.166411  0.833617  0.136822  1
  Ni  Ni18  1  0.667150  0.833620  0.136747  1
  Ni  Ni19  1  0.833707  0.667352  0.863168  1
  Ni  Ni20  1  0.833589  0.166383  0.863178  1
  Ni  Ni21  1  0.332850  0.166380  0.863253  1
  Ni  Ni22  1  0.000000  0.000000  0.500000  1
  Ni  Ni23  1  0.000000  0.000000  0.000000  1
