# generated using pymatgen
data_Sm2Dy4VFe(Co4P3)4
_symmetry_space_group_name_H-M   'P 1'
_cell_length_a   3.70133100
_cell_length_b   10.56961400
_cell_length_c   12.25865200
_cell_angle_alpha   90.00000000
_cell_angle_beta   90.00000000
_cell_angle_gamma   90.00000000
_symmetry_Int_Tables_number   1
_chemical_formula_structural   Sm2Dy4VFe(Co4P3)4
_chemical_formula_sum   'Sm2 Dy4 V1 Fe1 Co16 P12'
_cell_volume   479.57856989
_cell_formula_units_Z   1
loop_
 _symmetry_equiv_pos_site_id
 _symmetry_equiv_pos_as_xyz
  1  'x, y, z'
loop_
 _atom_site_type_symbol
 _atom_site_label
 _atom_site_symmetry_multiplicity
 _atom_site_fract_x
 _atom_site_fract_y
 _atom_site_fract_z
 _atom_site_occupancy
  Sm  Sm0  1  0.000000  0.500000  0.522119  1
  Sm  Sm1  1  0.500000  0.000000  0.476341  1
  Dy  Dy2  1  0.500000  0.818238  0.203570  1
  Dy  Dy3  1  0.500000  0.181762  0.203570  1
  Dy  Dy4  1  0.000000  0.681669  0.795055  1
  Dy  Dy5  1  0.000000  0.318331  0.795055  1
  V  V6  1  0.000000  0.000000  0.847370  1
  Fe  Fe7  1  0.500000  0.500000  0.155844  1
  Co  Co8  1  0.500000  0.500000  0.705150  1
  Co  Co9  1  0.000000  0.000000  0.296093  1
  Co  Co10  1  0.000000  0.500000  0.987302  1
  Co  Co11  1  0.500000  0.000000  0.012952  1
  Co  Co12  1  0.500000  0.333280  0.994286  1
  Co  Co13  1  0.500000  0.666720  0.994286  1
  Co  Co14  1  0.000000  0.168026  0.006880  1
  Co  Co15  1  0.000000  0.831974  0.006880  1
  Co  Co16  1  0.500000  0.296139  0.430343  1
  Co  Co17  1  0.500000  0.703861  0.430343  1
  Co  Co18  1  0.000000  0.204021  0.569902  1
  Co  Co19  1  0.000000  0.795979  0.569902  1
  Co  Co20  1  0.500000  0.879155  0.709735  1
  Co  Co21  1  0.500000  0.120845  0.709735  1
  Co  Co22  1  0.000000  0.620902  0.289838  1
  Co  Co23  1  0.000000  0.379098  0.289838  1
  P  P24  1  0.500000  0.500000  0.883789  1
  P  P25  1  0.000000  0.000000  0.117112  1
  P  P26  1  0.500000  0.500000  0.340168  1
  P  P27  1  0.000000  0.000000  0.654928  1
  P  P28  1  0.500000  0.309165  0.616343  1
  P  P29  1  0.500000  0.690835  0.616343  1
  P  P30  1  0.000000  0.191612  0.382890  1
  P  P31  1  0.000000  0.808388  0.382890  1
  P  P32  1  0.500000  0.845127  0.893640  1
  P  P33  1  0.500000  0.154873  0.893640  1
  P  P34  1  0.000000  0.651959  0.107935  1
  P  P35  1  0.000000  0.348041  0.107935  1
