# generated using pymatgen
data_Dy4Co17(TcP4)3
_symmetry_space_group_name_H-M   'P 1'
_cell_length_a   3.68776200
_cell_length_b   10.33237582
_cell_length_c   11.77561921
_cell_angle_alpha   89.91533714
_cell_angle_beta   90.00000000
_cell_angle_gamma   90.00000000
_symmetry_Int_Tables_number   1
_chemical_formula_structural   Dy4Co17(TcP4)3
_chemical_formula_sum   'Dy4 Co17 Tc3 P12'
_cell_volume   448.68996714
_cell_formula_units_Z   1
loop_
 _symmetry_equiv_pos_site_id
 _symmetry_equiv_pos_as_xyz
  1  'x, y, z'
loop_
 _atom_site_type_symbol
 _atom_site_label
 _atom_site_symmetry_multiplicity
 _atom_site_fract_x
 _atom_site_fract_y
 _atom_site_fract_z
 _atom_site_occupancy
  Dy  Dy0  1  0.250000  0.581957  0.702544  1
  Dy  Dy1  1  0.250000  0.915319  0.204851  1
  Dy  Dy2  1  0.750000  0.414687  0.296077  1
  Dy  Dy3  1  0.750000  0.084063  0.795090  1
  Co  Co4  1  0.750000  0.215319  0.509947  1
  Co  Co5  1  0.250000  0.405746  0.488354  1
  Co  Co6  1  0.250000  0.093334  0.988770  1
  Co  Co7  1  0.750000  0.592656  0.510454  1
  Co  Co8  1  0.750000  0.907079  0.011150  1
  Co  Co9  1  0.250000  0.220182  0.177263  1
  Co  Co10  1  0.250000  0.277895  0.676188  1
  Co  Co11  1  0.750000  0.778417  0.822531  1
  Co  Co12  1  0.750000  0.721565  0.323317  1
  Co  Co13  1  0.250000  0.885855  0.701057  1
  Co  Co14  1  0.250000  0.613944  0.202379  1
  Co  Co15  1  0.750000  0.116325  0.301293  1
  Co  Co16  1  0.750000  0.385352  0.797719  1
  Co  Co17  1  0.250000  0.464397  0.931976  1
  Co  Co18  1  0.250000  0.035712  0.432120  1
  Co  Co19  1  0.750000  0.535894  0.068743  1
  Co  Co20  1  0.750000  0.967000  0.568283  1
  Tc  Tc21  1  0.250000  0.710855  0.989265  1
  Tc  Tc22  1  0.250000  0.789475  0.489569  1
  Tc  Tc23  1  0.750000  0.289042  0.010731  1
  P  P24  1  0.250000  0.419417  0.113700  1
  P  P25  1  0.250000  0.082051  0.611691  1
  P  P26  1  0.750000  0.579313  0.886339  1
  P  P27  1  0.750000  0.920961  0.387091  1
  P  P28  1  0.250000  0.269721  0.865038  1
  P  P29  1  0.250000  0.230271  0.369466  1
  P  P30  1  0.750000  0.730429  0.134443  1
  P  P31  1  0.750000  0.770539  0.632973  1
  P  P32  1  0.250000  0.595707  0.391564  1
  P  P33  1  0.250000  0.903804  0.890579  1
  P  P34  1  0.750000  0.398448  0.606728  1
  P  P35  1  0.750000  0.097267  0.110715  1
