# generated using pymatgen
data_Hf4TcGe3N
_symmetry_space_group_name_H-M   'P 1'
_cell_length_a   7.82704500
_cell_length_b   7.82704492
_cell_length_c   5.46179700
_cell_angle_alpha   90.00000000
_cell_angle_beta   90.00000000
_cell_angle_gamma   119.99999612
_symmetry_Int_Tables_number   1
_chemical_formula_structural   Hf4TcGe3N
_chemical_formula_sum   'Hf8 Tc2 Ge6 N2'
_cell_volume   289.77563093
_cell_formula_units_Z   2
loop_
 _symmetry_equiv_pos_site_id
 _symmetry_equiv_pos_as_xyz
  1  'x, y, z'
loop_
 _atom_site_type_symbol
 _atom_site_label
 _atom_site_symmetry_multiplicity
 _atom_site_fract_x
 _atom_site_fract_y
 _atom_site_fract_z
 _atom_site_occupancy
  Hf  Hf0  1  0.233252  0.000000  0.249666  1
  Hf  Hf1  1  0.766748  0.000000  0.750334  1
  Hf  Hf2  1  0.000000  0.233252  0.249666  1
  Hf  Hf3  1  0.000000  0.766748  0.750334  1
  Hf  Hf4  1  0.766748  0.766748  0.249666  1
  Hf  Hf5  1  0.233252  0.233252  0.750334  1
  Hf  Hf6  1  0.666667  0.333333  0.500000  1
  Hf  Hf7  1  0.333333  0.666667  0.500000  1
  Tc  Tc8  1  0.333333  0.666667  0.000000  1
  Tc  Tc9  1  0.666667  0.333333  0.000000  1
  Ge  Ge10  1  0.594154  0.000000  0.232916  1
  Ge  Ge11  1  0.405846  0.000000  0.767084  1
  Ge  Ge12  1  0.000000  0.594154  0.232916  1
  Ge  Ge13  1  0.000000  0.405846  0.767084  1
  Ge  Ge14  1  0.405846  0.405846  0.232916  1
  Ge  Ge15  1  0.594154  0.594154  0.767084  1
  N  N16  1  0.000000  0.000000  0.000000  1
  N  N17  1  0.000000  0.000000  0.500000  1
