# generated using pymatgen
data_CsSb2(AsPd3)3
_symmetry_space_group_name_H-M   'P 1'
_cell_length_a   7.42078400
_cell_length_b   7.42078360
_cell_length_c   12.79558300
_cell_angle_alpha   90.00000000
_cell_angle_beta   90.00000000
_cell_angle_gamma   120.00000178
_symmetry_Int_Tables_number   1
_chemical_formula_structural   CsSb2(AsPd3)3
_chemical_formula_sum   'Cs2 Sb4 As6 Pd18'
_cell_volume   610.22537088
_cell_formula_units_Z   2
loop_
 _symmetry_equiv_pos_site_id
 _symmetry_equiv_pos_as_xyz
  1  'x, y, z'
loop_
 _atom_site_type_symbol
 _atom_site_label
 _atom_site_symmetry_multiplicity
 _atom_site_fract_x
 _atom_site_fract_y
 _atom_site_fract_z
 _atom_site_occupancy
  Cs  Cs0  1  0.000000  0.000000  0.000000  1
  Cs  Cs1  1  0.000000  0.000000  0.500000  1
  Sb  Sb2  1  0.333333  0.666667  0.061929  1
  Sb  Sb3  1  0.666667  0.333333  0.561929  1
  Sb  Sb4  1  0.666667  0.333333  0.938071  1
  Sb  Sb5  1  0.333333  0.666667  0.438071  1
  As  As6  1  0.821387  0.178613  0.250000  1
  As  As7  1  0.642774  0.821387  0.750000  1
  As  As8  1  0.178613  0.357226  0.750000  1
  As  As9  1  0.821387  0.642774  0.250000  1
  As  As10  1  0.357226  0.178613  0.250000  1
  As  As11  1  0.178613  0.821387  0.750000  1
  Pd  Pd12  1  0.537336  0.462664  0.110852  1
  Pd  Pd13  1  0.074674  0.537336  0.610852  1
  Pd  Pd14  1  0.462664  0.925326  0.610852  1
  Pd  Pd15  1  0.537336  0.074674  0.110852  1
  Pd  Pd16  1  0.925326  0.462664  0.110852  1
  Pd  Pd17  1  0.074674  0.537336  0.889148  1
  Pd  Pd18  1  0.462664  0.925326  0.889148  1
  Pd  Pd19  1  0.462664  0.537336  0.610852  1
  Pd  Pd20  1  0.462664  0.537336  0.889148  1
  Pd  Pd21  1  0.537336  0.462664  0.389148  1
  Pd  Pd22  1  0.925326  0.462664  0.389148  1
  Pd  Pd23  1  0.537336  0.074674  0.389148  1
  Pd  Pd24  1  0.202014  0.797986  0.250000  1
  Pd  Pd25  1  0.404027  0.202014  0.750000  1
  Pd  Pd26  1  0.797986  0.595973  0.750000  1
  Pd  Pd27  1  0.202014  0.404027  0.250000  1
  Pd  Pd28  1  0.595973  0.797986  0.250000  1
  Pd  Pd29  1  0.797986  0.202014  0.750000  1
