# generated using pymatgen
data_Lu2Be2GaRh5
_symmetry_space_group_name_H-M   'P 1'
_cell_length_a   9.55561000
_cell_length_b   9.55561000
_cell_length_c   3.19465200
_cell_angle_alpha   90.00000000
_cell_angle_beta   90.00000000
_cell_angle_gamma   90.00000000
_symmetry_Int_Tables_number   1
_chemical_formula_structural   Lu2Be2GaRh5
_chemical_formula_sum   'Lu4 Be4 Ga2 Rh10'
_cell_volume   291.70265973
_cell_formula_units_Z   2
loop_
 _symmetry_equiv_pos_site_id
 _symmetry_equiv_pos_as_xyz
  1  'x, y, z'
loop_
 _atom_site_type_symbol
 _atom_site_label
 _atom_site_symmetry_multiplicity
 _atom_site_fract_x
 _atom_site_fract_y
 _atom_site_fract_z
 _atom_site_occupancy
  Lu  Lu0  1  0.824624  0.324624  0.000000  1
  Lu  Lu1  1  0.324624  0.175376  0.000000  1
  Lu  Lu2  1  0.675376  0.824624  0.000000  1
  Lu  Lu3  1  0.175376  0.675376  0.000000  1
  Be  Be4  1  0.623008  0.123008  0.000000  1
  Be  Be5  1  0.123008  0.376992  0.000000  1
  Be  Be6  1  0.876992  0.623008  0.000000  1
  Be  Be7  1  0.376992  0.876992  0.000000  1
  Ga  Ga8  1  0.000000  0.000000  0.000000  1
  Ga  Ga9  1  0.500000  0.500000  0.000000  1
  Rh  Rh10  1  0.068203  0.210756  0.500000  1
  Rh  Rh11  1  0.210756  0.931797  0.500000  1
  Rh  Rh12  1  0.789244  0.068203  0.500000  1
  Rh  Rh13  1  0.931797  0.789244  0.500000  1
  Rh  Rh14  1  0.431797  0.710756  0.500000  1
  Rh  Rh15  1  0.568203  0.289244  0.500000  1
  Rh  Rh16  1  0.710756  0.568203  0.500000  1
  Rh  Rh17  1  0.289244  0.431797  0.500000  1
  Rh  Rh18  1  0.500000  0.000000  0.500000  1
  Rh  Rh19  1  0.000000  0.500000  0.500000  1
