# generated using pymatgen
data_Ce2Pa2TlGaRh4
_symmetry_space_group_name_H-M   'P 1'
_cell_length_a   7.65183457
_cell_length_b   7.68710460
_cell_length_c   3.66919700
_cell_angle_alpha   90.00000000
_cell_angle_beta   90.00000000
_cell_angle_gamma   92.53909114
_symmetry_Int_Tables_number   1
_chemical_formula_structural   Ce2Pa2TlGaRh4
_chemical_formula_sum   'Ce2 Pa2 Tl1 Ga1 Rh4'
_cell_volume   215.61193912
_cell_formula_units_Z   1
loop_
 _symmetry_equiv_pos_site_id
 _symmetry_equiv_pos_as_xyz
  1  'x, y, z'
loop_
 _atom_site_type_symbol
 _atom_site_label
 _atom_site_symmetry_multiplicity
 _atom_site_fract_x
 _atom_site_fract_y
 _atom_site_fract_z
 _atom_site_occupancy
  Ce  Ce0  1  0.181362  0.335354  0.500000  1
  Ce  Ce1  1  0.818638  0.664646  0.500000  1
  Pa  Pa2  1  0.658958  0.182279  0.500000  1
  Pa  Pa3  1  0.341042  0.817721  0.500000  1
  Tl  Tl4  1  0.000000  0.000000  0.000000  1
  Ga  Ga5  1  0.500000  0.500000  0.000000  1
  Rh  Rh6  1  0.148688  0.638455  0.000000  1
  Rh  Rh7  1  0.851312  0.361545  0.000000  1
  Rh  Rh8  1  0.620343  0.863755  0.000000  1
  Rh  Rh9  1  0.379657  0.136245  0.000000  1
