# generated using pymatgen
data_ErTm9Cd3Ir
_symmetry_space_group_name_H-M   'P 1'
_cell_length_a   9.51545200
_cell_length_b   9.51545274
_cell_length_c   9.75001100
_cell_angle_alpha   90.00000000
_cell_angle_beta   90.00000000
_cell_angle_gamma   119.98991632
_symmetry_Int_Tables_number   1
_chemical_formula_structural   ErTm9Cd3Ir
_chemical_formula_sum   'Er2 Tm18 Cd6 Ir2'
_cell_volume   764.60782155
_cell_formula_units_Z   2
loop_
 _symmetry_equiv_pos_site_id
 _symmetry_equiv_pos_as_xyz
  1  'x, y, z'
loop_
 _atom_site_type_symbol
 _atom_site_label
 _atom_site_symmetry_multiplicity
 _atom_site_fract_x
 _atom_site_fract_y
 _atom_site_fract_z
 _atom_site_occupancy
  Er  Er0  1  0.459310  0.918184  0.750000  1
  Er  Er1  1  0.081816  0.540690  0.750000  1
  Tm  Tm2  1  0.999971  0.000029  0.500087  1
  Tm  Tm3  1  0.999971  0.000029  0.999913  1
  Tm  Tm4  1  0.209237  0.790763  0.440857  1
  Tm  Tm5  1  0.209352  0.418484  0.440917  1
  Tm  Tm6  1  0.581516  0.790648  0.440917  1
  Tm  Tm7  1  0.790677  0.209323  0.558654  1
  Tm  Tm8  1  0.790509  0.581441  0.558698  1
  Tm  Tm9  1  0.418559  0.209491  0.558698  1
  Tm  Tm10  1  0.790677  0.209323  0.941346  1
  Tm  Tm11  1  0.790509  0.581441  0.941302  1
  Tm  Tm12  1  0.418559  0.209491  0.941302  1
  Tm  Tm13  1  0.209237  0.790763  0.059143  1
  Tm  Tm14  1  0.209352  0.418484  0.059083  1
  Tm  Tm15  1  0.581516  0.790648  0.059083  1
  Tm  Tm16  1  0.540931  0.459069  0.250000  1
  Tm  Tm17  1  0.540935  0.081766  0.250000  1
  Tm  Tm18  1  0.918234  0.459065  0.250000  1
  Tm  Tm19  1  0.459303  0.540697  0.750000  1
  Cd  Cd20  1  0.885965  0.114035  0.250000  1
  Cd  Cd21  1  0.885810  0.771876  0.250000  1
  Cd  Cd22  1  0.228124  0.114190  0.250000  1
  Cd  Cd23  1  0.113800  0.886200  0.750000  1
  Cd  Cd24  1  0.114041  0.227795  0.750000  1
  Cd  Cd25  1  0.772205  0.885959  0.750000  1
  Ir  Ir26  1  0.333274  0.666726  0.250000  1
  Ir  Ir27  1  0.666606  0.333394  0.750000  1
