# generated using pymatgen
data_KYb(Cu9Si4)2
_symmetry_space_group_name_H-M   'P 1'
_cell_length_a   8.18739630
_cell_length_b   8.18739633
_cell_length_c   8.18738951
_cell_angle_alpha   120.59332909
_cell_angle_beta   120.59332369
_cell_angle_gamma   88.97624812
_symmetry_Int_Tables_number   1
_chemical_formula_structural   KYb(Cu9Si4)2
_chemical_formula_sum   'K1 Yb1 Cu18 Si8'
_cell_volume   384.53077796
_cell_formula_units_Z   1
loop_
 _symmetry_equiv_pos_site_id
 _symmetry_equiv_pos_as_xyz
  1  'x, y, z'
loop_
 _atom_site_type_symbol
 _atom_site_label
 _atom_site_symmetry_multiplicity
 _atom_site_fract_x
 _atom_site_fract_y
 _atom_site_fract_z
 _atom_site_occupancy
  K  K0  1  0.250005  0.249995  0.000000  1
  Yb  Yb1  1  0.750001  0.749999  0.000000  1
  Cu  Cu2  1  0.933595  0.202197  0.138561  1
  Cu  Cu3  1  0.201966  0.063419  0.268707  1
  Cu  Cu4  1  0.795052  0.933604  0.731428  1
  Cu  Cu5  1  0.436581  0.298034  0.731293  1
  Cu  Cu6  1  0.063589  0.795017  0.861552  1
  Cu  Cu7  1  0.805662  0.056892  0.496177  1
  Cu  Cu8  1  0.560953  0.309743  0.503549  1
  Cu  Cu9  1  0.190257  0.939047  0.496451  1
  Cu  Cu10  1  0.443108  0.694338  0.503823  1
  Cu  Cu11  1  0.939325  0.443004  0.748669  1
  Cu  Cu12  1  0.694315  0.190366  0.251267  1
  Cu  Cu13  1  0.056996  0.560675  0.251331  1
  Cu  Cu14  1  0.704983  0.436411  0.138448  1
  Cu  Cu15  1  0.566396  0.704948  0.268572  1
  Cu  Cu16  1  0.500033  0.999967  0.500000  1
  Cu  Cu17  1  0.999850  0.500150  0.500000  1
  Cu  Cu18  1  0.309634  0.805685  0.748733  1
  Cu  Cu19  1  0.297803  0.566405  0.861439  1
  Si  Si20  1  0.791651  0.293149  0.852064  1
  Si  Si21  1  0.560497  0.059028  0.852128  1
  Si  Si22  1  0.058989  0.206892  0.498526  1
  Si  Si23  1  0.293108  0.441011  0.501474  1
  Si  Si24  1  0.939435  0.791609  0.498524  1
  Si  Si25  1  0.440972  0.939503  0.147872  1
  Si  Si26  1  0.206851  0.708349  0.147936  1
  Si  Si27  1  0.708391  0.560565  0.501476  1
