# generated using pymatgen
data_TlV9Se16
_symmetry_space_group_name_H-M   'P 1'
_cell_length_a   6.69230400
_cell_length_b   6.69230513
_cell_length_c   13.94149800
_cell_angle_alpha   90.00000000
_cell_angle_beta   90.00000000
_cell_angle_gamma   120.00000431
_symmetry_Int_Tables_number   1
_chemical_formula_structural   TlV9Se16
_chemical_formula_sum   'Tl1 V9 Se16'
_cell_volume   540.74367503
_cell_formula_units_Z   1
loop_
 _symmetry_equiv_pos_site_id
 _symmetry_equiv_pos_as_xyz
  1  'x, y, z'
loop_
 _atom_site_type_symbol
 _atom_site_label
 _atom_site_symmetry_multiplicity
 _atom_site_fract_x
 _atom_site_fract_y
 _atom_site_fract_z
 _atom_site_occupancy
  Tl  Tl0  1  0.000000  0.000000  0.000000  1
  V  V1  1  0.000000  0.000000  0.278292  1
  V  V2  1  0.000000  0.000000  0.721708  1
  V  V3  1  0.508153  0.016307  0.277890  1
  V  V4  1  0.491847  0.983693  0.722110  1
  V  V5  1  0.983693  0.491847  0.277890  1
  V  V6  1  0.016307  0.508153  0.722110  1
  V  V7  1  0.508153  0.491847  0.277890  1
  V  V8  1  0.491847  0.508153  0.722110  1
  V  V9  1  0.000000  0.000000  0.500000  1
  Se  Se10  1  0.333333  0.666667  0.606047  1
  Se  Se11  1  0.666667  0.333333  0.393953  1
  Se  Se12  1  0.666667  0.333333  0.159707  1
  Se  Se13  1  0.333333  0.666667  0.840293  1
  Se  Se14  1  0.168809  0.337619  0.167394  1
  Se  Se15  1  0.831191  0.662381  0.832606  1
  Se  Se16  1  0.662381  0.831191  0.167394  1
  Se  Se17  1  0.831690  0.663380  0.611632  1
  Se  Se18  1  0.337619  0.168809  0.832606  1
  Se  Se19  1  0.168310  0.336620  0.388368  1
  Se  Se20  1  0.168809  0.831191  0.167394  1
  Se  Se21  1  0.336620  0.168310  0.611632  1
  Se  Se22  1  0.831191  0.168809  0.832606  1
  Se  Se23  1  0.663380  0.831690  0.388368  1
  Se  Se24  1  0.831690  0.168310  0.611632  1
  Se  Se25  1  0.168310  0.831690  0.388368  1
