# generated using pymatgen
data_Er3Tm(Ga3Ru)2
_symmetry_space_group_name_H-M   'P 1'
_cell_length_a   5.42315800
_cell_length_b   5.42315885
_cell_length_c   8.69275400
_cell_angle_alpha   90.00000000
_cell_angle_beta   90.00000000
_cell_angle_gamma   120.00000702
_symmetry_Int_Tables_number   1
_chemical_formula_structural   Er3Tm(Ga3Ru)2
_chemical_formula_sum   'Er3 Tm1 Ga6 Ru2'
_cell_volume   221.40762506
_cell_formula_units_Z   1
loop_
 _symmetry_equiv_pos_site_id
 _symmetry_equiv_pos_as_xyz
  1  'x, y, z'
loop_
 _atom_site_type_symbol
 _atom_site_label
 _atom_site_symmetry_multiplicity
 _atom_site_fract_x
 _atom_site_fract_y
 _atom_site_fract_z
 _atom_site_occupancy
  Er  Er0  1  0.666666  0.333333  0.053088  1
  Er  Er1  1  0.666666  0.333333  0.446826  1
  Er  Er2  1  0.333333  0.666667  0.553227  1
  Tm  Tm3  1  0.333333  0.666667  0.946911  1
  Ga  Ga4  1  0.165600  0.331199  0.249928  1
  Ga  Ga5  1  0.165599  0.834400  0.249928  1
  Ga  Ga6  1  0.668801  0.834400  0.249928  1
  Ga  Ga7  1  0.331142  0.165572  0.750062  1
  Ga  Ga8  1  0.834429  0.165572  0.750062  1
  Ga  Ga9  1  0.834429  0.668858  0.750062  1
  Ru  Ru10  1  0.000000  0.000000  0.999876  1
  Ru  Ru11  1  0.000000  0.000000  0.500100  1
