# generated using pymatgen
data_Zr3ScSiGe5Ir7
_symmetry_space_group_name_H-M   'P 1'
_cell_length_a   7.11486722
_cell_length_b   7.11174444
_cell_length_c   7.11174594
_cell_angle_alpha   109.45898088
_cell_angle_beta   109.38562952
_cell_angle_gamma   109.38564226
_symmetry_Int_Tables_number   1
_chemical_formula_structural   Zr3ScSiGe5Ir7
_chemical_formula_sum   'Zr3 Sc1 Si1 Ge5 Ir7'
_cell_volume   277.63630686
_cell_formula_units_Z   1
loop_
 _symmetry_equiv_pos_site_id
 _symmetry_equiv_pos_as_xyz
  1  'x, y, z'
loop_
 _atom_site_type_symbol
 _atom_site_label
 _atom_site_symmetry_multiplicity
 _atom_site_fract_x
 _atom_site_fract_y
 _atom_site_fract_z
 _atom_site_occupancy
  Zr  Zr0  1  0.000150  0.998414  0.521961  1
  Zr  Zr1  1  0.000150  0.521961  0.998414  1
  Zr  Zr2  1  0.474775  0.998105  0.998105  1
  Sc  Sc3  1  0.517387  0.515443  0.515443  1
  Si  Si4  1  0.996480  0.664205  0.664205  1
  Ge  Ge5  1  0.685007  0.691288  0.001398  1
  Ge  Ge6  1  0.316028  0.007687  0.322325  1
  Ge  Ge7  1  0.001186  0.304002  0.304002  1
  Ge  Ge8  1  0.316028  0.322325  0.007687  1
  Ge  Ge9  1  0.685007  0.001398  0.691288  1
  Ir  Ir10  1  0.752303  0.250644  0.500264  1
  Ir  Ir11  1  0.752303  0.500264  0.250644  1
  Ir  Ir12  1  0.500928  0.250905  0.752302  1
  Ir  Ir13  1  0.248215  0.499933  0.748615  1
  Ir  Ir14  1  0.248215  0.748615  0.499933  1
  Ir  Ir15  1  0.500928  0.752302  0.250905  1
  Ir  Ir16  1  0.004910  0.972509  0.972509  1
