# generated using pymatgen
data_In4(SnIr)3
_symmetry_space_group_name_H-M   'P 1'
_cell_length_a   8.24341398
_cell_length_b   8.25386136
_cell_length_c   8.24341297
_cell_angle_alpha   109.99306260
_cell_angle_beta   109.96285329
_cell_angle_gamma   108.41208564
_symmetry_Int_Tables_number   1
_chemical_formula_structural   In4(SnIr)3
_chemical_formula_sum   'In8 Sn6 Ir6'
_cell_volume   431.92977423
_cell_formula_units_Z   2
loop_
 _symmetry_equiv_pos_site_id
 _symmetry_equiv_pos_as_xyz
  1  'x, y, z'
loop_
 _atom_site_type_symbol
 _atom_site_label
 _atom_site_symmetry_multiplicity
 _atom_site_fract_x
 _atom_site_fract_y
 _atom_site_fract_z
 _atom_site_occupancy
  In  In0  1  0.999888  0.999033  0.679046  1
  In  In1  1  0.319987  0.999033  0.999145  1
  In  In2  1  0.681207  0.678680  0.676697  1
  In  In3  1  0.001449  0.321230  0.998965  1
  In  In4  1  0.322265  0.321230  0.319781  1
  In  In5  1  0.001983  0.678680  0.997474  1
  In  In6  1  0.248320  0.747194  0.498874  1
  In  In7  1  0.748313  0.250346  0.502033  1
  Sn  Sn8  1  0.751039  0.500039  0.251761  1
  Sn  Sn9  1  0.248278  0.500039  0.749000  1
  Sn  Sn10  1  0.497529  0.750997  0.253468  1
  Sn  Sn11  1  0.501568  0.251963  0.750394  1
  Sn  Sn12  1  0.003606  0.000946  0.325597  1
  Sn  Sn13  1  0.675349  0.000946  0.997340  1
  Ir  Ir14  1  0.652011  0.000021  0.656513  1
  Ir  Ir15  1  0.656917  0.662403  0.005486  1
  Ir  Ir16  1  0.351408  0.350805  0.999397  1
  Ir  Ir17  1  0.000578  0.650381  0.649804  1
  Ir  Ir18  1  0.994798  0.336013  0.341215  1
  Ir  Ir19  1  0.343508  0.000021  0.348010  1
