# generated using pymatgen
data_Pr16Ga6CoTc
_symmetry_space_group_name_H-M   'P 1'
_cell_length_a   10.52386000
_cell_length_b   10.52386077
_cell_length_c   7.22252900
_cell_angle_alpha   90.00000000
_cell_angle_beta   90.00000000
_cell_angle_gamma   119.99999757
_symmetry_Int_Tables_number   1
_chemical_formula_structural   Pr16Ga6CoTc
_chemical_formula_sum   'Pr16 Ga6 Co1 Tc1'
_cell_volume   692.73972455
_cell_formula_units_Z   1
loop_
 _symmetry_equiv_pos_site_id
 _symmetry_equiv_pos_as_xyz
  1  'x, y, z'
loop_
 _atom_site_type_symbol
 _atom_site_label
 _atom_site_symmetry_multiplicity
 _atom_site_fract_x
 _atom_site_fract_y
 _atom_site_fract_z
 _atom_site_occupancy
  Pr  Pr0  1  0.832143  0.664288  0.485687  1
  Pr  Pr1  1  0.335712  0.167857  0.485687  1
  Pr  Pr2  1  0.832143  0.167857  0.485687  1
  Pr  Pr3  1  0.170647  0.341292  0.988398  1
  Pr  Pr4  1  0.658708  0.829353  0.988398  1
  Pr  Pr5  1  0.170647  0.829353  0.988398  1
  Pr  Pr6  1  0.666667  0.333333  0.168119  1
  Pr  Pr7  1  0.333333  0.666667  0.679214  1
  Pr  Pr8  1  0.538916  0.077831  0.793728  1
  Pr  Pr9  1  0.922169  0.461084  0.793728  1
  Pr  Pr10  1  0.538916  0.461084  0.793728  1
  Pr  Pr11  1  0.461156  0.922314  0.294434  1
  Pr  Pr12  1  0.077686  0.538844  0.294434  1
  Pr  Pr13  1  0.461156  0.538844  0.294434  1
  Pr  Pr14  1  0.000000  0.000000  0.773612  1
  Pr  Pr15  1  0.000000  0.000000  0.267781  1
  Ga  Ga16  1  0.836264  0.672528  0.040433  1
  Ga  Ga17  1  0.327472  0.163736  0.040433  1
  Ga  Ga18  1  0.836264  0.163736  0.040433  1
  Ga  Ga19  1  0.166321  0.332641  0.544169  1
  Ga  Ga20  1  0.667359  0.833679  0.544169  1
  Ga  Ga21  1  0.166321  0.833679  0.544169  1
  Co  Co22  1  0.333333  0.666667  0.053537  1
  Tc  Tc23  1  0.666667  0.333333  0.543260  1
