# generated using pymatgen
data_Nb3Fe2Ni2B7
_symmetry_space_group_name_H-M   'P 1'
_cell_length_a   9.33251911
_cell_length_b   9.33252164
_cell_length_c   8.97027600
_cell_angle_alpha   90.00000000
_cell_angle_beta   90.00000000
_cell_angle_gamma   160.18018446
_symmetry_Int_Tables_number   1
_chemical_formula_structural   Nb3Fe2Ni2B7
_chemical_formula_sum   'Nb6 Fe4 Ni4 B14'
_cell_volume   264.90154083
_cell_formula_units_Z   2
loop_
 _symmetry_equiv_pos_site_id
 _symmetry_equiv_pos_as_xyz
  1  'x, y, z'
loop_
 _atom_site_type_symbol
 _atom_site_label
 _atom_site_symmetry_multiplicity
 _atom_site_fract_x
 _atom_site_fract_y
 _atom_site_fract_z
 _atom_site_occupancy
  Nb  Nb0  1  0.697594  0.302406  0.250000  1
  Nb  Nb1  1  0.302406  0.697594  0.750000  1
  Nb  Nb2  1  0.580463  0.419537  0.554496  1
  Nb  Nb3  1  0.419537  0.580463  0.445504  1
  Nb  Nb4  1  0.419537  0.580463  0.054496  1
  Nb  Nb5  1  0.580463  0.419537  0.945504  1
  Fe  Fe6  1  0.543111  0.456890  0.250000  1
  Fe  Fe7  1  0.456889  0.543110  0.750000  1
  Fe  Fe8  1  0.844492  0.155508  0.250000  1
  Fe  Fe9  1  0.155508  0.844492  0.750000  1
  Ni  Ni10  1  0.801484  0.198516  0.506494  1
  Ni  Ni11  1  0.198516  0.801484  0.493506  1
  Ni  Ni12  1  0.198516  0.801484  0.006494  1
  Ni  Ni13  1  0.801484  0.198516  0.993506  1
  B  B14  1  0.956493  0.043508  0.250000  1
  B  B15  1  0.043507  0.956492  0.750000  1
  B  B16  1  0.891599  0.108401  0.650526  1
  B  B17  1  0.108401  0.891599  0.349474  1
  B  B18  1  0.108401  0.891599  0.150526  1
  B  B19  1  0.891599  0.108401  0.849474  1
  B  B20  1  0.710125  0.289875  0.648357  1
  B  B21  1  0.289875  0.710125  0.351643  1
  B  B22  1  0.289875  0.710125  0.148357  1
  B  B23  1  0.710125  0.289875  0.851643  1
  B  B24  1  0.984263  0.015737  0.592837  1
  B  B25  1  0.015737  0.984263  0.407163  1
  B  B26  1  0.015737  0.984263  0.092837  1
  B  B27  1  0.984263  0.015737  0.907163  1
