# generated using pymatgen
data_La4Zn5Ga3
_symmetry_space_group_name_H-M   'P 1'
_cell_length_a   4.65960100
_cell_length_b   7.70683670
_cell_length_c   7.63509270
_cell_angle_alpha   89.62643713
_cell_angle_beta   90.00000000
_cell_angle_gamma   90.00000000
_symmetry_Int_Tables_number   1
_chemical_formula_structural   La4Zn5Ga3
_chemical_formula_sum   'La4 Zn5 Ga3'
_cell_volume   274.17633689
_cell_formula_units_Z   1
loop_
 _symmetry_equiv_pos_site_id
 _symmetry_equiv_pos_as_xyz
  1  'x, y, z'
loop_
 _atom_site_type_symbol
 _atom_site_label
 _atom_site_symmetry_multiplicity
 _atom_site_fract_x
 _atom_site_fract_y
 _atom_site_fract_z
 _atom_site_occupancy
  La  La0  1  0.250000  0.502263  0.792161  1
  La  La1  1  0.250000  0.006682  0.709675  1
  La  La2  1  0.750000  0.999005  0.286347  1
  La  La3  1  0.750000  0.492759  0.214159  1
  Zn  Zn4  1  0.250000  0.194093  0.086977  1
  Zn  Zn5  1  0.250000  0.809578  0.082343  1
  Zn  Zn6  1  0.250000  0.309767  0.415518  1
  Zn  Zn7  1  0.750000  0.689091  0.584188  1
  Zn  Zn8  1  0.750000  0.190815  0.917640  1
  Ga  Ga9  1  0.750000  0.304683  0.592156  1
  Ga  Ga10  1  0.250000  0.696914  0.408438  1
  Ga  Ga11  1  0.750000  0.804350  0.910399  1
