# generated using pymatgen
data_Ba4Yb4Si3As
_symmetry_space_group_name_H-M   'P 1'
_cell_length_a   5.04746800
_cell_length_b   8.52896073
_cell_length_c   9.16524200
_cell_angle_alpha   90.04582206
_cell_angle_beta   90.00000000
_cell_angle_gamma   90.00000000
_symmetry_Int_Tables_number   1
_chemical_formula_structural   Ba4Yb4Si3As
_chemical_formula_sum   'Ba4 Yb4 Si3 As1'
_cell_volume   394.56039224
_cell_formula_units_Z   1
loop_
 _symmetry_equiv_pos_site_id
 _symmetry_equiv_pos_as_xyz
  1  'x, y, z'
loop_
 _atom_site_type_symbol
 _atom_site_label
 _atom_site_symmetry_multiplicity
 _atom_site_fract_x
 _atom_site_fract_y
 _atom_site_fract_z
 _atom_site_occupancy
  Ba  Ba0  1  0.250000  0.028496  0.176111  1
  Ba  Ba1  1  0.750000  0.978209  0.824713  1
  Ba  Ba2  1  0.250000  0.520490  0.327893  1
  Ba  Ba3  1  0.750000  0.472314  0.671892  1
  Yb  Yb4  1  0.750000  0.857848  0.426703  1
  Yb  Yb5  1  0.250000  0.642374  0.922400  1
  Yb  Yb6  1  0.750000  0.357425  0.074816  1
  Yb  Yb7  1  0.250000  0.140924  0.575542  1
  Si  Si8  1  0.250000  0.285934  0.894078  1
  Si  Si9  1  0.750000  0.218099  0.390281  1
  Si  Si10  1  0.250000  0.781474  0.608896  1
  As  As11  1  0.750000  0.716414  0.106674  1
