# generated using pymatgen
data_Ho4Er8Co4TcBi
_symmetry_space_group_name_H-M   'P 1'
_cell_length_a   8.25348569
_cell_length_b   8.25348492
_cell_length_c   8.25348473
_cell_angle_alpha   110.54224835
_cell_angle_beta   111.61793719
_cell_angle_gamma   106.30117314
_symmetry_Int_Tables_number   1
_chemical_formula_structural   Ho4Er8Co4TcBi
_chemical_formula_sum   'Ho4 Er8 Co4 Tc1 Bi1'
_cell_volume   431.77594265
_cell_formula_units_Z   1
loop_
 _symmetry_equiv_pos_site_id
 _symmetry_equiv_pos_as_xyz
  1  'x, y, z'
loop_
 _atom_site_type_symbol
 _atom_site_label
 _atom_site_symmetry_multiplicity
 _atom_site_fract_x
 _atom_site_fract_y
 _atom_site_fract_z
 _atom_site_occupancy
  Ho  Ho0  1  0.282287  0.182752  0.465037  1
  Ho  Ho1  1  0.717713  0.817248  0.534963  1
  Ho  Ho2  1  0.282287  0.817248  0.099535  1
  Ho  Ho3  1  0.717713  0.182752  0.900465  1
  Er  Er4  1  0.618912  0.310265  0.308646  1
  Er  Er5  1  0.381088  0.689735  0.691354  1
  Er  Er6  1  0.001621  0.310265  0.691354  1
  Er  Er7  1  0.998379  0.689735  0.308646  1
  Er  Er8  1  0.214662  0.411638  0.196976  1
  Er  Er9  1  0.785338  0.588362  0.803024  1
  Er  Er10  1  0.214662  0.017685  0.803024  1
  Er  Er11  1  0.785338  0.982315  0.196976  1
  Co  Co12  1  0.000000  0.377614  0.377614  1
  Co  Co13  1  0.000000  0.622386  0.622386  1
  Co  Co14  1  0.388837  0.888837  0.500000  1
  Co  Co15  1  0.611163  0.111163  0.500000  1
  Tc  Tc16  1  0.000000  0.000000  0.000000  1
  Bi  Bi17  1  0.500000  0.500000  0.000000  1
