# generated using pymatgen
data_Th2Mg(CdCu6)3
_symmetry_space_group_name_H-M   'P 1'
_cell_length_a   5.12227100
_cell_length_b   5.12227228
_cell_length_c   16.01856200
_cell_angle_alpha   90.00000000
_cell_angle_beta   90.00000000
_cell_angle_gamma   119.99999819
_symmetry_Int_Tables_number   1
_chemical_formula_structural   Th2Mg(CdCu6)3
_chemical_formula_sum   'Th2 Mg1 Cd3 Cu18'
_cell_volume   363.98155650
_cell_formula_units_Z   1
loop_
 _symmetry_equiv_pos_site_id
 _symmetry_equiv_pos_as_xyz
  1  'x, y, z'
loop_
 _atom_site_type_symbol
 _atom_site_label
 _atom_site_symmetry_multiplicity
 _atom_site_fract_x
 _atom_site_fract_y
 _atom_site_fract_z
 _atom_site_occupancy
  Th  Th0  1  0.666667  0.333333  0.250676  1
  Th  Th1  1  0.333333  0.666667  0.751015  1
  Mg  Mg2  1  0.333333  0.666667  0.531016  1
  Cd  Cd3  1  0.666667  0.333333  0.467254  1
  Cd  Cd4  1  0.333333  0.666667  0.966089  1
  Cd  Cd5  1  0.666667  0.333333  0.033887  1
  Cu  Cu6  1  0.333333  0.666667  0.250275  1
  Cu  Cu7  1  0.666667  0.333333  0.749675  1
  Cu  Cu8  1  0.168121  0.831879  0.377183  1
  Cu  Cu9  1  0.168121  0.336242  0.377183  1
  Cu  Cu10  1  0.000000  0.000000  0.749633  1
  Cu  Cu11  1  0.000000  0.000000  0.250017  1
  Cu  Cu12  1  0.000000  0.000000  0.000156  1
  Cu  Cu13  1  0.000000  0.000000  0.500202  1
  Cu  Cu14  1  0.167982  0.335962  0.123490  1
  Cu  Cu15  1  0.832026  0.167974  0.622842  1
  Cu  Cu16  1  0.335946  0.167974  0.622842  1
  Cu  Cu17  1  0.664038  0.832018  0.123490  1
  Cu  Cu18  1  0.167982  0.832018  0.123490  1
  Cu  Cu19  1  0.832060  0.664120  0.876519  1
  Cu  Cu20  1  0.832060  0.167940  0.876519  1
  Cu  Cu21  1  0.832026  0.664054  0.622842  1
  Cu  Cu22  1  0.335880  0.167940  0.876519  1
  Cu  Cu23  1  0.663758  0.831879  0.377183  1
