# generated using pymatgen
data_Sc3In3Pt2Au
_symmetry_space_group_name_H-M   'P 1'
_cell_length_a   7.61260000
_cell_length_b   7.61259914
_cell_length_c   3.63972100
_cell_angle_alpha   90.00000000
_cell_angle_beta   90.00000000
_cell_angle_gamma   120.00000372
_symmetry_Int_Tables_number   1
_chemical_formula_structural   Sc3In3Pt2Au
_chemical_formula_sum   'Sc3 In3 Pt2 Au1'
_cell_volume   182.66892889
_cell_formula_units_Z   1
loop_
 _symmetry_equiv_pos_site_id
 _symmetry_equiv_pos_as_xyz
  1  'x, y, z'
loop_
 _atom_site_type_symbol
 _atom_site_label
 _atom_site_symmetry_multiplicity
 _atom_site_fract_x
 _atom_site_fract_y
 _atom_site_fract_z
 _atom_site_occupancy
  Sc  Sc0  1  0.596450  0.986058  0.000000  1
  Sc  Sc1  1  0.389608  0.403550  0.000000  1
  Sc  Sc2  1  0.013942  0.610392  0.000000  1
  In  In3  1  0.729653  0.730102  0.500000  1
  In  In4  1  0.000450  0.270347  0.500000  1
  In  In5  1  0.269898  0.999550  0.500000  1
  Pt  Pt6  1  0.000000  0.000000  0.000000  1
  Pt  Pt7  1  0.333333  0.666667  0.500000  1
  Au  Au8  1  0.666667  0.333333  0.500000  1
