# generated using pymatgen
data_Ho8SnHg3Pd8
_symmetry_space_group_name_H-M   'P 1'
_cell_length_a   7.74426700
_cell_length_b   7.74426700
_cell_length_c   7.31310700
_cell_angle_alpha   90.00000000
_cell_angle_beta   90.00000000
_cell_angle_gamma   90.00000000
_symmetry_Int_Tables_number   1
_chemical_formula_structural   Ho8SnHg3Pd8
_chemical_formula_sum   'Ho8 Sn1 Hg3 Pd8'
_cell_volume   438.59387589
_cell_formula_units_Z   1
loop_
 _symmetry_equiv_pos_site_id
 _symmetry_equiv_pos_as_xyz
  1  'x, y, z'
loop_
 _atom_site_type_symbol
 _atom_site_label
 _atom_site_symmetry_multiplicity
 _atom_site_fract_x
 _atom_site_fract_y
 _atom_site_fract_z
 _atom_site_occupancy
  Ho  Ho0  1  0.838066  0.166524  0.499803  1
  Ho  Ho1  1  0.161934  0.833476  0.499803  1
  Ho  Ho2  1  0.333476  0.338066  0.000197  1
  Ho  Ho3  1  0.666524  0.661934  0.000197  1
  Ho  Ho4  1  0.684491  0.681918  0.500490  1
  Ho  Ho5  1  0.315509  0.318082  0.500490  1
  Ho  Ho6  1  0.181918  0.815509  0.999510  1
  Ho  Ho7  1  0.818082  0.184491  0.999510  1
  Sn  Sn8  1  0.000000  0.500000  0.250000  1
  Hg  Hg9  1  0.500000  0.000000  0.250000  1
  Hg  Hg10  1  0.000000  0.500000  0.750000  1
  Hg  Hg11  1  0.500000  0.000000  0.750000  1
  Pd  Pd12  1  0.627767  0.373860  0.270875  1
  Pd  Pd13  1  0.372233  0.626140  0.270875  1
  Pd  Pd14  1  0.129259  0.125309  0.770873  1
  Pd  Pd15  1  0.870741  0.874691  0.770873  1
  Pd  Pd16  1  0.374691  0.629259  0.729127  1
  Pd  Pd17  1  0.625309  0.370741  0.729127  1
  Pd  Pd18  1  0.873860  0.872233  0.229125  1
  Pd  Pd19  1  0.126140  0.127767  0.229125  1
