# generated using pymatgen
data_Ti8Al15Co6Cu
_symmetry_space_group_name_H-M   'P 1'
_cell_length_a   8.48166193
_cell_length_b   8.43817674
_cell_length_c   8.46811427
_cell_angle_alpha   119.85407645
_cell_angle_beta   119.93432556
_cell_angle_gamma   90.07300086
_symmetry_Int_Tables_number   1
_chemical_formula_structural   Ti8Al15Co6Cu
_chemical_formula_sum   'Ti8 Al15 Co6 Cu1'
_cell_volume   429.64538752
_cell_formula_units_Z   1
loop_
 _symmetry_equiv_pos_site_id
 _symmetry_equiv_pos_as_xyz
  1  'x, y, z'
loop_
 _atom_site_type_symbol
 _atom_site_label
 _atom_site_symmetry_multiplicity
 _atom_site_fract_x
 _atom_site_fract_y
 _atom_site_fract_z
 _atom_site_occupancy
  Ti  Ti0  1  0.789337  0.288550  0.074086  1
  Ti  Ti1  1  0.215587  0.286892  0.497477  1
  Ti  Ti2  1  0.212514  0.711411  0.500612  1
  Ti  Ti3  1  0.213005  0.716557  0.924145  1
  Ti  Ti4  1  0.788984  0.716204  0.502587  1
  Ti  Ti5  1  0.782646  0.283666  0.499544  1
  Ti  Ti6  1  0.390081  0.125491  0.749221  1
  Ti  Ti7  1  0.380906  0.638438  0.260334  1
  Al  Al8  1  0.997477  0.496604  0.499215  1
  Al  Al9  1  0.156957  0.342113  0.186264  1
  Al  Al10  1  0.160679  0.975059  0.820993  1
  Al  Al11  1  0.157261  0.348180  0.815756  1
  Al  Al12  1  0.532105  0.343278  0.190169  1
  Al  Al13  1  0.842005  0.655774  0.813608  1
  Al  Al14  1  0.839323  0.028821  0.179221  1
  Al  Al15  1  0.838757  0.651011  0.178318  1
  Al  Al16  1  0.472307  0.656159  0.814510  1
  Al  Al17  1  0.379823  0.121222  0.260587  1
  Al  Al18  1  0.858759  0.124460  0.748815  1
  Al  Al19  1  0.612089  0.875542  0.251712  1
  Al  Al20  1  0.619377  0.361911  0.739709  1
  Al  Al21  1  0.619907  0.877028  0.739817  1
  Al  Al22  1  0.140174  0.876850  0.252762  1
  Co  Co23  1  0.498478  0.999943  0.997355  1
  Co  Co24  1  0.498277  0.497872  0.001431  1
  Co  Co25  1  0.497499  0.501155  0.497283  1
  Co  Co26  1  0.004532  0.501108  0.003932  1
  Co  Co27  1  0.000345  0.000000  0.999071  1
  Co  Co28  1  0.498886  0.998259  0.501251  1
  Cu  Cu29  1  0.001916  0.000437  0.500214  1
