# generated using pymatgen
data_Y3MgCd2Ag2Ir
_symmetry_space_group_name_H-M   'P 1'
_cell_length_a   7.94176248
_cell_length_b   7.86251741
_cell_length_c   3.82515400
_cell_angle_alpha   90.00000000
_cell_angle_beta   90.00000000
_cell_angle_gamma   120.03747958
_symmetry_Int_Tables_number   1
_chemical_formula_structural   Y3MgCd2Ag2Ir
_chemical_formula_sum   'Y3 Mg1 Cd2 Ag2 Ir1'
_cell_volume   206.77304650
_cell_formula_units_Z   1
loop_
 _symmetry_equiv_pos_site_id
 _symmetry_equiv_pos_as_xyz
  1  'x, y, z'
loop_
 _atom_site_type_symbol
 _atom_site_label
 _atom_site_symmetry_multiplicity
 _atom_site_fract_x
 _atom_site_fract_y
 _atom_site_fract_z
 _atom_site_occupancy
  Y  Y0  1  0.435117  0.392886  0.500000  1
  Y  Y1  1  0.967860  0.584041  0.500000  1
  Y  Y2  1  0.600530  0.024786  0.500000  1
  Mg  Mg3  1  0.999946  0.261529  0.000000  1
  Cd  Cd4  1  0.732163  0.741887  0.000000  1
  Cd  Cd5  1  0.261302  0.996908  0.000000  1
  Ag  Ag6  1  0.325321  0.657316  0.000000  1
  Ag  Ag7  1  0.001451  0.009464  0.500000  1
  Ir  Ir8  1  0.676309  0.331183  0.000000  1
