# generated using pymatgen
data_TmUGa10Tc3
_symmetry_space_group_name_H-M   'P 1'
_cell_length_a   8.99412000
_cell_length_b   9.01746400
_cell_length_c   6.38617100
_cell_angle_alpha   90.00000000
_cell_angle_beta   90.00000000
_cell_angle_gamma   90.00000000
_symmetry_Int_Tables_number   1
_chemical_formula_structural   TmUGa10Tc3
_chemical_formula_sum   'Tm2 U2 Ga20 Tc6'
_cell_volume   517.94499186
_cell_formula_units_Z   2
loop_
 _symmetry_equiv_pos_site_id
 _symmetry_equiv_pos_as_xyz
  1  'x, y, z'
loop_
 _atom_site_type_symbol
 _atom_site_label
 _atom_site_symmetry_multiplicity
 _atom_site_fract_x
 _atom_site_fract_y
 _atom_site_fract_z
 _atom_site_occupancy
  Tm  Tm0  1  0.816017  0.682974  0.000000  1
  Tm  Tm1  1  0.316017  0.817026  0.000000  1
  U  U2  1  0.186617  0.313348  0.000000  1
  U  U3  1  0.686617  0.186652  0.000000  1
  Ga  Ga4  1  0.500286  0.997820  0.284358  1
  Ga  Ga5  1  0.500286  0.997820  0.715642  1
  Ga  Ga6  1  0.292948  0.560845  0.707121  1
  Ga  Ga7  1  0.000286  0.502180  0.284358  1
  Ga  Ga8  1  0.000286  0.502180  0.715642  1
  Ga  Ga9  1  0.058832  0.796073  0.709034  1
  Ga  Ga10  1  0.207035  0.057795  0.294833  1
  Ga  Ga11  1  0.058832  0.796073  0.290966  1
  Ga  Ga12  1  0.707035  0.442205  0.705167  1
  Ga  Ga13  1  0.207035  0.057795  0.705167  1
  Ga  Ga14  1  0.940606  0.210743  0.703323  1
  Ga  Ga15  1  0.707035  0.442205  0.294833  1
  Ga  Ga16  1  0.558832  0.703927  0.290966  1
  Ga  Ga17  1  0.940606  0.210743  0.296677  1
  Ga  Ga18  1  0.558832  0.703927  0.709034  1
  Ga  Ga19  1  0.792948  0.939155  0.292879  1
  Ga  Ga20  1  0.440606  0.289257  0.703323  1
  Ga  Ga21  1  0.792948  0.939155  0.707121  1
  Ga  Ga22  1  0.440606  0.289257  0.296677  1
  Ga  Ga23  1  0.292948  0.560845  0.292879  1
  Tc  Tc24  1  0.179960  0.320572  0.500000  1
  Tc  Tc25  1  0.321010  0.820639  0.500000  1
  Tc  Tc26  1  0.821010  0.679361  0.500000  1
  Tc  Tc27  1  0.996983  0.010228  0.000000  1
  Tc  Tc28  1  0.679960  0.179428  0.500000  1
  Tc  Tc29  1  0.496983  0.489772  0.000000  1
