# generated using pymatgen
data_Ho2Tm2(Al8Pd3)3
_symmetry_space_group_name_H-M   'P 1'
_cell_length_a   7.53861705
_cell_length_b   7.56760115
_cell_length_c   13.18281100
_cell_angle_alpha   84.58982587
_cell_angle_beta   79.12850585
_cell_angle_gamma   60.01878440
_symmetry_Int_Tables_number   1
_chemical_formula_structural   Ho2Tm2(Al8Pd3)3
_chemical_formula_sum   'Ho2 Tm2 Al24 Pd9'
_cell_volume   639.74297909
_cell_formula_units_Z   1
loop_
 _symmetry_equiv_pos_site_id
 _symmetry_equiv_pos_as_xyz
  1  'x, y, z'
loop_
 _atom_site_type_symbol
 _atom_site_label
 _atom_site_symmetry_multiplicity
 _atom_site_fract_x
 _atom_site_fract_y
 _atom_site_fract_z
 _atom_site_occupancy
  Ho  Ho0  1  0.733586  0.498193  0.808535  1
  Ho  Ho1  1  0.266414  0.501807  0.191465  1
  Tm  Tm2  1  0.393409  0.168850  0.808289  1
  Tm  Tm3  1  0.606591  0.831150  0.191711  1
  Al  Al4  1  0.684148  0.834036  0.944622  1
  Al  Al5  1  0.315852  0.165964  0.055378  1
  Al  Al6  1  0.146039  0.833118  0.561536  1
  Al  Al7  1  0.853961  0.166882  0.438464  1
  Al  Al8  1  0.478990  0.166736  0.559198  1
  Al  Al9  1  0.521010  0.833264  0.440802  1
  Al  Al10  1  0.217197  0.165064  0.329522  1
  Al  Al11  1  0.782803  0.834936  0.670478  1
  Al  Al12  1  0.436806  0.506624  0.670524  1
  Al  Al13  1  0.563194  0.493376  0.329476  1
  Al  Al14  1  0.109263  0.159650  0.669529  1
  Al  Al15  1  0.890737  0.840350  0.330471  1
  Al  Al16  1  0.352763  0.499328  0.944707  1
  Al  Al17  1  0.647237  0.500672  0.055293  1
  Al  Al18  1  0.015802  0.167453  0.953835  1
  Al  Al19  1  0.984198  0.832547  0.046165  1
  Al  Al20  1  0.187104  0.499258  0.440812  1
  Al  Al21  1  0.812896  0.500742  0.559188  1
  Al  Al22  1  0.733274  0.163755  0.183718  1
  Al  Al23  1  0.266726  0.836245  0.816282  1
  Al  Al24  1  0.061800  0.630330  0.815124  1
  Al  Al25  1  0.938200  0.369670  0.184876  1
  Al  Al26  1  0.854858  0.041940  0.816001  1
  Al  Al27  1  0.145142  0.958060  0.183999  1
  Pd  Pd28  1  0.120006  0.491648  0.638710  1
  Pd  Pd29  1  0.879994  0.508352  0.361290  1
  Pd  Pd30  1  0.656778  0.171327  0.999881  1
  Pd  Pd31  1  0.343222  0.828673  0.000119  1
  Pd  Pd32  1  0.538059  0.166063  0.361302  1
  Pd  Pd33  1  0.461941  0.833937  0.638698  1
  Pd  Pd34  1  0.777318  0.175244  0.637865  1
  Pd  Pd35  1  0.222682  0.824756  0.362135  1
  Pd  Pd36  1  0.000000  0.500000  0.000000  1
