# generated using pymatgen
data_YPu(AsPt)2
_symmetry_space_group_name_H-M   'P 1'
_cell_length_a   4.30631800
_cell_length_b   4.30631905
_cell_length_c   15.51725000
_cell_angle_alpha   90.00000000
_cell_angle_beta   90.00000000
_cell_angle_gamma   119.99999192
_symmetry_Int_Tables_number   1
_chemical_formula_structural   YPu(AsPt)2
_chemical_formula_sum   'Y2 Pu2 As4 Pt4'
_cell_volume   249.20555831
_cell_formula_units_Z   2
loop_
 _symmetry_equiv_pos_site_id
 _symmetry_equiv_pos_as_xyz
  1  'x, y, z'
loop_
 _atom_site_type_symbol
 _atom_site_label
 _atom_site_symmetry_multiplicity
 _atom_site_fract_x
 _atom_site_fract_y
 _atom_site_fract_z
 _atom_site_occupancy
  Y  Y0  1  0.000000  0.000000  0.250000  1
  Y  Y1  1  0.000000  0.000000  0.750000  1
  Pu  Pu2  1  0.000000  0.000000  0.000000  1
  Pu  Pu3  1  0.000000  0.000000  0.500000  1
  As  As4  1  0.333333  0.666667  0.885147  1
  As  As5  1  0.666667  0.333333  0.385147  1
  As  As6  1  0.666667  0.333333  0.114853  1
  As  As7  1  0.333333  0.666667  0.614853  1
  Pt  Pt8  1  0.333333  0.666667  0.361569  1
  Pt  Pt9  1  0.666667  0.333333  0.861569  1
  Pt  Pt10  1  0.666667  0.333333  0.638431  1
  Pt  Pt11  1  0.333333  0.666667  0.138431  1
