# generated using pymatgen
data_ErTm15In4(RuRh)2
_symmetry_space_group_name_H-M   'P 1'
_cell_length_a   9.52127030
_cell_length_b   9.52127000
_cell_length_c   9.53848400
_cell_angle_alpha   59.94016843
_cell_angle_beta   59.94016948
_cell_angle_gamma   59.86090006
_symmetry_Int_Tables_number   1
_chemical_formula_structural   ErTm15In4(RuRh)2
_chemical_formula_sum   'Er1 Tm15 In4 Ru2 Rh2'
_cell_volume   610.24324669
_cell_formula_units_Z   1
loop_
 _symmetry_equiv_pos_site_id
 _symmetry_equiv_pos_as_xyz
  1  'x, y, z'
loop_
 _atom_site_type_symbol
 _atom_site_label
 _atom_site_symmetry_multiplicity
 _atom_site_fract_x
 _atom_site_fract_y
 _atom_site_fract_z
 _atom_site_occupancy
  Er  Er0  1  0.058552  0.058552  0.441448  1
  Tm  Tm1  1  0.442847  0.060737  0.437403  1
  Tm  Tm2  1  0.060737  0.442847  0.059013  1
  Tm  Tm3  1  0.044587  0.651932  0.651741  1
  Tm  Tm4  1  0.438253  0.438253  0.061747  1
  Tm  Tm5  1  0.651932  0.044587  0.651741  1
  Tm  Tm6  1  0.190125  0.809282  0.192613  1
  Tm  Tm7  1  0.191800  0.191800  0.808200  1
  Tm  Tm8  1  0.808959  0.808959  0.191041  1
  Tm  Tm9  1  0.442847  0.060737  0.059013  1
  Tm  Tm10  1  0.809282  0.190125  0.192613  1
  Tm  Tm11  1  0.060737  0.442847  0.437403  1
  Tm  Tm12  1  0.809282  0.190125  0.807980  1
  Tm  Tm13  1  0.190125  0.809282  0.807980  1
  Tm  Tm14  1  0.651115  0.651115  0.047752  1
  Tm  Tm15  1  0.651115  0.651115  0.650020  1
  In  In16  1  0.417086  0.417086  0.418193  1
  In  In17  1  0.749436  0.416753  0.416905  1
  In  In18  1  0.416753  0.749436  0.416905  1
  In  In19  1  0.417086  0.417086  0.747635  1
  Ru  Ru20  1  0.858418  0.858418  0.421673  1
  Ru  Ru21  1  0.858418  0.858418  0.861490  1
  Rh  Rh22  1  0.422715  0.857797  0.859744  1
  Rh  Rh23  1  0.857797  0.422715  0.859744  1
