# generated using pymatgen
data_YCdCu3Pd
_symmetry_space_group_name_H-M   'P 1'
_cell_length_a   5.15981040
_cell_length_b   5.19544744
_cell_length_c   5.15981100
_cell_angle_alpha   60.22664755
_cell_angle_beta   60.00000256
_cell_angle_gamma   60.22663571
_symmetry_Int_Tables_number   1
_chemical_formula_structural   YCdCu3Pd
_chemical_formula_sum   'Y1 Cd1 Cu3 Pd1'
_cell_volume   98.14197589
_cell_formula_units_Z   1
loop_
 _symmetry_equiv_pos_site_id
 _symmetry_equiv_pos_as_xyz
  1  'x, y, z'
loop_
 _atom_site_type_symbol
 _atom_site_label
 _atom_site_symmetry_multiplicity
 _atom_site_fract_x
 _atom_site_fract_y
 _atom_site_fract_z
 _atom_site_occupancy
  Y  Y0  1  0.749525  0.751427  0.749525  1
  Cd  Cd1  1  0.998565  0.004307  0.998565  1
  Cu  Cu2  1  0.374821  0.372933  0.374821  1
  Cu  Cu3  1  0.877427  0.372933  0.374821  1
  Cu  Cu4  1  0.374821  0.372933  0.877427  1
  Pd  Pd5  1  0.374844  0.875468  0.374844  1
