# generated using pymatgen
data_La8Lu12Si15Os
_symmetry_space_group_name_H-M   'P 1'
_cell_length_a   7.43514752
_cell_length_b   14.64471900
_cell_length_c   7.74497500
_cell_angle_alpha   90.00074727
_cell_angle_beta   90.29645390
_cell_angle_gamma   89.99951100
_symmetry_Int_Tables_number   1
_chemical_formula_structural   La8Lu12Si15Os
_chemical_formula_sum   'La8 Lu12 Si15 Os1'
_cell_volume   843.30531947
_cell_formula_units_Z   1
loop_
 _symmetry_equiv_pos_site_id
 _symmetry_equiv_pos_as_xyz
  1  'x, y, z'
loop_
 _atom_site_type_symbol
 _atom_site_label
 _atom_site_symmetry_multiplicity
 _atom_site_fract_x
 _atom_site_fract_y
 _atom_site_fract_z
 _atom_site_occupancy
  La  La0  1  0.011885  0.598625  0.174585  1
  La  La1  1  0.011943  0.901467  0.174574  1
  La  La2  1  0.527616  0.602340  0.317146  1
  La  La3  1  0.527852  0.897655  0.317170  1
  La  La4  1  0.483962  0.097105  0.670705  1
  La  La5  1  0.483947  0.402902  0.670567  1
  La  La6  1  0.983130  0.098779  0.827455  1
  La  La7  1  0.983224  0.401233  0.827390  1
  Lu  Lu8  1  0.653988  0.249989  0.993400  1
  Lu  Lu9  1  0.355477  0.749998  0.011016  1
  Lu  Lu10  1  0.320585  0.122972  0.176916  1
  Lu  Lu11  1  0.320560  0.377014  0.176910  1
  Lu  Lu12  1  0.822307  0.124968  0.324680  1
  Lu  Lu13  1  0.822266  0.375016  0.324632  1
  Lu  Lu14  1  0.841641  0.749990  0.490720  1
  Lu  Lu15  1  0.156436  0.250000  0.503588  1
  Lu  Lu16  1  0.174838  0.622373  0.676841  1
  Lu  Lu17  1  0.174891  0.877650  0.676835  1
  Lu  Lu18  1  0.676951  0.626488  0.828693  1
  Lu  Lu19  1  0.677016  0.873465  0.828801  1
  Si  Si20  1  0.645088  0.040750  0.032329  1
  Si  Si21  1  0.645040  0.459225  0.032249  1
  Si  Si22  1  0.026885  0.249998  0.120877  1
  Si  Si23  1  0.526585  0.249995  0.375759  1
  Si  Si24  1  0.224251  0.750011  0.390807  1
  Si  Si25  1  0.144582  0.041314  0.469489  1
  Si  Si26  1  0.144547  0.458682  0.469450  1
  Si  Si27  1  0.850968  0.537780  0.536219  1
  Si  Si28  1  0.851000  0.962223  0.536284  1
  Si  Si29  1  0.779421  0.250014  0.620986  1
  Si  Si30  1  0.464746  0.750019  0.619192  1
  Si  Si31  1  0.974516  0.749988  0.882000  1
  Si  Si32  1  0.280985  0.250004  0.878206  1
  Si  Si33  1  0.350542  0.537762  0.962117  1
  Si  Si34  1  0.350659  0.962216  0.962174  1
  Os  Os35  1  0.729677  0.749988  0.119236  1
