# generated using pymatgen
data_La20Ge8IrOs3
_symmetry_space_group_name_H-M   'P 1'
_cell_length_a   8.17624518
_cell_length_b   9.03190000
_cell_length_c   12.58658900
_cell_angle_alpha   90.00000000
_cell_angle_beta   89.83925267
_cell_angle_gamma   90.00000000
_symmetry_Int_Tables_number   1
_chemical_formula_structural   La20Ge8IrOs3
_chemical_formula_sum   'La20 Ge8 Ir1 Os3'
_cell_volume   929.47854265
_cell_formula_units_Z   1
loop_
 _symmetry_equiv_pos_site_id
 _symmetry_equiv_pos_as_xyz
  1  'x, y, z'
loop_
 _atom_site_type_symbol
 _atom_site_label
 _atom_site_symmetry_multiplicity
 _atom_site_fract_x
 _atom_site_fract_y
 _atom_site_fract_z
 _atom_site_occupancy
  La  La0  1  0.678403  0.467471  0.072593  1
  La  La1  1  0.178950  0.532138  0.426069  1
  La  La2  1  0.322121  0.966894  0.927372  1
  La  La3  1  0.819938  0.034587  0.573575  1
  La  La4  1  0.322121  0.533106  0.927372  1
  La  La5  1  0.819938  0.465413  0.573575  1
  La  La6  1  0.678403  0.032529  0.072593  1
  La  La7  1  0.178950  0.967862  0.426069  1
  La  La8  1  0.953990  0.750000  0.999432  1
  La  La9  1  0.454600  0.250000  0.500271  1
  La  La10  1  0.046044  0.250000  0.999821  1
  La  La11  1  0.544469  0.750000  0.500462  1
  La  La12  1  0.356914  0.750000  0.202418  1
  La  La13  1  0.857915  0.250000  0.297852  1
  La  La14  1  0.641584  0.250000  0.798001  1
  La  La15  1  0.146159  0.750000  0.704335  1
  La  La16  1  0.831541  0.750000  0.283722  1
  La  La17  1  0.332392  0.250000  0.213680  1
  La  La18  1  0.166845  0.250000  0.713873  1
  La  La19  1  0.666752  0.750000  0.786908  1
  Ge  Ge20  1  0.561483  0.495271  0.329351  1
  Ge  Ge21  1  0.061126  0.505183  0.171122  1
  Ge  Ge22  1  0.438628  0.994709  0.670983  1
  Ge  Ge23  1  0.938765  0.004883  0.828585  1
  Ge  Ge24  1  0.438628  0.505291  0.670983  1
  Ge  Ge25  1  0.938765  0.495117  0.828585  1
  Ge  Ge26  1  0.561483  0.004729  0.329351  1
  Ge  Ge27  1  0.061126  0.994817  0.171122  1
  Ir  Ir28  1  0.921384  0.750000  0.517120  1
  Os  Os29  1  0.581570  0.750000  0.017534  1
  Os  Os30  1  0.079974  0.250000  0.482773  1
  Os  Os31  1  0.419038  0.250000  0.982500  1
