# generated using pymatgen
data_K14UPaAs8
_symmetry_space_group_name_H-M   'P 1'
_cell_length_a   8.45601900
_cell_length_b   9.54312813
_cell_length_c   10.52651800
_cell_angle_alpha   90.00000000
_cell_angle_beta   90.00000000
_cell_angle_gamma   89.94427802
_symmetry_Int_Tables_number   1
_chemical_formula_structural   K14UPaAs8
_chemical_formula_sum   'K14 U1 Pa1 As8'
_cell_volume   849.45668204
_cell_formula_units_Z   1
loop_
 _symmetry_equiv_pos_site_id
 _symmetry_equiv_pos_as_xyz
  1  'x, y, z'
loop_
 _atom_site_type_symbol
 _atom_site_label
 _atom_site_symmetry_multiplicity
 _atom_site_fract_x
 _atom_site_fract_y
 _atom_site_fract_z
 _atom_site_occupancy
  K  K0  1  0.706324  0.833847  0.720407  1
  K  K1  1  0.205996  0.166054  0.779842  1
  K  K2  1  0.205996  0.166054  0.220158  1
  K  K3  1  0.706324  0.833847  0.279593  1
  K  K4  1  0.876223  0.455035  0.709190  1
  K  K5  1  0.375797  0.545527  0.791584  1
  K  K6  1  0.375797  0.545527  0.208416  1
  K  K7  1  0.876223  0.455035  0.290810  1
  K  K8  1  0.149470  0.664335  0.500000  1
  K  K9  1  0.649716  0.335671  0.000000  1
  K  K10  1  0.874526  0.041671  0.000000  1
  K  K11  1  0.374515  0.957868  0.500000  1
  K  K12  1  0.399426  0.914160  0.000000  1
  K  K13  1  0.899455  0.085156  0.500000  1
  U  U14  1  0.004229  0.673795  0.000000  1
  Pa  Pa15  1  0.503922  0.326541  0.500000  1
  As  As16  1  0.683348  0.675638  0.000000  1
  As  As17  1  0.180700  0.324184  0.500000  1
  As  As18  1  0.099388  0.819070  0.787249  1
  As  As19  1  0.600049  0.179976  0.714223  1
  As  As20  1  0.600049  0.179976  0.285777  1
  As  As21  1  0.099388  0.819070  0.212751  1
  As  As22  1  0.579640  0.606038  0.500000  1
  As  As23  1  0.078725  0.395924  0.000000  1
