# generated using pymatgen
data_Er3Si2Ni
_symmetry_space_group_name_H-M   'P 1'
_cell_length_a   11.19215800
_cell_length_b   4.10067400
_cell_length_c   11.20178000
_cell_angle_alpha   90.00000000
_cell_angle_beta   90.00040937
_cell_angle_gamma   90.00000000
_symmetry_Int_Tables_number   1
_chemical_formula_structural   Er3Si2Ni
_chemical_formula_sum   'Er12 Si8 Ni4'
_cell_volume   514.11007651
_cell_formula_units_Z   4
loop_
 _symmetry_equiv_pos_site_id
 _symmetry_equiv_pos_as_xyz
  1  'x, y, z'
loop_
 _atom_site_type_symbol
 _atom_site_label
 _atom_site_symmetry_multiplicity
 _atom_site_fract_x
 _atom_site_fract_y
 _atom_site_fract_z
 _atom_site_occupancy
  Er  Er0  1  0.883094  0.249999  0.059984  1
  Er  Er1  1  0.558906  0.249999  0.123808  1
  Er  Er2  1  0.286547  0.750000  0.196530  1
  Er  Er3  1  0.786565  0.750000  0.303420  1
  Er  Er4  1  0.058883  0.249999  0.376207  1
  Er  Er5  1  0.383110  0.249999  0.440004  1
  Er  Er6  1  0.616889  0.750000  0.559997  1
  Er  Er7  1  0.941116  0.750000  0.623793  1
  Er  Er8  1  0.213435  0.249999  0.696580  1
  Er  Er9  1  0.713453  0.249999  0.803471  1
  Er  Er10  1  0.441095  0.750000  0.876193  1
  Er  Er11  1  0.116906  0.750000  0.940016  1
  Si  Si12  1  0.303254  0.249999  0.005529  1
  Si  Si13  1  0.025501  0.750000  0.187299  1
  Si  Si14  1  0.525506  0.750000  0.312701  1
  Si  Si15  1  0.803252  0.249999  0.494468  1
  Si  Si16  1  0.196748  0.750000  0.505532  1
  Si  Si17  1  0.474494  0.249999  0.687299  1
  Si  Si18  1  0.974499  0.249999  0.812701  1
  Si  Si19  1  0.696747  0.750000  0.994471  1
  Ni  Ni20  1  0.130663  0.249999  0.135217  1
  Ni  Ni21  1  0.630685  0.249999  0.364768  1
  Ni  Ni22  1  0.369315  0.750000  0.635232  1
  Ni  Ni23  1  0.869338  0.750000  0.864784  1
