# generated using pymatgen
data_SmBeRe2C
_symmetry_space_group_name_H-M   'P 1'
_cell_length_a   5.63771739
_cell_length_b   5.63771688
_cell_length_c   7.34902000
_cell_angle_alpha   90.00000000
_cell_angle_beta   90.00000000
_cell_angle_gamma   139.86112938
_symmetry_Int_Tables_number   1
_chemical_formula_structural   SmBeRe2C
_chemical_formula_sum   'Sm2 Be2 Re4 C2'
_cell_volume   150.57569397
_cell_formula_units_Z   2
loop_
 _symmetry_equiv_pos_site_id
 _symmetry_equiv_pos_as_xyz
  1  'x, y, z'
loop_
 _atom_site_type_symbol
 _atom_site_label
 _atom_site_symmetry_multiplicity
 _atom_site_fract_x
 _atom_site_fract_y
 _atom_site_fract_z
 _atom_site_occupancy
  Sm  Sm0  1  0.534477  0.465523  0.250000  1
  Sm  Sm1  1  0.465523  0.534477  0.750000  1
  Be  Be2  1  0.257629  0.742371  0.250000  1
  Be  Be3  1  0.742371  0.257629  0.750000  1
  Re  Re4  1  0.818597  0.181403  0.062685  1
  Re  Re5  1  0.181403  0.818597  0.937315  1
  Re  Re6  1  0.181403  0.818597  0.562685  1
  Re  Re7  1  0.818597  0.181403  0.437315  1
  C  C8  1  0.000000  0.000000  0.000000  1
  C  C9  1  0.000000  0.000000  0.500000  1
