# generated using pymatgen
data_Ho2Ni9Sn
_symmetry_space_group_name_H-M   'P 1'
_cell_length_a   8.52338614
_cell_length_b   8.52338617
_cell_length_c   8.52338617
_cell_angle_alpha   33.35034993
_cell_angle_beta   33.35034630
_cell_angle_gamma   33.35035313
_symmetry_Int_Tables_number   1
_chemical_formula_structural   Ho2Ni9Sn
_chemical_formula_sum   'Ho2 Ni9 Sn1'
_cell_volume   166.63787116
_cell_formula_units_Z   1
loop_
 _symmetry_equiv_pos_site_id
 _symmetry_equiv_pos_as_xyz
  1  'x, y, z'
loop_
 _atom_site_type_symbol
 _atom_site_label
 _atom_site_symmetry_multiplicity
 _atom_site_fract_x
 _atom_site_fract_y
 _atom_site_fract_z
 _atom_site_occupancy
  Ho  Ho0  1  0.141643  0.141643  0.141643  1
  Ho  Ho1  1  0.995743  0.995743  0.995743  1
  Ni  Ni2  1  0.416529  0.416529  0.918351  1
  Ni  Ni3  1  0.918351  0.416529  0.416529  1
  Ni  Ni4  1  0.416529  0.918351  0.416529  1
  Ni  Ni5  1  0.499715  0.499715  0.499715  1
  Ni  Ni6  1  0.333880  0.333880  0.333880  1
  Ni  Ni7  1  0.667431  0.667431  0.667431  1
  Ni  Ni8  1  0.080500  0.583570  0.583570  1
  Ni  Ni9  1  0.583570  0.583570  0.080500  1
  Ni  Ni10  1  0.583570  0.080500  0.583570  1
  Sn  Sn11  1  0.862539  0.862539  0.862539  1
