# generated using pymatgen
data_CdBiPt3Rh(PbO7)2
_symmetry_space_group_name_H-M   'P 1'
_cell_length_a   7.35876788
_cell_length_b   7.35876862
_cell_length_c   7.25232500
_cell_angle_alpha   59.00468719
_cell_angle_beta   59.00468371
_cell_angle_gamma   59.53559944
_symmetry_Int_Tables_number   1
_chemical_formula_structural   CdBiPt3Rh(PbO7)2
_chemical_formula_sum   'Cd1 Bi1 Pt3 Rh1 Pb2 O14'
_cell_volume   272.50360024
_cell_formula_units_Z   1
loop_
 _symmetry_equiv_pos_site_id
 _symmetry_equiv_pos_as_xyz
  1  'x, y, z'
loop_
 _atom_site_type_symbol
 _atom_site_label
 _atom_site_symmetry_multiplicity
 _atom_site_fract_x
 _atom_site_fract_y
 _atom_site_fract_z
 _atom_site_occupancy
  Cd  Cd0  1  0.125000  0.125000  0.625000  1
  Bi  Bi1  1  0.125000  0.125000  0.125000  1
  Pt  Pt2  1  0.625000  0.625000  0.625000  1
  Pt  Pt3  1  0.125000  0.625000  0.625000  1
  Pt  Pt4  1  0.625000  0.125000  0.625000  1
  Rh  Rh5  1  0.625000  0.625000  0.125000  1
  Pb  Pb6  1  0.125000  0.625000  0.125000  1
  Pb  Pb7  1  0.625000  0.125000  0.125000  1
  O  O8  1  0.254627  0.254627  0.246674  1
  O  O9  1  0.290182  0.708874  0.286067  1
  O  O10  1  0.960434  0.960434  0.543488  1
  O  O11  1  0.541840  0.958778  0.541536  1
  O  O12  1  0.708960  0.708960  0.288748  1
  O  O13  1  0.958778  0.541840  0.541536  1
  O  O14  1  0.708160  0.291222  0.708464  1
  O  O15  1  0.289566  0.289566  0.706512  1
  O  O16  1  0.708874  0.290182  0.286067  1
  O  O17  1  0.291222  0.708160  0.708464  1
  O  O18  1  0.959818  0.541126  0.963933  1
  O  O19  1  0.541040  0.541040  0.961252  1
  O  O20  1  0.995373  0.995373  0.003326  1
  O  O21  1  0.541126  0.959818  0.963933  1
