# generated using pymatgen
data_LiDy3ZnIn3Pt
_symmetry_space_group_name_H-M   'P 1'
_cell_length_a   7.81434700
_cell_length_b   7.81434637
_cell_length_c   3.79180800
_cell_angle_alpha   90.00000000
_cell_angle_beta   90.00000000
_cell_angle_gamma   120.00000690
_symmetry_Int_Tables_number   1
_chemical_formula_structural   LiDy3ZnIn3Pt
_chemical_formula_sum   'Li1 Dy3 Zn1 In3 Pt1'
_cell_volume   200.52212105
_cell_formula_units_Z   1
loop_
 _symmetry_equiv_pos_site_id
 _symmetry_equiv_pos_as_xyz
  1  'x, y, z'
loop_
 _atom_site_type_symbol
 _atom_site_label
 _atom_site_symmetry_multiplicity
 _atom_site_fract_x
 _atom_site_fract_y
 _atom_site_fract_z
 _atom_site_occupancy
  Li  Li0  1  0.000000  0.000000  0.500000  1
  Dy  Dy1  1  0.599741  0.017377  0.500000  1
  Dy  Dy2  1  0.417638  0.400259  0.500000  1
  Dy  Dy3  1  0.982623  0.582362  0.500000  1
  Zn  Zn4  1  0.333333  0.666667  0.000000  1
  In  In5  1  0.739719  0.747649  0.000000  1
  In  In6  1  0.007930  0.260281  0.000000  1
  In  In7  1  0.252351  0.992070  0.000000  1
  Pt  Pt8  1  0.666667  0.333333  0.000000  1
