# generated using pymatgen
data_Yb2GdDyB16
_symmetry_space_group_name_H-M   'P 1'
_cell_length_a   7.12155000
_cell_length_b   7.12656481
_cell_length_c   4.04226500
_cell_angle_alpha   90.00000000
_cell_angle_beta   90.00000000
_cell_angle_gamma   89.86471492
_symmetry_Int_Tables_number   1
_chemical_formula_structural   Yb2GdDyB16
_chemical_formula_sum   'Yb2 Gd1 Dy1 B16'
_cell_volume   205.15321993
_cell_formula_units_Z   1
loop_
 _symmetry_equiv_pos_site_id
 _symmetry_equiv_pos_as_xyz
  1  'x, y, z'
loop_
 _atom_site_type_symbol
 _atom_site_label
 _atom_site_symmetry_multiplicity
 _atom_site_fract_x
 _atom_site_fract_y
 _atom_site_fract_z
 _atom_site_occupancy
  Yb  Yb0  1  0.183700  0.683619  0.000000  1
  Yb  Yb1  1  0.683335  0.816580  0.000000  1
  Gd  Gd2  1  0.316447  0.183956  0.000000  1
  Dy  Dy3  1  0.817173  0.316519  0.000000  1
  B  B4  1  0.325059  0.462406  0.500000  1
  B  B5  1  0.676674  0.537561  0.500000  1
  B  B6  1  0.538340  0.324673  0.500000  1
  B  B7  1  0.462324  0.676066  0.500000  1
  B  B8  1  0.998912  0.997645  0.203465  1
  B  B9  1  0.500136  0.502322  0.796526  1
  B  B10  1  0.998912  0.997645  0.796535  1
  B  B11  1  0.500136  0.502322  0.203474  1
  B  B12  1  0.586297  0.086624  0.500000  1
  B  B13  1  0.086601  0.412897  0.500000  1
  B  B14  1  0.913777  0.585864  0.500000  1
  B  B15  1  0.413730  0.914009  0.500000  1
  B  B16  1  0.037018  0.175301  0.500000  1
  B  B17  1  0.175687  0.962108  0.500000  1
  B  B18  1  0.824031  0.037908  0.500000  1
  B  B19  1  0.961710  0.823973  0.500000  1
