# generated using pymatgen
data_SmNpTcB6
_symmetry_space_group_name_H-M   'P 1'
_cell_length_a   3.66375800
_cell_length_b   9.31268300
_cell_length_c   11.39616500
_cell_angle_alpha   90.00000000
_cell_angle_beta   90.00000000
_cell_angle_gamma   90.00000000
_symmetry_Int_Tables_number   1
_chemical_formula_structural   SmNpTcB6
_chemical_formula_sum   'Sm4 Np4 Tc4 B24'
_cell_volume   388.83050404
_cell_formula_units_Z   4
loop_
 _symmetry_equiv_pos_site_id
 _symmetry_equiv_pos_as_xyz
  1  'x, y, z'
loop_
 _atom_site_type_symbol
 _atom_site_label
 _atom_site_symmetry_multiplicity
 _atom_site_fract_x
 _atom_site_fract_y
 _atom_site_fract_z
 _atom_site_occupancy
  Sm  Sm0  1  0.000000  0.337941  0.406982  1
  Sm  Sm1  1  0.000000  0.662059  0.593018  1
  Sm  Sm2  1  0.000000  0.837941  0.093018  1
  Sm  Sm3  1  0.000000  0.162059  0.906982  1
  Np  Np4  1  0.000000  0.959481  0.401058  1
  Np  Np5  1  0.000000  0.040519  0.598942  1
  Np  Np6  1  0.000000  0.459481  0.098942  1
  Np  Np7  1  0.000000  0.540519  0.901058  1
  Tc  Tc8  1  0.000000  0.647750  0.317717  1
  Tc  Tc9  1  0.000000  0.352250  0.682283  1
  Tc  Tc10  1  0.000000  0.147750  0.182283  1
  Tc  Tc11  1  0.000000  0.852250  0.817717  1
  B  B12  1  0.500000  0.554429  0.429710  1
  B  B13  1  0.500000  0.445571  0.570290  1
  B  B14  1  0.500000  0.054429  0.070290  1
  B  B15  1  0.500000  0.945571  0.929710  1
  B  B16  1  0.500000  0.745785  0.421875  1
  B  B17  1  0.500000  0.254215  0.578125  1
  B  B18  1  0.500000  0.245785  0.078125  1
  B  B19  1  0.500000  0.754215  0.921875  1
  B  B20  1  0.500000  0.804535  0.275184  1
  B  B21  1  0.500000  0.195465  0.724816  1
  B  B22  1  0.500000  0.304535  0.224816  1
  B  B23  1  0.500000  0.695465  0.775184  1
  B  B24  1  0.500000  0.644121  0.188156  1
  B  B25  1  0.500000  0.355879  0.811844  1
  B  B26  1  0.500000  0.144121  0.311844  1
  B  B27  1  0.500000  0.855879  0.688156  1
  B  B28  1  0.500000  0.990797  0.221290  1
  B  B29  1  0.500000  0.009203  0.778710  1
  B  B30  1  0.500000  0.490797  0.278710  1
  B  B31  1  0.500000  0.509203  0.721290  1
  B  B32  1  0.500000  0.637264  0.037850  1
  B  B33  1  0.500000  0.362736  0.962150  1
  B  B34  1  0.500000  0.137264  0.462150  1
  B  B35  1  0.500000  0.862736  0.537850  1
