# generated using pymatgen
data_Ba6Sr2NdUSe12
_symmetry_space_group_name_H-M   'P 1'
_cell_length_a   9.02018010
_cell_length_b   9.02017939
_cell_length_c   9.02018071
_cell_angle_alpha   90.72608797
_cell_angle_beta   90.72608409
_cell_angle_gamma   90.72608959
_symmetry_Int_Tables_number   1
_chemical_formula_structural   Ba6Sr2NdUSe12
_chemical_formula_sum   'Ba6 Sr2 Nd1 U1 Se12'
_cell_volume   733.73645939
_cell_formula_units_Z   1
loop_
 _symmetry_equiv_pos_site_id
 _symmetry_equiv_pos_as_xyz
  1  'x, y, z'
loop_
 _atom_site_type_symbol
 _atom_site_label
 _atom_site_symmetry_multiplicity
 _atom_site_fract_x
 _atom_site_fract_y
 _atom_site_fract_z
 _atom_site_occupancy
  Ba  Ba0  1  0.870207  0.622462  0.255436  1
  Ba  Ba1  1  0.255436  0.870207  0.622462  1
  Ba  Ba2  1  0.622462  0.255436  0.870207  1
  Ba  Ba3  1  0.744564  0.129793  0.377538  1
  Ba  Ba4  1  0.377538  0.744564  0.129793  1
  Ba  Ba5  1  0.129793  0.377538  0.744564  1
  Sr  Sr6  1  0.254074  0.254074  0.254074  1
  Sr  Sr7  1  0.745926  0.745926  0.745926  1
  Nd  Nd8  1  0.500000  0.500000  0.500000  1
  U  U9  1  0.000000  0.000000  0.000000  1
  Se  Se10  1  0.192200  0.556913  0.410927  1
  Se  Se11  1  0.410927  0.192200  0.556913  1
  Se  Se12  1  0.556913  0.410927  0.192200  1
  Se  Se13  1  0.923087  0.050445  0.706861  1
  Se  Se14  1  0.706861  0.923087  0.050445  1
  Se  Se15  1  0.050445  0.706861  0.923087  1
  Se  Se16  1  0.807800  0.443087  0.589073  1
  Se  Se17  1  0.589073  0.807800  0.443087  1
  Se  Se18  1  0.443087  0.589073  0.807800  1
  Se  Se19  1  0.076913  0.949555  0.293139  1
  Se  Se20  1  0.293139  0.076913  0.949555  1
  Se  Se21  1  0.949555  0.293139  0.076913  1
