# generated using pymatgen
data_Be5Co(SiMo2)2
_symmetry_space_group_name_H-M   'P 1'
_cell_length_a   4.53531604
_cell_length_b   4.57179732
_cell_length_c   7.53537800
_cell_angle_alpha   90.00000000
_cell_angle_beta   90.00000000
_cell_angle_gamma   120.26643928
_symmetry_Int_Tables_number   1
_chemical_formula_structural   Be5Co(SiMo2)2
_chemical_formula_sum   'Be5 Co1 Si2 Mo4'
_cell_volume   134.94535027
_cell_formula_units_Z   1
loop_
 _symmetry_equiv_pos_site_id
 _symmetry_equiv_pos_as_xyz
  1  'x, y, z'
loop_
 _atom_site_type_symbol
 _atom_site_label
 _atom_site_symmetry_multiplicity
 _atom_site_fract_x
 _atom_site_fract_y
 _atom_site_fract_z
 _atom_site_occupancy
  Be  Be0  1  0.825042  0.169567  0.250000  1
  Be  Be1  1  0.825042  0.655475  0.250000  1
  Be  Be2  1  0.345998  0.172999  0.250000  1
  Be  Be3  1  0.175198  0.822596  0.750000  1
  Be  Be4  1  0.175198  0.352603  0.750000  1
  Co  Co5  1  0.669442  0.834721  0.750000  1
  Si  Si6  1  0.998286  0.999143  0.502671  1
  Si  Si7  1  0.998286  0.999143  0.997329  1
  Mo  Mo8  1  0.322570  0.661286  0.435954  1
  Mo  Mo9  1  0.671184  0.335591  0.560802  1
  Mo  Mo10  1  0.671184  0.335591  0.939198  1
  Mo  Mo11  1  0.322570  0.661286  0.064046  1
