# generated using pymatgen
data_Y4Lu16Cd6TcRu
_symmetry_space_group_name_H-M   'P 1'
_cell_length_a   9.41778979
_cell_length_b   9.40314486
_cell_length_c   9.74914600
_cell_angle_alpha   90.00000000
_cell_angle_beta   90.00000000
_cell_angle_gamma   119.94857778
_symmetry_Int_Tables_number   1
_chemical_formula_structural   Y4Lu16Cd6TcRu
_chemical_formula_sum   'Y4 Lu16 Cd6 Tc1 Ru1'
_cell_volume   748.07325529
_cell_formula_units_Z   1
loop_
 _symmetry_equiv_pos_site_id
 _symmetry_equiv_pos_as_xyz
  1  'x, y, z'
loop_
 _atom_site_type_symbol
 _atom_site_label
 _atom_site_symmetry_multiplicity
 _atom_site_fract_x
 _atom_site_fract_y
 _atom_site_fract_z
 _atom_site_occupancy
  Y  Y0  1  0.538873  0.461699  0.250000  1
  Y  Y1  1  0.538873  0.077174  0.250000  1
  Y  Y2  1  0.923680  0.461840  0.250000  1
  Y  Y3  1  0.082357  0.541179  0.750000  1
  Lu  Lu4  1  0.999595  0.999798  0.500222  1
  Lu  Lu5  1  0.999595  0.999798  0.999778  1
  Lu  Lu6  1  0.211401  0.790579  0.442780  1
  Lu  Lu7  1  0.211401  0.420822  0.442780  1
  Lu  Lu8  1  0.578776  0.789388  0.443440  1
  Lu  Lu9  1  0.788672  0.208960  0.559544  1
  Lu  Lu10  1  0.788672  0.579710  0.559544  1
  Lu  Lu11  1  0.420062  0.210030  0.559816  1
  Lu  Lu12  1  0.788672  0.208960  0.940456  1
  Lu  Lu13  1  0.788672  0.579710  0.940456  1
  Lu  Lu14  1  0.420062  0.210030  0.940184  1
  Lu  Lu15  1  0.211401  0.790579  0.057220  1
  Lu  Lu16  1  0.211401  0.420822  0.057220  1
  Lu  Lu17  1  0.578776  0.789388  0.056560  1
  Lu  Lu18  1  0.460281  0.540336  0.750000  1
  Lu  Lu19  1  0.460281  0.919946  0.750000  1
  Cd  Cd20  1  0.886581  0.112675  0.250000  1
  Cd  Cd21  1  0.886581  0.773906  0.250000  1
  Cd  Cd22  1  0.226318  0.113160  0.250000  1
  Cd  Cd23  1  0.114797  0.887541  0.750000  1
  Cd  Cd24  1  0.114797  0.227256  0.750000  1
  Cd  Cd25  1  0.771168  0.885584  0.750000  1
  Tc  Tc26  1  0.332728  0.666364  0.250000  1
  Ru  Ru27  1  0.665530  0.332764  0.750000  1
