# generated using pymatgen
data_Li8YHo7Sn7Bi
_symmetry_space_group_name_H-M   'P 1'
_cell_length_a   9.40557400
_cell_length_b   9.40560836
_cell_length_c   7.25220500
_cell_angle_alpha   90.09188591
_cell_angle_beta   89.99940450
_cell_angle_gamma   119.99550724
_symmetry_Int_Tables_number   1
_chemical_formula_structural   Li8YHo7Sn7Bi
_chemical_formula_sum   'Li8 Y1 Ho7 Sn7 Bi1'
_cell_volume   555.63784650
_cell_formula_units_Z   1
loop_
 _symmetry_equiv_pos_site_id
 _symmetry_equiv_pos_as_xyz
  1  'x, y, z'
loop_
 _atom_site_type_symbol
 _atom_site_label
 _atom_site_symmetry_multiplicity
 _atom_site_fract_x
 _atom_site_fract_y
 _atom_site_fract_z
 _atom_site_occupancy
  Li  Li0  1  0.166575  0.333242  0.284635  1
  Li  Li1  1  0.167931  0.833585  0.288351  1
  Li  Li2  1  0.665595  0.833629  0.288294  1
  Li  Li3  1  0.833425  0.666714  0.786873  1
  Li  Li4  1  0.829189  0.164841  0.791277  1
  Li  Li5  1  0.335696  0.164806  0.791224  1
  Li  Li6  1  0.335278  0.670570  0.669771  1
  Li  Li7  1  0.666033  0.332100  0.171924  1
  Y  Y8  1  0.512584  0.025071  0.493746  1
  Ho  Ho9  1  0.517155  0.490833  0.490920  1
  Ho  Ho10  1  0.973767  0.490830  0.490835  1
  Ho  Ho11  1  0.487399  0.974865  0.994602  1
  Ho  Ho12  1  0.493486  0.514502  0.996566  1
  Ho  Ho13  1  0.020912  0.514467  0.996505  1
  Ho  Ho14  1  0.997267  0.994577  0.497129  1
  Ho  Ho15  1  0.997720  0.995418  0.002455  1
  Sn  Sn16  1  0.166425  0.832825  0.730620  1
  Sn  Sn17  1  0.666449  0.832820  0.730531  1
  Sn  Sn18  1  0.833139  0.666374  0.231194  1
  Sn  Sn19  1  0.834159  0.167541  0.229970  1
  Sn  Sn20  1  0.333343  0.167515  0.230018  1
  Sn  Sn21  1  0.332525  0.665083  0.260413  1
  Sn  Sn22  1  0.667191  0.334351  0.761443  1
  Bi  Bi23  1  0.166758  0.333442  0.732675  1
