# generated using pymatgen
data_HoLu5TcOs
_symmetry_space_group_name_H-M   'P 1'
_cell_length_a   7.34053100
_cell_length_b   8.86505000
_cell_length_c   6.17676300
_cell_angle_alpha   90.00000000
_cell_angle_beta   90.00000000
_cell_angle_gamma   90.00000000
_symmetry_Int_Tables_number   1
_chemical_formula_structural   HoLu5TcOs
_chemical_formula_sum   'Ho2 Lu10 Tc2 Os2'
_cell_volume   401.94775233
_cell_formula_units_Z   2
loop_
 _symmetry_equiv_pos_site_id
 _symmetry_equiv_pos_as_xyz
  1  'x, y, z'
loop_
 _atom_site_type_symbol
 _atom_site_label
 _atom_site_symmetry_multiplicity
 _atom_site_fract_x
 _atom_site_fract_y
 _atom_site_fract_z
 _atom_site_occupancy
  Ho  Ho0  1  0.537583  0.250000  0.878459  1
  Ho  Ho1  1  0.037583  0.250000  0.621541  1
  Lu  Lu2  1  0.674769  0.060985  0.341119  1
  Lu  Lu3  1  0.174769  0.439015  0.158881  1
  Lu  Lu4  1  0.325535  0.563758  0.661189  1
  Lu  Lu5  1  0.825535  0.936242  0.838811  1
  Lu  Lu6  1  0.325535  0.936242  0.661189  1
  Lu  Lu7  1  0.825535  0.563758  0.838811  1
  Lu  Lu8  1  0.674769  0.439015  0.341119  1
  Lu  Lu9  1  0.174769  0.060985  0.158881  1
  Lu  Lu10  1  0.460334  0.750000  0.128974  1
  Lu  Lu11  1  0.960334  0.750000  0.371026  1
  Tc  Tc12  1  0.881628  0.250000  0.040987  1
  Tc  Tc13  1  0.381628  0.250000  0.459013  1
  Os  Os14  1  0.119846  0.750000  0.960244  1
  Os  Os15  1  0.619846  0.750000  0.539756  1
