# generated using pymatgen
data_CaPr3(Tm4Bi3)4
_symmetry_space_group_name_H-M   'P 1'
_cell_length_a   8.27237270
_cell_length_b   9.45786400
_cell_length_c   12.03894800
_cell_angle_alpha   90.00000000
_cell_angle_beta   90.02350739
_cell_angle_gamma   90.00000000
_symmetry_Int_Tables_number   1
_chemical_formula_structural   CaPr3(Tm4Bi3)4
_chemical_formula_sum   'Ca1 Pr3 Tm16 Bi12'
_cell_volume   941.91488338
_cell_formula_units_Z   1
loop_
 _symmetry_equiv_pos_site_id
 _symmetry_equiv_pos_as_xyz
  1  'x, y, z'
loop_
 _atom_site_type_symbol
 _atom_site_label
 _atom_site_symmetry_multiplicity
 _atom_site_fract_x
 _atom_site_fract_y
 _atom_site_fract_z
 _atom_site_occupancy
  Ca  Ca0  1  0.185514  0.750000  0.719863  1
  Pr  Pr1  1  0.316877  0.250000  0.218723  1
  Pr  Pr2  1  0.816412  0.250000  0.280367  1
  Pr  Pr3  1  0.682617  0.750000  0.781497  1
  Tm  Tm4  1  0.350920  0.750000  0.218965  1
  Tm  Tm5  1  0.850262  0.750000  0.281207  1
  Tm  Tm6  1  0.649517  0.250000  0.780569  1
  Tm  Tm7  1  0.149691  0.250000  0.719449  1
  Tm  Tm8  1  0.689294  0.565502  0.061914  1
  Tm  Tm9  1  0.191514  0.936275  0.435130  1
  Tm  Tm10  1  0.309483  0.066917  0.938245  1
  Tm  Tm11  1  0.806320  0.435046  0.561099  1
  Tm  Tm12  1  0.309483  0.433083  0.938245  1
  Tm  Tm13  1  0.806320  0.064954  0.561099  1
  Tm  Tm14  1  0.689294  0.934498  0.061914  1
  Tm  Tm15  1  0.191514  0.563725  0.435130  1
  Tm  Tm16  1  0.476437  0.250000  0.488532  1
  Tm  Tm17  1  0.978813  0.250000  0.011017  1
  Tm  Tm18  1  0.524849  0.750000  0.510945  1
  Tm  Tm19  1  0.019807  0.750000  0.991102  1
  Bi  Bi20  1  0.398878  0.750000  0.964760  1
  Bi  Bi21  1  0.909857  0.750000  0.537120  1
  Bi  Bi22  1  0.597979  0.250000  0.034998  1
  Bi  Bi23  1  0.095378  0.250000  0.466233  1
  Bi  Bi24  1  0.565953  0.990150  0.328947  1
  Bi  Bi25  1  0.064459  0.509978  0.172705  1
  Bi  Bi26  1  0.434086  0.492234  0.670598  1
  Bi  Bi27  1  0.936987  0.008021  0.828690  1
  Bi  Bi28  1  0.434086  0.007766  0.670598  1
  Bi  Bi29  1  0.936987  0.491979  0.828690  1
  Bi  Bi30  1  0.565953  0.509850  0.328947  1
  Bi  Bi31  1  0.064459  0.990022  0.172705  1
