# generated using pymatgen
data_Ca3Nd(Si3Ni5)4
_symmetry_space_group_name_H-M   'P 1'
_cell_length_a   3.79701400
_cell_length_b   6.64431043
_cell_length_c   18.80738095
_cell_angle_alpha   89.98066441
_cell_angle_beta   90.00000000
_cell_angle_gamma   90.00000000
_symmetry_Int_Tables_number   1
_chemical_formula_structural   Ca3Nd(Si3Ni5)4
_chemical_formula_sum   'Ca3 Nd1 Si12 Ni20'
_cell_volume   474.48273033
_cell_formula_units_Z   1
loop_
 _symmetry_equiv_pos_site_id
 _symmetry_equiv_pos_as_xyz
  1  'x, y, z'
loop_
 _atom_site_type_symbol
 _atom_site_label
 _atom_site_symmetry_multiplicity
 _atom_site_fract_x
 _atom_site_fract_y
 _atom_site_fract_z
 _atom_site_occupancy
  Ca  Ca0  1  0.250000  0.623241  0.642562  1
  Ca  Ca1  1  0.750000  0.377448  0.357431  1
  Ca  Ca2  1  0.750000  0.122434  0.857215  1
  Nd  Nd3  1  0.250000  0.874451  0.142681  1
  Si  Si4  1  0.250000  0.842418  0.925720  1
  Si  Si5  1  0.750000  0.159265  0.072454  1
  Si  Si6  1  0.750000  0.342763  0.574647  1
  Si  Si7  1  0.250000  0.656430  0.426604  1
  Si  Si8  1  0.750000  0.622181  0.761690  1
  Si  Si9  1  0.250000  0.380586  0.237884  1
  Si  Si10  1  0.250000  0.422541  0.912341  1
  Si  Si11  1  0.750000  0.571032  0.085791  1
  Si  Si12  1  0.750000  0.921829  0.586268  1
  Si  Si13  1  0.250000  0.079165  0.414197  1
  Si  Si14  1  0.250000  0.121643  0.738212  1
  Si  Si15  1  0.750000  0.880077  0.263992  1
  Ni  Ni16  1  0.250000  0.135431  0.994535  1
  Ni  Ni17  1  0.750000  0.385498  0.982561  1
  Ni  Ni18  1  0.750000  0.114366  0.484923  1
  Ni  Ni19  1  0.250000  0.610051  0.014343  1
  Ni  Ni20  1  0.250000  0.356443  0.115562  1
  Ni  Ni21  1  0.750000  0.643496  0.883389  1
  Ni  Ni22  1  0.750000  0.857539  0.385261  1
  Ni  Ni23  1  0.250000  0.140780  0.616499  1
  Ni  Ni24  1  0.250000  0.070838  0.293666  1
  Ni  Ni25  1  0.750000  0.933053  0.707051  1
  Ni  Ni26  1  0.750000  0.568701  0.208620  1
  Ni  Ni27  1  0.250000  0.433034  0.792006  1
  Ni  Ni28  1  0.750000  0.633867  0.504666  1
  Ni  Ni29  1  0.250000  0.365446  0.496747  1
  Ni  Ni30  1  0.250000  0.813269  0.799929  1
  Ni  Ni31  1  0.750000  0.189018  0.199546  1
  Ni  Ni32  1  0.750000  0.313204  0.699563  1
  Ni  Ni33  1  0.250000  0.688326  0.301882  1
  Ni  Ni34  1  0.250000  0.886167  0.515737  1
  Ni  Ni35  1  0.750000  0.863968  0.003825  1
