# generated using pymatgen
data_Tb4Ga16FeCo2
_symmetry_space_group_name_H-M   'P 1'
_cell_length_a   6.05242700
_cell_length_b   6.05242700
_cell_length_c   11.16542600
_cell_angle_alpha   90.00000000
_cell_angle_beta   90.00000000
_cell_angle_gamma   90.00000000
_symmetry_Int_Tables_number   1
_chemical_formula_structural   Tb4Ga16FeCo2
_chemical_formula_sum   'Tb4 Ga16 Fe1 Co2'
_cell_volume   409.01046265
_cell_formula_units_Z   1
loop_
 _symmetry_equiv_pos_site_id
 _symmetry_equiv_pos_as_xyz
  1  'x, y, z'
loop_
 _atom_site_type_symbol
 _atom_site_label
 _atom_site_symmetry_multiplicity
 _atom_site_fract_x
 _atom_site_fract_y
 _atom_site_fract_z
 _atom_site_occupancy
  Tb  Tb0  1  0.000000  0.500000  0.193983  1
  Tb  Tb1  1  0.000000  0.500000  0.806017  1
  Tb  Tb2  1  0.500000  0.000000  0.806017  1
  Tb  Tb3  1  0.500000  0.000000  0.193983  1
  Ga  Ga4  1  0.000000  0.000000  0.218174  1
  Ga  Ga5  1  0.000000  0.000000  0.781826  1
  Ga  Ga6  1  0.500000  0.500000  0.196103  1
  Ga  Ga7  1  0.500000  0.500000  0.803897  1
  Ga  Ga8  1  0.280934  0.280934  0.000000  1
  Ga  Ga9  1  0.719066  0.719066  0.000000  1
  Ga  Ga10  1  0.280934  0.719066  0.000000  1
  Ga  Ga11  1  0.719066  0.280934  0.000000  1
  Ga  Ga12  1  0.249665  0.249665  0.384854  1
  Ga  Ga13  1  0.750335  0.750335  0.384854  1
  Ga  Ga14  1  0.249665  0.750335  0.615146  1
  Ga  Ga15  1  0.750335  0.249665  0.615146  1
  Ga  Ga16  1  0.750335  0.750335  0.615146  1
  Ga  Ga17  1  0.249665  0.249665  0.615146  1
  Ga  Ga18  1  0.249665  0.750335  0.384854  1
  Ga  Ga19  1  0.750335  0.249665  0.384854  1
  Fe  Fe20  1  0.000000  0.000000  0.000000  1
  Co  Co21  1  0.000000  0.500000  0.500000  1
  Co  Co22  1  0.500000  0.000000  0.500000  1
