# generated using pymatgen
data_Ac6Mg(SiSe7)2
_symmetry_space_group_name_H-M   'P 1'
_cell_length_a   11.09269600
_cell_length_b   11.09269777
_cell_length_c   6.17978600
_cell_angle_alpha   90.00000000
_cell_angle_beta   90.00000000
_cell_angle_gamma   120.00000068
_symmetry_Int_Tables_number   1
_chemical_formula_structural   Ac6Mg(SiSe7)2
_chemical_formula_sum   'Ac6 Mg1 Si2 Se14'
_cell_volume   658.53423355
_cell_formula_units_Z   1
loop_
 _symmetry_equiv_pos_site_id
 _symmetry_equiv_pos_as_xyz
  1  'x, y, z'
loop_
 _atom_site_type_symbol
 _atom_site_label
 _atom_site_symmetry_multiplicity
 _atom_site_fract_x
 _atom_site_fract_y
 _atom_site_fract_z
 _atom_site_occupancy
  Ac  Ac0  1  0.976127  0.432368  0.751713  1
  Ac  Ac1  1  0.456241  0.023873  0.751713  1
  Ac  Ac2  1  0.567632  0.543759  0.751713  1
  Ac  Ac3  1  0.690216  0.899681  0.245493  1
  Ac  Ac4  1  0.209465  0.309784  0.245493  1
  Ac  Ac5  1  0.100319  0.790535  0.245493  1
  Mg  Mg6  1  0.333333  0.666667  0.513375  1
  Si  Si7  1  0.666667  0.333333  0.165157  1
  Si  Si8  1  0.000000  0.000000  0.657566  1
  Se  Se9  1  0.666667  0.333333  0.531350  1
  Se  Se10  1  0.000000  0.000000  0.024634  1
  Se  Se11  1  0.088201  0.506326  0.273656  1
  Se  Se12  1  0.418125  0.911799  0.273656  1
  Se  Se13  1  0.493674  0.581875  0.273656  1
  Se  Se14  1  0.578585  0.829252  0.751558  1
  Se  Se15  1  0.250667  0.421415  0.751558  1
  Se  Se16  1  0.170748  0.749333  0.751558  1
  Se  Se17  1  0.810210  0.552115  0.023665  1
  Se  Se18  1  0.741907  0.189790  0.023665  1
  Se  Se19  1  0.447885  0.258093  0.023665  1
  Se  Se20  1  0.856879  0.780739  0.517900  1
  Se  Se21  1  0.923862  0.143121  0.517900  1
  Se  Se22  1  0.219261  0.076138  0.517900  1
