# generated using pymatgen
data_Tm16MgNi4Ag3
_symmetry_space_group_name_H-M   'P 1'
_cell_length_a   9.29323772
_cell_length_b   9.29624166
_cell_length_c   9.29624100
_cell_angle_alpha   60.00000592
_cell_angle_beta   59.98931267
_cell_angle_gamma   59.98931364
_symmetry_Int_Tables_number   1
_chemical_formula_structural   Tm16MgNi4Ag3
_chemical_formula_sum   'Tm16 Mg1 Ni4 Ag3'
_cell_volume   567.80168390
_cell_formula_units_Z   1
loop_
 _symmetry_equiv_pos_site_id
 _symmetry_equiv_pos_as_xyz
  1  'x, y, z'
loop_
 _atom_site_type_symbol
 _atom_site_label
 _atom_site_symmetry_multiplicity
 _atom_site_fract_x
 _atom_site_fract_y
 _atom_site_fract_z
 _atom_site_occupancy
  Tm  Tm0  1  0.059234  0.440035  0.440035  1
  Tm  Tm1  1  0.436501  0.062933  0.062933  1
  Tm  Tm2  1  0.436501  0.062933  0.437634  1
  Tm  Tm3  1  0.059234  0.440035  0.060696  1
  Tm  Tm4  1  0.436501  0.437634  0.062933  1
  Tm  Tm5  1  0.059234  0.060696  0.440035  1
  Tm  Tm6  1  0.183796  0.814523  0.814523  1
  Tm  Tm7  1  0.813186  0.186061  0.186061  1
  Tm  Tm8  1  0.813186  0.186061  0.814693  1
  Tm  Tm9  1  0.183796  0.814523  0.187158  1
  Tm  Tm10  1  0.813186  0.814693  0.186061  1
  Tm  Tm11  1  0.183796  0.187158  0.814523  1
  Tm  Tm12  1  0.599094  0.597602  0.597602  1
  Tm  Tm13  1  0.599094  0.597602  0.205701  1
  Tm  Tm14  1  0.599094  0.205701  0.597602  1
  Tm  Tm15  1  0.193992  0.602003  0.602003  1
  Mg  Mg16  1  0.536039  0.821320  0.821320  1
  Ni  Ni17  1  0.390753  0.394042  0.394042  1
  Ni  Ni18  1  0.390753  0.394042  0.821161  1
  Ni  Ni19  1  0.390753  0.821161  0.394042  1
  Ni  Ni20  1  0.822313  0.392562  0.392562  1
  Ag  Ag21  1  0.833320  0.833809  0.833809  1
  Ag  Ag22  1  0.833320  0.833809  0.499060  1
  Ag  Ag23  1  0.833320  0.499060  0.833809  1
