# generated using pymatgen
data_Dy3Tm7Co4
_symmetry_space_group_name_H-M   'P 1'
_cell_length_a   6.22727633
_cell_length_b   6.86324549
_cell_length_c   8.41792376
_cell_angle_alpha   96.46536309
_cell_angle_beta   111.79854765
_cell_angle_gamma   90.00190053
_symmetry_Int_Tables_number   1
_chemical_formula_structural   Dy3Tm7Co4
_chemical_formula_sum   'Dy3 Tm7 Co4'
_cell_volume   331.58450950
_cell_formula_units_Z   1
loop_
 _symmetry_equiv_pos_site_id
 _symmetry_equiv_pos_as_xyz
  1  'x, y, z'
loop_
 _atom_site_type_symbol
 _atom_site_label
 _atom_site_symmetry_multiplicity
 _atom_site_fract_x
 _atom_site_fract_y
 _atom_site_fract_z
 _atom_site_occupancy
  Dy  Dy0  1  0.790994  0.086688  0.809782  1
  Dy  Dy1  1  0.980544  0.413672  0.189276  1
  Dy  Dy2  1  0.209107  0.913152  0.189463  1
  Tm  Tm3  1  0.018885  0.586472  0.810707  1
  Tm  Tm4  1  0.212388  0.184436  0.565891  1
  Tm  Tm5  1  0.646949  0.315862  0.434519  1
  Tm  Tm6  1  0.787821  0.814982  0.434832  1
  Tm  Tm7  1  0.352815  0.684402  0.566943  1
  Tm  Tm8  1  0.426034  0.250508  0.999651  1
  Tm  Tm9  1  0.573448  0.749943  0.999530  1
  Co  Co10  1  0.600712  0.428694  0.778722  1
  Co  Co11  1  0.820997  0.071753  0.221955  1
  Co  Co12  1  0.400668  0.571804  0.220249  1
  Co  Co13  1  0.178638  0.927632  0.778480  1
