# generated using pymatgen
data_Sc3P3(WN6)2
_symmetry_space_group_name_H-M   'P 1'
_cell_length_a   10.16933490
_cell_length_b   10.16933573
_cell_length_c   10.16933500
_cell_angle_alpha   109.47121718
_cell_angle_beta   109.47121884
_cell_angle_gamma   109.47122360
_symmetry_Int_Tables_number   1
_chemical_formula_structural   Sc3P3(WN6)2
_chemical_formula_sum   'Sc12 P12 W8 N48'
_cell_volume   809.57261908
_cell_formula_units_Z   4
loop_
 _symmetry_equiv_pos_site_id
 _symmetry_equiv_pos_as_xyz
  1  'x, y, z'
loop_
 _atom_site_type_symbol
 _atom_site_label
 _atom_site_symmetry_multiplicity
 _atom_site_fract_x
 _atom_site_fract_y
 _atom_site_fract_z
 _atom_site_occupancy
  Sc  Sc0  1  0.375000  0.750000  0.125000  1
  Sc  Sc1  1  0.250000  0.375000  0.125000  1
  Sc  Sc2  1  0.375000  0.125000  0.250000  1
  Sc  Sc3  1  0.875000  0.625000  0.250000  1
  Sc  Sc4  1  0.750000  0.125000  0.375000  1
  Sc  Sc5  1  0.125000  0.250000  0.375000  1
  Sc  Sc6  1  0.875000  0.750000  0.625000  1
  Sc  Sc7  1  0.250000  0.875000  0.625000  1
  Sc  Sc8  1  0.125000  0.375000  0.750000  1
  Sc  Sc9  1  0.625000  0.875000  0.750000  1
  Sc  Sc10  1  0.625000  0.250000  0.875000  1
  Sc  Sc11  1  0.750000  0.625000  0.875000  1
  P  P12  1  0.875000  0.250000  0.125000  1
  P  P13  1  0.750000  0.875000  0.125000  1
  P  P14  1  0.625000  0.375000  0.250000  1
  P  P15  1  0.125000  0.875000  0.250000  1
  P  P16  1  0.250000  0.625000  0.375000  1
  P  P17  1  0.625000  0.750000  0.375000  1
  P  P18  1  0.375000  0.250000  0.625000  1
  P  P19  1  0.750000  0.375000  0.625000  1
  P  P20  1  0.875000  0.125000  0.750000  1
  P  P21  1  0.375000  0.625000  0.750000  1
  P  P22  1  0.250000  0.125000  0.875000  1
  P  P23  1  0.125000  0.750000  0.875000  1
  W  W24  1  0.000000  0.000000  0.000000  1
  W  W25  1  0.500000  0.000000  0.000000  1
  W  W26  1  0.000000  0.500000  0.000000  1
  W  W27  1  0.500000  0.500000  0.000000  1
  W  W28  1  0.000000  0.000000  0.500000  1
  W  W29  1  0.500000  0.000000  0.500000  1
  W  W30  1  0.000000  0.500000  0.500000  1
  W  W31  1  0.500000  0.500000  0.500000  1
  N  N32  1  0.306227  0.898365  0.017423  1
  N  N33  1  0.211196  0.119058  0.017423  1
  N  N34  1  0.880942  0.398365  0.092138  1
  N  N35  1  0.711196  0.693773  0.092138  1
  N  N36  1  0.619058  0.407862  0.101635  1
  N  N37  1  0.982576  0.693773  0.101635  1
  N  N38  1  0.017423  0.211196  0.119058  1
  N  N39  1  0.601635  0.907862  0.119058  1
  N  N40  1  0.211196  0.592138  0.193773  1
  N  N41  1  0.482577  0.601635  0.193773  1
  N  N42  1  0.592138  0.193773  0.211196  1
  N  N43  1  0.119058  0.017423  0.211196  1
  N  N44  1  0.306227  0.907862  0.288804  1
  N  N45  1  0.482577  0.380942  0.288804  1
  N  N46  1  0.898365  0.017423  0.306227  1
  N  N47  1  0.907862  0.288804  0.306227  1
  N  N48  1  0.288804  0.482577  0.380942  1
  N  N49  1  0.592138  0.898365  0.380942  1
  N  N50  1  0.806227  0.517423  0.398365  1
  N  N51  1  0.092138  0.880942  0.398365  1
  N  N52  1  0.101635  0.619058  0.407862  1
  N  N53  1  0.806227  0.788803  0.407862  1
  N  N54  1  0.601635  0.193773  0.482577  1
  N  N55  1  0.380942  0.288804  0.482577  1
  N  N56  1  0.619058  0.711196  0.517423  1
  N  N57  1  0.398365  0.806227  0.517423  1
  N  N58  1  0.193773  0.211196  0.592138  1
  N  N59  1  0.898365  0.380942  0.592138  1
  N  N60  1  0.907862  0.119058  0.601635  1
  N  N61  1  0.193773  0.482577  0.601635  1
  N  N62  1  0.407862  0.101635  0.619058  1
  N  N63  1  0.711196  0.517423  0.619058  1
  N  N64  1  0.092138  0.711196  0.693773  1
  N  N65  1  0.101635  0.982576  0.693773  1
  N  N66  1  0.517423  0.619058  0.711196  1
  N  N67  1  0.693773  0.092138  0.711196  1
  N  N68  1  0.407862  0.806227  0.788803  1
  N  N69  1  0.880942  0.982576  0.788803  1
  N  N70  1  0.517423  0.398365  0.806227  1
  N  N71  1  0.788803  0.407862  0.806227  1
  N  N72  1  0.398365  0.092138  0.880942  1
  N  N73  1  0.982576  0.788803  0.880942  1
  N  N74  1  0.017423  0.306227  0.898365  1
  N  N75  1  0.380942  0.592138  0.898365  1
  N  N76  1  0.288804  0.306227  0.907862  1
  N  N77  1  0.119058  0.601635  0.907862  1
  N  N78  1  0.693773  0.101635  0.982576  1
  N  N79  1  0.788803  0.880942  0.982576  1
