# generated using pymatgen
data_Zr10SnBi5As
_symmetry_space_group_name_H-M   'P 1'
_cell_length_a   5.93837927
_cell_length_b   8.75852918
_cell_length_c   8.74933000
_cell_angle_alpha   119.96471838
_cell_angle_beta   89.94990557
_cell_angle_gamma   90.02483078
_symmetry_Int_Tables_number   1
_chemical_formula_structural   Zr10SnBi5As
_chemical_formula_sum   'Zr10 Sn1 Bi5 As1'
_cell_volume   394.23816691
_cell_formula_units_Z   1
loop_
 _symmetry_equiv_pos_site_id
 _symmetry_equiv_pos_as_xyz
  1  'x, y, z'
loop_
 _atom_site_type_symbol
 _atom_site_label
 _atom_site_symmetry_multiplicity
 _atom_site_fract_x
 _atom_site_fract_y
 _atom_site_fract_z
 _atom_site_occupancy
  Zr  Zr0  1  0.498274  0.329823  0.663748  1
  Zr  Zr1  1  0.498282  0.670179  0.333919  1
  Zr  Zr2  1  0.001753  0.669555  0.333959  1
  Zr  Zr3  1  0.001743  0.330441  0.664412  1
  Zr  Zr4  1  0.765396  0.252015  0.998301  1
  Zr  Zr5  1  0.765394  0.747983  0.746287  1
  Zr  Zr6  1  0.766793  0.000009  0.253659  1
  Zr  Zr7  1  0.234297  0.750300  0.006419  1
  Zr  Zr8  1  0.234298  0.249703  0.256116  1
  Zr  Zr9  1  0.235020  0.999992  0.743735  1
  Sn  Sn10  1  0.251877  0.000005  0.391700  1
  Bi  Bi11  1  0.747581  0.608714  0.999241  1
  Bi  Bi12  1  0.747582  0.391294  0.390530  1
  Bi  Bi13  1  0.747782  0.999999  0.606703  1
  Bi  Bi14  1  0.252255  0.389862  0.000708  1
  Bi  Bi15  1  0.252250  0.610127  0.610840  1
  As  As16  1  0.499422  0.000000  0.999722  1
