# generated using pymatgen
data_TbErAl20Fe3Ir
_symmetry_space_group_name_H-M   'P 1'
_cell_length_a   6.79339253
_cell_length_b   6.78704706
_cell_length_c   9.03582216
_cell_angle_alpha   90.10974363
_cell_angle_beta   89.89873454
_cell_angle_gamma   96.91573034
_symmetry_Int_Tables_number   1
_chemical_formula_structural   TbErAl20Fe3Ir
_chemical_formula_sum   'Tb1 Er1 Al20 Fe3 Ir1'
_cell_volume   413.58291453
_cell_formula_units_Z   1
loop_
 _symmetry_equiv_pos_site_id
 _symmetry_equiv_pos_as_xyz
  1  'x, y, z'
loop_
 _atom_site_type_symbol
 _atom_site_label
 _atom_site_symmetry_multiplicity
 _atom_site_fract_x
 _atom_site_fract_y
 _atom_site_fract_z
 _atom_site_occupancy
  Tb  Tb0  1  0.126074  0.872103  0.251447  1
  Er  Er1  1  0.873359  0.128647  0.748657  1
  Al  Al2  1  0.414003  0.139559  0.744178  1
  Al  Al3  1  0.136690  0.414941  0.250783  1
  Al  Al4  1  0.587890  0.860962  0.255808  1
  Al  Al5  1  0.863038  0.583258  0.749151  1
  Al  Al6  1  0.520671  0.779007  0.744430  1
  Al  Al7  1  0.780730  0.519361  0.251656  1
  Al  Al8  1  0.479808  0.221538  0.255709  1
  Al  Al9  1  0.218804  0.480193  0.748318  1
  Al  Al10  1  0.841680  0.157853  0.403042  1
  Al  Al11  1  0.158001  0.842682  0.597716  1
  Al  Al12  1  0.846810  0.162740  0.100320  1
  Al  Al13  1  0.152415  0.837858  0.899001  1
  Al  Al14  1  0.627594  0.380774  0.948701  1
  Al  Al15  1  0.372366  0.618931  0.050448  1
  Al  Al16  1  0.626016  0.375651  0.549177  1
  Al  Al17  1  0.374379  0.624153  0.451524  1
  Al  Al18  1  0.778807  0.768982  0.003273  1
  Al  Al19  1  0.774384  0.773092  0.502610  1
  Al  Al20  1  0.220553  0.230817  0.995271  1
  Al  Al21  1  0.225435  0.227320  0.498899  1
  Fe  Fe22  1  0.999925  0.499759  0.999490  1
  Fe  Fe23  1  0.500356  0.000063  0.500403  1
  Fe  Fe24  1  0.999986  0.499732  0.500431  1
  Ir  Ir25  1  0.500224  0.000022  0.999557  1
