# generated using pymatgen
data_ScNb4Co19P12
_symmetry_space_group_name_H-M   'P 1'
_cell_length_a   11.72096100
_cell_length_b   11.72096126
_cell_length_c   3.56493700
_cell_angle_alpha   90.00000000
_cell_angle_beta   90.00000000
_cell_angle_gamma   120.00000207
_symmetry_Int_Tables_number   1
_chemical_formula_structural   ScNb4Co19P12
_chemical_formula_sum   'Sc1 Nb4 Co19 P12'
_cell_volume   424.13970849
_cell_formula_units_Z   1
loop_
 _symmetry_equiv_pos_site_id
 _symmetry_equiv_pos_as_xyz
  1  'x, y, z'
loop_
 _atom_site_type_symbol
 _atom_site_label
 _atom_site_symmetry_multiplicity
 _atom_site_fract_x
 _atom_site_fract_y
 _atom_site_fract_z
 _atom_site_occupancy
  Sc  Sc0  1  0.333333  0.666667  0.500000  1
  Nb  Nb1  1  0.666667  0.333333  0.500000  1
  Nb  Nb2  1  0.818823  0.000014  0.000000  1
  Nb  Nb3  1  0.999986  0.818808  0.000000  1
  Nb  Nb4  1  0.181192  0.181177  0.000000  1
  Co  Co5  1  0.627621  0.804421  0.500000  1
  Co  Co6  1  0.195579  0.823200  0.500000  1
  Co  Co7  1  0.176800  0.372379  0.500000  1
  Co  Co8  1  0.377784  0.181419  0.500000  1
  Co  Co9  1  0.803635  0.622216  0.500000  1
  Co  Co10  1  0.818581  0.196365  0.500000  1
  Co  Co11  1  0.282477  0.001077  0.000000  1
  Co  Co12  1  0.998923  0.281399  0.000000  1
  Co  Co13  1  0.718601  0.717523  0.000000  1
  Co  Co14  1  0.451190  0.996889  0.500000  1
  Co  Co15  1  0.003111  0.454301  0.500000  1
  Co  Co16  1  0.545699  0.548810  0.500000  1
  Co  Co17  1  0.519595  0.873133  0.000000  1
  Co  Co18  1  0.126867  0.646462  0.000000  1
  Co  Co19  1  0.353538  0.480405  0.000000  1
  Co  Co20  1  0.483314  0.355451  0.000000  1
  Co  Co21  1  0.872138  0.516686  0.000000  1
  Co  Co22  1  0.644549  0.127862  0.000000  1
  Co  Co23  1  0.000000  0.000000  0.500000  1
  P  P24  1  0.177422  0.001878  0.500000  1
  P  P25  1  0.998122  0.175544  0.500000  1
  P  P26  1  0.824456  0.822578  0.500000  1
  P  P27  1  0.517025  0.681688  0.000000  1
  P  P28  1  0.318312  0.835338  0.000000  1
  P  P29  1  0.164662  0.482975  0.000000  1
  P  P30  1  0.484318  0.166358  0.000000  1
  P  P31  1  0.682040  0.515682  0.000000  1
  P  P32  1  0.833642  0.317960  0.000000  1
  P  P33  1  0.640352  0.999118  0.500000  1
  P  P34  1  0.000882  0.641234  0.500000  1
  P  P35  1  0.358766  0.359648  0.500000  1
