# generated using pymatgen
data_Er3(CoSi)2
_symmetry_space_group_name_H-M   'P 1'
_cell_length_a   5.48828500
_cell_length_b   7.55671800
_cell_length_c   12.48283000
_cell_angle_alpha   90.00000000
_cell_angle_beta   90.00000000
_cell_angle_gamma   90.00000000
_symmetry_Int_Tables_number   1
_chemical_formula_structural   Er3(CoSi)2
_chemical_formula_sum   'Er12 Co8 Si8'
_cell_volume   517.70567695
_cell_formula_units_Z   4
loop_
 _symmetry_equiv_pos_site_id
 _symmetry_equiv_pos_as_xyz
  1  'x, y, z'
loop_
 _atom_site_type_symbol
 _atom_site_label
 _atom_site_symmetry_multiplicity
 _atom_site_fract_x
 _atom_site_fract_y
 _atom_site_fract_z
 _atom_site_occupancy
  Er  Er0  1  0.630132  0.251927  0.250000  1
  Er  Er1  1  0.369868  0.748073  0.750000  1
  Er  Er2  1  0.369868  0.751927  0.250000  1
  Er  Er3  1  0.630132  0.248073  0.750000  1
  Er  Er4  1  0.140993  0.394599  0.101444  1
  Er  Er5  1  0.859007  0.605401  0.898556  1
  Er  Er6  1  0.859007  0.605401  0.601444  1
  Er  Er7  1  0.859007  0.894599  0.398556  1
  Er  Er8  1  0.140993  0.394599  0.398556  1
  Er  Er9  1  0.140993  0.105401  0.601444  1
  Er  Er10  1  0.140993  0.105401  0.898556  1
  Er  Er11  1  0.859007  0.894599  0.101444  1
  Co  Co12  1  0.368029  0.030064  0.087504  1
  Co  Co13  1  0.631971  0.969936  0.912496  1
  Co  Co14  1  0.631971  0.969936  0.587504  1
  Co  Co15  1  0.631971  0.530064  0.412496  1
  Co  Co16  1  0.368029  0.030064  0.412496  1
  Co  Co17  1  0.368029  0.469936  0.587504  1
  Co  Co18  1  0.368029  0.469936  0.912496  1
  Co  Co19  1  0.631971  0.530064  0.087504  1
  Si  Si20  1  0.152255  0.101169  0.250000  1
  Si  Si21  1  0.847745  0.898831  0.750000  1
  Si  Si22  1  0.847745  0.601169  0.250000  1
  Si  Si23  1  0.152255  0.398831  0.750000  1
  Si  Si24  1  0.614638  0.250000  0.000000  1
  Si  Si25  1  0.385362  0.750000  0.000000  1
  Si  Si26  1  0.385362  0.750000  0.500000  1
  Si  Si27  1  0.614638  0.250000  0.500000  1
