# generated using pymatgen
data_HfSc2Cr(Co4P3)2
_symmetry_space_group_name_H-M   'P 1'
_cell_length_a   11.89575465
_cell_length_b   11.91922018
_cell_length_c   3.60684000
_cell_angle_alpha   90.00000000
_cell_angle_beta   90.00000000
_cell_angle_gamma   120.07122397
_symmetry_Int_Tables_number   1
_chemical_formula_structural   HfSc2Cr(Co4P3)2
_chemical_formula_sum   'Hf2 Sc4 Cr2 Co16 P12'
_cell_volume   442.57329917
_cell_formula_units_Z   2
loop_
 _symmetry_equiv_pos_site_id
 _symmetry_equiv_pos_as_xyz
  1  'x, y, z'
loop_
 _atom_site_type_symbol
 _atom_site_label
 _atom_site_symmetry_multiplicity
 _atom_site_fract_x
 _atom_site_fract_y
 _atom_site_fract_z
 _atom_site_occupancy
  Hf  Hf0  1  0.000290  0.555296  0.000000  1
  Hf  Hf1  1  0.185543  0.999917  0.500000  1
  Sc  Sc2  1  0.815021  0.815175  0.500000  1
  Sc  Sc3  1  0.999339  0.177001  0.500000  1
  Sc  Sc4  1  0.335603  0.667628  0.000000  1
  Sc  Sc5  1  0.664220  0.331627  0.000000  1
  Cr  Cr6  1  0.447093  0.448487  0.000000  1
  Cr  Cr7  1  0.552348  0.001962  0.000000  1
  Co  Co8  1  0.622613  0.823500  0.000000  1
  Co  Co9  1  0.375242  0.199094  0.000000  1
  Co  Co10  1  0.001743  0.722549  0.500000  1
  Co  Co11  1  0.283680  0.280617  0.500000  1
  Co  Co12  1  0.870507  0.349530  0.500000  1
  Co  Co13  1  0.716176  0.998140  0.500000  1
  Co  Co14  1  0.817804  0.626932  0.000000  1
  Co  Co15  1  0.182404  0.810859  0.000000  1
  Co  Co16  1  0.358434  0.878824  0.500000  1
  Co  Co17  1  0.130214  0.479140  0.500000  1
  Co  Co18  1  0.641314  0.519922  0.500000  1
  Co  Co19  1  0.000903  0.000080  0.000000  1
  Co  Co20  1  0.516180  0.646728  0.500000  1
  Co  Co21  1  0.483012  0.130863  0.500000  1
  Co  Co22  1  0.199901  0.371441  0.000000  1
  Co  Co23  1  0.800234  0.171679  0.000000  1
  P  P24  1  0.999978  0.344157  0.000000  1
  P  P25  1  0.823806  0.514538  0.500000  1
  P  P26  1  0.681200  0.162860  0.500000  1
  P  P27  1  0.176910  0.174779  0.000000  1
  P  P28  1  0.635307  0.640881  0.000000  1
  P  P29  1  0.822783  0.996819  0.000000  1
  P  P30  1  0.516433  0.836446  0.500000  1
  P  P31  1  0.176906  0.690578  0.500000  1
  P  P32  1  0.364920  0.005589  0.000000  1
  P  P33  1  0.484004  0.320491  0.500000  1
  P  P34  1  0.998970  0.824457  0.000000  1
  P  P35  1  0.318965  0.481415  0.500000  1
