# generated using pymatgen
data_DyLu2In3RhAu2
_symmetry_space_group_name_H-M   'P 1'
_cell_length_a   7.71691500
_cell_length_b   7.73102399
_cell_length_c   3.83988300
_cell_angle_alpha   90.00000000
_cell_angle_beta   90.00000000
_cell_angle_gamma   119.93963554
_symmetry_Int_Tables_number   1
_chemical_formula_structural   DyLu2In3RhAu2
_chemical_formula_sum   'Dy1 Lu2 In3 Rh1 Au2'
_cell_volume   198.51494562
_cell_formula_units_Z   1
loop_
 _symmetry_equiv_pos_site_id
 _symmetry_equiv_pos_as_xyz
  1  'x, y, z'
loop_
 _atom_site_type_symbol
 _atom_site_label
 _atom_site_symmetry_multiplicity
 _atom_site_fract_x
 _atom_site_fract_y
 _atom_site_fract_z
 _atom_site_occupancy
  Dy  Dy0  1  0.401212  0.000000  0.500000  1
  Lu  Lu1  1  0.999649  0.399046  0.500000  1
  Lu  Lu2  1  0.600603  0.600954  0.500000  1
  In  In3  1  0.743864  0.000000  0.000000  1
  In  In4  1  0.999500  0.743870  0.000000  1
  In  In5  1  0.255631  0.256130  0.000000  1
  Rh  Rh6  1  0.997910  0.000000  0.500000  1
  Au  Au7  1  0.331854  0.662077  0.000000  1
  Au  Au8  1  0.669778  0.337923  0.000000  1
