# generated using pymatgen
data_Nd20CoTc3Bi8
_symmetry_space_group_name_H-M   'P 1'
_cell_length_a   8.36383540
_cell_length_b   9.19245900
_cell_length_c   12.80091728
_cell_angle_alpha   90.00000000
_cell_angle_beta   90.32410161
_cell_angle_gamma   90.00000000
_symmetry_Int_Tables_number   1
_chemical_formula_structural   Nd20CoTc3Bi8
_chemical_formula_sum   'Nd20 Co1 Tc3 Bi8'
_cell_volume   984.17271778
_cell_formula_units_Z   1
loop_
 _symmetry_equiv_pos_site_id
 _symmetry_equiv_pos_as_xyz
  1  'x, y, z'
loop_
 _atom_site_type_symbol
 _atom_site_label
 _atom_site_symmetry_multiplicity
 _atom_site_fract_x
 _atom_site_fract_y
 _atom_site_fract_z
 _atom_site_occupancy
  Nd  Nd0  1  0.845281  0.750000  0.794790  1
  Nd  Nd1  1  0.153130  0.250000  0.208675  1
  Nd  Nd2  1  0.343934  0.250000  0.709766  1
  Nd  Nd3  1  0.651199  0.750000  0.295291  1
  Nd  Nd4  1  0.377592  0.750000  0.694081  1
  Nd  Nd5  1  0.621223  0.250000  0.306575  1
  Nd  Nd6  1  0.878792  0.250000  0.808625  1
  Nd  Nd7  1  0.123010  0.750000  0.190745  1
  Nd  Nd8  1  0.948870  0.750000  0.502511  1
  Nd  Nd9  1  0.054511  0.250000  0.496985  1
  Nd  Nd10  1  0.442255  0.250000  0.996925  1
  Nd  Nd11  1  0.558567  0.750000  0.003570  1
  Nd  Nd12  1  0.675494  0.035770  0.566567  1
  Nd  Nd13  1  0.323586  0.962771  0.432718  1
  Nd  Nd14  1  0.176694  0.958820  0.932596  1
  Nd  Nd15  1  0.323586  0.537229  0.432718  1
  Nd  Nd16  1  0.822563  0.033449  0.063975  1
  Nd  Nd17  1  0.675494  0.464230  0.566567  1
  Nd  Nd18  1  0.822563  0.466551  0.063975  1
  Nd  Nd19  1  0.176694  0.541180  0.932596  1
  Co  Co20  1  0.926651  0.750000  0.008262  1
  Tc  Tc21  1  0.585622  0.750000  0.513369  1
  Tc  Tc22  1  0.417376  0.250000  0.488158  1
  Tc  Tc23  1  0.077920  0.250000  0.990172  1
  Bi  Bi24  1  0.573241  0.493555  0.828908  1
  Bi  Bi25  1  0.426863  0.505868  0.171953  1
  Bi  Bi26  1  0.072285  0.506264  0.673063  1
  Bi  Bi27  1  0.426863  0.994132  0.171953  1
  Bi  Bi28  1  0.926306  0.494417  0.325969  1
  Bi  Bi29  1  0.573241  0.006445  0.828908  1
  Bi  Bi30  1  0.926306  0.005583  0.325969  1
  Bi  Bi31  1  0.072285  0.993736  0.673063  1
