# generated using pymatgen
data_Er2TcB8Rh
_symmetry_space_group_name_H-M   'P 1'
_cell_length_a   3.56690000
_cell_length_b   5.94331386
_cell_length_c   11.51265655
_cell_angle_alpha   90.29638781
_cell_angle_beta   90.00000000
_cell_angle_gamma   90.00000000
_symmetry_Int_Tables_number   1
_chemical_formula_structural   Er2TcB8Rh
_chemical_formula_sum   'Er4 Tc2 B16 Rh2'
_cell_volume   244.05591472
_cell_formula_units_Z   2
loop_
 _symmetry_equiv_pos_site_id
 _symmetry_equiv_pos_as_xyz
  1  'x, y, z'
loop_
 _atom_site_type_symbol
 _atom_site_label
 _atom_site_symmetry_multiplicity
 _atom_site_fract_x
 _atom_site_fract_y
 _atom_site_fract_z
 _atom_site_occupancy
  Er  Er0  1  0.000000  0.130056  0.648637  1
  Er  Er1  1  0.000000  0.869944  0.351363  1
  Er  Er2  1  0.000000  0.629339  0.850948  1
  Er  Er3  1  0.000000  0.370661  0.149052  1
  Tc  Tc4  1  0.000000  0.635131  0.589198  1
  Tc  Tc5  1  0.000000  0.364869  0.410802  1
  B  B6  1  0.500000  0.790338  0.685834  1
  B  B7  1  0.500000  0.209662  0.314166  1
  B  B8  1  0.500000  0.291169  0.813714  1
  B  B9  1  0.500000  0.708831  0.186286  1
  B  B10  1  0.500000  0.865243  0.530663  1
  B  B11  1  0.500000  0.134757  0.469337  1
  B  B12  1  0.500000  0.364505  0.969506  1
  B  B13  1  0.500000  0.635495  0.030494  1
  B  B14  1  0.500000  0.022039  0.193371  1
  B  B15  1  0.500000  0.977961  0.806629  1
  B  B16  1  0.500000  0.522970  0.307252  1
  B  B17  1  0.500000  0.477030  0.692748  1
  B  B18  1  0.500000  0.113078  0.047905  1
  B  B19  1  0.500000  0.886922  0.952095  1
  B  B20  1  0.500000  0.612779  0.453154  1
  B  B21  1  0.500000  0.387221  0.546846  1
  Rh  Rh22  1  0.000000  0.141647  0.905640  1
  Rh  Rh23  1  0.000000  0.858353  0.094360  1
