# generated using pymatgen
data_Ce2PrDy2P12Ru19
_symmetry_space_group_name_H-M   'P 1'
_cell_length_a   12.61043808
_cell_length_b   12.60799615
_cell_length_c   3.99655700
_cell_angle_alpha   90.00000000
_cell_angle_beta   90.00000000
_cell_angle_gamma   119.99359324
_symmetry_Int_Tables_number   1
_chemical_formula_structural   Ce2PrDy2P12Ru19
_chemical_formula_sum   'Ce2 Pr1 Dy2 P12 Ru19'
_cell_volume   550.32712401
_cell_formula_units_Z   1
loop_
 _symmetry_equiv_pos_site_id
 _symmetry_equiv_pos_as_xyz
  1  'x, y, z'
loop_
 _atom_site_type_symbol
 _atom_site_label
 _atom_site_symmetry_multiplicity
 _atom_site_fract_x
 _atom_site_fract_y
 _atom_site_fract_z
 _atom_site_occupancy
  Ce  Ce0  1  0.816237  0.999822  0.500000  1
  Ce  Ce1  1  0.183763  0.183585  0.500000  1
  Pr  Pr2  1  0.000000  0.814030  0.500000  1
  Dy  Dy3  1  0.666194  0.332875  0.000000  1
  Dy  Dy4  1  0.333806  0.666681  0.000000  1
  P  P5  1  0.625198  0.999985  0.000000  1
  P  P6  1  0.374802  0.374787  0.000000  1
  P  P7  1  0.000000  0.624185  0.000000  1
  P  P8  1  0.694969  0.521374  0.500000  1
  P  P9  1  0.826549  0.305067  0.500000  1
  P  P10  1  0.305031  0.826407  0.500000  1
  P  P11  1  0.521165  0.694975  0.500000  1
  P  P12  1  0.187702  0.999959  0.000000  1
  P  P13  1  0.812298  0.812258  0.000000  1
  P  P14  1  0.000000  0.188252  0.000000  1
  P  P15  1  0.478835  0.173808  0.500000  1
  P  P16  1  0.173451  0.478521  0.500000  1
  Ru  Ru17  1  0.622189  0.807813  0.000000  1
  Ru  Ru18  1  0.185069  0.377496  0.000000  1
  Ru  Ru19  1  0.377811  0.185623  0.000000  1
  Ru  Ru20  1  0.196263  0.814919  0.000000  1
  Ru  Ru21  1  0.803737  0.618655  0.000000  1
  Ru  Ru22  1  0.874521  0.506793  0.500000  1
  Ru  Ru23  1  0.492853  0.367599  0.500000  1
  Ru  Ru24  1  0.633448  0.126165  0.500000  1
  Ru  Ru25  1  0.125479  0.632272  0.500000  1
  Ru  Ru26  1  0.366552  0.492717  0.500000  1
  Ru  Ru27  1  0.507147  0.874746  0.500000  1
  Ru  Ru28  1  0.000000  0.003633  0.000000  1
  Ru  Ru29  1  0.713461  0.714578  0.500000  1
  Ru  Ru30  1  0.000000  0.285689  0.500000  1
  Ru  Ru31  1  0.445856  0.001451  0.000000  1
  Ru  Ru32  1  0.554144  0.555595  0.000000  1
  Ru  Ru33  1  0.000000  0.444140  0.000000  1
  Ru  Ru34  1  0.814931  0.192426  0.000000  1
  Ru  Ru35  1  0.286539  0.001117  0.500000  1
