# generated using pymatgen
data_Dy16Cd4Ir2OsRh
_symmetry_space_group_name_H-M   'P 1'
_cell_length_a   9.67015893
_cell_length_b   9.61536035
_cell_length_c   9.67012942
_cell_angle_alpha   59.78736391
_cell_angle_beta   59.99990146
_cell_angle_gamma   59.81129796
_symmetry_Int_Tables_number   1
_chemical_formula_structural   Dy16Cd4Ir2OsRh
_chemical_formula_sum   'Dy16 Cd4 Ir2 Os1 Rh1'
_cell_volume   633.85827063
_cell_formula_units_Z   1
loop_
 _symmetry_equiv_pos_site_id
 _symmetry_equiv_pos_as_xyz
  1  'x, y, z'
loop_
 _atom_site_type_symbol
 _atom_site_label
 _atom_site_symmetry_multiplicity
 _atom_site_fract_x
 _atom_site_fract_y
 _atom_site_fract_z
 _atom_site_occupancy
  Dy  Dy0  1  0.560701  0.560312  0.937278  1
  Dy  Dy1  1  0.152047  0.545055  0.150850  1
  Dy  Dy2  1  0.689613  0.311003  0.309770  1
  Dy  Dy3  1  0.938029  0.562373  0.561568  1
  Dy  Dy4  1  0.941709  0.560312  0.937278  1
  Dy  Dy5  1  0.689458  0.689995  0.310706  1
  Dy  Dy6  1  0.561202  0.942394  0.935202  1
  Dy  Dy7  1  0.151928  0.151722  0.150946  1
  Dy  Dy8  1  0.309840  0.689995  0.310706  1
  Dy  Dy9  1  0.545404  0.151722  0.150946  1
  Dy  Dy10  1  0.309452  0.311971  0.690694  1
  Dy  Dy11  1  0.310848  0.687766  0.690538  1
  Dy  Dy12  1  0.151060  0.150306  0.547575  1
  Dy  Dy13  1  0.687883  0.311971  0.690694  1
  Dy  Dy14  1  0.936563  0.938350  0.561910  1
  Dy  Dy15  1  0.563177  0.938350  0.561910  1
  Cd  Cd16  1  0.918929  0.919556  0.919014  1
  Cd  Cd17  1  0.242501  0.919556  0.919014  1
  Cd  Cd18  1  0.918741  0.919392  0.243123  1
  Cd  Cd19  1  0.918960  0.243202  0.918878  1
  Ir  Ir20  1  0.359170  0.357360  0.359302  1
  Ir  Ir21  1  0.924168  0.357360  0.359302  1
  Os  Os22  1  0.359685  0.356579  0.924050  1
  Rh  Rh23  1  0.358930  0.923397  0.358743  1
