# generated using pymatgen
data_ThCr2(FeTc4)2
_symmetry_space_group_name_H-M   'P 1'
_cell_length_a   6.75019155
_cell_length_b   6.81753574
_cell_length_c   6.75019209
_cell_angle_alpha   97.29604155
_cell_angle_beta   96.70715287
_cell_angle_gamma   138.37296179
_symmetry_Int_Tables_number   1
_chemical_formula_structural   ThCr2(FeTc4)2
_chemical_formula_sum   'Th1 Cr2 Fe2 Tc8'
_cell_volume   193.82731293
_cell_formula_units_Z   1
loop_
 _symmetry_equiv_pos_site_id
 _symmetry_equiv_pos_as_xyz
  1  'x, y, z'
loop_
 _atom_site_type_symbol
 _atom_site_label
 _atom_site_symmetry_multiplicity
 _atom_site_fract_x
 _atom_site_fract_y
 _atom_site_fract_z
 _atom_site_occupancy
  Th  Th0  1  0.000000  0.000000  0.000000  1
  Cr  Cr1  1  0.500000  0.500000  0.500000  1
  Cr  Cr2  1  0.000000  0.500000  0.000000  1
  Fe  Fe3  1  0.500000  0.000000  0.000000  1
  Fe  Fe4  1  0.000000  0.000000  0.500000  1
  Tc  Tc5  1  0.276888  0.500000  0.776888  1
  Tc  Tc6  1  0.499937  0.279470  0.779533  1
  Tc  Tc7  1  0.500063  0.720530  0.220467  1
  Tc  Tc8  1  0.723112  0.500000  0.223112  1
  Tc  Tc9  1  0.357713  0.000000  0.357713  1
  Tc  Tc10  1  0.642287  0.000000  0.642287  1
  Tc  Tc11  1  0.002637  0.645854  0.643217  1
  Tc  Tc12  1  0.997363  0.354146  0.356783  1
