# generated using pymatgen
data_HoTm7(Sc3Sn4)4
_symmetry_space_group_name_H-M   'P 1'
_cell_length_a   7.64992903
_cell_length_b   7.92798101
_cell_length_c   14.78006205
_cell_angle_alpha   90.00258861
_cell_angle_beta   89.99094084
_cell_angle_gamma   90.00514939
_symmetry_Int_Tables_number   1
_chemical_formula_structural   HoTm7(Sc3Sn4)4
_chemical_formula_sum   'Ho1 Tm7 Sc12 Sn16'
_cell_volume   896.38846060
_cell_formula_units_Z   1
loop_
 _symmetry_equiv_pos_site_id
 _symmetry_equiv_pos_as_xyz
  1  'x, y, z'
loop_
 _atom_site_type_symbol
 _atom_site_label
 _atom_site_symmetry_multiplicity
 _atom_site_fract_x
 _atom_site_fract_y
 _atom_site_fract_z
 _atom_site_occupancy
  Ho  Ho0  1  0.994327  0.178129  0.093619  1
  Tm  Tm1  1  0.005699  0.821662  0.906243  1
  Tm  Tm2  1  0.505768  0.678313  0.906273  1
  Tm  Tm3  1  0.005758  0.821710  0.593711  1
  Tm  Tm4  1  0.494236  0.321747  0.093698  1
  Tm  Tm5  1  0.994229  0.178294  0.406232  1
  Tm  Tm6  1  0.494246  0.321714  0.406330  1
  Tm  Tm7  1  0.505737  0.678309  0.593708  1
  Sc  Sc8  1  0.164500  0.496665  0.749992  1
  Sc  Sc9  1  0.835446  0.503386  0.250047  1
  Sc  Sc10  1  0.335571  0.996607  0.250036  1
  Sc  Sc11  1  0.664484  0.003313  0.750005  1
  Sc  Sc12  1  0.336182  0.161142  0.627374  1
  Sc  Sc13  1  0.663811  0.838862  0.372664  1
  Sc  Sc14  1  0.163810  0.661170  0.372670  1
  Sc  Sc15  1  0.663740  0.838761  0.127361  1
  Sc  Sc16  1  0.836181  0.338836  0.627375  1
  Sc  Sc17  1  0.336209  0.161124  0.872618  1
  Sc  Sc18  1  0.836093  0.338923  0.872595  1
  Sc  Sc19  1  0.163825  0.661175  0.127353  1
  Sn  Sn20  1  0.026909  0.122713  0.749989  1
  Sn  Sn21  1  0.973091  0.877139  0.250034  1
  Sn  Sn22  1  0.473088  0.622680  0.249999  1
  Sn  Sn23  1  0.526875  0.377325  0.749987  1
  Sn  Sn24  1  0.307028  0.848089  0.750005  1
  Sn  Sn25  1  0.692747  0.151866  0.250113  1
  Sn  Sn26  1  0.193256  0.348359  0.250196  1
  Sn  Sn27  1  0.807044  0.651905  0.750007  1
  Sn  Sn28  1  0.182433  0.458416  0.542258  1
  Sn  Sn29  1  0.817567  0.541573  0.457754  1
  Sn  Sn30  1  0.317526  0.958435  0.457735  1
  Sn  Sn31  1  0.817444  0.541794  0.042190  1
  Sn  Sn32  1  0.682434  0.041576  0.542266  1
  Sn  Sn33  1  0.182538  0.458591  0.957710  1
  Sn  Sn34  1  0.682147  0.041493  0.957656  1
  Sn  Sn35  1  0.318024  0.958204  0.042197  1
