# generated using pymatgen
data_Dy5HoNiCl10
_symmetry_space_group_name_H-M   'P 1'
_cell_length_a   7.05134456
_cell_length_b   8.79983020
_cell_length_c   8.83835963
_cell_angle_alpha   108.13993042
_cell_angle_beta   96.91342247
_cell_angle_gamma   105.44730944
_symmetry_Int_Tables_number   1
_chemical_formula_structural   Dy5HoNiCl10
_chemical_formula_sum   'Dy5 Ho1 Ni1 Cl10'
_cell_volume   489.81288434
_cell_formula_units_Z   1
loop_
 _symmetry_equiv_pos_site_id
 _symmetry_equiv_pos_as_xyz
  1  'x, y, z'
loop_
 _atom_site_type_symbol
 _atom_site_label
 _atom_site_symmetry_multiplicity
 _atom_site_fract_x
 _atom_site_fract_y
 _atom_site_fract_z
 _atom_site_occupancy
  Dy  Dy0  1  0.129211  0.049262  0.751982  1
  Dy  Dy1  1  0.870101  0.950470  0.247745  1
  Dy  Dy2  1  0.968541  0.302091  0.095950  1
  Dy  Dy3  1  0.031037  0.697823  0.903818  1
  Dy  Dy4  1  0.362274  0.137053  0.183310  1
  Ho  Ho5  1  0.638661  0.863106  0.817097  1
  Ni  Ni6  1  0.999831  0.999907  0.999973  1
  Cl  Cl7  1  0.545551  0.174070  0.916568  1
  Cl  Cl8  1  0.454292  0.824750  0.082127  1
  Cl  Cl9  1  0.348220  0.450046  0.269492  1
  Cl  Cl10  1  0.650852  0.550914  0.730477  1
  Cl  Cl11  1  0.246462  0.081306  0.455054  1
  Cl  Cl12  1  0.752836  0.918454  0.545500  1
  Cl  Cl13  1  0.782796  0.252154  0.342482  1
  Cl  Cl14  1  0.218868  0.748282  0.658116  1
  Cl  Cl15  1  0.084480  0.368908  0.829426  1
  Cl  Cl16  1  0.915989  0.631402  0.170884  1
