# generated using pymatgen
data_Dy3Lu2Bi2Ir
_symmetry_space_group_name_H-M   'P 1'
_cell_length_a   7.89747900
_cell_length_b   8.99000100
_cell_length_c   12.49129600
_cell_angle_alpha   90.00000000
_cell_angle_beta   90.00000000
_cell_angle_gamma   90.00000000
_symmetry_Int_Tables_number   1
_chemical_formula_structural   Dy3Lu2Bi2Ir
_chemical_formula_sum   'Dy12 Lu8 Bi8 Ir4'
_cell_volume   886.86133176
_cell_formula_units_Z   4
loop_
 _symmetry_equiv_pos_site_id
 _symmetry_equiv_pos_as_xyz
  1  'x, y, z'
loop_
 _atom_site_type_symbol
 _atom_site_label
 _atom_site_symmetry_multiplicity
 _atom_site_fract_x
 _atom_site_fract_y
 _atom_site_fract_z
 _atom_site_occupancy
  Dy  Dy0  1  0.842469  0.750000  0.792935  1
  Dy  Dy1  1  0.157531  0.250000  0.207065  1
  Dy  Dy2  1  0.342469  0.250000  0.707065  1
  Dy  Dy3  1  0.657531  0.750000  0.292935  1
  Dy  Dy4  1  0.376371  0.750000  0.692401  1
  Dy  Dy5  1  0.623629  0.250000  0.307599  1
  Dy  Dy6  1  0.876371  0.250000  0.807599  1
  Dy  Dy7  1  0.123629  0.750000  0.192401  1
  Dy  Dy8  1  0.944859  0.750000  0.501736  1
  Dy  Dy9  1  0.055141  0.250000  0.498264  1
  Dy  Dy10  1  0.444859  0.250000  0.998264  1
  Dy  Dy11  1  0.555141  0.750000  0.001736  1
  Lu  Lu12  1  0.672572  0.042071  0.565276  1
  Lu  Lu13  1  0.327428  0.957929  0.434724  1
  Lu  Lu14  1  0.172572  0.957929  0.934724  1
  Lu  Lu15  1  0.327428  0.542071  0.434724  1
  Lu  Lu16  1  0.827428  0.042071  0.065276  1
  Lu  Lu17  1  0.672572  0.457929  0.565276  1
  Lu  Lu18  1  0.827428  0.457929  0.065276  1
  Lu  Lu19  1  0.172572  0.542071  0.934724  1
  Bi  Bi20  1  0.567010  0.491445  0.827631  1
  Bi  Bi21  1  0.432990  0.508555  0.172369  1
  Bi  Bi22  1  0.067010  0.508555  0.672369  1
  Bi  Bi23  1  0.432990  0.991445  0.172369  1
  Bi  Bi24  1  0.932990  0.491445  0.327631  1
  Bi  Bi25  1  0.567010  0.008555  0.827631  1
  Bi  Bi26  1  0.932990  0.008555  0.327631  1
  Bi  Bi27  1  0.067010  0.991445  0.672369  1
  Ir  Ir28  1  0.569641  0.750000  0.508278  1
  Ir  Ir29  1  0.430359  0.250000  0.491722  1
  Ir  Ir30  1  0.069641  0.250000  0.991722  1
  Ir  Ir31  1  0.930359  0.750000  0.008278  1
