# generated using pymatgen
data_Cd21AgPd4
_symmetry_space_group_name_H-M   'P 1'
_cell_length_a   8.83433088
_cell_length_b   8.83168581
_cell_length_c   8.83168619
_cell_angle_alpha   109.46515625
_cell_angle_beta   109.47728358
_cell_angle_gamma   109.47728933
_symmetry_Int_Tables_number   1
_chemical_formula_structural   Cd21AgPd4
_chemical_formula_sum   'Cd21 Ag1 Pd4'
_cell_volume   530.40362268
_cell_formula_units_Z   1
loop_
 _symmetry_equiv_pos_site_id
 _symmetry_equiv_pos_as_xyz
  1  'x, y, z'
loop_
 _atom_site_type_symbol
 _atom_site_label
 _atom_site_symmetry_multiplicity
 _atom_site_fract_x
 _atom_site_fract_y
 _atom_site_fract_z
 _atom_site_occupancy
  Cd  Cd0  1  0.649225  0.252875  0.000000  1
  Cd  Cd1  1  0.361229  0.358230  0.000000  1
  Cd  Cd2  1  0.643408  0.649963  0.000000  1
  Cd  Cd3  1  0.258098  0.648049  0.000000  1
  Cd  Cd4  1  0.997019  0.792214  0.000000  1
  Cd  Cd5  1  0.204804  0.207786  0.207786  1
  Cd  Cd6  1  0.649225  0.000000  0.252875  1
  Cd  Cd7  1  0.999675  0.647850  0.260318  1
  Cd  Cd8  1  0.610050  0.351951  0.351951  1
  Cd  Cd9  1  0.351825  0.612468  0.352150  1
  Cd  Cd10  1  0.361229  0.000000  0.358230  1
  Cd  Cd11  1  0.993447  0.350037  0.350037  1
  Cd  Cd12  1  0.739357  0.739682  0.387532  1
  Cd  Cd13  1  0.351825  0.352150  0.612468  1
  Cd  Cd14  1  0.643408  0.000000  0.649963  1
  Cd  Cd15  1  0.003000  0.641770  0.641770  1
  Cd  Cd16  1  0.258098  0.000000  0.648049  1
  Cd  Cd17  1  0.999675  0.260318  0.647850  1
  Cd  Cd18  1  0.396350  0.747125  0.747125  1
  Cd  Cd19  1  0.739357  0.387532  0.739682  1
  Cd  Cd20  1  0.997019  0.000000  0.792214  1
  Ag  Ag21  1  0.792908  0.000000  0.000000  1
  Pd  Pd22  1  0.339880  0.000000  0.000000  1
  Pd  Pd23  1  0.002332  0.347109  0.000000  1
  Pd  Pd24  1  0.002332  0.000000  0.347109  1
  Pd  Pd25  1  0.655223  0.652891  0.652891  1
