# generated using pymatgen
data_Y4ScP12IrRu18
_symmetry_space_group_name_H-M   'P 1'
_cell_length_a   12.51608955
_cell_length_b   12.51608972
_cell_length_c   3.97454600
_cell_angle_alpha   90.00000000
_cell_angle_beta   90.00000000
_cell_angle_gamma   119.91364107
_symmetry_Int_Tables_number   1
_chemical_formula_structural   Y4ScP12IrRu18
_chemical_formula_sum   'Y4 Sc1 P12 Ir1 Ru18'
_cell_volume   539.67557019
_cell_formula_units_Z   1
loop_
 _symmetry_equiv_pos_site_id
 _symmetry_equiv_pos_as_xyz
  1  'x, y, z'
loop_
 _atom_site_type_symbol
 _atom_site_label
 _atom_site_symmetry_multiplicity
 _atom_site_fract_x
 _atom_site_fract_y
 _atom_site_fract_z
 _atom_site_occupancy
  Y  Y0  1  0.332810  0.665996  0.000000  1
  Y  Y1  1  0.665996  0.332810  0.000000  1
  Y  Y2  1  0.814424  0.000076  0.500000  1
  Y  Y3  1  0.000076  0.814424  0.500000  1
  Sc  Sc4  1  0.186429  0.186429  0.500000  1
  P  P5  1  0.185372  0.001292  0.000000  1
  P  P6  1  0.001292  0.185372  0.000000  1
  P  P7  1  0.815837  0.815837  0.000000  1
  P  P8  1  0.170434  0.476966  0.500000  1
  P  P9  1  0.522022  0.692465  0.500000  1
  P  P10  1  0.306693  0.830329  0.500000  1
  P  P11  1  0.692465  0.522022  0.500000  1
  P  P12  1  0.830329  0.306693  0.500000  1
  P  P13  1  0.476966  0.170434  0.500000  1
  P  P14  1  0.626864  0.000119  0.000000  1
  P  P15  1  0.000119  0.626864  0.000000  1
  P  P16  1  0.372144  0.372144  0.000000  1
  Ir  Ir17  1  0.002712  0.002712  0.000000  1
  Ru  Ru18  1  0.444956  0.001086  0.000000  1
  Ru  Ru19  1  0.001086  0.444956  0.000000  1
  Ru  Ru20  1  0.554546  0.554546  0.000000  1
  Ru  Ru21  1  0.364636  0.490401  0.500000  1
  Ru  Ru22  1  0.508191  0.874012  0.500000  1
  Ru  Ru23  1  0.126075  0.634607  0.500000  1
  Ru  Ru24  1  0.874012  0.508191  0.500000  1
  Ru  Ru25  1  0.634607  0.126075  0.500000  1
  Ru  Ru26  1  0.490401  0.364636  0.500000  1
  Ru  Ru27  1  0.185286  0.373891  0.000000  1
  Ru  Ru28  1  0.622794  0.807581  0.000000  1
  Ru  Ru29  1  0.192612  0.815809  0.000000  1
  Ru  Ru30  1  0.807581  0.622794  0.000000  1
  Ru  Ru31  1  0.815809  0.192612  0.000000  1
  Ru  Ru32  1  0.373891  0.185286  0.000000  1
  Ru  Ru33  1  0.281195  0.001565  0.500000  1
  Ru  Ru34  1  0.001565  0.281195  0.500000  1
  Ru  Ru35  1  0.717773  0.717773  0.500000  1
