# generated using pymatgen
data_Ho2Tm8Si5Bi
_symmetry_space_group_name_H-M   'P 1'
_cell_length_a   8.46905842
_cell_length_b   8.46905725
_cell_length_c   6.26976400
_cell_angle_alpha   90.00000000
_cell_angle_beta   90.00000000
_cell_angle_gamma   120.34784803
_symmetry_Int_Tables_number   1
_chemical_formula_structural   Ho2Tm8Si5Bi
_chemical_formula_sum   'Ho2 Tm8 Si5 Bi1'
_cell_volume   388.07803266
_cell_formula_units_Z   1
loop_
 _symmetry_equiv_pos_site_id
 _symmetry_equiv_pos_as_xyz
  1  'x, y, z'
loop_
 _atom_site_type_symbol
 _atom_site_label
 _atom_site_symmetry_multiplicity
 _atom_site_fract_x
 _atom_site_fract_y
 _atom_site_fract_z
 _atom_site_occupancy
  Ho  Ho0  1  0.768635  0.768635  0.250000  1
  Ho  Ho1  1  0.239350  0.239350  0.750000  1
  Tm  Tm2  1  0.677252  0.330585  0.504916  1
  Tm  Tm3  1  0.330585  0.677252  0.504916  1
  Tm  Tm4  1  0.330585  0.677252  0.995084  1
  Tm  Tm5  1  0.677252  0.330585  0.995084  1
  Tm  Tm6  1  0.239470  0.984160  0.250000  1
  Tm  Tm7  1  0.984160  0.239470  0.250000  1
  Tm  Tm8  1  0.755244  0.998577  0.750000  1
  Tm  Tm9  1  0.998577  0.755244  0.750000  1
  Si  Si10  1  0.603556  0.998963  0.250000  1
  Si  Si11  1  0.998963  0.603556  0.250000  1
  Si  Si12  1  0.607400  0.607400  0.750000  1
  Si  Si13  1  0.393616  0.002422  0.750000  1
  Si  Si14  1  0.002422  0.393616  0.750000  1
  Bi  Bi15  1  0.392934  0.392934  0.250000  1
