# generated using pymatgen
data_Th2Al2GaSi
_symmetry_space_group_name_H-M   'P 1'
_cell_length_a   4.23748770
_cell_length_b   4.29012216
_cell_length_c   7.96478134
_cell_angle_alpha   74.37629451
_cell_angle_beta   74.57278034
_cell_angle_gamma   90.00000108
_symmetry_Int_Tables_number   1
_chemical_formula_structural   Th2Al2GaSi
_chemical_formula_sum   'Th2 Al2 Ga1 Si1'
_cell_volume   134.01931741
_cell_formula_units_Z   1
loop_
 _symmetry_equiv_pos_site_id
 _symmetry_equiv_pos_as_xyz
  1  'x, y, z'
loop_
 _atom_site_type_symbol
 _atom_site_label
 _atom_site_symmetry_multiplicity
 _atom_site_fract_x
 _atom_site_fract_y
 _atom_site_fract_z
 _atom_site_occupancy
  Th  Th0  1  0.746193  0.246193  0.507615  1
  Th  Th1  1  0.003637  0.003637  0.992725  1
  Al  Al2  1  0.416607  0.416607  0.166786  1
  Al  Al3  1  0.167064  0.667064  0.665873  1
  Ga  Ga4  1  0.334534  0.834534  0.330931  1
  Si  Si5  1  0.581965  0.581965  0.836070  1
