# generated using pymatgen
data_Dy4Al4IrRu3
_symmetry_space_group_name_H-M   'P 1'
_cell_length_a   4.03720300
_cell_length_b   7.02500539
_cell_length_c   8.07274068
_cell_angle_alpha   89.99340759
_cell_angle_beta   90.00000000
_cell_angle_gamma   90.00000000
_symmetry_Int_Tables_number   1
_chemical_formula_structural   Dy4Al4IrRu3
_chemical_formula_sum   'Dy4 Al4 Ir1 Ru3'
_cell_volume   228.95400684
_cell_formula_units_Z   1
loop_
 _symmetry_equiv_pos_site_id
 _symmetry_equiv_pos_as_xyz
  1  'x, y, z'
loop_
 _atom_site_type_symbol
 _atom_site_label
 _atom_site_symmetry_multiplicity
 _atom_site_fract_x
 _atom_site_fract_y
 _atom_site_fract_z
 _atom_site_occupancy
  Dy  Dy0  1  0.250000  0.467609  0.180986  1
  Dy  Dy1  1  0.750000  0.534375  0.819615  1
  Dy  Dy2  1  0.750000  0.032509  0.677522  1
  Dy  Dy3  1  0.250000  0.966914  0.320686  1
  Al  Al4  1  0.250000  0.861064  0.940196  1
  Al  Al5  1  0.750000  0.136610  0.060925  1
  Al  Al6  1  0.750000  0.637710  0.440826  1
  Al  Al7  1  0.250000  0.362857  0.560033  1
  Ir  Ir8  1  0.250000  0.229721  0.877678  1
  Ru  Ru9  1  0.250000  0.732664  0.622236  1
  Ru  Ru10  1  0.750000  0.268963  0.377165  1
  Ru  Ru11  1  0.750000  0.769004  0.122131  1
