# generated using pymatgen
data_MgSc(Si7Rh3)2
_symmetry_space_group_name_H-M   'P 1'
_cell_length_a   7.92221639
_cell_length_b   7.92221609
_cell_length_c   7.92221708
_cell_angle_alpha   57.08984135
_cell_angle_beta   57.08984366
_cell_angle_gamma   57.08983801
_symmetry_Int_Tables_number   1
_chemical_formula_structural   MgSc(Si7Rh3)2
_chemical_formula_sum   'Mg1 Sc1 Si14 Rh6'
_cell_volume   327.99967951
_cell_formula_units_Z   1
loop_
 _symmetry_equiv_pos_site_id
 _symmetry_equiv_pos_as_xyz
  1  'x, y, z'
loop_
 _atom_site_type_symbol
 _atom_site_label
 _atom_site_symmetry_multiplicity
 _atom_site_fract_x
 _atom_site_fract_y
 _atom_site_fract_z
 _atom_site_occupancy
  Mg  Mg0  1  0.000000  0.000000  0.000000  1
  Sc  Sc1  1  0.500000  0.500000  0.500000  1
  Si  Si2  1  0.749867  0.749867  0.749867  1
  Si  Si3  1  0.250133  0.250133  0.250133  1
  Si  Si4  1  0.851515  0.065962  0.673053  1
  Si  Si5  1  0.673053  0.851515  0.065962  1
  Si  Si6  1  0.065962  0.673053  0.851515  1
  Si  Si7  1  0.648682  0.828035  0.433913  1
  Si  Si8  1  0.433913  0.648682  0.828035  1
  Si  Si9  1  0.828035  0.433913  0.648682  1
  Si  Si10  1  0.171965  0.566087  0.351318  1
  Si  Si11  1  0.566087  0.351318  0.171965  1
  Si  Si12  1  0.351318  0.171965  0.566087  1
  Si  Si13  1  0.934038  0.326947  0.148485  1
  Si  Si14  1  0.326947  0.148485  0.934038  1
  Si  Si15  1  0.148485  0.934038  0.326947  1
  Rh  Rh16  1  0.074242  0.428045  0.748687  1
  Rh  Rh17  1  0.251313  0.925758  0.571955  1
  Rh  Rh18  1  0.571955  0.251313  0.925758  1
  Rh  Rh19  1  0.925758  0.571955  0.251313  1
  Rh  Rh20  1  0.428045  0.748687  0.074242  1
  Rh  Rh21  1  0.748687  0.074242  0.428045  1
