# generated using pymatgen
data_Ho3Hf5(B6Ru)4
_symmetry_space_group_name_H-M   'P 1'
_cell_length_a   3.51273300
_cell_length_b   8.99607144
_cell_length_c   11.31822916
_cell_angle_alpha   90.02760150
_cell_angle_beta   90.00000000
_cell_angle_gamma   90.00000000
_symmetry_Int_Tables_number   1
_chemical_formula_structural   Ho3Hf5(B6Ru)4
_chemical_formula_sum   'Ho3 Hf5 B24 Ru4'
_cell_volume   357.66502086
_cell_formula_units_Z   1
loop_
 _symmetry_equiv_pos_site_id
 _symmetry_equiv_pos_as_xyz
  1  'x, y, z'
loop_
 _atom_site_type_symbol
 _atom_site_label
 _atom_site_symmetry_multiplicity
 _atom_site_fract_x
 _atom_site_fract_y
 _atom_site_fract_z
 _atom_site_occupancy
  Ho  Ho0  1  0.000000  0.321412  0.413485  1
  Ho  Ho1  1  0.000000  0.678429  0.587230  1
  Ho  Ho2  1  0.000000  0.823517  0.085476  1
  Hf  Hf3  1  0.000000  0.179332  0.912867  1
  Hf  Hf4  1  0.000000  0.945047  0.372929  1
  Hf  Hf5  1  0.000000  0.055922  0.628373  1
  Hf  Hf6  1  0.000000  0.443850  0.125640  1
  Hf  Hf7  1  0.000000  0.554619  0.873964  1
  B  B8  1  0.500000  0.553806  0.433902  1
  B  B9  1  0.500000  0.445783  0.566697  1
  B  B10  1  0.500000  0.054622  0.063226  1
  B  B11  1  0.500000  0.948749  0.934328  1
  B  B12  1  0.500000  0.752307  0.419062  1
  B  B13  1  0.500000  0.247423  0.581440  1
  B  B14  1  0.500000  0.251340  0.077763  1
  B  B15  1  0.500000  0.747578  0.919287  1
  B  B16  1  0.500000  0.795293  0.263342  1
  B  B17  1  0.500000  0.203598  0.738651  1
  B  B18  1  0.500000  0.294994  0.235377  1
  B  B19  1  0.500000  0.704696  0.764027  1
  B  B20  1  0.500000  0.629693  0.182326  1
  B  B21  1  0.500000  0.367963  0.818880  1
  B  B22  1  0.500000  0.130243  0.317031  1
  B  B23  1  0.500000  0.870556  0.683222  1
  B  B24  1  0.500000  0.981409  0.213001  1
  B  B25  1  0.500000  0.021060  0.788383  1
  B  B26  1  0.500000  0.480841  0.286285  1
  B  B27  1  0.500000  0.518726  0.713773  1
  B  B28  1  0.500000  0.601409  0.027378  1
  B  B29  1  0.500000  0.395022  0.971639  1
  B  B30  1  0.500000  0.101548  0.472876  1
  B  B31  1  0.500000  0.899105  0.527746  1
  Ru  Ru32  1  0.000000  0.641731  0.318485  1
  Ru  Ru33  1  0.000000  0.357969  0.682674  1
  Ru  Ru34  1  0.000000  0.142627  0.179304  1
  Ru  Ru35  1  0.000000  0.857777  0.819935  1
