# generated using pymatgen
data_DyLuGa9NiIr2
_symmetry_space_group_name_H-M   'P 1'
_cell_length_a   7.53104622
_cell_length_b   7.53084804
_cell_length_c   9.40540700
_cell_angle_alpha   90.00000000
_cell_angle_beta   90.00000000
_cell_angle_gamma   120.10889478
_symmetry_Int_Tables_number   1
_chemical_formula_structural   DyLuGa9NiIr2
_chemical_formula_sum   'Dy2 Lu2 Ga18 Ni2 Ir4'
_cell_volume   461.45550006
_cell_formula_units_Z   2
loop_
 _symmetry_equiv_pos_site_id
 _symmetry_equiv_pos_as_xyz
  1  'x, y, z'
loop_
 _atom_site_type_symbol
 _atom_site_label
 _atom_site_symmetry_multiplicity
 _atom_site_fract_x
 _atom_site_fract_y
 _atom_site_fract_z
 _atom_site_occupancy
  Dy  Dy0  1  0.660969  0.996797  0.250000  1
  Dy  Dy1  1  0.339031  0.003203  0.750000  1
  Lu  Lu2  1  0.996871  0.660578  0.250000  1
  Lu  Lu3  1  0.003129  0.339422  0.750000  1
  Ga  Ga4  1  0.109583  0.109096  0.250000  1
  Ga  Ga5  1  0.890417  0.890904  0.750000  1
  Ga  Ga6  1  0.999288  0.328008  0.078501  1
  Ga  Ga7  1  0.000712  0.671992  0.921499  1
  Ga  Ga8  1  0.000712  0.671992  0.578501  1
  Ga  Ga9  1  0.326369  0.998475  0.420988  1
  Ga  Ga10  1  0.999288  0.328008  0.421499  1
  Ga  Ga11  1  0.673631  0.001525  0.579012  1
  Ga  Ga12  1  0.673631  0.001525  0.920988  1
  Ga  Ga13  1  0.326369  0.998475  0.079012  1
  Ga  Ga14  1  0.325656  0.326383  0.565682  1
  Ga  Ga15  1  0.674344  0.673617  0.434318  1
  Ga  Ga16  1  0.674344  0.673617  0.065682  1
  Ga  Ga17  1  0.325656  0.326383  0.934318  1
  Ga  Ga18  1  0.337634  0.540832  0.250000  1
  Ga  Ga19  1  0.662366  0.459168  0.750000  1
  Ga  Ga20  1  0.541445  0.338514  0.250000  1
  Ga  Ga21  1  0.458555  0.661486  0.750000  1
  Ni  Ni22  1  0.000000  0.000000  0.000000  1
  Ni  Ni23  1  0.000000  0.000000  0.500000  1
  Ir  Ir24  1  0.672159  0.328657  0.000027  1
  Ir  Ir25  1  0.327841  0.671343  0.999973  1
  Ir  Ir26  1  0.327841  0.671343  0.500027  1
  Ir  Ir27  1  0.672159  0.328657  0.499973  1
