# generated using pymatgen
data_La3Y(MoO4)6
_symmetry_space_group_name_H-M   'P 1'
_cell_length_a   7.67436863
_cell_length_b   7.67436863
_cell_length_c   10.99354242
_cell_angle_alpha   89.76456886
_cell_angle_beta   90.23543114
_cell_angle_gamma   89.71754092
_symmetry_Int_Tables_number   1
_chemical_formula_structural   La3Y(MoO4)6
_chemical_formula_sum   'La3 Y1 Mo6 O24'
_cell_volume   647.45609262
_cell_formula_units_Z   1
loop_
 _symmetry_equiv_pos_site_id
 _symmetry_equiv_pos_as_xyz
  1  'x, y, z'
loop_
 _atom_site_type_symbol
 _atom_site_label
 _atom_site_symmetry_multiplicity
 _atom_site_fract_x
 _atom_site_fract_y
 _atom_site_fract_z
 _atom_site_occupancy
  La  La0  1  0.690583  0.191509  0.261444  1
  La  La1  1  0.813581  0.686419  0.741284  1
  La  La2  1  0.308491  0.809417  0.261444  1
  Y  Y3  1  0.193871  0.306129  0.733459  1
  Mo  Mo4  1  0.490769  0.493117  0.995230  1
  Mo  Mo5  1  0.006883  0.009231  0.995230  1
  Mo  Mo6  1  0.708192  0.209435  0.647077  1
  Mo  Mo7  1  0.790989  0.709011  0.354543  1
  Mo  Mo8  1  0.290565  0.791808  0.647077  1
  Mo  Mo9  1  0.209747  0.290253  0.363221  1
  O  O10  1  0.313656  0.444681  0.894182  1
  O  O11  1  0.189326  0.968041  0.093449  1
  O  O12  1  0.682737  0.539513  0.908532  1
  O  O13  1  0.822130  0.062270  0.087528  1
  O  O14  1  0.531959  0.310674  0.093449  1
  O  O15  1  0.960487  0.817263  0.908532  1
  O  O16  1  0.437730  0.677870  0.087528  1
  O  O17  1  0.055319  0.186344  0.894182  1
  O  O18  1  0.003467  0.226154  0.303920  1
  O  O19  1  0.499107  0.733081  0.705986  1
  O  O20  1  0.996316  0.774618  0.295010  1
  O  O21  1  0.498728  0.278380  0.700749  1
  O  O22  1  0.766919  0.000893  0.705986  1
  O  O23  1  0.725382  0.503684  0.295010  1
  O  O24  1  0.221620  0.001272  0.700749  1
  O  O25  1  0.273846  0.496533  0.303920  1
  O  O26  1  0.699993  0.197624  0.485124  1
  O  O27  1  0.803545  0.696455  0.516317  1
  O  O28  1  0.302376  0.800007  0.485124  1
  O  O29  1  0.197858  0.302142  0.525416  1
  O  O30  1  0.878180  0.364567  0.692564  1
  O  O31  1  0.628574  0.871426  0.307043  1
  O  O32  1  0.135433  0.621820  0.692564  1
  O  O33  1  0.371642  0.128358  0.317127  1
