# generated using pymatgen
data_ZnHgBi3Sb3O14
_symmetry_space_group_name_H-M   'P 1'
_cell_length_a   7.37645433
_cell_length_b   7.37646052
_cell_length_c   7.37646375
_cell_angle_alpha   62.35155035
_cell_angle_beta   62.35155515
_cell_angle_gamma   62.35153032
_symmetry_Int_Tables_number   1
_chemical_formula_structural   ZnHgBi3Sb3O14
_chemical_formula_sum   'Zn1 Hg1 Bi3 Sb3 O14'
_cell_volume   298.70031414
_cell_formula_units_Z   1
loop_
 _symmetry_equiv_pos_site_id
 _symmetry_equiv_pos_as_xyz
  1  'x, y, z'
loop_
 _atom_site_type_symbol
 _atom_site_label
 _atom_site_symmetry_multiplicity
 _atom_site_fract_x
 _atom_site_fract_y
 _atom_site_fract_z
 _atom_site_occupancy
  Zn  Zn0  1  0.999999  0.500001  0.999998  1
  Hg  Hg1  1  0.499998  0.999986  0.500019  1
  Bi  Bi2  1  0.000001  0.000008  0.499992  1
  Bi  Bi3  1  0.500008  0.000014  0.999999  1
  Bi  Bi4  1  0.499996  0.500003  0.499986  1
  Sb  Sb5  1  0.500001  0.500004  0.999998  1
  Sb  Sb6  1  0.999996  0.499999  0.499999  1
  Sb  Sb7  1  0.000003  0.999998  0.000000  1
  O  O8  1  0.619503  0.119503  0.619506  1
  O  O9  1  0.380498  0.880496  0.380501  1
  O  O10  1  0.068859  0.181586  0.681585  1
  O  O11  1  0.681583  0.181583  0.068858  1
  O  O12  1  0.681589  0.568858  0.681588  1
  O  O13  1  0.931141  0.818414  0.318413  1
  O  O14  1  0.318411  0.818411  0.931140  1
  O  O15  1  0.318417  0.431141  0.318415  1
  O  O16  1  0.656075  0.586967  0.086974  1
  O  O17  1  0.086975  0.586971  0.656074  1
  O  O18  1  0.086968  0.156077  0.086971  1
  O  O19  1  0.343924  0.413025  0.913031  1
  O  O20  1  0.913033  0.413028  0.343924  1
  O  O21  1  0.913025  0.843927  0.913028  1
