# generated using pymatgen
data_Be(V5Ga2)2
_symmetry_space_group_name_H-M   'P 1'
_cell_length_a   9.20638700
_cell_length_b   9.20638700
_cell_length_c   4.73380600
_cell_angle_alpha   90.00000000
_cell_angle_beta   90.00000000
_cell_angle_gamma   90.00000000
_symmetry_Int_Tables_number   1
_chemical_formula_structural   Be(V5Ga2)2
_chemical_formula_sum   'Be2 V20 Ga8'
_cell_volume   401.22585362
_cell_formula_units_Z   2
loop_
 _symmetry_equiv_pos_site_id
 _symmetry_equiv_pos_as_xyz
  1  'x, y, z'
loop_
 _atom_site_type_symbol
 _atom_site_label
 _atom_site_symmetry_multiplicity
 _atom_site_fract_x
 _atom_site_fract_y
 _atom_site_fract_z
 _atom_site_occupancy
  Be  Be0  1  0.000000  0.000000  0.000000  1
  Be  Be1  1  0.500000  0.500000  0.500000  1
  V  V2  1  0.400830  0.400830  0.000000  1
  V  V3  1  0.900830  0.099170  0.500000  1
  V  V4  1  0.099170  0.900830  0.500000  1
  V  V5  1  0.599170  0.599170  0.000000  1
  V  V6  1  0.127585  0.466591  0.000000  1
  V  V7  1  0.966591  0.372415  0.500000  1
  V  V8  1  0.033409  0.627585  0.500000  1
  V  V9  1  0.872415  0.533409  0.000000  1
  V  V10  1  0.372415  0.966591  0.500000  1
  V  V11  1  0.627585  0.033409  0.500000  1
  V  V12  1  0.466591  0.127585  0.000000  1
  V  V13  1  0.533409  0.872415  0.000000  1
  V  V14  1  0.179906  0.179906  0.254237  1
  V  V15  1  0.679906  0.320094  0.754237  1
  V  V16  1  0.320094  0.679906  0.754237  1
  V  V17  1  0.820094  0.820094  0.254237  1
  V  V18  1  0.320094  0.679906  0.245763  1
  V  V19  1  0.679906  0.320094  0.245763  1
  V  V20  1  0.179906  0.179906  0.745763  1
  V  V21  1  0.820094  0.820094  0.745763  1
  Ga  Ga22  1  0.258635  0.936878  0.000000  1
  Ga  Ga23  1  0.436878  0.241365  0.500000  1
  Ga  Ga24  1  0.563122  0.758635  0.500000  1
  Ga  Ga25  1  0.741365  0.063122  0.000000  1
  Ga  Ga26  1  0.241365  0.436878  0.500000  1
  Ga  Ga27  1  0.758635  0.563122  0.500000  1
  Ga  Ga28  1  0.936878  0.258635  0.000000  1
  Ga  Ga29  1  0.063122  0.741365  0.000000  1
