# generated using pymatgen
data_Dy3Lu7(SiSb)4
_symmetry_space_group_name_H-M   'P 1'
_cell_length_a   8.28082522
_cell_length_b   8.50962906
_cell_length_c   7.73748174
_cell_angle_alpha   89.94107687
_cell_angle_beta   89.76863242
_cell_angle_gamma   125.31058066
_symmetry_Int_Tables_number   1
_chemical_formula_structural   Dy3Lu7(SiSb)4
_chemical_formula_sum   'Dy3 Lu7 Si4 Sb4'
_cell_volume   444.92134546
_cell_formula_units_Z   1
loop_
 _symmetry_equiv_pos_site_id
 _symmetry_equiv_pos_as_xyz
  1  'x, y, z'
loop_
 _atom_site_type_symbol
 _atom_site_label
 _atom_site_symmetry_multiplicity
 _atom_site_fract_x
 _atom_site_fract_y
 _atom_site_fract_z
 _atom_site_occupancy
  Dy  Dy0  1  0.194871  0.453236  0.830870  1
  Dy  Dy1  1  0.696225  0.954523  0.669649  1
  Dy  Dy2  1  0.308130  0.047032  0.329755  1
  Lu  Lu3  1  0.037412  0.280943  0.336830  1
  Lu  Lu4  1  0.965208  0.720789  0.662409  1
  Lu  Lu5  1  0.463322  0.218646  0.836529  1
  Lu  Lu6  1  0.798243  0.546297  0.166969  1
  Lu  Lu7  1  0.535811  0.779477  0.163112  1
  Lu  Lu8  1  0.998897  0.999140  0.000633  1
  Lu  Lu9  1  0.501274  0.500298  0.499895  1
  Si  Si10  1  0.368433  0.368385  0.130790  1
  Si  Si11  1  0.632430  0.631197  0.869090  1
  Si  Si12  1  0.133564  0.132431  0.631652  1
  Si  Si13  1  0.868279  0.866541  0.366525  1
  Sb  Sb14  1  0.779935  0.196301  0.017720  1
  Sb  Sb15  1  0.212534  0.800491  0.988236  1
  Sb  Sb16  1  0.720784  0.308439  0.512595  1
  Sb  Sb17  1  0.284649  0.695833  0.486743  1
