# generated using pymatgen
data_RbAs(PSe3)2
_symmetry_space_group_name_H-M   'P 1'
_cell_length_a   8.34992200
_cell_length_b   7.09016099
_cell_length_c   10.46237598
_cell_angle_alpha   87.45113402
_cell_angle_beta   90.00000000
_cell_angle_gamma   90.00000000
_symmetry_Int_Tables_number   1
_chemical_formula_structural   RbAs(PSe3)2
_chemical_formula_sum   'Rb2 As2 P4 Se12'
_cell_volume   618.78383397
_cell_formula_units_Z   2
loop_
 _symmetry_equiv_pos_site_id
 _symmetry_equiv_pos_as_xyz
  1  'x, y, z'
loop_
 _atom_site_type_symbol
 _atom_site_label
 _atom_site_symmetry_multiplicity
 _atom_site_fract_x
 _atom_site_fract_y
 _atom_site_fract_z
 _atom_site_occupancy
  Rb  Rb0  1  0.664474  0.192774  0.990254  1
  Rb  Rb1  1  0.164474  0.807226  0.009746  1
  As  As2  1  0.975606  0.334942  0.517547  1
  As  As3  1  0.475606  0.665058  0.482453  1
  P  P4  1  0.149007  0.285090  0.793190  1
  P  P5  1  0.649007  0.714910  0.206810  1
  P  P6  1  0.855576  0.803353  0.334818  1
  P  P7  1  0.355576  0.196647  0.665182  1
  Se  Se8  1  0.049584  0.582460  0.339038  1
  Se  Se9  1  0.961232  0.079737  0.758868  1
  Se  Se10  1  0.549584  0.417540  0.660962  1
  Se  Se11  1  0.232255  0.318929  0.984730  1
  Se  Se12  1  0.583045  0.449334  0.322393  1
  Se  Se13  1  0.083045  0.550666  0.677607  1
  Se  Se14  1  0.728897  0.832243  0.527491  1
  Se  Se15  1  0.228897  0.167757  0.472509  1
  Se  Se16  1  0.452125  0.931318  0.742042  1
  Se  Se17  1  0.952125  0.068682  0.257958  1
  Se  Se18  1  0.732255  0.681071  0.015270  1
  Se  Se19  1  0.461232  0.920263  0.241132  1
