# generated using pymatgen
data_Hf2Zr3Co16(MoP4)3
_symmetry_space_group_name_H-M   'P 1'
_cell_length_a   11.85880110
_cell_length_b   11.86146920
_cell_length_c   3.64618100
_cell_angle_alpha   90.00000000
_cell_angle_beta   90.00000000
_cell_angle_gamma   120.00743716
_symmetry_Int_Tables_number   1
_chemical_formula_structural   Hf2Zr3Co16(MoP4)3
_chemical_formula_sum   'Hf2 Zr3 Co16 Mo3 P12'
_cell_volume   444.13558814
_cell_formula_units_Z   1
loop_
 _symmetry_equiv_pos_site_id
 _symmetry_equiv_pos_as_xyz
  1  'x, y, z'
loop_
 _atom_site_type_symbol
 _atom_site_label
 _atom_site_symmetry_multiplicity
 _atom_site_fract_x
 _atom_site_fract_y
 _atom_site_fract_z
 _atom_site_occupancy
  Hf  Hf0  1  0.821069  0.820943  0.500000  1
  Hf  Hf1  1  0.178931  0.999874  0.500000  1
  Zr  Zr2  1  0.666797  0.333419  0.000000  1
  Zr  Zr3  1  0.333203  0.666623  0.000000  1
  Zr  Zr4  1  0.000000  0.179782  0.500000  1
  Co  Co5  1  0.194867  0.373647  0.000000  1
  Co  Co6  1  0.178845  0.806445  0.000000  1
  Co  Co7  1  0.821155  0.627600  0.000000  1
  Co  Co8  1  0.805133  0.178780  0.000000  1
  Co  Co9  1  0.372918  0.193632  0.000000  1
  Co  Co10  1  0.128210  0.483467  0.500000  1
  Co  Co11  1  0.354716  0.871630  0.500000  1
  Co  Co12  1  0.516759  0.644978  0.500000  1
  Co  Co13  1  0.645284  0.516914  0.500000  1
  Co  Co14  1  0.871790  0.355257  0.500000  1
  Co  Co15  1  0.483241  0.128219  0.500000  1
  Co  Co16  1  0.000000  0.999018  0.000000  1
  Co  Co17  1  0.720186  0.999308  0.500000  1
  Co  Co18  1  0.000000  0.720917  0.500000  1
  Co  Co19  1  0.627082  0.820714  0.000000  1
  Co  Co20  1  0.279814  0.279122  0.500000  1
  Mo  Mo21  1  0.448603  0.448200  0.000000  1
  Mo  Mo22  1  0.551397  0.999597  0.000000  1
  Mo  Mo23  1  0.000000  0.552380  0.000000  1
  P  P24  1  0.644344  0.644382  0.000000  1
  P  P25  1  0.355656  0.000038  0.000000  1
  P  P26  1  0.000000  0.356839  0.000000  1
  P  P27  1  0.481202  0.313749  0.500000  1
  P  P28  1  0.686337  0.167009  0.500000  1
  P  P29  1  0.832918  0.519215  0.500000  1
  P  P30  1  0.518798  0.832547  0.500000  1
  P  P31  1  0.167082  0.686297  0.500000  1
  P  P32  1  0.823853  0.999215  0.000000  1
  P  P33  1  0.000000  0.824210  0.000000  1
  P  P34  1  0.313663  0.480672  0.500000  1
  P  P35  1  0.176147  0.175362  0.000000  1
