# generated using pymatgen
data_Tm2ZnB2Rh5
_symmetry_space_group_name_H-M   'P 1'
_cell_length_a   3.16689800
_cell_length_b   9.46195500
_cell_length_c   9.46195500
_cell_angle_alpha   90.00000000
_cell_angle_beta   90.00000000
_cell_angle_gamma   90.00000000
_symmetry_Int_Tables_number   1
_chemical_formula_structural   Tm2ZnB2Rh5
_chemical_formula_sum   'Tm4 Zn2 B4 Rh10'
_cell_volume   283.52792028
_cell_formula_units_Z   2
loop_
 _symmetry_equiv_pos_site_id
 _symmetry_equiv_pos_as_xyz
  1  'x, y, z'
loop_
 _atom_site_type_symbol
 _atom_site_label
 _atom_site_symmetry_multiplicity
 _atom_site_fract_x
 _atom_site_fract_y
 _atom_site_fract_z
 _atom_site_occupancy
  Tm  Tm0  1  0.000000  0.824661  0.175339  1
  Tm  Tm1  1  0.000000  0.324660  0.324660  1
  Tm  Tm2  1  0.000000  0.675339  0.675339  1
  Tm  Tm3  1  0.000000  0.175339  0.824661  1
  Zn  Zn4  1  0.000000  0.500000  0.000000  1
  Zn  Zn5  1  0.000000  0.000000  0.500000  1
  B  B6  1  0.000000  0.124082  0.124082  1
  B  B7  1  0.000000  0.624082  0.375919  1
  B  B8  1  0.000000  0.375919  0.624082  1
  B  B9  1  0.000000  0.875919  0.875919  1
  Rh  Rh10  1  0.500001  0.000000  0.000000  1
  Rh  Rh11  1  0.500001  0.280731  0.070238  1
  Rh  Rh12  1  0.500001  0.570238  0.219271  1
  Rh  Rh13  1  0.500001  0.070238  0.280731  1
  Rh  Rh14  1  0.500001  0.780731  0.429763  1
  Rh  Rh15  1  0.500001  0.500000  0.500000  1
  Rh  Rh16  1  0.500001  0.219271  0.570238  1
  Rh  Rh17  1  0.500001  0.929763  0.719270  1
  Rh  Rh18  1  0.500001  0.429763  0.780731  1
  Rh  Rh19  1  0.500001  0.719270  0.929763  1
