# generated using pymatgen
data_Er3Fe8Co
_symmetry_space_group_name_H-M   'P 1'
_cell_length_a   8.58959245
_cell_length_b   8.58959264
_cell_length_c   8.58959175
_cell_angle_alpha   34.39030893
_cell_angle_beta   34.39030862
_cell_angle_gamma   34.39030710
_symmetry_Int_Tables_number   1
_chemical_formula_structural   Er3Fe8Co
_chemical_formula_sum   'Er3 Fe8 Co1'
_cell_volume   180.34071201
_cell_formula_units_Z   1
loop_
 _symmetry_equiv_pos_site_id
 _symmetry_equiv_pos_as_xyz
  1  'x, y, z'
loop_
 _atom_site_type_symbol
 _atom_site_label
 _atom_site_symmetry_multiplicity
 _atom_site_fract_x
 _atom_site_fract_y
 _atom_site_fract_z
 _atom_site_occupancy
  Er  Er0  1  0.141942  0.141942  0.141942  1
  Er  Er1  1  0.000000  0.000000  0.000000  1
  Er  Er2  1  0.858058  0.858058  0.858058  1
  Fe  Fe3  1  0.418114  0.418114  0.918039  1
  Fe  Fe4  1  0.918039  0.418114  0.418114  1
  Fe  Fe5  1  0.581886  0.081961  0.581886  1
  Fe  Fe6  1  0.581886  0.581886  0.081961  1
  Fe  Fe7  1  0.418114  0.918039  0.418114  1
  Fe  Fe8  1  0.081961  0.581886  0.581886  1
  Fe  Fe9  1  0.332802  0.332802  0.332802  1
  Fe  Fe10  1  0.667198  0.667198  0.667198  1
  Co  Co11  1  0.500000  0.500000  0.500000  1
