# generated using pymatgen
data_TiMnBe4
_symmetry_space_group_name_H-M   'P 1'
_cell_length_a   4.33767361
_cell_length_b   4.33767333
_cell_length_c   4.33767400
_cell_angle_alpha   60.00001012
_cell_angle_beta   60.00001225
_cell_angle_gamma   60.00001485
_symmetry_Int_Tables_number   1
_chemical_formula_structural   TiMnBe4
_chemical_formula_sum   'Ti1 Mn1 Be4'
_cell_volume   57.71062071
_cell_formula_units_Z   1
loop_
 _symmetry_equiv_pos_site_id
 _symmetry_equiv_pos_as_xyz
  1  'x, y, z'
loop_
 _atom_site_type_symbol
 _atom_site_label
 _atom_site_symmetry_multiplicity
 _atom_site_fract_x
 _atom_site_fract_y
 _atom_site_fract_z
 _atom_site_occupancy
  Ti  Ti0  1  0.000000  0.000000  0.000000  1
  Mn  Mn1  1  0.250000  0.250000  0.250000  1
  Be  Be2  1  0.623746  0.623746  0.128760  1
  Be  Be3  1  0.623746  0.128760  0.623746  1
  Be  Be4  1  0.128760  0.623746  0.623746  1
  Be  Be5  1  0.623746  0.623746  0.623746  1
