# generated using pymatgen
data_Yb11Pr8ScPt16
_symmetry_space_group_name_H-M   'P 1'
_cell_length_a   7.55862094
_cell_length_b   7.73933472
_cell_length_c   14.50417402
_cell_angle_alpha   89.95671073
_cell_angle_beta   90.11497217
_cell_angle_gamma   90.11820192
_symmetry_Int_Tables_number   1
_chemical_formula_structural   Yb11Pr8ScPt16
_chemical_formula_sum   'Yb11 Pr8 Sc1 Pt16'
_cell_volume   848.47153433
_cell_formula_units_Z   1
loop_
 _symmetry_equiv_pos_site_id
 _symmetry_equiv_pos_as_xyz
  1  'x, y, z'
loop_
 _atom_site_type_symbol
 _atom_site_label
 _atom_site_symmetry_multiplicity
 _atom_site_fract_x
 _atom_site_fract_y
 _atom_site_fract_z
 _atom_site_occupancy
  Yb  Yb0  1  0.332882  0.167898  0.624499  1
  Yb  Yb1  1  0.666265  0.831415  0.374643  1
  Yb  Yb2  1  0.666923  0.004238  0.750759  1
  Yb  Yb3  1  0.167400  0.666855  0.374614  1
  Yb  Yb4  1  0.832923  0.332575  0.878392  1
  Yb  Yb5  1  0.832681  0.331831  0.624398  1
  Yb  Yb6  1  0.833498  0.504325  0.249209  1
  Yb  Yb7  1  0.332546  0.994573  0.248591  1
  Yb  Yb8  1  0.332901  0.166058  0.877506  1
  Yb  Yb9  1  0.166373  0.667751  0.122739  1
  Yb  Yb10  1  0.166500  0.494590  0.750629  1
  Pr  Pr11  1  0.008470  0.180958  0.401658  1
  Pr  Pr12  1  0.508936  0.318459  0.402120  1
  Pr  Pr13  1  0.491869  0.678996  0.904721  1
  Pr  Pr14  1  0.492023  0.678901  0.597720  1
  Pr  Pr15  1  0.991156  0.820652  0.597404  1
  Pr  Pr16  1  0.992147  0.820293  0.903550  1
  Pr  Pr17  1  0.509007  0.321251  0.096811  1
  Pr  Pr18  1  0.008054  0.175826  0.097090  1
  Sc  Sc19  1  0.667639  0.831416  0.125888  1
  Pt  Pt20  1  0.294128  0.856517  0.750338  1
  Pt  Pt21  1  0.470359  0.622941  0.241690  1
  Pt  Pt22  1  0.034400  0.114150  0.751041  1
  Pt  Pt23  1  0.535344  0.384809  0.751701  1
  Pt  Pt24  1  0.175254  0.467095  0.538567  1
  Pt  Pt25  1  0.957446  0.881346  0.244793  1
  Pt  Pt26  1  0.703138  0.139747  0.246603  1
  Pt  Pt27  1  0.816095  0.552170  0.040266  1
  Pt  Pt28  1  0.335239  0.963421  0.042079  1
  Pt  Pt29  1  0.170170  0.465088  0.961149  1
  Pt  Pt30  1  0.673047  0.032727  0.539356  1
  Pt  Pt31  1  0.324500  0.967207  0.459408  1
  Pt  Pt32  1  0.824765  0.532146  0.460258  1
  Pt  Pt33  1  0.793786  0.643658  0.750081  1
  Pt  Pt34  1  0.210640  0.359298  0.250421  1
  Pt  Pt35  1  0.681498  0.028819  0.969305  1
