# generated using pymatgen
data_Ho10Er2Ni4SnAu
_symmetry_space_group_name_H-M   'P 1'
_cell_length_a   8.32135183
_cell_length_b   8.33702360
_cell_length_c   8.32913391
_cell_angle_alpha   112.63563196
_cell_angle_beta   109.13953987
_cell_angle_gamma   106.70136446
_symmetry_Int_Tables_number   1
_chemical_formula_structural   Ho10Er2Ni4SnAu
_chemical_formula_sum   'Ho10 Er2 Ni4 Sn1 Au1'
_cell_volume   443.56582040
_cell_formula_units_Z   1
loop_
 _symmetry_equiv_pos_site_id
 _symmetry_equiv_pos_as_xyz
  1  'x, y, z'
loop_
 _atom_site_type_symbol
 _atom_site_label
 _atom_site_symmetry_multiplicity
 _atom_site_fract_x
 _atom_site_fract_y
 _atom_site_fract_z
 _atom_site_occupancy
  Ho  Ho0  1  0.024912  0.222924  0.802005  1
  Ho  Ho1  1  0.975088  0.777076  0.197995  1
  Ho  Ho2  1  0.180467  0.293700  0.473137  1
  Ho  Ho3  1  0.819533  0.706300  0.526863  1
  Ho  Ho4  1  0.180335  0.707071  0.886819  1
  Ho  Ho5  1  0.819665  0.292929  0.113181  1
  Ho  Ho6  1  0.325245  0.632061  0.308754  1
  Ho  Ho7  1  0.674755  0.367939  0.691246  1
  Ho  Ho8  1  0.325488  0.016872  0.693281  1
  Ho  Ho9  1  0.674512  0.983128  0.306719  1
  Er  Er10  1  0.419951  0.222265  0.197489  1
  Er  Er11  1  0.580049  0.777735  0.802511  1
  Ni  Ni12  1  0.359202  0.999849  0.359190  1
  Ni  Ni13  1  0.640798  0.000151  0.640810  1
  Ni  Ni14  1  0.124292  0.626467  0.499297  1
  Ni  Ni15  1  0.875708  0.373533  0.500703  1
  Sn  Sn16  1  0.500000  0.500000  0.000000  1
  Au  Au17  1  0.000000  0.000000  0.000000  1
