# generated using pymatgen
data_Y6TaMoO14
_symmetry_space_group_name_H-M   'P 1'
_cell_length_a   6.51036150
_cell_length_b   6.51036063
_cell_length_c   7.48255232
_cell_angle_alpha   90.26508975
_cell_angle_beta   89.73491208
_cell_angle_gamma   108.53094876
_symmetry_Int_Tables_number   1
_chemical_formula_structural   Y6TaMoO14
_chemical_formula_sum   'Y6 Ta1 Mo1 O14'
_cell_volume   300.69823537
_cell_formula_units_Z   1
loop_
 _symmetry_equiv_pos_site_id
 _symmetry_equiv_pos_as_xyz
  1  'x, y, z'
loop_
 _atom_site_type_symbol
 _atom_site_label
 _atom_site_symmetry_multiplicity
 _atom_site_fract_x
 _atom_site_fract_y
 _atom_site_fract_z
 _atom_site_occupancy
  Y  Y0  1  0.999734  0.536222  0.242130  1
  Y  Y1  1  0.999683  0.465191  0.740542  1
  Y  Y2  1  0.536222  0.999734  0.757870  1
  Y  Y3  1  0.465191  0.999683  0.259458  1
  Y  Y4  1  0.463955  0.463955  0.000000  1
  Y  Y5  1  0.537611  0.537611  0.500000  1
  Ta  Ta6  1  0.002604  0.002604  0.500000  1
  Mo  Mo7  1  0.999914  0.999914  0.000000  1
  O  O8  1  0.930234  0.071030  0.749442  1
  O  O9  1  0.071030  0.930234  0.250558  1
  O  O10  1  0.361013  0.639379  0.249266  1
  O  O11  1  0.639379  0.361013  0.750734  1
  O  O12  1  0.370188  0.628938  0.750058  1
  O  O13  1  0.628938  0.370188  0.249942  1
  O  O14  1  0.327311  0.082882  0.976838  1
  O  O15  1  0.672018  0.917244  0.475926  1
  O  O16  1  0.306385  0.048272  0.544941  1
  O  O17  1  0.692869  0.947323  0.040048  1
  O  O18  1  0.048272  0.306385  0.455059  1
  O  O19  1  0.947323  0.692869  0.959952  1
  O  O20  1  0.917244  0.672018  0.524074  1
  O  O21  1  0.082882  0.327311  0.023162  1
