# generated using pymatgen
data_YErOsC2
_symmetry_space_group_name_H-M   'P 1'
_cell_length_a   5.11619400
_cell_length_b   6.44836300
_cell_length_c   9.74915700
_cell_angle_alpha   90.00000000
_cell_angle_beta   90.00000000
_cell_angle_gamma   90.00000000
_symmetry_Int_Tables_number   1
_chemical_formula_structural   YErOsC2
_chemical_formula_sum   'Y4 Er4 Os4 C8'
_cell_volume   321.63518040
_cell_formula_units_Z   4
loop_
 _symmetry_equiv_pos_site_id
 _symmetry_equiv_pos_as_xyz
  1  'x, y, z'
loop_
 _atom_site_type_symbol
 _atom_site_label
 _atom_site_symmetry_multiplicity
 _atom_site_fract_x
 _atom_site_fract_y
 _atom_site_fract_z
 _atom_site_occupancy
  Y  Y0  1  0.250000  0.527412  0.217805  1
  Y  Y1  1  0.750000  0.472588  0.782195  1
  Y  Y2  1  0.750000  0.972588  0.717805  1
  Y  Y3  1  0.250000  0.027412  0.282195  1
  Er  Er4  1  0.250000  0.681194  0.553395  1
  Er  Er5  1  0.750000  0.318806  0.446605  1
  Er  Er6  1  0.750000  0.818806  0.053395  1
  Er  Er7  1  0.250000  0.181194  0.946605  1
  Os  Os8  1  0.250000  0.725742  0.865793  1
  Os  Os9  1  0.750000  0.274258  0.134207  1
  Os  Os10  1  0.750000  0.774258  0.365793  1
  Os  Os11  1  0.250000  0.225742  0.634207  1
  C  C12  1  0.250000  0.460791  0.758480  1
  C  C13  1  0.750000  0.539209  0.241520  1
  C  C14  1  0.750000  0.039209  0.258480  1
  C  C15  1  0.250000  0.960791  0.741520  1
  C  C16  1  0.250000  0.828254  0.053267  1
  C  C17  1  0.750000  0.171746  0.946733  1
  C  C18  1  0.750000  0.671746  0.553267  1
  C  C19  1  0.250000  0.328254  0.446733  1
