# generated using pymatgen
data_Na2Ta3(MoSe4)3
_symmetry_space_group_name_H-M   'P 1'
_cell_length_a   5.97228900
_cell_length_b   5.97228839
_cell_length_c   15.73059800
_cell_angle_alpha   90.00000000
_cell_angle_beta   90.00000000
_cell_angle_gamma   120.00000892
_symmetry_Int_Tables_number   1
_chemical_formula_structural   Na2Ta3(MoSe4)3
_chemical_formula_sum   'Na2 Ta3 Mo3 Se12'
_cell_volume   485.91176150
_cell_formula_units_Z   1
loop_
 _symmetry_equiv_pos_site_id
 _symmetry_equiv_pos_as_xyz
  1  'x, y, z'
loop_
 _atom_site_type_symbol
 _atom_site_label
 _atom_site_symmetry_multiplicity
 _atom_site_fract_x
 _atom_site_fract_y
 _atom_site_fract_z
 _atom_site_occupancy
  Na  Na0  1  0.000000  0.000000  0.501402  1
  Na  Na1  1  0.000000  0.000000  0.998598  1
  Ta  Ta2  1  0.333333  0.666667  0.750000  1
  Ta  Ta3  1  0.000000  0.000000  0.250000  1
  Ta  Ta4  1  0.000000  0.000000  0.750000  1
  Mo  Mo5  1  0.333333  0.666667  0.250000  1
  Mo  Mo6  1  0.666667  0.333333  0.750000  1
  Mo  Mo7  1  0.666667  0.333333  0.250000  1
  Se  Se8  1  0.339696  0.999997  0.145481  1
  Se  Se9  1  0.000003  0.339699  0.145481  1
  Se  Se10  1  0.660301  0.660304  0.145481  1
  Se  Se11  1  0.339466  0.335295  0.644418  1
  Se  Se12  1  0.660301  0.660304  0.354519  1
  Se  Se13  1  0.664705  0.004171  0.644418  1
  Se  Se14  1  0.995829  0.660534  0.644418  1
  Se  Se15  1  0.995829  0.660534  0.855582  1
  Se  Se16  1  0.339466  0.335295  0.855582  1
  Se  Se17  1  0.000003  0.339699  0.354519  1
  Se  Se18  1  0.339696  0.999997  0.354519  1
  Se  Se19  1  0.664705  0.004171  0.855582  1
