# generated using pymatgen
data_Tm6LuSc(Co4P3)4
_symmetry_space_group_name_H-M   'P 1'
_cell_length_a   3.71774500
_cell_length_b   10.66046800
_cell_length_c   12.34804900
_cell_angle_alpha   90.00000000
_cell_angle_beta   90.00000000
_cell_angle_gamma   90.00000000
_symmetry_Int_Tables_number   1
_chemical_formula_structural   Tm6LuSc(Co4P3)4
_chemical_formula_sum   'Tm6 Lu1 Sc1 Co16 P12'
_cell_volume   489.38901103
_cell_formula_units_Z   1
loop_
 _symmetry_equiv_pos_site_id
 _symmetry_equiv_pos_as_xyz
  1  'x, y, z'
loop_
 _atom_site_type_symbol
 _atom_site_label
 _atom_site_symmetry_multiplicity
 _atom_site_fract_x
 _atom_site_fract_y
 _atom_site_fract_z
 _atom_site_occupancy
  Tm  Tm0  1  0.000000  0.500000  0.530922  1
  Tm  Tm1  1  0.500000  0.000000  0.471921  1
  Tm  Tm2  1  0.500000  0.824394  0.205738  1
  Tm  Tm3  1  0.500000  0.175606  0.205738  1
  Tm  Tm4  1  0.000000  0.677238  0.794133  1
  Tm  Tm5  1  0.000000  0.322762  0.794133  1
  Lu  Lu6  1  0.500000  0.500000  0.159776  1
  Sc  Sc7  1  0.000000  0.000000  0.840763  1
  Co  Co8  1  0.500000  0.500000  0.704831  1
  Co  Co9  1  0.000000  0.000000  0.294357  1
  Co  Co10  1  0.000000  0.500000  0.985739  1
  Co  Co11  1  0.500000  0.000000  0.011487  1
  Co  Co12  1  0.500000  0.329562  0.992045  1
  Co  Co13  1  0.500000  0.670438  0.992045  1
  Co  Co14  1  0.000000  0.167131  0.003632  1
  Co  Co15  1  0.000000  0.832869  0.003632  1
  Co  Co16  1  0.500000  0.293846  0.434765  1
  Co  Co17  1  0.500000  0.706154  0.434765  1
  Co  Co18  1  0.000000  0.204021  0.567241  1
  Co  Co19  1  0.000000  0.795979  0.567241  1
  Co  Co20  1  0.500000  0.877273  0.702172  1
  Co  Co21  1  0.500000  0.122727  0.702172  1
  Co  Co22  1  0.000000  0.623690  0.301553  1
  Co  Co23  1  0.000000  0.376310  0.301553  1
  P  P24  1  0.500000  0.500000  0.884235  1
  P  P25  1  0.000000  0.000000  0.114300  1
  P  P26  1  0.500000  0.500000  0.367350  1
  P  P27  1  0.000000  0.000000  0.637980  1
  P  P28  1  0.500000  0.310179  0.616695  1
  P  P29  1  0.500000  0.689821  0.616695  1
  P  P30  1  0.000000  0.188186  0.384615  1
  P  P31  1  0.000000  0.811814  0.384615  1
  P  P32  1  0.500000  0.839596  0.890040  1
  P  P33  1  0.500000  0.160404  0.890040  1
  P  P34  1  0.000000  0.665205  0.105542  1
  P  P35  1  0.000000  0.334795  0.105542  1
