# generated using pymatgen
data_Tb4Er(SiBi)2
_symmetry_space_group_name_H-M   'P 1'
_cell_length_a   8.68359662
_cell_length_b   8.68359680
_cell_length_c   7.94101000
_cell_angle_alpha   90.00000000
_cell_angle_beta   90.00000000
_cell_angle_gamma   125.83294292
_symmetry_Int_Tables_number   1
_chemical_formula_structural   Tb4Er(SiBi)2
_chemical_formula_sum   'Tb8 Er2 Si4 Bi4'
_cell_volume   485.45598653
_cell_formula_units_Z   2
loop_
 _symmetry_equiv_pos_site_id
 _symmetry_equiv_pos_as_xyz
  1  'x, y, z'
loop_
 _atom_site_type_symbol
 _atom_site_label
 _atom_site_symmetry_multiplicity
 _atom_site_fract_x
 _atom_site_fract_y
 _atom_site_fract_z
 _atom_site_occupancy
  Tb  Tb0  1  0.044967  0.289683  0.332948  1
  Tb  Tb1  1  0.955033  0.710317  0.667052  1
  Tb  Tb2  1  0.455033  0.210317  0.832948  1
  Tb  Tb3  1  0.789683  0.544967  0.167052  1
  Tb  Tb4  1  0.544967  0.789683  0.167052  1
  Tb  Tb5  1  0.210317  0.455033  0.832948  1
  Tb  Tb6  1  0.710317  0.955033  0.667052  1
  Tb  Tb7  1  0.289683  0.044967  0.332948  1
  Er  Er8  1  0.000000  0.000000  0.000000  1
  Er  Er9  1  0.500000  0.500000  0.500000  1
  Si  Si10  1  0.368411  0.368411  0.130494  1
  Si  Si11  1  0.631589  0.631589  0.869506  1
  Si  Si12  1  0.131589  0.131589  0.630494  1
  Si  Si13  1  0.868411  0.868411  0.369506  1
  Bi  Bi14  1  0.793028  0.206972  0.000000  1
  Bi  Bi15  1  0.206972  0.793028  0.000000  1
  Bi  Bi16  1  0.706972  0.293028  0.500000  1
  Bi  Bi17  1  0.293028  0.706972  0.500000  1
