# generated using pymatgen
data_SmGa3HgPt
_symmetry_space_group_name_H-M   'P 1'
_cell_length_a   4.40082963
_cell_length_b   6.73023000
_cell_length_c   8.28419451
_cell_angle_alpha   90.00000000
_cell_angle_beta   105.40355432
_cell_angle_gamma   90.00000000
_symmetry_Int_Tables_number   1
_chemical_formula_structural   SmGa3HgPt
_chemical_formula_sum   'Sm2 Ga6 Hg2 Pt2'
_cell_volume   236.55238992
_cell_formula_units_Z   2
loop_
 _symmetry_equiv_pos_site_id
 _symmetry_equiv_pos_as_xyz
  1  'x, y, z'
loop_
 _atom_site_type_symbol
 _atom_site_label
 _atom_site_symmetry_multiplicity
 _atom_site_fract_x
 _atom_site_fract_y
 _atom_site_fract_z
 _atom_site_occupancy
  Sm  Sm0  1  0.873112  0.750000  0.746224  1
  Sm  Sm1  1  0.126888  0.250000  0.253776  1
  Ga  Ga2  1  0.062761  0.750000  0.125524  1
  Ga  Ga3  1  0.937239  0.250000  0.874476  1
  Ga  Ga4  1  0.682132  0.549506  0.364265  1
  Ga  Ga5  1  0.317868  0.450494  0.635735  1
  Ga  Ga6  1  0.682132  0.950494  0.364265  1
  Ga  Ga7  1  0.317868  0.049506  0.635735  1
  Hg  Hg8  1  0.500000  0.500000  0.000000  1
  Hg  Hg9  1  0.500000  0.000000  0.000000  1
  Pt  Pt10  1  0.218434  0.750000  0.436867  1
  Pt  Pt11  1  0.781566  0.250000  0.563133  1
