# generated using pymatgen
data_Ho20Bi8OsRu3
_symmetry_space_group_name_H-M   'P 1'
_cell_length_a   7.95017794
_cell_length_b   9.00159700
_cell_length_c   12.42881078
_cell_angle_alpha   90.00000000
_cell_angle_beta   89.95842649
_cell_angle_gamma   90.00000000
_symmetry_Int_Tables_number   1
_chemical_formula_structural   Ho20Bi8OsRu3
_chemical_formula_sum   'Ho20 Bi8 Os1 Ru3'
_cell_volume   889.45888303
_cell_formula_units_Z   1
loop_
 _symmetry_equiv_pos_site_id
 _symmetry_equiv_pos_as_xyz
  1  'x, y, z'
loop_
 _atom_site_type_symbol
 _atom_site_label
 _atom_site_symmetry_multiplicity
 _atom_site_fract_x
 _atom_site_fract_y
 _atom_site_fract_z
 _atom_site_occupancy
  Ho  Ho0  1  0.341759  0.750000  0.708198  1
  Ho  Ho1  1  0.657907  0.250000  0.292430  1
  Ho  Ho2  1  0.842471  0.250000  0.792183  1
  Ho  Ho3  1  0.157948  0.750000  0.208260  1
  Ho  Ho4  1  0.878076  0.750000  0.806493  1
  Ho  Ho5  1  0.121253  0.250000  0.192170  1
  Ho  Ho6  1  0.378565  0.250000  0.691990  1
  Ho  Ho7  1  0.621240  0.750000  0.308499  1
  Ho  Ho8  1  0.674577  0.542304  0.563976  1
  Ho  Ho9  1  0.324461  0.457509  0.435888  1
  Ho  Ho10  1  0.175334  0.457799  0.936011  1
  Ho  Ho11  1  0.324461  0.042491  0.435888  1
  Ho  Ho12  1  0.825862  0.543276  0.063638  1
  Ho  Ho13  1  0.674577  0.957696  0.563976  1
  Ho  Ho14  1  0.825862  0.956724  0.063638  1
  Ho  Ho15  1  0.175334  0.042201  0.936011  1
  Ho  Ho16  1  0.054719  0.750000  0.496409  1
  Ho  Ho17  1  0.945192  0.250000  0.503884  1
  Ho  Ho18  1  0.555841  0.250000  0.004195  1
  Ho  Ho19  1  0.442494  0.750000  0.996276  1
  Bi  Bi20  1  0.570382  0.507597  0.827829  1
  Bi  Bi21  1  0.430097  0.492242  0.172363  1
  Bi  Bi22  1  0.070811  0.491848  0.671793  1
  Bi  Bi23  1  0.430097  0.007758  0.172363  1
  Bi  Bi24  1  0.929345  0.507768  0.327996  1
  Bi  Bi25  1  0.570382  0.992403  0.827829  1
  Bi  Bi26  1  0.929345  0.992232  0.327996  1
  Bi  Bi27  1  0.070811  0.008152  0.671793  1
  Os  Os28  1  0.075773  0.750000  0.989156  1
  Ru  Ru29  1  0.925587  0.250000  0.010450  1
  Ru  Ru30  1  0.573742  0.250000  0.510573  1
  Ru  Ru31  1  0.425696  0.750000  0.489849  1
