# generated using pymatgen
data_Y3Er3Al17Si7Os8
_symmetry_space_group_name_H-M   'P 1'
_cell_length_a   8.70347812
_cell_length_b   8.69092788
_cell_length_c   9.49331800
_cell_angle_alpha   90.00000000
_cell_angle_beta   90.00000000
_cell_angle_gamma   120.12848365
_symmetry_Int_Tables_number   1
_chemical_formula_structural   Y3Er3Al17Si7Os8
_chemical_formula_sum   'Y3 Er3 Al17 Si7 Os8'
_cell_volume   621.07481083
_cell_formula_units_Z   1
loop_
 _symmetry_equiv_pos_site_id
 _symmetry_equiv_pos_as_xyz
  1  'x, y, z'
loop_
 _atom_site_type_symbol
 _atom_site_label
 _atom_site_symmetry_multiplicity
 _atom_site_fract_x
 _atom_site_fract_y
 _atom_site_fract_z
 _atom_site_occupancy
  Y  Y0  1  0.807727  0.615918  0.750000  1
  Y  Y1  1  0.386595  0.190746  0.750000  1
  Y  Y2  1  0.803005  0.191022  0.750000  1
  Er  Er3  1  0.193105  0.388573  0.250000  1
  Er  Er4  1  0.610034  0.806481  0.250000  1
  Er  Er5  1  0.196156  0.804385  0.250000  1
  Al  Al6  1  0.164699  0.330407  0.576786  1
  Al  Al7  1  0.834427  0.671489  0.419577  1
  Al  Al8  1  0.670823  0.834926  0.576067  1
  Al  Al9  1  0.834427  0.671489  0.080423  1
  Al  Al10  1  0.329379  0.165538  0.421041  1
  Al  Al11  1  0.164699  0.330407  0.923214  1
  Al  Al12  1  0.163972  0.834249  0.574739  1
  Al  Al13  1  0.329379  0.165538  0.078959  1
  Al  Al14  1  0.835576  0.163694  0.420648  1
  Al  Al15  1  0.670823  0.834926  0.923933  1
  Al  Al16  1  0.835576  0.163694  0.079352  1
  Al  Al17  1  0.163972  0.834249  0.925261  1
  Al  Al18  1  0.125726  0.565871  0.750000  1
  Al  Al19  1  0.564079  0.435094  0.250000  1
  Al  Al20  1  0.438935  0.566897  0.750000  1
  Al  Al21  1  0.999840  0.998828  0.250000  1
  Al  Al22  1  0.999815  0.001441  0.750000  1
  Si  Si23  1  0.333470  0.664595  0.040736  1
  Si  Si24  1  0.666484  0.335847  0.961328  1
  Si  Si25  1  0.666484  0.335847  0.538672  1
  Si  Si26  1  0.333470  0.664595  0.459264  1
  Si  Si27  1  0.564626  0.123739  0.250000  1
  Si  Si28  1  0.436034  0.872746  0.750000  1
  Si  Si29  1  0.874937  0.434436  0.250000  1
  Os  Os30  1  0.500850  0.000655  0.002102  1
  Os  Os31  1  0.998809  0.499640  0.007598  1
  Os  Os32  1  0.500850  0.000655  0.497898  1
  Os  Os33  1  0.500491  0.500389  0.001254  1
  Os  Os34  1  0.998809  0.499640  0.492402  1
  Os  Os35  1  0.500491  0.500389  0.498746  1
  Os  Os36  1  0.000713  0.000483  0.999847  1
  Os  Os37  1  0.000713  0.000483  0.500153  1
