# generated using pymatgen
data_TmLuFe6Co
_symmetry_space_group_name_H-M   'P 1'
_cell_length_a   5.03029001
_cell_length_b   5.02807074
_cell_length_c   12.29242127
_cell_angle_alpha   78.24404648
_cell_angle_beta   78.19336915
_cell_angle_gamma   59.98539697
_symmetry_Int_Tables_number   1
_chemical_formula_structural   TmLuFe6Co
_chemical_formula_sum   'Tm2 Lu2 Fe12 Co2'
_cell_volume   261.62661303
_cell_formula_units_Z   2
loop_
 _symmetry_equiv_pos_site_id
 _symmetry_equiv_pos_as_xyz
  1  'x, y, z'
loop_
 _atom_site_type_symbol
 _atom_site_label
 _atom_site_symmetry_multiplicity
 _atom_site_fract_x
 _atom_site_fract_y
 _atom_site_fract_z
 _atom_site_occupancy
  Tm  Tm0  1  0.947558  0.947365  0.157517  1
  Tm  Tm1  1  0.052065  0.052239  0.843632  1
  Lu  Lu2  1  0.849958  0.850950  0.449133  1
  Lu  Lu3  1  0.149133  0.149861  0.551873  1
  Fe  Fe4  1  0.721103  0.721476  0.836319  1
  Fe  Fe5  1  0.278474  0.278909  0.164142  1
  Fe  Fe6  1  0.612285  0.611592  0.163839  1
  Fe  Fe7  1  0.388192  0.387450  0.836166  1
  Fe  Fe8  1  0.000046  0.499606  0.000745  1
  Fe  Fe9  1  0.499834  0.999699  0.000632  1
  Fe  Fe10  1  0.499604  0.499606  0.000745  1
  Fe  Fe11  1  0.389167  0.388920  0.329608  1
  Fe  Fe12  1  0.892306  0.388920  0.329608  1
  Fe  Fe13  1  0.388692  0.892964  0.329653  1
  Fe  Fe14  1  0.610741  0.611138  0.669194  1
  Fe  Fe15  1  0.108927  0.611138  0.669194  1
  Co  Co16  1  0.500411  0.500715  0.498464  1
  Co  Co17  1  0.611504  0.107454  0.669537  1
