# generated using pymatgen
data_Tb3Sm(Fe2Br)2
_symmetry_space_group_name_H-M   'P 1'
_cell_length_a   3.93106000
_cell_length_b   3.93106065
_cell_length_c   16.74411000
_cell_angle_alpha   90.00000000
_cell_angle_beta   90.00000000
_cell_angle_gamma   120.00001134
_symmetry_Int_Tables_number   1
_chemical_formula_structural   Tb3Sm(Fe2Br)2
_chemical_formula_sum   'Tb3 Sm1 Fe4 Br2'
_cell_volume   224.08462919
_cell_formula_units_Z   1
loop_
 _symmetry_equiv_pos_site_id
 _symmetry_equiv_pos_as_xyz
  1  'x, y, z'
loop_
 _atom_site_type_symbol
 _atom_site_label
 _atom_site_symmetry_multiplicity
 _atom_site_fract_x
 _atom_site_fract_y
 _atom_site_fract_z
 _atom_site_occupancy
  Tb  Tb0  1  0.000000  0.000000  0.111130  1
  Tb  Tb1  1  0.000000  0.000000  0.391374  1
  Tb  Tb2  1  0.000000  0.000000  0.608126  1
  Sm  Sm3  1  0.000000  0.000000  0.888425  1
  Fe  Fe4  1  0.333334  0.666668  0.006480  1
  Fe  Fe5  1  0.333334  0.666668  0.493750  1
  Fe  Fe6  1  0.666666  0.333334  0.505780  1
  Fe  Fe7  1  0.666666  0.333334  0.996931  1
  Br  Br8  1  0.666666  0.333334  0.250433  1
  Br  Br9  1  0.333334  0.666668  0.747572  1
