# generated using pymatgen
data_K2FeH2F8
_symmetry_space_group_name_H-M   'P 1'
_cell_length_a   5.95123416
_cell_length_b   6.02718870
_cell_length_c   6.02713630
_cell_angle_alpha   95.24401682
_cell_angle_beta   106.19828938
_cell_angle_gamma   106.19704599
_symmetry_Int_Tables_number   1
_chemical_formula_structural   K2FeH2F8
_chemical_formula_sum   'K2 Fe1 H2 F8'
_cell_volume   195.98115344
_cell_formula_units_Z   1
loop_
 _symmetry_equiv_pos_site_id
 _symmetry_equiv_pos_as_xyz
  1  'x, y, z'
loop_
 _atom_site_type_symbol
 _atom_site_label
 _atom_site_symmetry_multiplicity
 _atom_site_fract_x
 _atom_site_fract_y
 _atom_site_fract_z
 _atom_site_occupancy
  K  K0  1  0.500003  0.729862  0.270139  1
  K  K1  1  0.499991  0.270159  0.729838  1
  Fe  Fe2  1  0.000035  0.000033  0.000013  1
  H  H3  1  0.772526  0.304332  0.304318  1
  H  H4  1  0.227478  0.695688  0.695672  1
  F  F5  1  0.802844  0.707471  0.997026  1
  F  F6  1  0.787948  0.136164  0.136146  1
  F  F7  1  0.197147  0.002976  0.292515  1
  F  F8  1  0.726489  0.409715  0.409689  1
  F  F9  1  0.273511  0.590313  0.590282  1
  F  F10  1  0.802906  0.997032  0.707561  1
  F  F11  1  0.212053  0.863853  0.863840  1
  F  F12  1  0.197067  0.292402  0.002961  1
