# generated using pymatgen
data_Ho3Er2P12Pd3Ru16
_symmetry_space_group_name_H-M   'P 1'
_cell_length_a   12.59591700
_cell_length_b   12.59591802
_cell_length_c   3.96385600
_cell_angle_alpha   90.00000000
_cell_angle_beta   90.00000000
_cell_angle_gamma   119.99999994
_symmetry_Int_Tables_number   1
_chemical_formula_structural   Ho3Er2P12Pd3Ru16
_chemical_formula_sum   'Ho3 Er2 P12 Pd3 Ru16'
_cell_volume   544.63822246
_cell_formula_units_Z   1
loop_
 _symmetry_equiv_pos_site_id
 _symmetry_equiv_pos_as_xyz
  1  'x, y, z'
loop_
 _atom_site_type_symbol
 _atom_site_label
 _atom_site_symmetry_multiplicity
 _atom_site_fract_x
 _atom_site_fract_y
 _atom_site_fract_z
 _atom_site_occupancy
  Ho  Ho0  1  0.181138  0.181138  0.500000  1
  Ho  Ho1  1  0.818862  0.000000  0.500000  1
  Ho  Ho2  1  0.000000  0.818862  0.500000  1
  Er  Er3  1  0.333333  0.666667  0.000000  1
  Er  Er4  1  0.666667  0.333333  0.000000  1
  P  P5  1  0.814978  0.814978  0.000000  1
  P  P6  1  0.185022  0.000000  0.000000  1
  P  P7  1  0.000000  0.185022  0.000000  1
  P  P8  1  0.178843  0.480345  0.500000  1
  P  P9  1  0.519655  0.698497  0.500000  1
  P  P10  1  0.301503  0.821157  0.500000  1
  P  P11  1  0.698497  0.519655  0.500000  1
  P  P12  1  0.821157  0.301503  0.500000  1
  P  P13  1  0.480345  0.178843  0.500000  1
  P  P14  1  0.366390  0.366390  0.000000  1
  P  P15  1  0.633610  0.000000  0.000000  1
  P  P16  1  0.000000  0.633610  0.000000  1
  Pd  Pd17  1  0.553690  0.553690  0.000000  1
  Pd  Pd18  1  0.446310  0.000000  0.000000  1
  Pd  Pd19  1  0.000000  0.446310  0.000000  1
  Ru  Ru20  1  0.713575  0.713575  0.500000  1
  Ru  Ru21  1  0.286425  0.000000  0.500000  1
  Ru  Ru22  1  0.000000  0.286425  0.500000  1
  Ru  Ru23  1  0.185712  0.378303  0.000000  1
  Ru  Ru24  1  0.621697  0.807410  0.000000  1
  Ru  Ru25  1  0.192590  0.814288  0.000000  1
  Ru  Ru26  1  0.807410  0.621697  0.000000  1
  Ru  Ru27  1  0.814288  0.192590  0.000000  1
  Ru  Ru28  1  0.378303  0.185712  0.000000  1
  Ru  Ru29  1  0.368479  0.493057  0.500000  1
  Ru  Ru30  1  0.506943  0.875423  0.500000  1
  Ru  Ru31  1  0.124577  0.631521  0.500000  1
  Ru  Ru32  1  0.875423  0.506943  0.500000  1
  Ru  Ru33  1  0.631521  0.124577  0.500000  1
  Ru  Ru34  1  0.493057  0.368479  0.500000  1
  Ru  Ru35  1  0.000000  0.000000  0.000000  1
