# generated using pymatgen
data_Y2Ho3Fe3(P3Ru4)4
_symmetry_space_group_name_H-M   'P 1'
_cell_length_a   12.47739700
_cell_length_b   12.47739744
_cell_length_c   3.88863300
_cell_angle_alpha   90.00000000
_cell_angle_beta   90.00000000
_cell_angle_gamma   120.00000147
_symmetry_Int_Tables_number   1
_chemical_formula_structural   Y2Ho3Fe3(P3Ru4)4
_chemical_formula_sum   'Y2 Ho3 Fe3 P12 Ru16'
_cell_volume   524.29484193
_cell_formula_units_Z   1
loop_
 _symmetry_equiv_pos_site_id
 _symmetry_equiv_pos_as_xyz
  1  'x, y, z'
loop_
 _atom_site_type_symbol
 _atom_site_label
 _atom_site_symmetry_multiplicity
 _atom_site_fract_x
 _atom_site_fract_y
 _atom_site_fract_z
 _atom_site_occupancy
  Y  Y0  1  0.666667  0.333333  0.000000  1
  Y  Y1  1  0.333333  0.666667  0.000000  1
  Ho  Ho2  1  0.000000  0.181707  0.500000  1
  Ho  Ho3  1  0.818293  0.818293  0.500000  1
  Ho  Ho4  1  0.181707  0.000000  0.500000  1
  Fe  Fe5  1  0.000000  0.716632  0.500000  1
  Fe  Fe6  1  0.283368  0.283368  0.500000  1
  Fe  Fe7  1  0.716632  0.000000  0.500000  1
  P  P8  1  0.000000  0.813446  0.000000  1
  P  P9  1  0.186554  0.186554  0.000000  1
  P  P10  1  0.813446  0.000000  0.000000  1
  P  P11  1  0.690047  0.162835  0.500000  1
  P  P12  1  0.837165  0.527213  0.500000  1
  P  P13  1  0.472787  0.309953  0.500000  1
  P  P14  1  0.162835  0.690047  0.500000  1
  P  P15  1  0.527213  0.837165  0.500000  1
  P  P16  1  0.309953  0.472787  0.500000  1
  P  P17  1  0.000000  0.373304  0.000000  1
  P  P18  1  0.626696  0.626696  0.000000  1
  P  P19  1  0.373304  0.000000  0.000000  1
  Ru  Ru20  1  0.000000  0.557989  0.000000  1
  Ru  Ru21  1  0.442011  0.442011  0.000000  1
  Ru  Ru22  1  0.557989  0.000000  0.000000  1
  Ru  Ru23  1  0.806977  0.181688  0.000000  1
  Ru  Ru24  1  0.818312  0.625289  0.000000  1
  Ru  Ru25  1  0.374711  0.193023  0.000000  1
  Ru  Ru26  1  0.181688  0.806977  0.000000  1
  Ru  Ru27  1  0.625289  0.818312  0.000000  1
  Ru  Ru28  1  0.193023  0.374711  0.000000  1
  Ru  Ru29  1  0.873816  0.363386  0.500000  1
  Ru  Ru30  1  0.636614  0.510431  0.500000  1
  Ru  Ru31  1  0.489569  0.126184  0.500000  1
  Ru  Ru32  1  0.363386  0.873816  0.500000  1
  Ru  Ru33  1  0.510431  0.636614  0.500000  1
  Ru  Ru34  1  0.126184  0.489569  0.500000  1
  Ru  Ru35  1  0.000000  0.000000  0.000000  1
