# generated using pymatgen
data_GdTmLuTaO7
_symmetry_space_group_name_H-M   'P 1'
_cell_length_a   6.41846015
_cell_length_b   6.41845972
_cell_length_c   7.45789666
_cell_angle_alpha   89.97177461
_cell_angle_beta   89.97177922
_cell_angle_gamma   108.86226320
_symmetry_Int_Tables_number   1
_chemical_formula_structural   GdTmLuTaO7
_chemical_formula_sum   'Gd2 Tm2 Lu2 Ta2 O14'
_cell_volume   290.74082915
_cell_formula_units_Z   2
loop_
 _symmetry_equiv_pos_site_id
 _symmetry_equiv_pos_as_xyz
  1  'x, y, z'
loop_
 _atom_site_type_symbol
 _atom_site_label
 _atom_site_symmetry_multiplicity
 _atom_site_fract_x
 _atom_site_fract_y
 _atom_site_fract_z
 _atom_site_occupancy
  Gd  Gd0  1  0.478480  0.478044  0.000580  1
  Gd  Gd1  1  0.521956  0.521520  0.499420  1
  Tm  Tm2  1  0.533803  0.001297  0.755309  1
  Tm  Tm3  1  0.998703  0.466197  0.744691  1
  Lu  Lu4  1  0.466523  0.998143  0.255044  1
  Lu  Lu5  1  0.001857  0.533477  0.244956  1
  Ta  Ta6  1  0.002326  0.002711  0.499344  1
  Ta  Ta7  1  0.997289  0.997674  0.000656  1
  O  O8  1  0.929818  0.070182  0.750000  1
  O  O9  1  0.642293  0.357707  0.750000  1
  O  O10  1  0.316283  0.058221  0.540170  1
  O  O11  1  0.941779  0.683717  0.959830  1
  O  O12  1  0.635726  0.364274  0.250000  1
  O  O13  1  0.922969  0.672296  0.527566  1
  O  O14  1  0.327704  0.077031  0.972434  1
  O  O15  1  0.075713  0.327423  0.030483  1
  O  O16  1  0.672577  0.924287  0.469517  1
  O  O17  1  0.365936  0.634064  0.750000  1
  O  O18  1  0.683228  0.940626  0.042441  1
  O  O19  1  0.059374  0.316772  0.457559  1
  O  O20  1  0.355318  0.644682  0.250000  1
  O  O21  1  0.070345  0.929655  0.250000  1
