# generated using pymatgen
data_YbPr2(HoSi2)2
_symmetry_space_group_name_H-M   'P 1'
_cell_length_a   7.46242900
_cell_length_b   7.86195100
_cell_length_c   14.93615900
_cell_angle_alpha   90.00000000
_cell_angle_beta   90.00000000
_cell_angle_gamma   90.00000000
_symmetry_Int_Tables_number   1
_chemical_formula_structural   YbPr2(HoSi2)2
_chemical_formula_sum   'Yb4 Pr8 Ho8 Si16'
_cell_volume   876.29326342
_cell_formula_units_Z   4
loop_
 _symmetry_equiv_pos_site_id
 _symmetry_equiv_pos_as_xyz
  1  'x, y, z'
loop_
 _atom_site_type_symbol
 _atom_site_label
 _atom_site_symmetry_multiplicity
 _atom_site_fract_x
 _atom_site_fract_y
 _atom_site_fract_z
 _atom_site_occupancy
  Yb  Yb0  1  0.656889  0.988519  0.750000  1
  Yb  Yb1  1  0.843111  0.488519  0.250000  1
  Yb  Yb2  1  0.343111  0.011481  0.250000  1
  Yb  Yb3  1  0.156889  0.511481  0.750000  1
  Pr  Pr4  1  0.022777  0.180663  0.400943  1
  Pr  Pr5  1  0.522777  0.319337  0.400943  1
  Pr  Pr6  1  0.477223  0.680663  0.900943  1
  Pr  Pr7  1  0.477223  0.680663  0.599057  1
  Pr  Pr8  1  0.977223  0.819337  0.599057  1
  Pr  Pr9  1  0.977223  0.819337  0.900943  1
  Pr  Pr10  1  0.522777  0.319337  0.099057  1
  Pr  Pr11  1  0.022777  0.180663  0.099057  1
  Ho  Ho12  1  0.325424  0.182214  0.623330  1
  Ho  Ho13  1  0.674576  0.817786  0.376670  1
  Ho  Ho14  1  0.174576  0.682214  0.376670  1
  Ho  Ho15  1  0.825424  0.317786  0.876670  1
  Ho  Ho16  1  0.825424  0.317786  0.623330  1
  Ho  Ho17  1  0.325424  0.182214  0.876670  1
  Ho  Ho18  1  0.174576  0.682214  0.123330  1
  Ho  Ho19  1  0.674576  0.817786  0.123330  1
  Si  Si20  1  0.269375  0.889471  0.750000  1
  Si  Si21  1  0.465361  0.609818  0.250000  1
  Si  Si22  1  0.034639  0.109818  0.750000  1
  Si  Si23  1  0.534639  0.390182  0.750000  1
  Si  Si24  1  0.149487  0.466684  0.534953  1
  Si  Si25  1  0.965361  0.890182  0.250000  1
  Si  Si26  1  0.730625  0.110529  0.250000  1
  Si  Si27  1  0.850513  0.533316  0.034953  1
  Si  Si28  1  0.350513  0.966684  0.034953  1
  Si  Si29  1  0.149487  0.466684  0.965047  1
  Si  Si30  1  0.649487  0.033316  0.534953  1
  Si  Si31  1  0.350513  0.966684  0.465047  1
  Si  Si32  1  0.850513  0.533316  0.465047  1
  Si  Si33  1  0.769375  0.610529  0.750000  1
  Si  Si34  1  0.230625  0.389471  0.250000  1
  Si  Si35  1  0.649487  0.033316  0.965047  1
