# generated using pymatgen
data_Pr4Al18(IrPt)3
_symmetry_space_group_name_H-M   'P 1'
_cell_length_a   7.65654437
_cell_length_b   7.65654354
_cell_length_c   9.60644831
_cell_angle_alpha   90.01460179
_cell_angle_beta   90.01460149
_cell_angle_gamma   119.55796234
_symmetry_Int_Tables_number   1
_chemical_formula_structural   Pr4Al18(IrPt)3
_chemical_formula_sum   'Pr4 Al18 Ir3 Pt3'
_cell_volume   489.86483713
_cell_formula_units_Z   1
loop_
 _symmetry_equiv_pos_site_id
 _symmetry_equiv_pos_as_xyz
  1  'x, y, z'
loop_
 _atom_site_type_symbol
 _atom_site_label
 _atom_site_symmetry_multiplicity
 _atom_site_fract_x
 _atom_site_fract_y
 _atom_site_fract_z
 _atom_site_occupancy
  Pr  Pr0  1  0.995493  0.669388  0.250222  1
  Pr  Pr1  1  0.004951  0.331450  0.749827  1
  Pr  Pr2  1  0.668550  0.995049  0.250173  1
  Pr  Pr3  1  0.330612  0.004507  0.749778  1
  Al  Al4  1  0.129020  0.129557  0.250482  1
  Al  Al5  1  0.870443  0.870980  0.749518  1
  Al  Al6  1  0.002038  0.331385  0.073592  1
  Al  Al7  1  0.997756  0.668969  0.925733  1
  Al  Al8  1  0.995023  0.665374  0.572409  1
  Al  Al9  1  0.334626  0.004977  0.427591  1
  Al  Al10  1  0.998462  0.331077  0.427955  1
  Al  Al11  1  0.668923  0.001538  0.572045  1
  Al  Al12  1  0.668615  0.997962  0.926408  1
  Al  Al13  1  0.331031  0.002244  0.074267  1
  Al  Al14  1  0.334152  0.331166  0.548627  1
  Al  Al15  1  0.668834  0.665848  0.451373  1
  Al  Al16  1  0.668155  0.668129  0.051111  1
  Al  Al17  1  0.331871  0.331845  0.948889  1
  Al  Al18  1  0.340280  0.543109  0.250357  1
  Al  Al19  1  0.659624  0.454863  0.747056  1
  Al  Al20  1  0.545137  0.340376  0.252944  1
  Al  Al21  1  0.456891  0.659720  0.749643  1
  Ir  Ir22  1  0.670880  0.329120  0.500000  1
  Ir  Ir23  1  0.999917  0.000083  0.000000  1
  Ir  Ir24  1  0.000153  0.999847  0.500000  1
  Pt  Pt25  1  0.671131  0.328869  0.000000  1
  Pt  Pt26  1  0.328709  0.671291  0.000000  1
  Pt  Pt27  1  0.328723  0.671277  0.500000  1
