# generated using pymatgen
data_CaTb8Yb11Sn16
_symmetry_space_group_name_H-M   'P 1'
_cell_length_a   7.86737900
_cell_length_b   8.44017603
_cell_length_c   16.10727805
_cell_angle_alpha   90.00838910
_cell_angle_beta   90.00240384
_cell_angle_gamma   90.00319011
_symmetry_Int_Tables_number   1
_chemical_formula_structural   CaTb8Yb11Sn16
_chemical_formula_sum   'Ca1 Tb8 Yb11 Sn16'
_cell_volume   1069.55648823
_cell_formula_units_Z   1
loop_
 _symmetry_equiv_pos_site_id
 _symmetry_equiv_pos_as_xyz
  1  'x, y, z'
loop_
 _atom_site_type_symbol
 _atom_site_label
 _atom_site_symmetry_multiplicity
 _atom_site_fract_x
 _atom_site_fract_y
 _atom_site_fract_z
 _atom_site_occupancy
  Ca  Ca0  1  0.501805  0.687165  0.593171  1
  Tb  Tb1  1  0.669609  0.167301  0.622099  1
  Tb  Tb2  1  0.169607  0.332730  0.877899  1
  Tb  Tb3  1  0.330387  0.832747  0.122095  1
  Tb  Tb4  1  0.830391  0.667261  0.377893  1
  Tb  Tb5  1  0.330331  0.832793  0.377849  1
  Tb  Tb6  1  0.830390  0.667242  0.122091  1
  Tb  Tb7  1  0.669614  0.167249  0.877900  1
  Tb  Tb8  1  0.169514  0.332637  0.622135  1
  Yb  Yb9  1  0.001842  0.812737  0.906733  1
  Yb  Yb10  1  0.498152  0.312733  0.093263  1
  Yb  Yb11  1  0.998170  0.187233  0.406730  1
  Yb  Yb12  1  0.498136  0.312737  0.406721  1
  Yb  Yb13  1  0.998170  0.187260  0.093267  1
  Yb  Yb14  1  0.501849  0.687266  0.906732  1
  Yb  Yb15  1  0.001849  0.812785  0.593275  1
  Yb  Yb16  1  0.832140  0.511345  0.750038  1
  Yb  Yb17  1  0.332020  0.988706  0.750050  1
  Yb  Yb18  1  0.167947  0.488618  0.249993  1
  Yb  Yb19  1  0.667930  0.011368  0.249990  1
  Sn  Sn20  1  0.672133  0.965075  0.459526  1
  Sn  Sn21  1  0.172052  0.535122  0.040375  1
  Sn  Sn22  1  0.327946  0.035129  0.959627  1
  Sn  Sn23  1  0.828388  0.464566  0.540316  1
  Sn  Sn24  1  0.327789  0.035464  0.540288  1
  Sn  Sn25  1  0.827961  0.464886  0.959624  1
  Sn  Sn26  1  0.672049  0.964884  0.040366  1
  Sn  Sn27  1  0.171945  0.535066  0.459558  1
  Sn  Sn28  1  0.466966  0.376936  0.750083  1
  Sn  Sn29  1  0.967076  0.122905  0.749968  1
  Sn  Sn30  1  0.532948  0.622882  0.250009  1
  Sn  Sn31  1  0.032950  0.877119  0.250017  1
  Sn  Sn32  1  0.712266  0.872433  0.750172  1
  Sn  Sn33  1  0.211858  0.627615  0.750108  1
  Sn  Sn34  1  0.287915  0.127709  0.250017  1
  Sn  Sn35  1  0.787906  0.372296  0.250021  1
