# generated using pymatgen
data_TbEr11Pb10
_symmetry_space_group_name_H-M   'P 1'
_cell_length_a   6.59248187
_cell_length_b   9.42967132
_cell_length_c   11.67455216
_cell_angle_alpha   113.86324277
_cell_angle_beta   106.35452483
_cell_angle_gamma   90.00389447
_symmetry_Int_Tables_number   1
_chemical_formula_structural   TbEr11Pb10
_chemical_formula_sum   'Tb1 Er11 Pb10'
_cell_volume   631.45585158
_cell_formula_units_Z   1
loop_
 _symmetry_equiv_pos_site_id
 _symmetry_equiv_pos_as_xyz
  1  'x, y, z'
loop_
 _atom_site_type_symbol
 _atom_site_label
 _atom_site_symmetry_multiplicity
 _atom_site_fract_x
 _atom_site_fract_y
 _atom_site_fract_z
 _atom_site_occupancy
  Tb  Tb0  1  0.360613  0.975017  0.721277  1
  Er  Er1  1  0.554793  0.304538  0.609540  1
  Er  Er2  1  0.445284  0.694895  0.390038  1
  Er  Er3  1  0.944970  0.694716  0.390081  1
  Er  Er4  1  0.054594  0.304733  0.609520  1
  Er  Er5  1  0.439911  0.676892  0.879424  1
  Er  Er6  1  0.560052  0.323743  0.120467  1
  Er  Er7  1  0.940242  0.204552  0.880237  1
  Er  Er8  1  0.059967  0.795644  0.120198  1
  Er  Er9  1  0.139408  0.252590  0.278672  1
  Er  Er10  1  0.860690  0.746712  0.721453  1
  Er  Er11  1  0.639259  0.025434  0.278512  1
  Pb  Pb12  1  0.291225  0.594516  0.584387  1
  Pb  Pb13  1  0.708237  0.403219  0.414467  1
  Pb  Pb14  1  0.791981  0.989060  0.585743  1
  Pb  Pb15  1  0.207935  0.010734  0.414082  1
  Pb  Pb16  1  0.249741  0.999891  0.000531  1
  Pb  Pb17  1  0.750738  0.000696  0.000622  1
  Pb  Pb18  1  0.073769  0.476488  0.148234  1
  Pb  Pb19  1  0.926215  0.523343  0.851804  1
  Pb  Pb20  1  0.573447  0.671017  0.147288  1
  Pb  Pb21  1  0.426931  0.331568  0.853425  1
