# generated using pymatgen
data_Cs2Rb2Cd3O5
_symmetry_space_group_name_H-M   'P 1'
_cell_length_a   6.82129598
_cell_length_b   9.62612147
_cell_length_c   9.70501331
_cell_angle_alpha   66.40318296
_cell_angle_beta   73.08699520
_cell_angle_gamma   70.79766937
_symmetry_Int_Tables_number   1
_chemical_formula_structural   Cs2Rb2Cd3O5
_chemical_formula_sum   'Cs4 Rb4 Cd6 O10'
_cell_volume   542.06299514
_cell_formula_units_Z   2
loop_
 _symmetry_equiv_pos_site_id
 _symmetry_equiv_pos_as_xyz
  1  'x, y, z'
loop_
 _atom_site_type_symbol
 _atom_site_label
 _atom_site_symmetry_multiplicity
 _atom_site_fract_x
 _atom_site_fract_y
 _atom_site_fract_z
 _atom_site_occupancy
  Cs  Cs0  1  0.045986  0.571726  0.642423  1
  Cs  Cs1  1  0.607146  0.284783  0.756663  1
  Cs  Cs2  1  0.392854  0.715217  0.243337  1
  Cs  Cs3  1  0.954014  0.428274  0.357577  1
  Rb  Rb4  1  0.055706  0.946782  0.694565  1
  Rb  Rb5  1  0.239738  0.570303  0.974904  1
  Rb  Rb6  1  0.760262  0.429697  0.025096  1
  Rb  Rb7  1  0.944294  0.053218  0.305435  1
  Cd  Cd8  1  0.600711  0.819748  0.502987  1
  Cd  Cd9  1  0.128217  0.137239  0.905738  1
  Cd  Cd10  1  0.435108  0.167254  0.169939  1
  Cd  Cd11  1  0.871783  0.862761  0.094262  1
  Cd  Cd12  1  0.399289  0.180252  0.497013  1
  Cd  Cd13  1  0.564892  0.832746  0.830061  1
  O  O14  1  0.801897  0.728282  0.984433  1
  O  O15  1  0.421766  0.357688  0.265070  1
  O  O16  1  0.198103  0.271718  0.015567  1
  O  O17  1  0.333926  0.998322  0.400438  1
  O  O18  1  0.666074  0.001678  0.599562  1
  O  O19  1  0.110787  0.255085  0.656952  1
  O  O20  1  0.578234  0.642312  0.734930  1
  O  O21  1  0.889213  0.744915  0.343048  1
  O  O22  1  0.768931  0.120960  0.033805  1
  O  O23  1  0.231069  0.879040  0.966195  1
