# generated using pymatgen
data_Yb3Pr16DyGa12
_symmetry_space_group_name_H-M   'P 1'
_cell_length_a   7.89350000
_cell_length_b   7.89350000
_cell_length_c   14.71511400
_cell_angle_alpha   90.00000000
_cell_angle_beta   90.00000000
_cell_angle_gamma   90.00000000
_symmetry_Int_Tables_number   1
_chemical_formula_structural   Yb3Pr16DyGa12
_chemical_formula_sum   'Yb3 Pr16 Dy1 Ga12'
_cell_volume   916.85964425
_cell_formula_units_Z   1
loop_
 _symmetry_equiv_pos_site_id
 _symmetry_equiv_pos_as_xyz
  1  'x, y, z'
loop_
 _atom_site_type_symbol
 _atom_site_label
 _atom_site_symmetry_multiplicity
 _atom_site_fract_x
 _atom_site_fract_y
 _atom_site_fract_z
 _atom_site_occupancy
  Yb  Yb0  1  0.000000  0.500000  0.242137  1
  Yb  Yb1  1  0.500000  0.000000  0.257597  1
  Yb  Yb2  1  0.500000  0.000000  0.759035  1
  Pr  Pr3  1  0.822321  0.832432  0.602415  1
  Pr  Pr4  1  0.176799  0.829789  0.102762  1
  Pr  Pr5  1  0.169908  0.823077  0.397822  1
  Pr  Pr6  1  0.830092  0.176923  0.397822  1
  Pr  Pr7  1  0.676923  0.669908  0.397822  1
  Pr  Pr8  1  0.667568  0.322321  0.602415  1
  Pr  Pr9  1  0.332432  0.677679  0.602415  1
  Pr  Pr10  1  0.670211  0.676799  0.102762  1
  Pr  Pr11  1  0.678148  0.330066  0.897239  1
  Pr  Pr12  1  0.830066  0.821852  0.897239  1
  Pr  Pr13  1  0.323077  0.330092  0.397822  1
  Pr  Pr14  1  0.177679  0.167568  0.602415  1
  Pr  Pr15  1  0.823201  0.170211  0.102762  1
  Pr  Pr16  1  0.321852  0.669934  0.897239  1
  Pr  Pr17  1  0.329789  0.323201  0.102762  1
  Pr  Pr18  1  0.169934  0.178148  0.897239  1
  Dy  Dy19  1  0.000000  0.500000  0.733512  1
  Ga  Ga20  1  0.616786  0.383321  0.250235  1
  Ga  Ga21  1  0.113644  0.876888  0.750441  1
  Ga  Ga22  1  0.376888  0.386356  0.750441  1
  Ga  Ga23  1  0.383214  0.616679  0.250235  1
  Ga  Ga24  1  0.883321  0.883214  0.250235  1
  Ga  Ga25  1  0.623112  0.613644  0.750441  1
  Ga  Ga26  1  0.000000  0.500000  0.508200  1
  Ga  Ga27  1  0.886356  0.123112  0.750441  1
  Ga  Ga28  1  0.500000  0.000000  0.495775  1
  Ga  Ga29  1  0.500000  0.000000  0.997399  1
  Ga  Ga30  1  0.116679  0.116786  0.250235  1
  Ga  Ga31  1  0.000000  0.500000  0.002689  1
