# generated using pymatgen
data_Nd4Y12Cd4OsPt3
_symmetry_space_group_name_H-M   'P 1'
_cell_length_a   9.79714706
_cell_length_b   9.78989173
_cell_length_c   9.78989262
_cell_angle_alpha   59.80569589
_cell_angle_beta   59.62733768
_cell_angle_gamma   59.62733828
_symmetry_Int_Tables_number   1
_chemical_formula_structural   Nd4Y12Cd4OsPt3
_chemical_formula_sum   'Nd4 Y12 Cd4 Os1 Pt3'
_cell_volume   659.22932427
_cell_formula_units_Z   1
loop_
 _symmetry_equiv_pos_site_id
 _symmetry_equiv_pos_as_xyz
  1  'x, y, z'
loop_
 _atom_site_type_symbol
 _atom_site_label
 _atom_site_symmetry_multiplicity
 _atom_site_fract_x
 _atom_site_fract_y
 _atom_site_fract_z
 _atom_site_occupancy
  Nd  Nd0  1  0.565301  0.935707  0.565932  1
  Nd  Nd1  1  0.938606  0.558612  0.936372  1
  Nd  Nd2  1  0.565301  0.565932  0.935707  1
  Nd  Nd3  1  0.938606  0.936372  0.558612  1
  Y  Y4  1  0.353166  0.351284  0.351284  1
  Y  Y5  1  0.347548  0.350650  0.952171  1
  Y  Y6  1  0.347548  0.952171  0.350650  1
  Y  Y7  1  0.949744  0.348853  0.348853  1
  Y  Y8  1  0.816541  0.186842  0.186842  1
  Y  Y9  1  0.187841  0.810166  0.810166  1
  Y  Y10  1  0.188886  0.815710  0.187986  1
  Y  Y11  1  0.809981  0.184558  0.809904  1
  Y  Y12  1  0.188886  0.187986  0.815710  1
  Y  Y13  1  0.809981  0.809904  0.184558  1
  Y  Y14  1  0.940794  0.558443  0.558443  1
  Y  Y15  1  0.552931  0.943423  0.943423  1
  Cd  Cd16  1  0.583153  0.577911  0.577911  1
  Cd  Cd17  1  0.578019  0.583717  0.257405  1
  Cd  Cd18  1  0.578019  0.257405  0.583717  1
  Cd  Cd19  1  0.257713  0.578794  0.578794  1
  Os  Os20  1  0.144179  0.141911  0.141911  1
  Pt  Pt21  1  0.141976  0.146805  0.574435  1
  Pt  Pt22  1  0.141976  0.574435  0.146805  1
  Pt  Pt23  1  0.573305  0.142411  0.142411  1
