# generated using pymatgen
data_DyH2Br
_symmetry_space_group_name_H-M   'P 1'
_cell_length_a   11.04967242
_cell_length_b   11.04967272
_cell_length_c   11.04967124
_cell_angle_alpha   19.66389200
_cell_angle_beta   19.66388864
_cell_angle_gamma   19.66389379
_symmetry_Int_Tables_number   1
_chemical_formula_structural   DyH2Br
_chemical_formula_sum   'Dy2 H4 Br2'
_cell_volume   133.59638236
_cell_formula_units_Z   2
loop_
 _symmetry_equiv_pos_site_id
 _symmetry_equiv_pos_as_xyz
  1  'x, y, z'
loop_
 _atom_site_type_symbol
 _atom_site_label
 _atom_site_symmetry_multiplicity
 _atom_site_fract_x
 _atom_site_fract_y
 _atom_site_fract_z
 _atom_site_occupancy
  Dy  Dy0  1  0.882688  0.882688  0.882688  1
  Dy  Dy1  1  0.117312  0.117312  0.117312  1
  H  H2  1  0.814199  0.814199  0.814199  1
  H  H3  1  0.185801  0.185801  0.185801  1
  H  H4  1  0.543839  0.543839  0.543839  1
  H  H5  1  0.456161  0.456161  0.456161  1
  Br  Br6  1  0.724612  0.724612  0.724612  1
  Br  Br7  1  0.275388  0.275388  0.275388  1
