# generated using pymatgen
data_Dy6Tm2Sc11Si16W
_symmetry_space_group_name_H-M   'P 1'
_cell_length_a   7.06168663
_cell_length_b   7.30982491
_cell_length_c   13.85866510
_cell_angle_alpha   90.12454304
_cell_angle_beta   89.55447055
_cell_angle_gamma   89.87469899
_symmetry_Int_Tables_number   1
_chemical_formula_structural   Dy6Tm2Sc11Si16W
_chemical_formula_sum   'Dy6 Tm2 Sc11 Si16 W1'
_cell_volume   715.35498030
_cell_formula_units_Z   1
loop_
 _symmetry_equiv_pos_site_id
 _symmetry_equiv_pos_as_xyz
  1  'x, y, z'
loop_
 _atom_site_type_symbol
 _atom_site_label
 _atom_site_symmetry_multiplicity
 _atom_site_fract_x
 _atom_site_fract_y
 _atom_site_fract_z
 _atom_site_occupancy
  Dy  Dy0  1  0.011720  0.174445  0.097385  1
  Dy  Dy1  1  0.989407  0.825631  0.898045  1
  Dy  Dy2  1  0.487430  0.677355  0.899160  1
  Dy  Dy3  1  0.992836  0.828976  0.595582  1
  Dy  Dy4  1  0.512949  0.324060  0.096230  1
  Dy  Dy5  1  0.009972  0.175458  0.404343  1
  Tm  Tm6  1  0.506120  0.323416  0.410359  1
  Tm  Tm7  1  0.489018  0.676102  0.596173  1
  Sc  Sc8  1  0.163766  0.495288  0.744532  1
  Sc  Sc9  1  0.837356  0.497580  0.252570  1
  Sc  Sc10  1  0.336621  0.003142  0.253012  1
  Sc  Sc11  1  0.658533  0.002008  0.747001  1
  Sc  Sc12  1  0.664328  0.825266  0.379331  1
  Sc  Sc13  1  0.168283  0.677011  0.378897  1
  Sc  Sc14  1  0.669171  0.824302  0.125073  1
  Sc  Sc15  1  0.832526  0.324233  0.623211  1
  Sc  Sc16  1  0.333117  0.176631  0.874403  1
  Sc  Sc17  1  0.830234  0.322963  0.871330  1
  Sc  Sc18  1  0.170375  0.676435  0.126047  1
  Si  Si19  1  0.042976  0.120892  0.744279  1
  Si  Si20  1  0.963513  0.884912  0.251924  1
  Si  Si21  1  0.466477  0.616235  0.251459  1
  Si  Si22  1  0.530916  0.375683  0.745282  1
  Si  Si23  1  0.288290  0.879736  0.744884  1
  Si  Si24  1  0.710303  0.127551  0.251681  1
  Si  Si25  1  0.216082  0.373114  0.251444  1
  Si  Si26  1  0.784066  0.624701  0.745938  1
  Si  Si27  1  0.179469  0.450887  0.540958  1
  Si  Si28  1  0.838571  0.531783  0.460427  1
  Si  Si29  1  0.333405  0.969532  0.471468  1
  Si  Si30  1  0.845454  0.535360  0.038819  1
  Si  Si31  1  0.646143  0.035394  0.545001  1
  Si  Si32  1  0.154219  0.466247  0.958812  1
  Si  Si33  1  0.661003  0.036113  0.958879  1
  Si  Si34  1  0.341765  0.963294  0.038386  1
  W  W35  1  0.333584  0.178267  0.627679  1
