# generated using pymatgen
data_Dy6Si5GeRh12
_symmetry_space_group_name_H-M   'P 1'
_cell_length_a   5.57798400
_cell_length_b   5.57798363
_cell_length_c   15.11604200
_cell_angle_alpha   90.00000000
_cell_angle_beta   90.00000000
_cell_angle_gamma   119.99999031
_symmetry_Int_Tables_number   1
_chemical_formula_structural   Dy6Si5GeRh12
_chemical_formula_sum   'Dy6 Si5 Ge1 Rh12'
_cell_volume   407.30830354
_cell_formula_units_Z   1
loop_
 _symmetry_equiv_pos_site_id
 _symmetry_equiv_pos_as_xyz
  1  'x, y, z'
loop_
 _atom_site_type_symbol
 _atom_site_label
 _atom_site_symmetry_multiplicity
 _atom_site_fract_x
 _atom_site_fract_y
 _atom_site_fract_z
 _atom_site_occupancy
  Dy  Dy0  1  0.333333  0.666667  0.537427  1
  Dy  Dy1  1  0.666667  0.333333  0.462573  1
  Dy  Dy2  1  0.666667  0.333333  0.037723  1
  Dy  Dy3  1  0.333333  0.666667  0.962277  1
  Dy  Dy4  1  0.333333  0.666667  0.749526  1
  Dy  Dy5  1  0.666667  0.333333  0.250474  1
  Si  Si6  1  0.000000  0.000000  0.251718  1
  Si  Si7  1  0.000000  0.000000  0.748282  1
  Si  Si8  1  0.333333  0.666667  0.251893  1
  Si  Si9  1  0.666667  0.333333  0.748107  1
  Si  Si10  1  0.000000  0.000000  0.500000  1
  Ge  Ge11  1  0.000000  0.000000  0.000000  1
  Rh  Rh12  1  0.167572  0.335143  0.133816  1
  Rh  Rh13  1  0.832428  0.664857  0.866184  1
  Rh  Rh14  1  0.664857  0.832428  0.133816  1
  Rh  Rh15  1  0.833232  0.666464  0.629322  1
  Rh  Rh16  1  0.335143  0.167572  0.866184  1
  Rh  Rh17  1  0.166768  0.333536  0.370678  1
  Rh  Rh18  1  0.167572  0.832428  0.133816  1
  Rh  Rh19  1  0.333536  0.166768  0.629322  1
  Rh  Rh20  1  0.832428  0.167572  0.866184  1
  Rh  Rh21  1  0.666464  0.833232  0.370678  1
  Rh  Rh22  1  0.833232  0.166768  0.629322  1
  Rh  Rh23  1  0.166768  0.833232  0.370678  1
