# generated using pymatgen
data_Tm16Hf4GaRh11
_symmetry_space_group_name_H-M   'P 1'
_cell_length_a   10.70799171
_cell_length_b   10.70799265
_cell_length_c   6.15571000
_cell_angle_alpha   90.04076201
_cell_angle_beta   90.04076201
_cell_angle_gamma   89.96551218
_symmetry_Int_Tables_number   1
_chemical_formula_structural   Tm16Hf4GaRh11
_chemical_formula_sum   'Tm16 Hf4 Ga1 Rh11'
_cell_volume   705.81997337
_cell_formula_units_Z   1
loop_
 _symmetry_equiv_pos_site_id
 _symmetry_equiv_pos_as_xyz
  1  'x, y, z'
loop_
 _atom_site_type_symbol
 _atom_site_label
 _atom_site_symmetry_multiplicity
 _atom_site_fract_x
 _atom_site_fract_y
 _atom_site_fract_z
 _atom_site_occupancy
  Tm  Tm0  1  0.288425  0.086740  0.372627  1
  Tm  Tm1  1  0.287730  0.915961  0.872675  1
  Tm  Tm2  1  0.711613  0.086505  0.872643  1
  Tm  Tm3  1  0.710633  0.914113  0.373519  1
  Tm  Tm4  1  0.589604  0.789244  0.873033  1
  Tm  Tm5  1  0.586474  0.210696  0.372440  1
  Tm  Tm6  1  0.414741  0.790425  0.362758  1
  Tm  Tm7  1  0.413358  0.211825  0.870460  1
  Tm  Tm8  1  0.210756  0.410396  0.626967  1
  Tm  Tm9  1  0.209575  0.585259  0.137242  1
  Tm  Tm10  1  0.789304  0.413526  0.127560  1
  Tm  Tm11  1  0.788175  0.586642  0.629540  1
  Tm  Tm12  1  0.913260  0.711575  0.127373  1
  Tm  Tm13  1  0.913495  0.288387  0.627357  1
  Tm  Tm14  1  0.084039  0.712270  0.627325  1
  Tm  Tm15  1  0.085887  0.289367  0.126481  1
  Hf  Hf16  1  0.000216  0.000583  0.500197  1
  Hf  Hf17  1  0.999417  0.999784  0.999803  1
  Hf  Hf18  1  0.502776  0.496326  0.999507  1
  Hf  Hf19  1  0.503674  0.497224  0.500493  1
  Ga  Ga20  1  0.349169  0.650831  0.750000  1
  Rh  Rh21  1  0.854633  0.145367  0.250000  1
  Rh  Rh22  1  0.854027  0.854112  0.749831  1
  Rh  Rh23  1  0.145888  0.145973  0.750169  1
  Rh  Rh24  1  0.144754  0.855246  0.250000  1
  Rh  Rh25  1  0.646492  0.353508  0.750000  1
  Rh  Rh26  1  0.646373  0.645138  0.251090  1
  Rh  Rh27  1  0.354862  0.353627  0.248910  1
  Rh  Rh28  1  0.500454  0.000216  0.119280  1
  Rh  Rh29  1  0.500269  0.999855  0.619626  1
  Rh  Rh30  1  0.000145  0.499731  0.880374  1
  Rh  Rh31  1  0.999784  0.499546  0.380720  1
