# generated using pymatgen
data_RbHo(NbBr3)6
_symmetry_space_group_name_H-M   'P 1'
_cell_length_a   10.77195909
_cell_length_b   10.77059535
_cell_length_c   10.77144207
_cell_angle_alpha   55.48272697
_cell_angle_beta   55.47719000
_cell_angle_gamma   55.48681068
_symmetry_Int_Tables_number   1
_chemical_formula_structural   RbHo(NbBr3)6
_chemical_formula_sum   'Rb1 Ho1 Nb6 Br18'
_cell_volume   790.97677048
_cell_formula_units_Z   1
loop_
 _symmetry_equiv_pos_site_id
 _symmetry_equiv_pos_as_xyz
  1  'x, y, z'
loop_
 _atom_site_type_symbol
 _atom_site_label
 _atom_site_symmetry_multiplicity
 _atom_site_fract_x
 _atom_site_fract_y
 _atom_site_fract_z
 _atom_site_occupancy
  Rb  Rb0  1  0.220711  0.220708  0.220713  1
  Ho  Ho1  1  0.498398  0.498409  0.498400  1
  Nb  Nb2  1  0.808610  0.142965  0.915803  1
  Nb  Nb3  1  0.915798  0.808590  0.142971  1
  Nb  Nb4  1  0.142966  0.915809  0.808593  1
  Nb  Nb5  1  0.192491  0.857390  0.083587  1
  Nb  Nb6  1  0.083570  0.192440  0.857424  1
  Nb  Nb7  1  0.857417  0.083577  0.192446  1
  Br  Br8  1  0.864840  0.411490  0.726247  1
  Br  Br9  1  0.726218  0.864866  0.411520  1
  Br  Br10  1  0.411505  0.726227  0.864879  1
  Br  Br11  1  0.134760  0.588563  0.276152  1
  Br  Br12  1  0.276168  0.134751  0.588536  1
  Br  Br13  1  0.588568  0.276153  0.134722  1
  Br  Br14  1  0.530721  0.342468  0.804145  1
  Br  Br15  1  0.804130  0.530697  0.342487  1
  Br  Br16  1  0.342476  0.804142  0.530698  1
  Br  Br17  1  0.465984  0.658967  0.198152  1
  Br  Br18  1  0.198155  0.466028  0.658937  1
  Br  Br19  1  0.658946  0.198160  0.466011  1
  Br  Br20  1  0.662999  0.938459  0.071097  1
  Br  Br21  1  0.071121  0.662995  0.938422  1
  Br  Br22  1  0.938408  0.071134  0.663016  1
  Br  Br23  1  0.339652  0.060437  0.926082  1
  Br  Br24  1  0.926060  0.339656  0.060459  1
  Br  Br25  1  0.060466  0.926060  0.339638  1
