# generated using pymatgen
data_KCr3FeSb12
_symmetry_space_group_name_H-M   'P 1'
_cell_length_a   8.20916537
_cell_length_b   8.20916698
_cell_length_c   8.20916705
_cell_angle_alpha   109.17895264
_cell_angle_beta   109.17893548
_cell_angle_gamma   109.17895563
_symmetry_Int_Tables_number   1
_chemical_formula_structural   KCr3FeSb12
_chemical_formula_sum   'K1 Cr3 Fe1 Sb12'
_cell_volume   430.41496477
_cell_formula_units_Z   1
loop_
 _symmetry_equiv_pos_site_id
 _symmetry_equiv_pos_as_xyz
  1  'x, y, z'
loop_
 _atom_site_type_symbol
 _atom_site_label
 _atom_site_symmetry_multiplicity
 _atom_site_fract_x
 _atom_site_fract_y
 _atom_site_fract_z
 _atom_site_occupancy
  K  K0  1  0.000000  0.000000  0.000000  1
  Cr  Cr1  1  0.000000  0.000000  0.500000  1
  Cr  Cr2  1  0.000000  0.500000  0.000000  1
  Cr  Cr3  1  0.500000  0.000000  0.000000  1
  Fe  Fe4  1  0.500000  0.500000  0.500000  1
  Sb  Sb5  1  0.653404  0.805264  0.154347  1
  Sb  Sb6  1  0.845653  0.346596  0.194736  1
  Sb  Sb7  1  0.503276  0.829896  0.649838  1
  Sb  Sb8  1  0.829896  0.649838  0.503276  1
  Sb  Sb9  1  0.496724  0.170104  0.350162  1
  Sb  Sb10  1  0.154347  0.653404  0.805264  1
  Sb  Sb11  1  0.805264  0.154347  0.653404  1
  Sb  Sb12  1  0.194736  0.845653  0.346596  1
  Sb  Sb13  1  0.170104  0.350162  0.496724  1
  Sb  Sb14  1  0.649838  0.503276  0.829896  1
  Sb  Sb15  1  0.350162  0.496724  0.170104  1
  Sb  Sb16  1  0.346596  0.194736  0.845653  1
