# generated using pymatgen
data_SmHo5U4O20
_symmetry_space_group_name_H-M   'P 1'
_cell_length_a   6.64546825
_cell_length_b   7.50398691
_cell_length_c   8.42038423
_cell_angle_alpha   100.80232682
_cell_angle_beta   97.79627871
_cell_angle_gamma   107.32827689
_symmetry_Int_Tables_number   1
_chemical_formula_structural   SmHo5U4O20
_chemical_formula_sum   'Sm1 Ho5 U4 O20'
_cell_volume   385.44653368
_cell_formula_units_Z   1
loop_
 _symmetry_equiv_pos_site_id
 _symmetry_equiv_pos_as_xyz
  1  'x, y, z'
loop_
 _atom_site_type_symbol
 _atom_site_label
 _atom_site_symmetry_multiplicity
 _atom_site_fract_x
 _atom_site_fract_y
 _atom_site_fract_z
 _atom_site_occupancy
  Sm  Sm0  1  0.000000  0.500000  0.500000  1
  Ho  Ho1  1  0.614849  0.705442  0.700019  1
  Ho  Ho2  1  0.385151  0.294558  0.299981  1
  Ho  Ho3  1  0.197620  0.897841  0.893128  1
  Ho  Ho4  1  0.802380  0.102159  0.106872  1
  Ho  Ho5  1  0.000000  0.000000  0.500000  1
  U  U6  1  0.402671  0.804935  0.301556  1
  U  U7  1  0.199391  0.399774  0.900057  1
  U  U8  1  0.800609  0.600226  0.099943  1
  U  U9  1  0.597329  0.195065  0.698444  1
  O  O10  1  0.439397  0.531140  0.137266  1
  O  O11  1  0.555079  0.986086  0.841683  1
  O  O12  1  0.268686  0.143046  0.745249  1
  O  O13  1  0.364255  0.593868  0.441232  1
  O  O14  1  0.053798  0.731500  0.332330  1
  O  O15  1  0.444921  0.013914  0.158317  1
  O  O16  1  0.150390  0.182543  0.032231  1
  O  O17  1  0.560603  0.468860  0.862734  1
  O  O18  1  0.854515  0.335483  0.950487  1
  O  O19  1  0.260118  0.609606  0.762583  1
  O  O20  1  0.952704  0.777734  0.655577  1
  O  O21  1  0.353708  0.063037  0.453240  1
  O  O22  1  0.646292  0.936963  0.546760  1
  O  O23  1  0.047296  0.222266  0.344423  1
  O  O24  1  0.739882  0.390394  0.237417  1
  O  O25  1  0.145485  0.664517  0.049513  1
  O  O26  1  0.849610  0.817457  0.967769  1
  O  O27  1  0.946202  0.268500  0.667670  1
  O  O28  1  0.635745  0.406132  0.558768  1
  O  O29  1  0.731314  0.856954  0.254751  1
