# generated using pymatgen
data_K8Hf4Zr2BeI20
_symmetry_space_group_name_H-M   'P 1'
_cell_length_a   12.56054049
_cell_length_b   12.56054016
_cell_length_c   12.56613400
_cell_angle_alpha   59.98526684
_cell_angle_beta   59.98526770
_cell_angle_gamma   60.02946830
_symmetry_Int_Tables_number   1
_chemical_formula_structural   K8Hf4Zr2BeI20
_chemical_formula_sum   'K8 Hf4 Zr2 Be1 I20'
_cell_volume   1401.85524186
_cell_formula_units_Z   1
loop_
 _symmetry_equiv_pos_site_id
 _symmetry_equiv_pos_as_xyz
  1  'x, y, z'
loop_
 _atom_site_type_symbol
 _atom_site_label
 _atom_site_symmetry_multiplicity
 _atom_site_fract_x
 _atom_site_fract_y
 _atom_site_fract_z
 _atom_site_occupancy
  K  K0  1  0.361457  0.361457  0.361786  1
  K  K1  1  0.638543  0.638543  0.638214  1
  K  K2  1  0.361457  0.361457  0.915300  1
  K  K3  1  0.361786  0.915300  0.361457  1
  K  K4  1  0.638543  0.638543  0.084700  1
  K  K5  1  0.638214  0.084700  0.638543  1
  K  K6  1  0.915300  0.361786  0.361457  1
  K  K7  1  0.084700  0.638214  0.638543  1
  Hf  Hf8  1  0.864826  0.135174  0.135174  1
  Hf  Hf9  1  0.135174  0.864826  0.864826  1
  Hf  Hf10  1  0.135174  0.864826  0.135174  1
  Hf  Hf11  1  0.864826  0.135174  0.864826  1
  Zr  Zr12  1  0.136239  0.136239  0.863761  1
  Zr  Zr13  1  0.863761  0.863761  0.136239  1
  Be  Be14  1  0.000000  0.000000  0.000000  1
  I  I15  1  0.325893  0.998344  0.001656  1
  I  I16  1  0.674107  0.001656  0.998344  1
  I  I17  1  0.998344  0.325893  0.674107  1
  I  I18  1  0.001656  0.674107  0.325893  1
  I  I19  1  0.998344  0.325893  0.001656  1
  I  I20  1  0.674107  0.001656  0.325893  1
  I  I21  1  0.001656  0.674107  0.998344  1
  I  I22  1  0.325893  0.998344  0.674107  1
  I  I23  1  0.000000  0.000000  0.324748  1
  I  I24  1  0.000000  0.000000  0.675252  1
  I  I25  1  0.675252  0.324748  0.000000  1
  I  I26  1  0.324748  0.675252  0.000000  1
  I  I27  1  0.684936  0.315064  0.315064  1
  I  I28  1  0.315064  0.684936  0.684936  1
  I  I29  1  0.315064  0.684936  0.315064  1
  I  I30  1  0.684936  0.315064  0.684936  1
  I  I31  1  0.316141  0.316141  0.683859  1
  I  I32  1  0.683859  0.683859  0.316141  1
  I  I33  1  0.250000  0.250000  0.250000  1
  I  I34  1  0.750000  0.750000  0.750000  1
