# generated using pymatgen
data_La2Tb2HoRu2
_symmetry_space_group_name_H-M   'P 1'
_cell_length_a   6.52164039
_cell_length_b   7.24915896
_cell_length_c   8.81789908
_cell_angle_alpha   96.32231757
_cell_angle_beta   111.70301121
_cell_angle_gamma   89.99999891
_symmetry_Int_Tables_number   1
_chemical_formula_structural   La2Tb2HoRu2
_chemical_formula_sum   'La4 Tb4 Ho2 Ru4'
_cell_volume   384.59721779
_cell_formula_units_Z   2
loop_
 _symmetry_equiv_pos_site_id
 _symmetry_equiv_pos_as_xyz
  1  'x, y, z'
loop_
 _atom_site_type_symbol
 _atom_site_label
 _atom_site_symmetry_multiplicity
 _atom_site_fract_x
 _atom_site_fract_y
 _atom_site_fract_z
 _atom_site_occupancy
  La  La0  1  0.978303  0.911473  0.193653  1
  La  La1  1  0.784649  0.588527  0.806347  1
  La  La2  1  0.021697  0.088527  0.806347  1
  La  La3  1  0.215351  0.411473  0.193653  1
  Tb  Tb4  1  0.636521  0.814920  0.431101  1
  Tb  Tb5  1  0.205419  0.685080  0.568899  1
  Tb  Tb6  1  0.363479  0.185080  0.568899  1
  Tb  Tb7  1  0.794581  0.314920  0.431101  1
  Ho  Ho8  1  0.425564  0.750000  0.000000  1
  Ho  Ho9  1  0.574436  0.250000  0.000000  1
  Ru  Ru10  1  0.824811  0.580921  0.224226  1
  Ru  Ru11  1  0.600585  0.919079  0.775774  1
  Ru  Ru12  1  0.175189  0.419079  0.775774  1
  Ru  Ru13  1  0.399415  0.080921  0.224226  1
