# generated using pymatgen
data_Lu2Pa2VReB12
_symmetry_space_group_name_H-M   'P 1'
_cell_length_a   3.66111400
_cell_length_b   9.10932088
_cell_length_c   11.47873711
_cell_angle_alpha   90.05047913
_cell_angle_beta   90.00000000
_cell_angle_gamma   90.00000000
_symmetry_Int_Tables_number   1
_chemical_formula_structural   Lu2Pa2VReB12
_chemical_formula_sum   'Lu4 Pa4 V2 Re2 B24'
_cell_volume   382.81874410
_cell_formula_units_Z   2
loop_
 _symmetry_equiv_pos_site_id
 _symmetry_equiv_pos_as_xyz
  1  'x, y, z'
loop_
 _atom_site_type_symbol
 _atom_site_label
 _atom_site_symmetry_multiplicity
 _atom_site_fract_x
 _atom_site_fract_y
 _atom_site_fract_z
 _atom_site_occupancy
  Lu  Lu0  1  0.000000  0.943127  0.374013  1
  Lu  Lu1  1  0.000000  0.056873  0.625987  1
  Lu  Lu2  1  0.000000  0.446992  0.127497  1
  Lu  Lu3  1  0.000000  0.553008  0.872503  1
  Pa  Pa4  1  0.000000  0.323625  0.414909  1
  Pa  Pa5  1  0.000000  0.676375  0.585091  1
  Pa  Pa6  1  0.000000  0.820267  0.087384  1
  Pa  Pa7  1  0.000000  0.179733  0.912616  1
  V  V8  1  0.000000  0.639714  0.320164  1
  V  V9  1  0.000000  0.360286  0.679836  1
  Re  Re10  1  0.000000  0.138897  0.178479  1
  Re  Re11  1  0.000000  0.861103  0.821521  1
  B  B12  1  0.500000  0.553437  0.432703  1
  B  B13  1  0.500000  0.446563  0.567297  1
  B  B14  1  0.500000  0.054024  0.067383  1
  B  B15  1  0.500000  0.945976  0.932617  1
  B  B16  1  0.500000  0.749394  0.419703  1
  B  B17  1  0.500000  0.250606  0.580297  1
  B  B18  1  0.500000  0.250956  0.080684  1
  B  B19  1  0.500000  0.749044  0.919316  1
  B  B20  1  0.500000  0.793651  0.265189  1
  B  B21  1  0.500000  0.206349  0.734811  1
  B  B22  1  0.500000  0.293396  0.234913  1
  B  B23  1  0.500000  0.706604  0.765087  1
  B  B24  1  0.500000  0.632375  0.184451  1
  B  B25  1  0.500000  0.367625  0.815549  1
  B  B26  1  0.500000  0.131373  0.315202  1
  B  B27  1  0.500000  0.868627  0.684798  1
  B  B28  1  0.500000  0.982226  0.213393  1
  B  B29  1  0.500000  0.017774  0.786607  1
  B  B30  1  0.500000  0.482366  0.286592  1
  B  B31  1  0.500000  0.517634  0.713408  1
  B  B32  1  0.500000  0.606297  0.028723  1
  B  B33  1  0.500000  0.393703  0.971277  1
  B  B34  1  0.500000  0.105984  0.470035  1
  B  B35  1  0.500000  0.894016  0.529965  1
