# generated using pymatgen
data_Tm5LuInGa2
_symmetry_space_group_name_H-M   'P 1'
_cell_length_a   8.51709481
_cell_length_b   8.51411471
_cell_length_c   8.51411496
_cell_angle_alpha   112.29131981
_cell_angle_beta   112.45465536
_cell_angle_gamma   103.79888620
_symmetry_Int_Tables_number   1
_chemical_formula_structural   Tm5LuInGa2
_chemical_formula_sum   'Tm10 Lu2 In2 Ga4'
_cell_volume   471.91371307
_cell_formula_units_Z   2
loop_
 _symmetry_equiv_pos_site_id
 _symmetry_equiv_pos_as_xyz
  1  'x, y, z'
loop_
 _atom_site_type_symbol
 _atom_site_label
 _atom_site_symmetry_multiplicity
 _atom_site_fract_x
 _atom_site_fract_y
 _atom_site_fract_z
 _atom_site_occupancy
  Tm  Tm0  1  0.036398  0.239475  0.796925  1
  Tm  Tm1  1  0.963602  0.760525  0.203075  1
  Tm  Tm2  1  0.187688  0.280969  0.468196  1
  Tm  Tm3  1  0.812312  0.719031  0.531804  1
  Tm  Tm4  1  0.187688  0.719492  0.906720  1
  Tm  Tm5  1  0.812312  0.280508  0.093280  1
  Tm  Tm6  1  0.320401  0.615897  0.296052  1
  Tm  Tm7  1  0.679599  0.384103  0.703948  1
  Tm  Tm8  1  0.320401  0.024349  0.704504  1
  Tm  Tm9  1  0.679599  0.975651  0.295496  1
  Lu  Lu10  1  0.442775  0.239191  0.203584  1
  Lu  Lu11  1  0.557225  0.760809  0.796416  1
  In  In12  1  0.500000  0.500000  0.000000  1
  In  In13  1  0.000000  0.000000  0.000000  1
  Ga  Ga14  1  0.353230  0.000299  0.352931  1
  Ga  Ga15  1  0.646770  0.999701  0.647069  1
  Ga  Ga16  1  0.121188  0.621145  0.500042  1
  Ga  Ga17  1  0.878812  0.378855  0.499958  1
