# generated using pymatgen
data_LaPr7(DyIr2)2
_symmetry_space_group_name_H-M   'P 1'
_cell_length_a   6.70102060
_cell_length_b   7.29613812
_cell_length_c   9.01253153
_cell_angle_alpha   96.36166751
_cell_angle_beta   111.76780634
_cell_angle_gamma   89.59992995
_symmetry_Int_Tables_number   1
_chemical_formula_structural   LaPr7(DyIr2)2
_chemical_formula_sum   'La1 Pr7 Dy2 Ir4'
_cell_volume   406.41928362
_cell_formula_units_Z   1
loop_
 _symmetry_equiv_pos_site_id
 _symmetry_equiv_pos_as_xyz
  1  'x, y, z'
loop_
 _atom_site_type_symbol
 _atom_site_label
 _atom_site_symmetry_multiplicity
 _atom_site_fract_x
 _atom_site_fract_y
 _atom_site_fract_z
 _atom_site_occupancy
  La  La0  1  0.796242  0.081302  0.816531  1
  Pr  Pr1  1  0.976792  0.423612  0.181800  1
  Pr  Pr2  1  0.206570  0.922515  0.183613  1
  Pr  Pr3  1  0.024472  0.577239  0.819673  1
  Pr  Pr4  1  0.213426  0.188023  0.567908  1
  Pr  Pr5  1  0.644885  0.312093  0.429203  1
  Pr  Pr6  1  0.784163  0.812092  0.430257  1
  Pr  Pr7  1  0.353802  0.687746  0.569988  1
  Dy  Dy8  1  0.437644  0.250778  0.001054  1
  Dy  Dy9  1  0.562268  0.749021  0.000032  1
  Ir  Ir10  1  0.601077  0.425987  0.790337  1
  Ir  Ir11  1  0.808687  0.070203  0.211026  1
  Ir  Ir12  1  0.401478  0.569781  0.209728  1
  Ir  Ir13  1  0.188496  0.929607  0.788850  1
