# generated using pymatgen
data_CsRb2Nb2AsSe11
_symmetry_space_group_name_H-M   'P 1'
_cell_length_a   10.42924517
_cell_length_b   10.42924535
_cell_length_c   10.32271500
_cell_angle_alpha   84.48338896
_cell_angle_beta   95.51660902
_cell_angle_gamma   95.32355995
_symmetry_Int_Tables_number   1
_chemical_formula_structural   CsRb2Nb2AsSe11
_chemical_formula_sum   'Cs2 Rb4 Nb4 As2 Se22'
_cell_volume   1108.45499176
_cell_formula_units_Z   2
loop_
 _symmetry_equiv_pos_site_id
 _symmetry_equiv_pos_as_xyz
  1  'x, y, z'
loop_
 _atom_site_type_symbol
 _atom_site_label
 _atom_site_symmetry_multiplicity
 _atom_site_fract_x
 _atom_site_fract_y
 _atom_site_fract_z
 _atom_site_occupancy
  Cs  Cs0  1  0.800351  0.357027  0.156827  1
  Cs  Cs1  1  0.642972  0.199648  0.656826  1
  Rb  Rb2  1  0.043112  0.817195  0.397643  1
  Rb  Rb3  1  0.182805  0.956888  0.897643  1
  Rb  Rb4  1  0.284765  0.559062  0.065777  1
  Rb  Rb5  1  0.440938  0.715234  0.565778  1
  Nb  Nb6  1  0.081810  0.459798  0.669832  1
  Nb  Nb7  1  0.540202  0.918191  0.169831  1
  Nb  Nb8  1  0.193707  0.204925  0.483418  1
  Nb  Nb9  1  0.795075  0.806293  0.983418  1
  As  As10  1  0.410139  0.253630  0.222574  1
  As  As11  1  0.746369  0.589860  0.722573  1
  Se  Se12  1  0.834138  0.810633  0.732505  1
  Se  Se13  1  0.189366  0.165861  0.232504  1
  Se  Se14  1  0.896192  0.490332  0.485788  1
  Se  Se15  1  0.509668  0.103809  0.985788  1
  Se  Se16  1  0.563750  0.107765  0.326820  1
  Se  Se17  1  0.892234  0.436250  0.826820  1
  Se  Se18  1  0.816410  0.986997  0.145352  1
  Se  Se19  1  0.013003  0.183590  0.645353  1
  Se  Se20  1  0.650770  0.694723  0.182271  1
  Se  Se21  1  0.305277  0.349230  0.682271  1
  Se  Se22  1  0.108163  0.468804  0.416340  1
  Se  Se23  1  0.531195  0.891837  0.916340  1
  Se  Se24  1  0.616708  0.613214  0.907978  1
  Se  Se25  1  0.386787  0.383292  0.407977  1
  Se  Se26  1  0.692315  0.820706  0.367450  1
  Se  Se27  1  0.179295  0.307685  0.867449  1
  Se  Se28  1  0.950997  0.130332  0.426864  1
  Se  Se29  1  0.869670  0.049003  0.926865  1
  Se  Se30  1  0.163107  0.669975  0.726143  1
  Se  Se31  1  0.330026  0.836894  0.226142  1
  Se  Se32  1  0.977470  0.692989  0.063878  1
  Se  Se33  1  0.307012  0.022530  0.563879  1
