# generated using pymatgen
data_La2Nd4Er14Si15Pd
_symmetry_space_group_name_H-M   'P 1'
_cell_length_a   7.42891390
_cell_length_b   7.80092549
_cell_length_c   14.67801811
_cell_angle_alpha   89.60905763
_cell_angle_beta   89.94710589
_cell_angle_gamma   90.04311102
_symmetry_Int_Tables_number   1
_chemical_formula_structural   La2Nd4Er14Si15Pd
_chemical_formula_sum   'La2 Nd4 Er14 Si15 Pd1'
_cell_volume   850.60602366
_cell_formula_units_Z   1
loop_
 _symmetry_equiv_pos_site_id
 _symmetry_equiv_pos_as_xyz
  1  'x, y, z'
loop_
 _atom_site_type_symbol
 _atom_site_label
 _atom_site_symmetry_multiplicity
 _atom_site_fract_x
 _atom_site_fract_y
 _atom_site_fract_z
 _atom_site_occupancy
  La  La0  1  0.521031  0.571749  0.342634  1
  La  La1  1  0.020806  0.426647  0.657025  1
  Nd  Nd2  1  0.479208  0.932390  0.154389  1
  Nd  Nd3  1  0.978299  0.070775  0.846410  1
  Nd  Nd4  1  0.522395  0.568339  0.654647  1
  Nd  Nd5  1  0.022246  0.430757  0.345380  1
  Er  Er6  1  0.811286  0.578215  0.876224  1
  Er  Er7  1  0.318579  0.424550  0.124918  1
  Er  Er8  1  0.180870  0.927432  0.373244  1
  Er  Er9  1  0.680097  0.069922  0.627160  1
  Er  Er10  1  0.182004  0.924956  0.627228  1
  Er  Er11  1  0.682287  0.072301  0.372314  1
  Er  Er12  1  0.815566  0.573895  0.124493  1
  Er  Er13  1  0.320693  0.428114  0.875068  1
  Er  Er14  1  0.647453  0.232505  0.998891  1
  Er  Er15  1  0.157635  0.760065  0.000579  1
  Er  Er16  1  0.349030  0.261687  0.499991  1
  Er  Er17  1  0.847419  0.737503  0.499980  1
  Er  Er18  1  0.478716  0.932083  0.846780  1
  Er  Er19  1  0.976166  0.066517  0.151096  1
  Si  Si20  1  0.019763  0.355448  0.001161  1
  Si  Si21  1  0.475959  0.864356  0.500208  1
  Si  Si22  1  0.976559  0.134909  0.499773  1
  Si  Si23  1  0.646631  0.275053  0.791702  1
  Si  Si24  1  0.147590  0.721917  0.208175  1
  Si  Si25  1  0.354030  0.216715  0.288097  1
  Si  Si26  1  0.853320  0.782942  0.712265  1
  Si  Si27  1  0.355339  0.212730  0.713235  1
  Si  Si28  1  0.856433  0.787192  0.286433  1
  Si  Si29  1  0.652658  0.275310  0.208017  1
  Si  Si30  1  0.152047  0.723494  0.792428  1
  Si  Si31  1  0.776533  0.880142  0.000661  1
  Si  Si32  1  0.264265  0.126389  0.000879  1
  Si  Si33  1  0.228677  0.629264  0.500969  1
  Si  Si34  1  0.728569  0.371434  0.499396  1
  Pd  Pd35  1  0.519837  0.652296  0.998157  1
