# generated using pymatgen
data_Ba5TaNbI2O9
_symmetry_space_group_name_H-M   'P 1'
_cell_length_a   6.07505400
_cell_length_b   6.07505392
_cell_length_c   26.97449100
_cell_angle_alpha   90.00000000
_cell_angle_beta   90.00000000
_cell_angle_gamma   120.00000044
_symmetry_Int_Tables_number   1
_chemical_formula_structural   Ba5TaNbI2O9
_chemical_formula_sum   'Ba10 Ta2 Nb2 I4 O18'
_cell_volume   862.15265058
_cell_formula_units_Z   2
loop_
 _symmetry_equiv_pos_site_id
 _symmetry_equiv_pos_as_xyz
  1  'x, y, z'
loop_
 _atom_site_type_symbol
 _atom_site_label
 _atom_site_symmetry_multiplicity
 _atom_site_fract_x
 _atom_site_fract_y
 _atom_site_fract_z
 _atom_site_occupancy
  Ba  Ba0  1  0.333333  0.666667  0.907358  1
  Ba  Ba1  1  0.666667  0.333333  0.407358  1
  Ba  Ba2  1  0.666667  0.333333  0.093776  1
  Ba  Ba3  1  0.333333  0.666667  0.177931  1
  Ba  Ba4  1  0.666667  0.333333  0.677931  1
  Ba  Ba5  1  0.333333  0.666667  0.320701  1
  Ba  Ba6  1  0.666667  0.333333  0.820701  1
  Ba  Ba7  1  0.666667  0.333333  0.248998  1
  Ba  Ba8  1  0.333333  0.666667  0.593776  1
  Ba  Ba9  1  0.333333  0.666667  0.748998  1
  Ta  Ta10  1  0.000000  0.000000  0.694237  1
  Ta  Ta11  1  0.000000  0.000000  0.194237  1
  Nb  Nb12  1  0.000000  0.000000  0.807404  1
  Nb  Nb13  1  0.000000  0.000000  0.307404  1
  I  I14  1  0.333333  0.666667  0.452201  1
  I  I15  1  0.333333  0.666667  0.047003  1
  I  I16  1  0.666667  0.333333  0.547003  1
  I  I17  1  0.666667  0.333333  0.952201  1
  O  O18  1  0.161564  0.838436  0.662004  1
  O  O19  1  0.674507  0.837253  0.838417  1
  O  O20  1  0.161564  0.323126  0.662004  1
  O  O21  1  0.851543  0.148457  0.749710  1
  O  O22  1  0.296914  0.148457  0.749710  1
  O  O23  1  0.148457  0.296914  0.249710  1
  O  O24  1  0.148457  0.851543  0.249710  1
  O  O25  1  0.703086  0.851543  0.249710  1
  O  O26  1  0.837253  0.162747  0.338417  1
  O  O27  1  0.323126  0.161564  0.162004  1
  O  O28  1  0.851543  0.703086  0.749710  1
  O  O29  1  0.838436  0.676874  0.162004  1
  O  O30  1  0.325493  0.162747  0.338417  1
  O  O31  1  0.838436  0.161564  0.162004  1
  O  O32  1  0.162747  0.325493  0.838417  1
  O  O33  1  0.837253  0.674507  0.338417  1
  O  O34  1  0.676874  0.838436  0.662004  1
  O  O35  1  0.162747  0.837253  0.838417  1
