# generated using pymatgen
data_LaYbB8Ru7
_symmetry_space_group_name_H-M   'P 1'
_cell_length_a   6.45750100
_cell_length_b   6.45785000
_cell_length_c   10.09909400
_cell_angle_alpha   90.00000000
_cell_angle_beta   90.00000000
_cell_angle_gamma   89.99970721
_symmetry_Int_Tables_number   1
_chemical_formula_structural   LaYbB8Ru7
_chemical_formula_sum   'La2 Yb2 B16 Ru14'
_cell_volume   421.14810398
_cell_formula_units_Z   2
loop_
 _symmetry_equiv_pos_site_id
 _symmetry_equiv_pos_as_xyz
  1  'x, y, z'
loop_
 _atom_site_type_symbol
 _atom_site_label
 _atom_site_symmetry_multiplicity
 _atom_site_fract_x
 _atom_site_fract_y
 _atom_site_fract_z
 _atom_site_occupancy
  La  La0  1  0.733528  0.883828  0.000000  1
  La  La1  1  0.114951  0.730228  0.500000  1
  Yb  Yb2  1  0.872426  0.260562  0.500000  1
  Yb  Yb3  1  0.263377  0.126544  0.000000  1
  B  B4  1  0.501962  0.999990  0.588890  1
  B  B5  1  0.501962  0.999990  0.411110  1
  B  B6  1  0.898015  0.275512  0.168694  1
  B  B7  1  0.102582  0.725486  0.830890  1
  B  B8  1  0.498822  0.499983  0.341320  1
  B  B9  1  0.498748  0.499408  0.841350  1
  B  B10  1  0.277656  0.102977  0.669633  1
  B  B11  1  0.102582  0.725486  0.169110  1
  B  B12  1  0.277656  0.102977  0.330367  1
  B  B13  1  0.898015  0.275512  0.831306  1
  B  B14  1  0.498822  0.499983  0.658680  1
  B  B15  1  0.498748  0.499408  0.158650  1
  B  B16  1  0.998947  0.499756  0.911091  1
  B  B17  1  0.727256  0.898588  0.668360  1
  B  B18  1  0.727256  0.898588  0.331640  1
  B  B19  1  0.998947  0.499756  0.088909  1
  Ru  Ru20  1  0.204462  0.395044  0.754663  1
  Ru  Ru21  1  0.403992  0.286688  0.500000  1
  Ru  Ru22  1  0.397328  0.795439  0.253093  1
  Ru  Ru23  1  0.204462  0.395044  0.245337  1
  Ru  Ru24  1  0.599688  0.713045  0.500000  1
  Ru  Ru25  1  0.604814  0.204894  0.745059  1
  Ru  Ru26  1  0.284977  0.596421  0.000000  1
  Ru  Ru27  1  0.711394  0.400591  0.000000  1
  Ru  Ru28  1  0.795102  0.602206  0.246753  1
  Ru  Ru29  1  0.795102  0.602206  0.753247  1
  Ru  Ru30  1  0.397328  0.795439  0.746907  1
  Ru  Ru31  1  0.002138  0.001763  0.250096  1
  Ru  Ru32  1  0.604814  0.204894  0.254941  1
  Ru  Ru33  1  0.002138  0.001763  0.749904  1
