# generated using pymatgen
data_LaYbIr3W
_symmetry_space_group_name_H-M   'P 1'
_cell_length_a   5.22682255
_cell_length_b   5.22682105
_cell_length_c   5.22682165
_cell_angle_alpha   66.45982511
_cell_angle_beta   66.45982759
_cell_angle_gamma   66.45981026
_symmetry_Int_Tables_number   1
_chemical_formula_structural   LaYbIr3W
_chemical_formula_sum   'La1 Yb1 Ir3 W1'
_cell_volume   115.02537494
_cell_formula_units_Z   1
loop_
 _symmetry_equiv_pos_site_id
 _symmetry_equiv_pos_as_xyz
  1  'x, y, z'
loop_
 _atom_site_type_symbol
 _atom_site_label
 _atom_site_symmetry_multiplicity
 _atom_site_fract_x
 _atom_site_fract_y
 _atom_site_fract_z
 _atom_site_occupancy
  La  La0  1  0.248210  0.248210  0.248210  1
  Yb  Yb1  1  0.998387  0.998387  0.998387  1
  Ir  Ir2  1  0.627193  0.627193  0.123930  1
  Ir  Ir3  1  0.627193  0.123930  0.627193  1
  Ir  Ir4  1  0.123930  0.627193  0.627193  1
  W  W5  1  0.625088  0.625088  0.625088  1
