# generated using pymatgen
data_LiHo19(Cd3Co)2
_symmetry_space_group_name_H-M   'P 1'
_cell_length_a   9.47458800
_cell_length_b   9.47458759
_cell_length_c   9.60566200
_cell_angle_alpha   90.00000000
_cell_angle_beta   90.00000000
_cell_angle_gamma   119.99999446
_symmetry_Int_Tables_number   1
_chemical_formula_structural   LiHo19(Cd3Co)2
_chemical_formula_sum   'Li1 Ho19 Cd6 Co2'
_cell_volume   746.75580204
_cell_formula_units_Z   1
loop_
 _symmetry_equiv_pos_site_id
 _symmetry_equiv_pos_as_xyz
  1  'x, y, z'
loop_
 _atom_site_type_symbol
 _atom_site_label
 _atom_site_symmetry_multiplicity
 _atom_site_fract_x
 _atom_site_fract_y
 _atom_site_fract_z
 _atom_site_occupancy
  Li  Li0  1  0.000000  0.000000  0.500000  1
  Ho  Ho1  1  0.000000  0.000000  0.000000  1
  Ho  Ho2  1  0.542788  0.457212  0.253689  1
  Ho  Ho3  1  0.542788  0.085576  0.253689  1
  Ho  Ho4  1  0.914424  0.457212  0.253689  1
  Ho  Ho5  1  0.457212  0.542788  0.746311  1
  Ho  Ho6  1  0.457212  0.914424  0.746311  1
  Ho  Ho7  1  0.085576  0.542788  0.746311  1
  Ho  Ho8  1  0.209881  0.790119  0.434634  1
  Ho  Ho9  1  0.209881  0.419764  0.434634  1
  Ho  Ho10  1  0.580236  0.790119  0.434634  1
  Ho  Ho11  1  0.790119  0.209881  0.565366  1
  Ho  Ho12  1  0.790119  0.580236  0.565366  1
  Ho  Ho13  1  0.419764  0.209881  0.565366  1
  Ho  Ho14  1  0.787666  0.212334  0.939938  1
  Ho  Ho15  1  0.787666  0.575331  0.939938  1
  Ho  Ho16  1  0.424669  0.212334  0.939938  1
  Ho  Ho17  1  0.212334  0.787666  0.060062  1
  Ho  Ho18  1  0.212334  0.424669  0.060062  1
  Ho  Ho19  1  0.575331  0.787666  0.060062  1
  Cd  Cd20  1  0.888731  0.111269  0.259864  1
  Cd  Cd21  1  0.888731  0.777462  0.259864  1
  Cd  Cd22  1  0.222538  0.111269  0.259864  1
  Cd  Cd23  1  0.111269  0.888731  0.740136  1
  Cd  Cd24  1  0.111269  0.222538  0.740136  1
  Cd  Cd25  1  0.777462  0.888731  0.740136  1
  Co  Co26  1  0.333333  0.666667  0.248959  1
  Co  Co27  1  0.666667  0.333333  0.751041  1
