# generated using pymatgen
data_Dy18InGaIr12
_symmetry_space_group_name_H-M   'P 1'
_cell_length_a   10.85192100
_cell_length_b   10.85192100
_cell_length_c   6.29321500
_cell_angle_alpha   90.00000000
_cell_angle_beta   90.00000000
_cell_angle_gamma   90.00000000
_symmetry_Int_Tables_number   1
_chemical_formula_structural   Dy18InGaIr12
_chemical_formula_sum   'Dy18 In1 Ga1 Ir12'
_cell_volume   741.11536313
_cell_formula_units_Z   1
loop_
 _symmetry_equiv_pos_site_id
 _symmetry_equiv_pos_as_xyz
  1  'x, y, z'
loop_
 _atom_site_type_symbol
 _atom_site_label
 _atom_site_symmetry_multiplicity
 _atom_site_fract_x
 _atom_site_fract_y
 _atom_site_fract_z
 _atom_site_occupancy
  Dy  Dy0  1  0.281829  0.084630  0.382845  1
  Dy  Dy1  1  0.291582  0.911039  0.881124  1
  Dy  Dy2  1  0.708418  0.088961  0.881124  1
  Dy  Dy3  1  0.718171  0.915370  0.382845  1
  Dy  Dy4  1  0.586859  0.784891  0.881686  1
  Dy  Dy5  1  0.588209  0.208023  0.379848  1
  Dy  Dy6  1  0.411791  0.791977  0.379848  1
  Dy  Dy7  1  0.413141  0.215109  0.881686  1
  Dy  Dy8  1  0.208023  0.411791  0.620152  1
  Dy  Dy9  1  0.215109  0.586859  0.118314  1
  Dy  Dy10  1  0.784891  0.413141  0.118314  1
  Dy  Dy11  1  0.791977  0.588209  0.620152  1
  Dy  Dy12  1  0.911039  0.708418  0.118876  1
  Dy  Dy13  1  0.915370  0.281829  0.617155  1
  Dy  Dy14  1  0.084630  0.718171  0.617155  1
  Dy  Dy15  1  0.088961  0.291582  0.118876  1
  Dy  Dy16  1  0.000000  0.000000  0.000000  1
  Dy  Dy17  1  0.500000  0.500000  0.500000  1
  In  In18  1  0.500000  0.500000  0.000000  1
  Ga  Ga19  1  0.000000  0.000000  0.500000  1
  Ir  Ir20  1  0.849921  0.153714  0.248169  1
  Ir  Ir21  1  0.846286  0.849921  0.751831  1
  Ir  Ir22  1  0.153714  0.150079  0.751831  1
  Ir  Ir23  1  0.150079  0.846286  0.248169  1
  Ir  Ir24  1  0.657783  0.346446  0.742334  1
  Ir  Ir25  1  0.653554  0.657783  0.257666  1
  Ir  Ir26  1  0.346446  0.342217  0.257666  1
  Ir  Ir27  1  0.342217  0.653554  0.742334  1
  Ir  Ir28  1  0.500000  0.000000  0.123336  1
  Ir  Ir29  1  0.500000  0.000000  0.622834  1
  Ir  Ir30  1  0.000000  0.500000  0.876664  1
  Ir  Ir31  1  0.000000  0.500000  0.377166  1
