# generated using pymatgen
data_Y8Hf9Si16Mo3
_symmetry_space_group_name_H-M   'P 1'
_cell_length_a   7.20182238
_cell_length_b   7.20182296
_cell_length_c   13.17363300
_cell_angle_alpha   90.11353459
_cell_angle_beta   90.11353361
_cell_angle_gamma   90.06753023
_symmetry_Int_Tables_number   1
_chemical_formula_structural   Y8Hf9Si16Mo3
_chemical_formula_sum   'Y8 Hf9 Si16 Mo3'
_cell_volume   683.26377916
_cell_formula_units_Z   1
loop_
 _symmetry_equiv_pos_site_id
 _symmetry_equiv_pos_as_xyz
  1  'x, y, z'
loop_
 _atom_site_type_symbol
 _atom_site_label
 _atom_site_symmetry_multiplicity
 _atom_site_fract_x
 _atom_site_fract_y
 _atom_site_fract_z
 _atom_site_occupancy
  Y  Y0  1  0.999878  0.344024  0.215143  1
  Y  Y1  1  0.003154  0.657060  0.714535  1
  Y  Y2  1  0.155299  0.500331  0.464056  1
  Y  Y3  1  0.499669  0.844701  0.035944  1
  Y  Y4  1  0.846024  0.501255  0.967690  1
  Y  Y5  1  0.498745  0.153976  0.532310  1
  Y  Y6  1  0.342940  0.996846  0.785465  1
  Y  Y7  1  0.655976  0.000122  0.284857  1
  Hf  Hf8  1  0.675296  0.324704  0.750000  1
  Hf  Hf9  1  0.146970  0.992732  0.373603  1
  Hf  Hf10  1  0.854662  0.005032  0.876675  1
  Hf  Hf11  1  0.506093  0.649554  0.621613  1
  Hf  Hf12  1  0.350446  0.493907  0.878387  1
  Hf  Hf13  1  0.492400  0.352503  0.125495  1
  Hf  Hf14  1  0.647497  0.507600  0.374505  1
  Hf  Hf15  1  0.994968  0.145338  0.623325  1
  Hf  Hf16  1  0.007268  0.853030  0.126397  1
  Si  Si17  1  0.361597  0.296842  0.316878  1
  Si  Si18  1  0.637314  0.705718  0.817520  1
  Si  Si19  1  0.204439  0.862129  0.566187  1
  Si  Si20  1  0.137871  0.795561  0.933813  1
  Si  Si21  1  0.796170  0.137660  0.067251  1
  Si  Si22  1  0.862340  0.203830  0.432749  1
  Si  Si23  1  0.294282  0.362686  0.682480  1
  Si  Si24  1  0.703158  0.638403  0.183122  1
  Si  Si25  1  0.295582  0.050935  0.184268  1
  Si  Si26  1  0.705020  0.947745  0.682558  1
  Si  Si27  1  0.448622  0.795144  0.432688  1
  Si  Si28  1  0.204856  0.551378  0.067312  1
  Si  Si29  1  0.547694  0.203365  0.936098  1
  Si  Si30  1  0.796635  0.452306  0.563902  1
  Si  Si31  1  0.052255  0.294980  0.817442  1
  Si  Si32  1  0.949065  0.704418  0.315732  1
  Mo  Mo33  1  0.176322  0.175170  0.001264  1
  Mo  Mo34  1  0.824830  0.823678  0.498736  1
  Mo  Mo35  1  0.324665  0.675335  0.250000  1
