# generated using pymatgen
data_Ti10AlGeSb4
_symmetry_space_group_name_H-M   'P 1'
_cell_length_a   7.85264773
_cell_length_b   7.85243959
_cell_length_c   7.85264801
_cell_angle_alpha   96.34673798
_cell_angle_beta   96.34358206
_cell_angle_gamma   141.16801319
_symmetry_Int_Tables_number   1
_chemical_formula_structural   Ti10AlGeSb4
_chemical_formula_sum   'Ti10 Al1 Ge1 Sb4'
_cell_volume   286.34991350
_cell_formula_units_Z   1
loop_
 _symmetry_equiv_pos_site_id
 _symmetry_equiv_pos_as_xyz
  1  'x, y, z'
loop_
 _atom_site_type_symbol
 _atom_site_label
 _atom_site_symmetry_multiplicity
 _atom_site_fract_x
 _atom_site_fract_y
 _atom_site_fract_z
 _atom_site_occupancy
  Ti  Ti0  1  0.573409  0.715204  0.289161  1
  Ti  Ti1  1  0.426084  0.284206  0.710816  1
  Ti  Ti2  1  0.749959  0.250000  0.499959  1
  Ti  Ti3  1  0.249951  0.750000  0.499951  1
  Ti  Ti4  1  0.715228  0.426108  0.141830  1
  Ti  Ti5  1  0.284227  0.573422  0.858174  1
  Ti  Ti6  1  0.926610  0.215794  0.141878  1
  Ti  Ti7  1  0.215722  0.073892  0.289119  1
  Ti  Ti8  1  0.073957  0.784796  0.858206  1
  Ti  Ti9  1  0.784753  0.926578  0.710806  1
  Al  Al10  1  0.250109  0.250000  0.000109  1
  Ge  Ge11  1  0.750091  0.750000  0.000091  1
  Sb  Sb12  1  0.335749  0.835804  0.171589  1
  Sb  Sb13  1  0.164200  0.335741  0.499908  1
  Sb  Sb14  1  0.664167  0.164259  0.828460  1
  Sb  Sb15  1  0.835785  0.664196  0.499945  1
