# generated using pymatgen
data_La2Sb4PtRh3
_symmetry_space_group_name_H-M   'P 1'
_cell_length_a   4.60771600
_cell_length_b   4.60771600
_cell_length_c   10.55302500
_cell_angle_alpha   90.00000000
_cell_angle_beta   90.00000000
_cell_angle_gamma   90.00000000
_symmetry_Int_Tables_number   1
_chemical_formula_structural   La2Sb4PtRh3
_chemical_formula_sum   'La2 Sb4 Pt1 Rh3'
_cell_volume   224.05176699
_cell_formula_units_Z   1
loop_
 _symmetry_equiv_pos_site_id
 _symmetry_equiv_pos_as_xyz
  1  'x, y, z'
loop_
 _atom_site_type_symbol
 _atom_site_label
 _atom_site_symmetry_multiplicity
 _atom_site_fract_x
 _atom_site_fract_y
 _atom_site_fract_z
 _atom_site_occupancy
  La  La0  1  0.000000  0.500001  0.244987  1
  La  La1  1  0.500001  0.000000  0.755013  1
  Sb  Sb2  1  0.500001  0.000000  0.133690  1
  Sb  Sb3  1  0.000000  0.000000  0.500000  1
  Sb  Sb4  1  0.500001  0.500001  0.500000  1
  Sb  Sb5  1  0.000000  0.500001  0.866310  1
  Pt  Pt6  1  0.000000  0.000000  0.000000  1
  Rh  Rh7  1  0.500001  0.500001  0.000000  1
  Rh  Rh8  1  0.500001  0.000000  0.379635  1
  Rh  Rh9  1  0.000000  0.500001  0.620365  1
