# generated using pymatgen
data_Pr3GdY4(SiO5)4
_symmetry_space_group_name_H-M   'P 1'
_cell_length_a   8.15661852
_cell_length_b   8.12063878
_cell_length_c   10.79178747
_cell_angle_alpha   61.16915758
_cell_angle_beta   61.10944761
_cell_angle_gamma   50.27610256
_symmetry_Int_Tables_number   1
_chemical_formula_structural   Pr3GdY4(SiO5)4
_chemical_formula_sum   'Pr3 Gd1 Y4 Si4 O20'
_cell_volume   465.12091584
_cell_formula_units_Z   1
loop_
 _symmetry_equiv_pos_site_id
 _symmetry_equiv_pos_as_xyz
  1  'x, y, z'
loop_
 _atom_site_type_symbol
 _atom_site_label
 _atom_site_symmetry_multiplicity
 _atom_site_fract_x
 _atom_site_fract_y
 _atom_site_fract_z
 _atom_site_occupancy
  Pr  Pr0  1  0.709217  0.215041  0.463740  1
  Pr  Pr1  1  0.215534  0.711242  0.964781  1
  Pr  Pr2  1  0.291198  0.784349  0.535628  1
  Gd  Gd3  1  0.777580  0.296995  0.031129  1
  Y  Y4  1  0.237392  0.476557  0.336419  1
  Y  Y5  1  0.524721  0.760783  0.162547  1
  Y  Y6  1  0.764092  0.521853  0.663819  1
  Y  Y7  1  0.480477  0.234668  0.837330  1
  Si  Si8  1  0.728674  0.906383  0.304986  1
  Si  Si9  1  0.095915  0.270941  0.191279  1
  Si  Si10  1  0.268906  0.098767  0.695029  1
  Si  Si11  1  0.904878  0.725182  0.808793  1
  O  O12  1  0.427603  0.605358  0.107413  1
  O  O13  1  0.388012  0.578534  0.390952  1
  O  O14  1  0.582955  0.384001  0.893191  1
  O  O15  1  0.613164  0.421753  0.609056  1
  O  O16  1  0.867319  0.726792  0.431639  1
  O  O17  1  0.280257  0.130013  0.066412  1
  O  O18  1  0.132832  0.274763  0.567187  1
  O  O19  1  0.727504  0.866002  0.934198  1
  O  O20  1  0.569054  0.841414  0.315506  1
  O  O21  1  0.149927  0.439287  0.182216  1
  O  O22  1  0.432932  0.158586  0.683488  1
  O  O23  1  0.841523  0.561577  0.822705  1
  O  O24  1  0.160497  0.586897  0.823087  1
  O  O25  1  0.409870  0.840686  0.681206  1
  O  O26  1  0.843129  0.405648  0.172970  1
  O  O27  1  0.583747  0.160874  0.324452  1
  O  O28  1  0.908110  0.902578  0.646605  1
  O  O29  1  0.087951  0.097931  0.855715  1
  O  O30  1  0.091451  0.094150  0.353721  1
  O  O31  1  0.903581  0.920393  0.142798  1
