# generated using pymatgen
data_Sr10TiV4O20
_symmetry_space_group_name_H-M   'P 1'
_cell_length_a   3.96278263
_cell_length_b   3.96278328
_cell_length_c   31.25248233
_cell_angle_alpha   86.36504591
_cell_angle_beta   86.36504470
_cell_angle_gamma   89.99999190
_symmetry_Int_Tables_number   1
_chemical_formula_structural   Sr10TiV4O20
_chemical_formula_sum   'Sr10 Ti1 V4 O20'
_cell_volume   488.80135199
_cell_formula_units_Z   1
loop_
 _symmetry_equiv_pos_site_id
 _symmetry_equiv_pos_as_xyz
  1  'x, y, z'
loop_
 _atom_site_type_symbol
 _atom_site_label
 _atom_site_symmetry_multiplicity
 _atom_site_fract_x
 _atom_site_fract_y
 _atom_site_fract_z
 _atom_site_occupancy
  Sr  Sr0  1  0.470724  0.470724  0.058551  1
  Sr  Sr1  1  0.871528  0.871528  0.256944  1
  Sr  Sr2  1  0.271739  0.271739  0.456523  1
  Sr  Sr3  1  0.671985  0.671985  0.656031  1
  Sr  Sr4  1  0.072255  0.072255  0.855490  1
  Sr  Sr5  1  0.927745  0.927745  0.144510  1
  Sr  Sr6  1  0.328015  0.328015  0.343969  1
  Sr  Sr7  1  0.728261  0.728261  0.543477  1
  Sr  Sr8  1  0.128472  0.128472  0.743056  1
  Sr  Sr9  1  0.529276  0.529276  0.941449  1
  Ti  Ti10  1  0.000000  0.000000  0.000000  1
  V  V11  1  0.399602  0.399602  0.200795  1
  V  V12  1  0.799891  0.799891  0.400218  1
  V  V13  1  0.200109  0.200109  0.599782  1
  V  V14  1  0.600398  0.600398  0.799205  1
  O  O15  1  0.430760  0.430760  0.138481  1
  O  O16  1  0.831029  0.831029  0.337941  1
  O  O17  1  0.231277  0.231277  0.537446  1
  O  O18  1  0.631514  0.631514  0.736973  1
  O  O19  1  0.032036  0.032036  0.935928  1
  O  O20  1  0.967964  0.967964  0.064072  1
  O  O21  1  0.368486  0.368486  0.263027  1
  O  O22  1  0.768723  0.768723  0.462554  1
  O  O23  1  0.168971  0.168971  0.662059  1
  O  O24  1  0.569240  0.569240  0.861519  1
  O  O25  1  0.000000  0.500000  0.000000  1
  O  O26  1  0.399615  0.899615  0.200771  1
  O  O27  1  0.799867  0.299867  0.400268  1
  O  O28  1  0.200133  0.700133  0.599732  1
  O  O29  1  0.600385  0.100385  0.799229  1
  O  O30  1  0.500000  0.000000  0.000000  1
  O  O31  1  0.899615  0.399615  0.200771  1
  O  O32  1  0.299867  0.799867  0.400268  1
  O  O33  1  0.700133  0.200133  0.599732  1
  O  O34  1  0.100385  0.600385  0.799229  1
