# generated using pymatgen
data_Eu3Sn3PbWO14
_symmetry_space_group_name_H-M   'P 1'
_cell_length_a   7.63960853
_cell_length_b   7.63960759
_cell_length_c   7.62460892
_cell_angle_alpha   59.06224301
_cell_angle_beta   59.06225270
_cell_angle_gamma   59.51597636
_symmetry_Int_Tables_number   1
_chemical_formula_structural   Eu3Sn3PbWO14
_chemical_formula_sum   'Eu3 Sn3 Pb1 W1 O14'
_cell_volume   309.01088448
_cell_formula_units_Z   1
loop_
 _symmetry_equiv_pos_site_id
 _symmetry_equiv_pos_as_xyz
  1  'x, y, z'
loop_
 _atom_site_type_symbol
 _atom_site_label
 _atom_site_symmetry_multiplicity
 _atom_site_fract_x
 _atom_site_fract_y
 _atom_site_fract_z
 _atom_site_occupancy
  Eu  Eu0  1  0.125000  0.125000  0.125000  1
  Eu  Eu1  1  0.625000  0.125000  0.125000  1
  Eu  Eu2  1  0.125000  0.625000  0.125000  1
  Sn  Sn3  1  0.125000  0.625000  0.625000  1
  Sn  Sn4  1  0.625000  0.125000  0.625000  1
  Sn  Sn5  1  0.625000  0.625000  0.125000  1
  Pb  Pb6  1  0.125000  0.125000  0.625000  1
  W  W7  1  0.625000  0.625000  0.625000  1
  O  O8  1  0.956471  0.549809  0.958659  1
  O  O9  1  0.700191  0.293529  0.291341  1
  O  O10  1  0.318765  0.689061  0.696105  1
  O  O11  1  0.689061  0.318765  0.696105  1
  O  O12  1  0.294274  0.294274  0.709804  1
  O  O13  1  0.693768  0.693768  0.316435  1
  O  O14  1  0.955726  0.955726  0.540196  1
  O  O15  1  0.549809  0.956471  0.958659  1
  O  O16  1  0.931235  0.560939  0.553895  1
  O  O17  1  0.556232  0.556232  0.933565  1
  O  O18  1  0.293529  0.700191  0.291341  1
  O  O19  1  0.560939  0.931235  0.553895  1
  O  O20  1  0.990799  0.990799  0.023870  1
  O  O21  1  0.259201  0.259201  0.226130  1
