# generated using pymatgen
data_Er2Tm3Mn3(P3Ir4)4
_symmetry_space_group_name_H-M   'P 1'
_cell_length_a   12.54280900
_cell_length_b   12.54280905
_cell_length_c   3.93980100
_cell_angle_alpha   90.00000000
_cell_angle_beta   90.00000000
_cell_angle_gamma   120.00000250
_symmetry_Int_Tables_number   1
_chemical_formula_structural   Er2Tm3Mn3(P3Ir4)4
_chemical_formula_sum   'Er2 Tm3 Mn3 P12 Ir16'
_cell_volume   536.77777592
_cell_formula_units_Z   1
loop_
 _symmetry_equiv_pos_site_id
 _symmetry_equiv_pos_as_xyz
  1  'x, y, z'
loop_
 _atom_site_type_symbol
 _atom_site_label
 _atom_site_symmetry_multiplicity
 _atom_site_fract_x
 _atom_site_fract_y
 _atom_site_fract_z
 _atom_site_occupancy
  Er  Er0  1  0.666667  0.333333  0.000000  1
  Er  Er1  1  0.333333  0.666667  0.000000  1
  Tm  Tm2  1  0.819787  0.819787  0.500000  1
  Tm  Tm3  1  0.180213  0.000000  0.500000  1
  Tm  Tm4  1  0.000000  0.180213  0.500000  1
  Mn  Mn5  1  0.289680  0.289680  0.500000  1
  Mn  Mn6  1  0.710320  0.000000  0.500000  1
  Mn  Mn7  1  0.000000  0.710320  0.500000  1
  P  P8  1  0.688500  0.164693  0.500000  1
  P  P9  1  0.835307  0.523807  0.500000  1
  P  P10  1  0.476193  0.311500  0.500000  1
  P  P11  1  0.164693  0.688500  0.500000  1
  P  P12  1  0.523807  0.835307  0.500000  1
  P  P13  1  0.311500  0.476193  0.500000  1
  P  P14  1  0.641169  0.641169  0.000000  1
  P  P15  1  0.358831  0.000000  0.000000  1
  P  P16  1  0.000000  0.358831  0.000000  1
  P  P17  1  0.182273  0.182273  0.000000  1
  P  P18  1  0.817727  0.000000  0.000000  1
  P  P19  1  0.000000  0.817727  0.000000  1
  Ir  Ir20  1  0.805313  0.179504  0.000000  1
  Ir  Ir21  1  0.820496  0.625809  0.000000  1
  Ir  Ir22  1  0.374191  0.194687  0.000000  1
  Ir  Ir23  1  0.179504  0.805313  0.000000  1
  Ir  Ir24  1  0.625809  0.820496  0.000000  1
  Ir  Ir25  1  0.194687  0.374191  0.000000  1
  Ir  Ir26  1  0.455030  0.455030  0.000000  1
  Ir  Ir27  1  0.544970  0.000000  0.000000  1
  Ir  Ir28  1  0.000000  0.544970  0.000000  1
  Ir  Ir29  1  0.868247  0.361081  0.500000  1
  Ir  Ir30  1  0.638919  0.507167  0.500000  1
  Ir  Ir31  1  0.492833  0.131753  0.500000  1
  Ir  Ir32  1  0.361081  0.868247  0.500000  1
  Ir  Ir33  1  0.507167  0.638919  0.500000  1
  Ir  Ir34  1  0.131753  0.492833  0.500000  1
  Ir  Ir35  1  0.000000  0.000000  0.000000  1
