# generated using pymatgen
data_Y2TmTa3(B2Ru5)2
_symmetry_space_group_name_H-M   'P 1'
_cell_length_a   9.58988112
_cell_length_b   9.58988145
_cell_length_c   3.11397900
_cell_angle_alpha   90.00000000
_cell_angle_beta   90.00000000
_cell_angle_gamma   90.52746045
_symmetry_Int_Tables_number   1
_chemical_formula_structural   Y2TmTa3(B2Ru5)2
_chemical_formula_sum   'Y2 Tm1 Ta3 B4 Ru10'
_cell_volume   286.36750665
_cell_formula_units_Z   1
loop_
 _symmetry_equiv_pos_site_id
 _symmetry_equiv_pos_as_xyz
  1  'x, y, z'
loop_
 _atom_site_type_symbol
 _atom_site_label
 _atom_site_symmetry_multiplicity
 _atom_site_fract_x
 _atom_site_fract_y
 _atom_site_fract_z
 _atom_site_occupancy
  Y  Y0  1  0.823893  0.675537  0.000000  1
  Y  Y1  1  0.175537  0.323893  0.000000  1
  Tm  Tm2  1  0.325888  0.825888  0.000000  1
  Ta  Ta3  1  0.675490  0.175490  0.000000  1
  Ta  Ta4  1  0.498214  0.502630  0.000000  1
  Ta  Ta5  1  0.002630  0.998214  0.000000  1
  B  B6  1  0.622145  0.880964  0.000000  1
  B  B7  1  0.380964  0.122145  0.000000  1
  B  B8  1  0.120005  0.620005  0.000000  1
  B  B9  1  0.876411  0.376411  0.000000  1
  Ru  Ru10  1  0.569332  0.722191  0.500000  1
  Ru  Ru11  1  0.441523  0.279689  0.500000  1
  Ru  Ru12  1  0.071242  0.781341  0.500000  1
  Ru  Ru13  1  0.915265  0.213165  0.500000  1
  Ru  Ru14  1  0.281341  0.571242  0.500000  1
  Ru  Ru15  1  0.713165  0.415265  0.500000  1
  Ru  Ru16  1  0.222191  0.069332  0.500000  1
  Ru  Ru17  1  0.779689  0.941523  0.500000  1
  Ru  Ru18  1  0.508746  0.008746  0.500000  1
  Ru  Ru19  1  0.996331  0.496331  0.500000  1
