# generated using pymatgen
data_Gd4Al17GaIr6
_symmetry_space_group_name_H-M   'P 1'
_cell_length_a   7.55123600
_cell_length_b   7.55123567
_cell_length_c   9.50781300
_cell_angle_alpha   90.00000000
_cell_angle_beta   90.00000000
_cell_angle_gamma   119.37841267
_symmetry_Int_Tables_number   1
_chemical_formula_structural   Gd4Al17GaIr6
_chemical_formula_sum   'Gd4 Al17 Ga1 Ir6'
_cell_volume   472.42580395
_cell_formula_units_Z   1
loop_
 _symmetry_equiv_pos_site_id
 _symmetry_equiv_pos_as_xyz
  1  'x, y, z'
loop_
 _atom_site_type_symbol
 _atom_site_label
 _atom_site_symmetry_multiplicity
 _atom_site_fract_x
 _atom_site_fract_y
 _atom_site_fract_z
 _atom_site_occupancy
  Gd  Gd0  1  0.994211  0.673785  0.250000  1
  Gd  Gd1  1  0.004315  0.328026  0.750000  1
  Gd  Gd2  1  0.673785  0.994211  0.250000  1
  Gd  Gd3  1  0.328026  0.004315  0.750000  1
  Al  Al4  1  0.869578  0.869578  0.750000  1
  Al  Al5  1  0.001982  0.336217  0.073385  1
  Al  Al6  1  0.998045  0.664014  0.925924  1
  Al  Al7  1  0.998045  0.664014  0.574076  1
  Al  Al8  1  0.336217  0.001982  0.426615  1
  Al  Al9  1  0.001982  0.336217  0.426615  1
  Al  Al10  1  0.664014  0.998045  0.574076  1
  Al  Al11  1  0.664014  0.998045  0.925924  1
  Al  Al12  1  0.336217  0.001982  0.073385  1
  Al  Al13  1  0.333516  0.333516  0.552867  1
  Al  Al14  1  0.665550  0.665550  0.450195  1
  Al  Al15  1  0.665550  0.665550  0.049805  1
  Al  Al16  1  0.333516  0.333516  0.947133  1
  Al  Al17  1  0.337974  0.548833  0.250000  1
  Al  Al18  1  0.661364  0.452053  0.750000  1
  Al  Al19  1  0.548833  0.337974  0.250000  1
  Al  Al20  1  0.452053  0.661364  0.750000  1
  Ga  Ga21  1  0.134501  0.134501  0.250000  1
  Ir  Ir22  1  0.670832  0.328334  0.000272  1
  Ir  Ir23  1  0.328334  0.670832  0.000272  1
  Ir  Ir24  1  0.328334  0.670832  0.499728  1
  Ir  Ir25  1  0.670832  0.328334  0.499728  1
  Ir  Ir26  1  0.999190  0.999190  0.997858  1
  Ir  Ir27  1  0.999190  0.999190  0.502142  1
