# generated using pymatgen
data_Pr3EuSi10(OsPt)3
_symmetry_space_group_name_H-M   'P 1'
_cell_length_a   8.26656428
_cell_length_b   8.28449168
_cell_length_c   8.28449094
_cell_angle_alpha   137.55216645
_cell_angle_beta   105.56759948
_cell_angle_gamma   89.67347627
_symmetry_Int_Tables_number   1
_chemical_formula_structural   Pr3EuSi10(OsPt)3
_chemical_formula_sum   'Pr3 Eu1 Si10 Os3 Pt3'
_cell_volume   352.36259324
_cell_formula_units_Z   1
loop_
 _symmetry_equiv_pos_site_id
 _symmetry_equiv_pos_as_xyz
  1  'x, y, z'
loop_
 _atom_site_type_symbol
 _atom_site_label
 _atom_site_symmetry_multiplicity
 _atom_site_fract_x
 _atom_site_fract_y
 _atom_site_fract_z
 _atom_site_occupancy
  Pr  Pr0  1  0.138447  0.370882  0.767565  1
  Pr  Pr1  1  0.396913  0.131449  0.265464  1
  Pr  Pr2  1  0.604125  0.870611  0.733514  1
  Eu  Eu3  1  0.862710  0.628250  0.234460  1
  Si  Si4  1  0.494217  0.754037  0.254694  1
  Si  Si5  1  0.494217  0.239523  0.740180  1
  Si  Si6  1  0.221078  0.971456  0.742323  1
  Si  Si7  1  0.776963  0.524117  0.747230  1
  Si  Si8  1  0.776963  0.029733  0.252846  1
  Si  Si9  1  0.221078  0.478755  0.249622  1
  Si  Si10  1  0.051555  0.897184  0.154371  1
  Si  Si11  1  0.958400  0.104866  0.853533  1
  Si  Si12  1  0.749077  0.396169  0.352908  1
  Si  Si13  1  0.251672  0.603798  0.647874  1
  Os  Os14  1  0.000295  0.750986  0.752963  1
  Os  Os15  1  0.000295  0.247333  0.249309  1
  Os  Os16  1  0.246851  0.860221  0.386631  1
  Pt  Pt17  1  0.749773  0.138407  0.611365  1
  Pt  Pt18  1  0.474337  0.362114  0.112223  1
  Pt  Pt19  1  0.531033  0.640107  0.890927  1
