# generated using pymatgen
data_U4TcB12W
_symmetry_space_group_name_H-M   'P 1'
_cell_length_a   3.66502000
_cell_length_b   9.28203243
_cell_length_c   11.37180377
_cell_angle_alpha   90.06257224
_cell_angle_beta   90.00000000
_cell_angle_gamma   90.00000000
_symmetry_Int_Tables_number   1
_chemical_formula_structural   U4TcB12W
_chemical_formula_sum   'U8 Tc2 B24 W2'
_cell_volume   386.85527975
_cell_formula_units_Z   2
loop_
 _symmetry_equiv_pos_site_id
 _symmetry_equiv_pos_as_xyz
  1  'x, y, z'
loop_
 _atom_site_type_symbol
 _atom_site_label
 _atom_site_symmetry_multiplicity
 _atom_site_fract_x
 _atom_site_fract_y
 _atom_site_fract_z
 _atom_site_occupancy
  U  U0  1  0.000000  0.335848  0.407311  1
  U  U1  1  0.000000  0.664152  0.592689  1
  U  U2  1  0.000000  0.835960  0.092119  1
  U  U3  1  0.000000  0.164040  0.907881  1
  U  U4  1  0.000000  0.956641  0.395215  1
  U  U5  1  0.000000  0.043359  0.604785  1
  U  U6  1  0.000000  0.456055  0.104700  1
  U  U7  1  0.000000  0.543945  0.895300  1
  Tc  Tc8  1  0.000000  0.644188  0.320248  1
  Tc  Tc9  1  0.000000  0.355812  0.679752  1
  B  B10  1  0.500000  0.549893  0.432911  1
  B  B11  1  0.500000  0.450107  0.567089  1
  B  B12  1  0.500000  0.049738  0.066719  1
  B  B13  1  0.500000  0.950262  0.933281  1
  B  B14  1  0.500000  0.742570  0.423282  1
  B  B15  1  0.500000  0.257430  0.576718  1
  B  B16  1  0.500000  0.243598  0.075318  1
  B  B17  1  0.500000  0.756402  0.924682  1
  B  B18  1  0.500000  0.803072  0.273147  1
  B  B19  1  0.500000  0.196928  0.726853  1
  B  B20  1  0.500000  0.304780  0.227325  1
  B  B21  1  0.500000  0.695220  0.772675  1
  B  B22  1  0.500000  0.644270  0.188651  1
  B  B23  1  0.500000  0.355730  0.811349  1
  B  B24  1  0.500000  0.145337  0.313159  1
  B  B25  1  0.500000  0.854663  0.686841  1
  B  B26  1  0.500000  0.984738  0.219083  1
  B  B27  1  0.500000  0.015262  0.780917  1
  B  B28  1  0.500000  0.486289  0.281572  1
  B  B29  1  0.500000  0.513711  0.718428  1
  B  B30  1  0.500000  0.642438  0.040328  1
  B  B31  1  0.500000  0.357562  0.959672  1
  B  B32  1  0.500000  0.143334  0.461291  1
  B  B33  1  0.500000  0.856666  0.538709  1
  W  W34  1  0.000000  0.145080  0.180200  1
  W  W35  1  0.000000  0.854920  0.819800  1
