# generated using pymatgen
data_PrTh2In3CuPd2
_symmetry_space_group_name_H-M   'P 1'
_cell_length_a   7.68471106
_cell_length_b   7.62529895
_cell_length_c   4.14843000
_cell_angle_alpha   90.00000000
_cell_angle_beta   90.00000000
_cell_angle_gamma   119.74458393
_symmetry_Int_Tables_number   1
_chemical_formula_structural   PrTh2In3CuPd2
_chemical_formula_sum   'Pr1 Th2 In3 Cu1 Pd2'
_cell_volume   211.06238145
_cell_formula_units_Z   1
loop_
 _symmetry_equiv_pos_site_id
 _symmetry_equiv_pos_as_xyz
  1  'x, y, z'
loop_
 _atom_site_type_symbol
 _atom_site_label
 _atom_site_symmetry_multiplicity
 _atom_site_fract_x
 _atom_site_fract_y
 _atom_site_fract_z
 _atom_site_occupancy
  Pr  Pr0  1  0.000000  0.586870  0.500000  1
  Th  Th1  1  0.416326  0.415398  0.500000  1
  Th  Th2  1  0.583674  0.999073  0.500000  1
  In  In3  1  0.761073  0.756713  0.000000  1
  In  In4  1  0.238927  0.995641  0.000000  1
  In  In5  1  0.000000  0.247504  0.000000  1
  Cu  Cu6  1  0.000000  0.008194  0.500000  1
  Pd  Pd7  1  0.653039  0.321822  0.000000  1
  Pd  Pd8  1  0.346961  0.668784  0.000000  1
