# generated using pymatgen
data_CsK(Ga2Au3)2
_symmetry_space_group_name_H-M   'P 1'
_cell_length_a   5.74890500
_cell_length_b   7.18581700
_cell_length_c   13.59382700
_cell_angle_alpha   90.00000000
_cell_angle_beta   90.00000000
_cell_angle_gamma   90.00000000
_symmetry_Int_Tables_number   1
_chemical_formula_structural   CsK(Ga2Au3)2
_chemical_formula_sum   'Cs2 K2 Ga8 Au12'
_cell_volume   561.56886801
_cell_formula_units_Z   2
loop_
 _symmetry_equiv_pos_site_id
 _symmetry_equiv_pos_as_xyz
  1  'x, y, z'
loop_
 _atom_site_type_symbol
 _atom_site_label
 _atom_site_symmetry_multiplicity
 _atom_site_fract_x
 _atom_site_fract_y
 _atom_site_fract_z
 _atom_site_occupancy
  Cs  Cs0  1  0.750000  0.906481  0.932790  1
  Cs  Cs1  1  0.750000  0.593519  0.432790  1
  K  K2  1  0.250000  0.105250  0.079085  1
  K  K3  1  0.250000  0.394750  0.579085  1
  Ga  Ga4  1  0.999375  0.907259  0.655904  1
  Ga  Ga5  1  0.500625  0.592741  0.155904  1
  Ga  Ga6  1  0.496449  0.095767  0.342803  1
  Ga  Ga7  1  0.003551  0.404233  0.842803  1
  Ga  Ga8  1  0.003551  0.095767  0.342803  1
  Ga  Ga9  1  0.496449  0.404233  0.842803  1
  Ga  Ga10  1  0.500625  0.907259  0.655904  1
  Ga  Ga11  1  0.999375  0.592741  0.155904  1
  Au  Au12  1  0.250000  0.119145  0.784120  1
  Au  Au13  1  0.250000  0.380855  0.284120  1
  Au  Au14  1  0.750000  0.878146  0.212528  1
  Au  Au15  1  0.750000  0.621854  0.712528  1
  Au  Au16  1  0.250000  0.707152  0.790649  1
  Au  Au17  1  0.250000  0.792848  0.290649  1
  Au  Au18  1  0.750000  0.282392  0.203857  1
  Au  Au19  1  0.750000  0.217608  0.703857  1
  Au  Au20  1  0.250000  0.576177  0.994885  1
  Au  Au21  1  0.250000  0.923823  0.494885  1
  Au  Au22  1  0.750000  0.405611  0.004671  1
  Au  Au23  1  0.750000  0.094389  0.504671  1
