# generated using pymatgen
data_LiTb8Sc10Si16Ru
_symmetry_space_group_name_H-M   'P 1'
_cell_length_a   6.97953267
_cell_length_b   7.36951011
_cell_length_c   13.95310800
_cell_angle_alpha   90.00000000
_cell_angle_beta   90.00000000
_cell_angle_gamma   89.97046704
_symmetry_Int_Tables_number   1
_chemical_formula_structural   LiTb8Sc10Si16Ru
_chemical_formula_sum   'Li1 Tb8 Sc10 Si16 Ru1'
_cell_volume   717.68829230
_cell_formula_units_Z   1
loop_
 _symmetry_equiv_pos_site_id
 _symmetry_equiv_pos_as_xyz
  1  'x, y, z'
loop_
 _atom_site_type_symbol
 _atom_site_label
 _atom_site_symmetry_multiplicity
 _atom_site_fract_x
 _atom_site_fract_y
 _atom_site_fract_z
 _atom_site_occupancy
  Li  Li0  1  0.842579  0.495502  0.250000  1
  Tb  Tb1  1  0.010678  0.183990  0.095869  1
  Tb  Tb2  1  0.992603  0.818962  0.900741  1
  Tb  Tb3  1  0.488310  0.672685  0.902094  1
  Tb  Tb4  1  0.992603  0.818962  0.599259  1
  Tb  Tb5  1  0.516264  0.325992  0.096608  1
  Tb  Tb6  1  0.010678  0.183990  0.404131  1
  Tb  Tb7  1  0.516264  0.325992  0.403392  1
  Tb  Tb8  1  0.488310  0.672685  0.597906  1
  Sc  Sc9  1  0.343560  0.001711  0.250000  1
  Sc  Sc10  1  0.658130  0.997951  0.750000  1
  Sc  Sc11  1  0.325867  0.177919  0.626828  1
  Sc  Sc12  1  0.675227  0.819483  0.374268  1
  Sc  Sc13  1  0.168212  0.670682  0.375559  1
  Sc  Sc14  1  0.675227  0.819483  0.125732  1
  Sc  Sc15  1  0.824805  0.330446  0.627980  1
  Sc  Sc16  1  0.325867  0.177919  0.873172  1
  Sc  Sc17  1  0.824805  0.330446  0.872020  1
  Sc  Sc18  1  0.168212  0.670682  0.124441  1
  Si  Si19  1  0.029506  0.120523  0.750000  1
  Si  Si20  1  0.972710  0.893241  0.250000  1
  Si  Si21  1  0.466495  0.614801  0.250000  1
  Si  Si22  1  0.515934  0.393087  0.750000  1
  Si  Si23  1  0.286119  0.869116  0.750000  1
  Si  Si24  1  0.715514  0.117843  0.250000  1
  Si  Si25  1  0.220351  0.374943  0.250000  1
  Si  Si26  1  0.794456  0.627100  0.750000  1
  Si  Si27  1  0.154445  0.464114  0.546345  1
  Si  Si28  1  0.843592  0.538811  0.467223  1
  Si  Si29  1  0.344786  0.965138  0.462602  1
  Si  Si30  1  0.843592  0.538811  0.032777  1
  Si  Si31  1  0.657316  0.033819  0.539271  1
  Si  Si32  1  0.154445  0.464114  0.953655  1
  Si  Si33  1  0.657316  0.033819  0.960729  1
  Si  Si34  1  0.344786  0.965138  0.037398  1
  Ru  Ru35  1  0.150436  0.490102  0.750000  1
