# generated using pymatgen
data_Ac4Al13Au9
_symmetry_space_group_name_H-M   'P 1'
_cell_length_a   11.93696400
_cell_length_b   11.93696258
_cell_length_c   4.38162400
_cell_angle_alpha   90.00000000
_cell_angle_beta   90.00000000
_cell_angle_gamma   119.99999841
_symmetry_Int_Tables_number   1
_chemical_formula_structural   Ac4Al13Au9
_chemical_formula_sum   'Ac4 Al13 Au9'
_cell_volume   540.69637978
_cell_formula_units_Z   1
loop_
 _symmetry_equiv_pos_site_id
 _symmetry_equiv_pos_as_xyz
  1  'x, y, z'
loop_
 _atom_site_type_symbol
 _atom_site_label
 _atom_site_symmetry_multiplicity
 _atom_site_fract_x
 _atom_site_fract_y
 _atom_site_fract_z
 _atom_site_occupancy
  Ac  Ac0  1  0.204680  0.795320  0.500000  1
  Ac  Ac1  1  0.590639  0.795320  0.500000  1
  Ac  Ac2  1  0.204680  0.409361  0.500000  1
  Ac  Ac3  1  0.666667  0.333333  0.000000  1
  Al  Al4  1  0.945989  0.289757  0.000000  1
  Al  Al5  1  0.710243  0.656232  0.000000  1
  Al  Al6  1  0.945989  0.656232  0.000000  1
  Al  Al7  1  0.343768  0.054011  0.000000  1
  Al  Al8  1  0.163069  0.081535  0.500000  1
  Al  Al9  1  0.918465  0.836931  0.500000  1
  Al  Al10  1  0.710243  0.054011  0.000000  1
  Al  Al11  1  0.532570  0.065140  0.500000  1
  Al  Al12  1  0.918465  0.081535  0.500000  1
  Al  Al13  1  0.343768  0.289757  0.000000  1
  Al  Al14  1  0.532570  0.467430  0.500000  1
  Al  Al15  1  0.934860  0.467430  0.500000  1
  Al  Al16  1  0.333333  0.666667  0.000000  1
  Au  Au17  1  0.459389  0.540611  0.000000  1
  Au  Au18  1  0.830159  0.915079  0.000000  1
  Au  Au19  1  0.459389  0.918777  0.000000  1
  Au  Au20  1  0.084921  0.169841  0.000000  1
  Au  Au21  1  0.084921  0.915079  0.000000  1
  Au  Au22  1  0.792378  0.584755  0.500000  1
  Au  Au23  1  0.081223  0.540611  0.000000  1
  Au  Au24  1  0.792378  0.207622  0.500000  1
  Au  Au25  1  0.415245  0.207622  0.500000  1
