# generated using pymatgen
data_Cs4Na2SmTlAs4
_symmetry_space_group_name_H-M   'P 1'
_cell_length_a   9.96177738
_cell_length_b   9.96177667
_cell_length_c   9.96177628
_cell_angle_alpha   137.43504801
_cell_angle_beta   60.81372949
_cell_angle_gamma   138.68917357
_symmetry_Int_Tables_number   1
_chemical_formula_structural   Cs4Na2SmTlAs4
_chemical_formula_sum   'Cs4 Na2 Sm1 Tl1 As4'
_cell_volume   436.65172420
_cell_formula_units_Z   1
loop_
 _symmetry_equiv_pos_site_id
 _symmetry_equiv_pos_as_xyz
  1  'x, y, z'
loop_
 _atom_site_type_symbol
 _atom_site_label
 _atom_site_symmetry_multiplicity
 _atom_site_fract_x
 _atom_site_fract_y
 _atom_site_fract_z
 _atom_site_occupancy
  Cs  Cs0  1  0.831911  0.239789  0.055468  1
  Cs  Cs1  1  0.668089  0.723557  0.407879  1
  Cs  Cs2  1  0.315679  0.260211  0.592121  1
  Cs  Cs3  1  0.184321  0.776443  0.944532  1
  Na  Na4  1  0.249999  0.249999  0.000000  1
  Na  Na5  1  0.749999  0.749999  0.000000  1
  Sm  Sm6  1  0.749999  0.249999  0.500000  1
  Tl  Tl7  1  0.249999  0.749999  0.500000  1
  As  As8  1  0.404549  0.772695  0.181580  1
  As  As9  1  0.095451  0.277031  0.368147  1
  As  As10  1  0.908884  0.727305  0.631853  1
  As  As11  1  0.591116  0.222969  0.818421  1
