# generated using pymatgen
data_Li2Co9Tc3As7
_symmetry_space_group_name_H-M   'P 1'
_cell_length_a   3.76008200
_cell_length_b   9.28630745
_cell_length_c   9.28630900
_cell_angle_alpha   120.00000196
_cell_angle_beta   90.00000000
_cell_angle_gamma   90.00000000
_symmetry_Int_Tables_number   1
_chemical_formula_structural   Li2Co9Tc3As7
_chemical_formula_sum   'Li2 Co9 Tc3 As7'
_cell_volume   280.81100771
_cell_formula_units_Z   1
loop_
 _symmetry_equiv_pos_site_id
 _symmetry_equiv_pos_as_xyz
  1  'x, y, z'
loop_
 _atom_site_type_symbol
 _atom_site_label
 _atom_site_symmetry_multiplicity
 _atom_site_fract_x
 _atom_site_fract_y
 _atom_site_fract_z
 _atom_site_occupancy
  Li  Li0  1  0.000000  0.666667  0.333333  1
  Li  Li1  1  0.500000  0.333333  0.666667  1
  Co  Co2  1  0.000000  0.571955  0.947013  1
  Co  Co3  1  0.000000  0.375058  0.428045  1
  Co  Co4  1  0.000000  0.052987  0.624942  1
  Co  Co5  1  0.000000  0.881886  0.163951  1
  Co  Co6  1  0.000000  0.282065  0.118114  1
  Co  Co7  1  0.000000  0.836049  0.717935  1
  Co  Co8  1  0.500000  0.955158  0.387058  1
  Co  Co9  1  0.500000  0.431899  0.044842  1
  Co  Co10  1  0.500000  0.612942  0.568101  1
  Tc  Tc11  1  0.500000  0.783997  0.907951  1
  Tc  Tc12  1  0.500000  0.123954  0.216003  1
  Tc  Tc13  1  0.500000  0.092049  0.876046  1
  As  As14  1  0.000000  0.000000  0.000000  1
  As  As15  1  0.500000  0.708954  0.130788  1
  As  As16  1  0.500000  0.421835  0.291046  1
  As  As17  1  0.500000  0.869212  0.578165  1
  As  As18  1  0.000000  0.576664  0.703071  1
  As  As19  1  0.000000  0.126407  0.423336  1
  As  As20  1  0.000000  0.296929  0.873593  1
