# generated using pymatgen
data_VPbF6
_symmetry_space_group_name_H-M   'P 1'
_cell_length_a   6.07256240
_cell_length_b   6.07172955
_cell_length_c   6.04010243
_cell_angle_alpha   56.86246475
_cell_angle_beta   56.58038280
_cell_angle_gamma   57.04922779
_symmetry_Int_Tables_number   1
_chemical_formula_structural   VPbF6
_chemical_formula_sum   'V1 Pb1 F6'
_cell_volume   145.95287062
_cell_formula_units_Z   1
loop_
 _symmetry_equiv_pos_site_id
 _symmetry_equiv_pos_as_xyz
  1  'x, y, z'
loop_
 _atom_site_type_symbol
 _atom_site_label
 _atom_site_symmetry_multiplicity
 _atom_site_fract_x
 _atom_site_fract_y
 _atom_site_fract_z
 _atom_site_occupancy
  V  V0  1  0.500000  0.500000  0.500000  1
  Pb  Pb1  1  0.000000  0.000000  0.000000  1
  F  F2  1  0.710536  0.178701  0.393252  1
  F  F3  1  0.390747  0.707692  0.184049  1
  F  F4  1  0.818645  0.603265  0.294945  1
  F  F5  1  0.609253  0.292308  0.815951  1
  F  F6  1  0.289464  0.821299  0.606748  1
  F  F7  1  0.181355  0.396735  0.705055  1
