# generated using pymatgen
data_PrLu2(P2Rh3)3
_symmetry_space_group_name_H-M   'P 1'
_cell_length_a   3.91632300
_cell_length_b   11.22955800
_cell_length_c   12.82181600
_cell_angle_alpha   90.00000000
_cell_angle_beta   90.00000000
_cell_angle_gamma   90.00000000
_symmetry_Int_Tables_number   1
_chemical_formula_structural   PrLu2(P2Rh3)3
_chemical_formula_sum   'Pr2 Lu4 P12 Rh18'
_cell_volume   563.88521294
_cell_formula_units_Z   2
loop_
 _symmetry_equiv_pos_site_id
 _symmetry_equiv_pos_as_xyz
  1  'x, y, z'
loop_
 _atom_site_type_symbol
 _atom_site_label
 _atom_site_symmetry_multiplicity
 _atom_site_fract_x
 _atom_site_fract_y
 _atom_site_fract_z
 _atom_site_occupancy
  Pr  Pr0  1  0.000000  0.500000  0.520607  1
  Pr  Pr1  1  0.500000  0.000000  0.479393  1
  Lu  Lu2  1  0.500000  0.815784  0.204337  1
  Lu  Lu3  1  0.500000  0.184216  0.204337  1
  Lu  Lu4  1  0.000000  0.684216  0.795663  1
  Lu  Lu5  1  0.000000  0.315784  0.795663  1
  P  P6  1  0.500000  0.500000  0.879983  1
  P  P7  1  0.000000  0.000000  0.120017  1
  P  P8  1  0.500000  0.500000  0.345641  1
  P  P9  1  0.000000  0.000000  0.654359  1
  P  P10  1  0.500000  0.313995  0.621203  1
  P  P11  1  0.500000  0.686005  0.621203  1
  P  P12  1  0.000000  0.186005  0.378797  1
  P  P13  1  0.000000  0.813995  0.378797  1
  P  P14  1  0.500000  0.845040  0.893183  1
  P  P15  1  0.500000  0.154960  0.893183  1
  P  P16  1  0.000000  0.654960  0.106817  1
  P  P17  1  0.000000  0.345040  0.106817  1
  Rh  Rh18  1  0.500000  0.500000  0.165901  1
  Rh  Rh19  1  0.000000  0.000000  0.834099  1
  Rh  Rh20  1  0.500000  0.500000  0.706333  1
  Rh  Rh21  1  0.000000  0.000000  0.293667  1
  Rh  Rh22  1  0.000000  0.500000  0.979862  1
  Rh  Rh23  1  0.500000  0.000000  0.020138  1
  Rh  Rh24  1  0.500000  0.333604  0.992387  1
  Rh  Rh25  1  0.500000  0.666396  0.992387  1
  Rh  Rh26  1  0.000000  0.166396  0.007613  1
  Rh  Rh27  1  0.000000  0.833604  0.007613  1
  Rh  Rh28  1  0.500000  0.291787  0.428111  1
  Rh  Rh29  1  0.500000  0.708213  0.428111  1
  Rh  Rh30  1  0.000000  0.208213  0.571889  1
  Rh  Rh31  1  0.000000  0.791787  0.571889  1
  Rh  Rh32  1  0.500000  0.871751  0.714306  1
  Rh  Rh33  1  0.500000  0.128249  0.714306  1
  Rh  Rh34  1  0.000000  0.628249  0.285694  1
  Rh  Rh35  1  0.000000  0.371751  0.285694  1
