# generated using pymatgen
data_Nd6Y14Cd6OsRu
_symmetry_space_group_name_H-M   'P 1'
_cell_length_a   9.75877400
_cell_length_b   9.75877383
_cell_length_c   9.94257600
_cell_angle_alpha   90.00000000
_cell_angle_beta   90.00000000
_cell_angle_gamma   120.00000057
_symmetry_Int_Tables_number   1
_chemical_formula_structural   Nd6Y14Cd6OsRu
_chemical_formula_sum   'Nd6 Y14 Cd6 Os1 Ru1'
_cell_volume   820.01172458
_cell_formula_units_Z   1
loop_
 _symmetry_equiv_pos_site_id
 _symmetry_equiv_pos_as_xyz
  1  'x, y, z'
loop_
 _atom_site_type_symbol
 _atom_site_label
 _atom_site_symmetry_multiplicity
 _atom_site_fract_x
 _atom_site_fract_y
 _atom_site_fract_z
 _atom_site_occupancy
  Nd  Nd0  1  0.539526  0.460474  0.250000  1
  Nd  Nd1  1  0.539526  0.079053  0.250000  1
  Nd  Nd2  1  0.920947  0.460474  0.250000  1
  Nd  Nd3  1  0.459424  0.540576  0.750000  1
  Nd  Nd4  1  0.459424  0.918849  0.750000  1
  Nd  Nd5  1  0.081151  0.540576  0.750000  1
  Y  Y6  1  0.000000  0.000000  0.499622  1
  Y  Y7  1  0.000000  0.000000  0.000378  1
  Y  Y8  1  0.209954  0.790046  0.438965  1
  Y  Y9  1  0.209954  0.419909  0.438965  1
  Y  Y10  1  0.580091  0.790046  0.438965  1
  Y  Y11  1  0.789910  0.210090  0.561425  1
  Y  Y12  1  0.789910  0.579817  0.561425  1
  Y  Y13  1  0.420183  0.210090  0.561425  1
  Y  Y14  1  0.789910  0.210090  0.938575  1
  Y  Y15  1  0.789910  0.579817  0.938575  1
  Y  Y16  1  0.420183  0.210090  0.938575  1
  Y  Y17  1  0.209954  0.790046  0.061035  1
  Y  Y18  1  0.209954  0.419909  0.061035  1
  Y  Y19  1  0.580091  0.790046  0.061035  1
  Cd  Cd20  1  0.886987  0.113013  0.250000  1
  Cd  Cd21  1  0.886987  0.773975  0.250000  1
  Cd  Cd22  1  0.226025  0.113013  0.250000  1
  Cd  Cd23  1  0.112972  0.887028  0.750000  1
  Cd  Cd24  1  0.112972  0.225943  0.750000  1
  Cd  Cd25  1  0.774057  0.887028  0.750000  1
  Os  Os26  1  0.333333  0.666667  0.250000  1
  Ru  Ru27  1  0.666667  0.333333  0.750000  1
