# generated using pymatgen
data_LaAl8Cu4Si
_symmetry_space_group_name_H-M   'P 1'
_cell_length_a   5.88243187
_cell_length_b   5.88243175
_cell_length_c   14.35060804
_cell_angle_alpha   101.82680897
_cell_angle_beta   101.82680774
_cell_angle_gamma   90.00000121
_symmetry_Int_Tables_number   1
_chemical_formula_structural   LaAl8Cu4Si
_chemical_formula_sum   'La2 Al16 Cu8 Si2'
_cell_volume   475.25743856
_cell_formula_units_Z   2
loop_
 _symmetry_equiv_pos_site_id
 _symmetry_equiv_pos_as_xyz
  1  'x, y, z'
loop_
 _atom_site_type_symbol
 _atom_site_label
 _atom_site_symmetry_multiplicity
 _atom_site_fract_x
 _atom_site_fract_y
 _atom_site_fract_z
 _atom_site_occupancy
  La  La0  1  0.750001  0.250000  0.500000  1
  La  La1  1  0.250000  0.750001  0.500000  1
  Al  Al2  1  0.300911  0.300911  0.103321  1
  Al  Al3  1  0.802410  0.300911  0.103321  1
  Al  Al4  1  0.300911  0.802410  0.103321  1
  Al  Al5  1  0.802410  0.802410  0.103321  1
  Al  Al6  1  0.408426  0.408426  0.307797  1
  Al  Al7  1  0.899370  0.408426  0.307797  1
  Al  Al8  1  0.408426  0.899370  0.307797  1
  Al  Al9  1  0.899370  0.899370  0.307797  1
  Al  Al10  1  0.100629  0.100629  0.692203  1
  Al  Al11  1  0.591574  0.100629  0.692203  1
  Al  Al12  1  0.100629  0.591574  0.692203  1
  Al  Al13  1  0.591574  0.591574  0.692203  1
  Al  Al14  1  0.197591  0.197591  0.896679  1
  Al  Al15  1  0.699088  0.197591  0.896679  1
  Al  Al16  1  0.197591  0.699088  0.896679  1
  Al  Al17  1  0.699088  0.699088  0.896679  1
  Cu  Cu18  1  0.000000  0.000000  0.000000  1
  Cu  Cu19  1  0.500001  0.500001  0.000000  1
  Cu  Cu20  1  0.603850  0.103850  0.207700  1
  Cu  Cu21  1  0.103850  0.603850  0.207700  1
  Cu  Cu22  1  0.706329  0.706329  0.412658  1
  Cu  Cu23  1  0.293672  0.293672  0.587342  1
  Cu  Cu24  1  0.896151  0.396150  0.792299  1
  Cu  Cu25  1  0.396150  0.896151  0.792299  1
  Si  Si26  1  0.209030  0.209030  0.418062  1
  Si  Si27  1  0.790970  0.790970  0.581939  1
