# generated using pymatgen
data_Er10AlSi3Bi4
_symmetry_space_group_name_H-M   'P 1'
_cell_length_a   8.61389613
_cell_length_b   8.61389645
_cell_length_c   7.90841063
_cell_angle_alpha   89.80476467
_cell_angle_beta   89.80476906
_cell_angle_gamma   125.42414453
_symmetry_Int_Tables_number   1
_chemical_formula_structural   Er10AlSi3Bi4
_chemical_formula_sum   'Er10 Al1 Si3 Bi4'
_cell_volume   478.15871688
_cell_formula_units_Z   1
loop_
 _symmetry_equiv_pos_site_id
 _symmetry_equiv_pos_as_xyz
  1  'x, y, z'
loop_
 _atom_site_type_symbol
 _atom_site_label
 _atom_site_symmetry_multiplicity
 _atom_site_fract_x
 _atom_site_fract_y
 _atom_site_fract_z
 _atom_site_occupancy
  Er  Er0  1  0.039939  0.284178  0.337584  1
  Er  Er1  1  0.956370  0.715752  0.664409  1
  Er  Er2  1  0.457010  0.210190  0.831888  1
  Er  Er3  1  0.791109  0.545026  0.165159  1
  Er  Er4  1  0.545026  0.791109  0.165159  1
  Er  Er5  1  0.210190  0.457010  0.831888  1
  Er  Er6  1  0.715752  0.956370  0.664409  1
  Er  Er7  1  0.284178  0.039939  0.337584  1
  Er  Er8  1  0.998858  0.998858  0.999120  1
  Er  Er9  1  0.501203  0.501203  0.501905  1
  Al  Al10  1  0.370836  0.370836  0.128630  1
  Si  Si11  1  0.628775  0.628775  0.871919  1
  Si  Si12  1  0.135425  0.135425  0.634812  1
  Si  Si13  1  0.864553  0.864553  0.365229  1
  Bi  Bi14  1  0.791854  0.206747  0.999690  1
  Bi  Bi15  1  0.206748  0.791854  0.999690  1
  Bi  Bi16  1  0.708473  0.293702  0.500462  1
  Bi  Bi17  1  0.293702  0.708473  0.500462  1
