# generated using pymatgen
data_Tb2Al20OsRh3
_symmetry_space_group_name_H-M   'P 1'
_cell_length_a   6.84391563
_cell_length_b   6.84138200
_cell_length_c   9.14921336
_cell_angle_alpha   90.13364306
_cell_angle_beta   90.17619337
_cell_angle_gamma   97.22659759
_symmetry_Int_Tables_number   1
_chemical_formula_structural   Tb2Al20OsRh3
_chemical_formula_sum   'Tb2 Al20 Os1 Rh3'
_cell_volume   424.97651143
_cell_formula_units_Z   1
loop_
 _symmetry_equiv_pos_site_id
 _symmetry_equiv_pos_as_xyz
  1  'x, y, z'
loop_
 _atom_site_type_symbol
 _atom_site_label
 _atom_site_symmetry_multiplicity
 _atom_site_fract_x
 _atom_site_fract_y
 _atom_site_fract_z
 _atom_site_occupancy
  Tb  Tb0  1  0.868914  0.128077  0.750029  1
  Tb  Tb1  1  0.131086  0.871923  0.249971  1
  Al  Al2  1  0.621344  0.376433  0.547786  1
  Al  Al3  1  0.378656  0.623567  0.452214  1
  Al  Al4  1  0.378249  0.622380  0.049455  1
  Al  Al5  1  0.621751  0.377620  0.950545  1
  Al  Al6  1  0.220591  0.220256  0.499412  1
  Al  Al7  1  0.779409  0.779744  0.500588  1
  Al  Al8  1  0.777477  0.777749  0.999739  1
  Al  Al9  1  0.222523  0.222251  0.000261  1
  Al  Al10  1  0.844859  0.155674  0.103739  1
  Al  Al11  1  0.155141  0.844326  0.896261  1
  Al  Al12  1  0.155404  0.845396  0.602611  1
  Al  Al13  1  0.844596  0.154604  0.397389  1
  Al  Al14  1  0.856571  0.589991  0.749518  1
  Al  Al15  1  0.143429  0.410009  0.250482  1
  Al  Al16  1  0.409631  0.142872  0.749579  1
  Al  Al17  1  0.590369  0.857128  0.250421  1
  Al  Al18  1  0.225134  0.480605  0.749842  1
  Al  Al19  1  0.774866  0.519395  0.250158  1
  Al  Al20  1  0.518776  0.776312  0.746723  1
  Al  Al21  1  0.481224  0.223688  0.253277  1
  Os  Os22  1  0.500000  0.000000  0.500000  1
  Rh  Rh23  1  0.000000  0.500000  0.500000  1
  Rh  Rh24  1  0.000000  0.500000  0.000000  1
  Rh  Rh25  1  0.500000  0.000000  0.000000  1
