# generated using pymatgen
data_Sc8CoIr4Ru3
_symmetry_space_group_name_H-M   'P 1'
_cell_length_a   6.35499500
_cell_length_b   4.56406300
_cell_length_c   9.14274000
_cell_angle_alpha   90.00000000
_cell_angle_beta   89.99950590
_cell_angle_gamma   90.00000000
_symmetry_Int_Tables_number   1
_chemical_formula_structural   Sc8CoIr4Ru3
_chemical_formula_sum   'Sc8 Co1 Ir4 Ru3'
_cell_volume   265.18149415
_cell_formula_units_Z   1
loop_
 _symmetry_equiv_pos_site_id
 _symmetry_equiv_pos_as_xyz
  1  'x, y, z'
loop_
 _atom_site_type_symbol
 _atom_site_label
 _atom_site_symmetry_multiplicity
 _atom_site_fract_x
 _atom_site_fract_y
 _atom_site_fract_z
 _atom_site_occupancy
  Sc  Sc0  1  0.499490  0.750001  0.124473  1
  Sc  Sc1  1  0.000427  0.750001  0.124485  1
  Sc  Sc2  1  0.500057  0.249999  0.374978  1
  Sc  Sc3  1  0.999860  0.249999  0.374987  1
  Sc  Sc4  1  0.000509  0.750001  0.625540  1
  Sc  Sc5  1  0.499564  0.750001  0.625553  1
  Sc  Sc6  1  0.001330  0.249999  0.874980  1
  Sc  Sc7  1  0.498745  0.249999  0.874988  1
  Co  Co8  1  0.250047  0.750001  0.875031  1
  Ir  Ir9  1  0.249966  0.249999  0.123645  1
  Ir  Ir10  1  0.749960  0.750001  0.375000  1
  Ir  Ir11  1  0.250039  0.249999  0.626321  1
  Ir  Ir12  1  0.750035  0.750001  0.875006  1
  Ru  Ru13  1  0.749980  0.249999  0.124192  1
  Ru  Ru14  1  0.249958  0.750001  0.375010  1
  Ru  Ru15  1  0.750032  0.249999  0.625811  1
