# generated using pymatgen
data_Sm4HoTm(Si3Ru)8
_symmetry_space_group_name_H-M   'P 1'
_cell_length_a   10.15843589
_cell_length_b   10.15843767
_cell_length_c   8.21072872
_cell_angle_alpha   90.00848101
_cell_angle_beta   90.00847760
_cell_angle_gamma   132.36723167
_symmetry_Int_Tables_number   1
_chemical_formula_structural   Sm4HoTm(Si3Ru)8
_chemical_formula_sum   'Sm4 Ho1 Tm1 Si24 Ru8'
_cell_volume   626.01731500
_cell_formula_units_Z   1
loop_
 _symmetry_equiv_pos_site_id
 _symmetry_equiv_pos_as_xyz
  1  'x, y, z'
loop_
 _atom_site_type_symbol
 _atom_site_label
 _atom_site_symmetry_multiplicity
 _atom_site_fract_x
 _atom_site_fract_y
 _atom_site_fract_z
 _atom_site_occupancy
  Sm  Sm0  1  0.502597  0.002488  0.749790  1
  Sm  Sm1  1  0.997512  0.497403  0.250210  1
  Sm  Sm2  1  0.497403  0.997512  0.250210  1
  Sm  Sm3  1  0.002488  0.502597  0.749790  1
  Ho  Ho4  1  0.000000  0.000000  0.000000  1
  Tm  Tm5  1  0.500000  0.500000  0.500000  1
  Si  Si6  1  0.794442  0.205558  0.500000  1
  Si  Si7  1  0.294809  0.705191  0.000000  1
  Si  Si8  1  0.205558  0.794442  0.500000  1
  Si  Si9  1  0.705191  0.294809  0.000000  1
  Si  Si10  1  0.331997  0.331997  0.832895  1
  Si  Si11  1  0.668003  0.668003  0.167105  1
  Si  Si12  1  0.167552  0.167552  0.332714  1
  Si  Si13  1  0.832448  0.832448  0.667286  1
  Si  Si14  1  0.120847  0.887764  0.728365  1
  Si  Si15  1  0.112236  0.879153  0.271635  1
  Si  Si16  1  0.610967  0.378345  0.228771  1
  Si  Si17  1  0.621655  0.389033  0.771229  1
  Si  Si18  1  0.879153  0.112236  0.271635  1
  Si  Si19  1  0.887764  0.120847  0.728365  1
  Si  Si20  1  0.389033  0.621655  0.771229  1
  Si  Si21  1  0.378345  0.610967  0.228771  1
  Si  Si22  1  0.344719  0.112367  0.504793  1
  Si  Si23  1  0.887633  0.655281  0.495207  1
  Si  Si24  1  0.387205  0.155003  0.004822  1
  Si  Si25  1  0.844997  0.612795  0.995178  1
  Si  Si26  1  0.655281  0.887633  0.495207  1
  Si  Si27  1  0.112367  0.344719  0.504793  1
  Si  Si28  1  0.612795  0.844997  0.995178  1
  Si  Si29  1  0.155003  0.387205  0.004822  1
  Ru  Ru30  1  0.666984  0.333016  0.500000  1
  Ru  Ru31  1  0.167670  0.832330  0.000000  1
  Ru  Ru32  1  0.333016  0.666984  0.500000  1
  Ru  Ru33  1  0.832330  0.167670  0.000000  1
  Ru  Ru34  1  0.126166  0.126166  0.625819  1
  Ru  Ru35  1  0.873834  0.873834  0.374181  1
  Ru  Ru36  1  0.374744  0.374744  0.127357  1
  Ru  Ru37  1  0.625256  0.625256  0.872643  1
