# generated using pymatgen
data_Sc2Mn2ReOs
_symmetry_space_group_name_H-M   'P 1'
_cell_length_a   5.00934800
_cell_length_b   5.07638704
_cell_length_c   8.51892500
_cell_angle_alpha   90.00000000
_cell_angle_beta   90.00000000
_cell_angle_gamma   119.56410039
_symmetry_Int_Tables_number   1
_chemical_formula_structural   Sc2Mn2ReOs
_chemical_formula_sum   'Sc4 Mn4 Re2 Os2'
_cell_volume   188.42661569
_cell_formula_units_Z   2
loop_
 _symmetry_equiv_pos_site_id
 _symmetry_equiv_pos_as_xyz
  1  'x, y, z'
loop_
 _atom_site_type_symbol
 _atom_site_label
 _atom_site_symmetry_multiplicity
 _atom_site_fract_x
 _atom_site_fract_y
 _atom_site_fract_z
 _atom_site_occupancy
  Sc  Sc0  1  0.332330  0.667573  0.437550  1
  Sc  Sc1  1  0.664758  0.332427  0.562450  1
  Sc  Sc2  1  0.664758  0.332427  0.937550  1
  Sc  Sc3  1  0.332330  0.667573  0.062450  1
  Mn  Mn4  1  0.174957  0.341181  0.750000  1
  Mn  Mn5  1  0.175872  0.831871  0.750000  1
  Mn  Mn6  1  0.344000  0.168129  0.250000  1
  Mn  Mn7  1  0.833775  0.658819  0.250000  1
  Re  Re8  1  0.649916  0.824838  0.750000  1
  Re  Re9  1  0.825077  0.175162  0.250000  1
  Os  Os10  1  0.001113  0.000000  0.000000  1
  Os  Os11  1  0.001113  0.000000  0.500000  1
