# generated using pymatgen
data_CaDy2ThPt4
_symmetry_space_group_name_H-M   'P 1'
_cell_length_a   4.51971200
_cell_length_b   5.64139466
_cell_length_c   7.19383200
_cell_angle_alpha   89.16947891
_cell_angle_beta   90.00000000
_cell_angle_gamma   90.00000000
_symmetry_Int_Tables_number   1
_chemical_formula_structural   CaDy2ThPt4
_chemical_formula_sum   'Ca1 Dy2 Th1 Pt4'
_cell_volume   183.40531159
_cell_formula_units_Z   1
loop_
 _symmetry_equiv_pos_site_id
 _symmetry_equiv_pos_as_xyz
  1  'x, y, z'
loop_
 _atom_site_type_symbol
 _atom_site_label
 _atom_site_symmetry_multiplicity
 _atom_site_fract_x
 _atom_site_fract_y
 _atom_site_fract_z
 _atom_site_occupancy
  Ca  Ca0  1  0.250000  0.355380  0.679709  1
  Dy  Dy1  1  0.250000  0.144495  0.185469  1
  Dy  Dy2  1  0.750000  0.640724  0.316306  1
  Th  Th3  1  0.750000  0.857111  0.816272  1
  Pt  Pt4  1  0.750000  0.149313  0.446302  1
  Pt  Pt5  1  0.250000  0.847294  0.539382  1
  Pt  Pt6  1  0.250000  0.665977  0.049115  1
  Pt  Pt7  1  0.750000  0.339705  0.967445  1
