# generated using pymatgen
data_LaDy4HoTa2O14
_symmetry_space_group_name_H-M   'P 1'
_cell_length_a   6.51354115
_cell_length_b   6.51611599
_cell_length_c   7.54851012
_cell_angle_alpha   89.86818881
_cell_angle_beta   90.11916038
_cell_angle_gamma   108.64674762
_symmetry_Int_Tables_number   1
_chemical_formula_structural   LaDy4HoTa2O14
_chemical_formula_sum   'La1 Dy4 Ho1 Ta2 O14'
_cell_volume   303.56272445
_cell_formula_units_Z   1
loop_
 _symmetry_equiv_pos_site_id
 _symmetry_equiv_pos_as_xyz
  1  'x, y, z'
loop_
 _atom_site_type_symbol
 _atom_site_label
 _atom_site_symmetry_multiplicity
 _atom_site_fract_x
 _atom_site_fract_y
 _atom_site_fract_z
 _atom_site_occupancy
  La  La0  1  0.507826  0.507822  0.499761  1
  Dy  Dy1  1  0.460556  0.460023  0.000203  1
  Dy  Dy2  1  0.999559  0.535147  0.240739  1
  Dy  Dy3  1  0.998240  0.466099  0.746968  1
  Dy  Dy4  1  0.534736  0.999451  0.759203  1
  Ho  Ho5  1  0.466519  0.998096  0.252871  1
  Ta  Ta6  1  0.000542  0.000641  0.499681  1
  Ta  Ta7  1  0.997144  0.997228  0.000202  1
  O  O8  1  0.933949  0.066094  0.749665  1
  O  O9  1  0.067113  0.934173  0.250280  1
  O  O10  1  0.358394  0.643050  0.238512  1
  O  O11  1  0.641440  0.358079  0.761433  1
  O  O12  1  0.366617  0.632384  0.761304  1
  O  O13  1  0.631620  0.364948  0.239024  1
  O  O14  1  0.326313  0.080287  0.974601  1
  O  O15  1  0.677753  0.930365  0.470678  1
  O  O16  1  0.315333  0.061588  0.539560  1
  O  O17  1  0.692984  0.952703  0.042557  1
  O  O18  1  0.062334  0.315389  0.459889  1
  O  O19  1  0.950893  0.692543  0.958782  1
  O  O20  1  0.929056  0.677588  0.528046  1
  O  O21  1  0.081082  0.326303  0.026042  1
