# generated using pymatgen
data_Ho3Tm4Lu(CdPt)2
_symmetry_space_group_name_H-M   'P 1'
_cell_length_a   9.57518616
_cell_length_b   9.57518700
_cell_length_c   9.57179400
_cell_angle_alpha   60.01172122
_cell_angle_beta   60.01171833
_cell_angle_gamma   59.97655667
_symmetry_Int_Tables_number   1
_chemical_formula_structural   Ho3Tm4Lu(CdPt)2
_chemical_formula_sum   'Ho6 Tm8 Lu2 Cd4 Pt4'
_cell_volume   620.54419126
_cell_formula_units_Z   2
loop_
 _symmetry_equiv_pos_site_id
 _symmetry_equiv_pos_as_xyz
  1  'x, y, z'
loop_
 _atom_site_type_symbol
 _atom_site_label
 _atom_site_symmetry_multiplicity
 _atom_site_fract_x
 _atom_site_fract_y
 _atom_site_fract_z
 _atom_site_occupancy
  Ho  Ho0  1  0.185693  0.814307  0.814307  1
  Ho  Ho1  1  0.814307  0.185693  0.185693  1
  Ho  Ho2  1  0.814307  0.185693  0.814307  1
  Ho  Ho3  1  0.185693  0.814307  0.185693  1
  Ho  Ho4  1  0.814331  0.814331  0.185669  1
  Ho  Ho5  1  0.185669  0.185669  0.814331  1
  Tm  Tm6  1  0.602046  0.602046  0.602346  1
  Tm  Tm7  1  0.602046  0.602046  0.193562  1
  Tm  Tm8  1  0.602346  0.193562  0.602046  1
  Tm  Tm9  1  0.193562  0.602346  0.602046  1
  Tm  Tm10  1  0.060917  0.439083  0.439083  1
  Tm  Tm11  1  0.439083  0.060917  0.060917  1
  Tm  Tm12  1  0.439083  0.060917  0.439083  1
  Tm  Tm13  1  0.060917  0.439083  0.060917  1
  Lu  Lu14  1  0.439167  0.439167  0.060833  1
  Lu  Lu15  1  0.060833  0.060833  0.439167  1
  Cd  Cd16  1  0.831689  0.831689  0.831623  1
  Cd  Cd17  1  0.831689  0.831689  0.504999  1
  Cd  Cd18  1  0.831623  0.504999  0.831689  1
  Cd  Cd19  1  0.504999  0.831623  0.831689  1
  Pt  Pt20  1  0.393210  0.393210  0.392536  1
  Pt  Pt21  1  0.393210  0.393210  0.821043  1
  Pt  Pt22  1  0.392536  0.821043  0.393210  1
  Pt  Pt23  1  0.821043  0.392536  0.393210  1
