# generated using pymatgen
data_Ba6Fe(SbO6)2
_symmetry_space_group_name_H-M   'P 1'
_cell_length_a   9.41979203
_cell_length_b   9.41979089
_cell_length_c   7.30153800
_cell_angle_alpha   67.35461236
_cell_angle_beta   67.35460821
_cell_angle_gamma   36.88048213
_symmetry_Int_Tables_number   1
_chemical_formula_structural   Ba6Fe(SbO6)2
_chemical_formula_sum   'Ba6 Fe1 Sb2 O12'
_cell_volume   355.36059317
_cell_formula_units_Z   1
loop_
 _symmetry_equiv_pos_site_id
 _symmetry_equiv_pos_as_xyz
  1  'x, y, z'
loop_
 _atom_site_type_symbol
 _atom_site_label
 _atom_site_symmetry_multiplicity
 _atom_site_fract_x
 _atom_site_fract_y
 _atom_site_fract_z
 _atom_site_occupancy
  Ba  Ba0  1  0.205775  0.205775  0.709213  1
  Ba  Ba1  1  0.889006  0.889006  0.707707  1
  Ba  Ba2  1  0.547551  0.547551  0.718073  1
  Ba  Ba3  1  0.794225  0.794225  0.290787  1
  Ba  Ba4  1  0.452449  0.452449  0.281927  1
  Ba  Ba5  1  0.110994  0.110994  0.292293  1
  Fe  Fe6  1  0.000000  0.000000  0.000000  1
  Sb  Sb7  1  0.667793  0.667793  0.001142  1
  Sb  Sb8  1  0.332207  0.332207  0.998858  1
  O  O9  1  0.277882  0.277882  0.302088  1
  O  O10  1  0.947758  0.947758  0.313570  1
  O  O11  1  0.621149  0.621149  0.304005  1
  O  O12  1  0.722118  0.722118  0.697912  1
  O  O13  1  0.378851  0.378851  0.695995  1
  O  O14  1  0.052242  0.052242  0.686430  1
  O  O15  1  0.000000  0.500000  0.000000  1
  O  O16  1  0.646435  0.174656  0.001104  1
  O  O17  1  0.353565  0.825344  0.998896  1
  O  O18  1  0.500000  0.000000  0.000000  1
  O  O19  1  0.174656  0.646435  0.001104  1
  O  O20  1  0.825344  0.353565  0.998896  1
