# generated using pymatgen
data_Er2Co9CuP6
_symmetry_space_group_name_H-M   'P 1'
_cell_length_a   3.65864900
_cell_length_b   10.23115400
_cell_length_c   11.78179500
_cell_angle_alpha   90.00000000
_cell_angle_beta   90.00000000
_cell_angle_gamma   90.00000000
_symmetry_Int_Tables_number   1
_chemical_formula_structural   Er2Co9CuP6
_chemical_formula_sum   'Er4 Co18 Cu2 P12'
_cell_volume   441.01852272
_cell_formula_units_Z   2
loop_
 _symmetry_equiv_pos_site_id
 _symmetry_equiv_pos_as_xyz
  1  'x, y, z'
loop_
 _atom_site_type_symbol
 _atom_site_label
 _atom_site_symmetry_multiplicity
 _atom_site_fract_x
 _atom_site_fract_y
 _atom_site_fract_z
 _atom_site_occupancy
  Er  Er0  1  0.250000  0.578867  0.701899  1
  Er  Er1  1  0.250000  0.921133  0.201899  1
  Er  Er2  1  0.750000  0.418783  0.296937  1
  Er  Er3  1  0.750000  0.081217  0.796937  1
  Co  Co4  1  0.750000  0.286964  0.008347  1
  Co  Co5  1  0.750000  0.213036  0.508347  1
  Co  Co6  1  0.250000  0.405167  0.486642  1
  Co  Co7  1  0.250000  0.094833  0.986642  1
  Co  Co8  1  0.750000  0.592013  0.515644  1
  Co  Co9  1  0.750000  0.907987  0.015644  1
  Co  Co10  1  0.250000  0.223102  0.175321  1
  Co  Co11  1  0.250000  0.276898  0.675321  1
  Co  Co12  1  0.750000  0.777892  0.826009  1
  Co  Co13  1  0.750000  0.722108  0.326009  1
  Co  Co14  1  0.250000  0.881807  0.698955  1
  Co  Co15  1  0.250000  0.618193  0.198955  1
  Co  Co16  1  0.750000  0.120348  0.299864  1
  Co  Co17  1  0.750000  0.379652  0.799864  1
  Co  Co18  1  0.250000  0.465243  0.931311  1
  Co  Co19  1  0.250000  0.034757  0.431311  1
  Co  Co20  1  0.750000  0.534554  0.066735  1
  Co  Co21  1  0.750000  0.965446  0.566735  1
  Cu  Cu22  1  0.250000  0.711945  0.991190  1
  Cu  Cu23  1  0.250000  0.788055  0.491190  1
  P  P24  1  0.250000  0.420435  0.112239  1
  P  P25  1  0.250000  0.079565  0.612239  1
  P  P26  1  0.750000  0.576313  0.883516  1
  P  P27  1  0.750000  0.923687  0.383516  1
  P  P28  1  0.250000  0.268279  0.867786  1
  P  P29  1  0.250000  0.231721  0.367786  1
  P  P30  1  0.750000  0.730780  0.138676  1
  P  P31  1  0.750000  0.769220  0.638676  1
  P  P32  1  0.250000  0.598575  0.391215  1
  P  P33  1  0.250000  0.901425  0.891215  1
  P  P34  1  0.750000  0.396545  0.607716  1
  P  P35  1  0.750000  0.103455  0.107716  1
