# generated using pymatgen
data_Ho2U(SnRu)3
_symmetry_space_group_name_H-M   'P 1'
_cell_length_a   7.82030300
_cell_length_b   7.40966346
_cell_length_c   3.83505500
_cell_angle_alpha   90.00000000
_cell_angle_beta   90.00000000
_cell_angle_gamma   121.85083612
_symmetry_Int_Tables_number   1
_chemical_formula_structural   Ho2U(SnRu)3
_chemical_formula_sum   'Ho2 U1 Sn3 Ru3'
_cell_volume   188.76375303
_cell_formula_units_Z   1
loop_
 _symmetry_equiv_pos_site_id
 _symmetry_equiv_pos_as_xyz
  1  'x, y, z'
loop_
 _atom_site_type_symbol
 _atom_site_label
 _atom_site_symmetry_multiplicity
 _atom_site_fract_x
 _atom_site_fract_y
 _atom_site_fract_z
 _atom_site_occupancy
  Ho  Ho0  1  0.002712  0.405948  0.500000  1
  Ho  Ho1  1  0.596764  0.594052  0.500000  1
  U  U2  1  0.415720  0.000000  0.500000  1
  Sn  Sn3  1  0.984469  0.723813  0.000000  1
  Sn  Sn4  1  0.260656  0.276187  0.000000  1
  Sn  Sn5  1  0.760284  0.000000  0.000000  1
  Ru  Ru6  1  0.342107  0.719322  0.000000  1
  Ru  Ru7  1  0.622786  0.280678  0.000000  1
  Ru  Ru8  1  0.014501  0.000000  0.500000  1
