# generated using pymatgen
data_Tb7Th7RuRh5
_symmetry_space_group_name_H-M   'P 1'
_cell_length_a   9.92452143
_cell_length_b   9.82248372
_cell_length_c   6.37617096
_cell_angle_alpha   89.88536130
_cell_angle_beta   90.26315450
_cell_angle_gamma   120.43137975
_symmetry_Int_Tables_number   1
_chemical_formula_structural   Tb7Th7RuRh5
_chemical_formula_sum   'Tb7 Th7 Ru1 Rh5'
_cell_volume   535.93557227
_cell_formula_units_Z   1
loop_
 _symmetry_equiv_pos_site_id
 _symmetry_equiv_pos_as_xyz
  1  'x, y, z'
loop_
 _atom_site_type_symbol
 _atom_site_label
 _atom_site_symmetry_multiplicity
 _atom_site_fract_x
 _atom_site_fract_y
 _atom_site_fract_z
 _atom_site_occupancy
  Tb  Tb0  1  0.873736  0.746759  0.739973  1
  Tb  Tb1  1  0.538775  0.463500  0.446717  1
  Tb  Tb2  1  0.922818  0.461345  0.445726  1
  Tb  Tb3  1  0.539158  0.077492  0.446457  1
  Tb  Tb4  1  0.463958  0.537983  0.942280  1
  Tb  Tb5  1  0.076943  0.539096  0.945226  1
  Tb  Tb6  1  0.463351  0.925906  0.945859  1
  Th  Th7  1  0.332459  0.667339  0.464090  1
  Th  Th8  1  0.669328  0.332559  0.966215  1
  Th  Th9  1  0.126522  0.870604  0.241876  1
  Th  Th10  1  0.747758  0.875271  0.238360  1
  Th  Th11  1  0.122370  0.250932  0.235340  1
  Th  Th12  1  0.868762  0.125750  0.740401  1
  Th  Th13  1  0.253620  0.124668  0.737799  1
  Ru  Ru14  1  0.816737  0.182838  0.193380  1
  Rh  Rh15  1  0.369560  0.185814  0.192402  1
  Rh  Rh16  1  0.812180  0.629230  0.196441  1
  Rh  Rh17  1  0.193759  0.817704  0.687876  1
  Rh  Rh18  1  0.621883  0.815178  0.685906  1
  Rh  Rh19  1  0.186322  0.370033  0.694239  1
