# generated using pymatgen
data_Ba3TbIr2O9
_symmetry_space_group_name_H-M   'P 1'
_cell_length_a   5.95947800
_cell_length_b   5.95949658
_cell_length_c   14.74631100
_cell_angle_alpha   90.00002464
_cell_angle_beta   89.99995746
_cell_angle_gamma   120.00126777
_symmetry_Int_Tables_number   1
_chemical_formula_structural   Ba3TbIr2O9
_chemical_formula_sum   'Ba6 Tb2 Ir4 O18'
_cell_volume   453.55114560
_cell_formula_units_Z   2
loop_
 _symmetry_equiv_pos_site_id
 _symmetry_equiv_pos_as_xyz
  1  'x, y, z'
loop_
 _atom_site_type_symbol
 _atom_site_label
 _atom_site_symmetry_multiplicity
 _atom_site_fract_x
 _atom_site_fract_y
 _atom_site_fract_z
 _atom_site_occupancy
  Ba  Ba0  1  0.666680  0.333348  0.093275  1
  Ba  Ba1  1  0.000010  0.000001  0.250029  1
  Ba  Ba2  1  0.666680  0.333348  0.406706  1
  Ba  Ba3  1  0.333321  0.666651  0.593454  1
  Ba  Ba4  1  0.000009  0.000011  0.750020  1
  Ba  Ba5  1  0.333321  0.666651  0.906494  1
  Tb  Tb6  1  0.999985  0.999994  0.999937  1
  Tb  Tb7  1  0.999985  0.999994  0.500033  1
  Ir  Ir8  1  0.333316  0.666642  0.164467  1
  Ir  Ir9  1  0.333315  0.666641  0.335579  1
  Ir  Ir10  1  0.666663  0.333348  0.664376  1
  Ir  Ir11  1  0.666663  0.333349  0.835544  1
  O  O12  1  0.176459  0.352924  0.087340  1
  O  O13  1  0.176416  0.823527  0.087350  1
  O  O14  1  0.647132  0.823542  0.087347  1
  O  O15  1  0.018451  0.509320  0.249995  1
  O  O16  1  0.490849  0.509357  0.249995  1
  O  O17  1  0.490714  0.981410  0.249995  1
  O  O18  1  0.176479  0.352965  0.412651  1
  O  O19  1  0.176437  0.823505  0.412642  1
  O  O20  1  0.647091  0.823517  0.412644  1
  O  O21  1  0.353115  0.176587  0.587398  1
  O  O22  1  0.823479  0.176549  0.587398  1
  O  O23  1  0.823430  0.646887  0.587388  1
  O  O24  1  0.509216  0.018290  0.749980  1
  O  O25  1  0.509052  0.490871  0.749980  1
  O  O26  1  0.981709  0.490745  0.749979  1
  O  O27  1  0.352933  0.176497  0.912664  1
  O  O28  1  0.823571  0.176462  0.912663  1
  O  O29  1  0.823518  0.647067  0.912675  1
