# generated using pymatgen
data_TbHfP7Ru12
_symmetry_space_group_name_H-M   'P 1'
_cell_length_a   9.39272000
_cell_length_b   9.39271889
_cell_length_c   3.91874900
_cell_angle_alpha   90.00000000
_cell_angle_beta   90.00000000
_cell_angle_gamma   119.99999593
_symmetry_Int_Tables_number   1
_chemical_formula_structural   TbHfP7Ru12
_chemical_formula_sum   'Tb1 Hf1 P7 Ru12'
_cell_volume   299.40620565
_cell_formula_units_Z   1
loop_
 _symmetry_equiv_pos_site_id
 _symmetry_equiv_pos_as_xyz
  1  'x, y, z'
loop_
 _atom_site_type_symbol
 _atom_site_label
 _atom_site_symmetry_multiplicity
 _atom_site_fract_x
 _atom_site_fract_y
 _atom_site_fract_z
 _atom_site_occupancy
  Tb  Tb0  1  0.333333  0.666667  0.000000  1
  Hf  Hf1  1  0.666667  0.333333  0.500000  1
  P  P2  1  0.599831  0.719352  0.500000  1
  P  P3  1  0.000000  0.000000  0.000000  1
  P  P4  1  0.280648  0.880479  0.500000  1
  P  P5  1  0.119521  0.400169  0.500000  1
  P  P6  1  0.884888  0.573068  0.000000  1
  P  P7  1  0.426932  0.311820  0.000000  1
  P  P8  1  0.688180  0.115112  0.000000  1
  Ru  Ru9  1  0.557680  0.954494  0.500000  1
  Ru  Ru10  1  0.396814  0.442320  0.500000  1
  Ru  Ru11  1  0.913409  0.122549  0.500000  1
  Ru  Ru12  1  0.209140  0.086591  0.500000  1
  Ru  Ru13  1  0.877451  0.790860  0.500000  1
  Ru  Ru14  1  0.726455  0.889879  0.000000  1
  Ru  Ru15  1  0.110121  0.836575  0.000000  1
  Ru  Ru16  1  0.163425  0.273545  0.000000  1
  Ru  Ru17  1  0.428789  0.074357  0.000000  1
  Ru  Ru18  1  0.925643  0.354433  0.000000  1
  Ru  Ru19  1  0.645567  0.571211  0.000000  1
  Ru  Ru20  1  0.045506  0.603186  0.500000  1
