# generated using pymatgen
data_Ho16ZnHg3Rh4
_symmetry_space_group_name_H-M   'P 1'
_cell_length_a   9.55473715
_cell_length_b   9.52074681
_cell_length_c   9.53622339
_cell_angle_alpha   59.82688566
_cell_angle_beta   59.93541264
_cell_angle_gamma   59.88114464
_symmetry_Int_Tables_number   1
_chemical_formula_structural   Ho16ZnHg3Rh4
_chemical_formula_sum   'Ho16 Zn1 Hg3 Rh4'
_cell_volume   611.75518372
_cell_formula_units_Z   1
loop_
 _symmetry_equiv_pos_site_id
 _symmetry_equiv_pos_as_xyz
  1  'x, y, z'
loop_
 _atom_site_type_symbol
 _atom_site_label
 _atom_site_symmetry_multiplicity
 _atom_site_fract_x
 _atom_site_fract_y
 _atom_site_fract_z
 _atom_site_occupancy
  Ho  Ho0  1  0.182798  0.189603  0.813548  1
  Ho  Ho1  1  0.602317  0.602265  0.193110  1
  Ho  Ho2  1  0.440009  0.060004  0.439063  1
  Ho  Ho3  1  0.441320  0.438318  0.059799  1
  Ho  Ho4  1  0.814052  0.189601  0.813537  1
  Ho  Ho5  1  0.186329  0.812844  0.187307  1
  Ho  Ho6  1  0.439508  0.060428  0.060559  1
  Ho  Ho7  1  0.186639  0.813340  0.813390  1
  Ho  Ho8  1  0.060563  0.438321  0.059796  1
  Ho  Ho9  1  0.813527  0.812848  0.187301  1
  Ho  Ho10  1  0.194543  0.601487  0.602650  1
  Ho  Ho11  1  0.060208  0.438797  0.440787  1
  Ho  Ho12  1  0.060927  0.060001  0.439062  1
  Ho  Ho13  1  0.813665  0.189074  0.183593  1
  Ho  Ho14  1  0.601663  0.193685  0.602982  1
  Ho  Ho15  1  0.601319  0.601485  0.602646  1
  Zn  Zn16  1  0.832390  0.503197  0.832036  1
  Hg  Hg17  1  0.835265  0.831439  0.835148  1
  Hg  Hg18  1  0.835518  0.831517  0.497443  1
  Hg  Hg19  1  0.498159  0.831428  0.835147  1
  Rh  Rh20  1  0.393086  0.820118  0.393718  1
  Rh  Rh21  1  0.392608  0.393310  0.393142  1
  Rh  Rh22  1  0.820923  0.393301  0.393150  1
  Rh  Rh23  1  0.392666  0.393592  0.821085  1
