# generated using pymatgen
data_Na(AgSe)4
_symmetry_space_group_name_H-M   'P 1'
_cell_length_a   4.38686400
_cell_length_b   4.38686479
_cell_length_c   13.17555500
_cell_angle_alpha   90.00000000
_cell_angle_beta   90.00000000
_cell_angle_gamma   120.00000914
_symmetry_Int_Tables_number   1
_chemical_formula_structural   Na(AgSe)4
_chemical_formula_sum   'Na1 Ag4 Se4'
_cell_volume   219.58765940
_cell_formula_units_Z   1
loop_
 _symmetry_equiv_pos_site_id
 _symmetry_equiv_pos_as_xyz
  1  'x, y, z'
loop_
 _atom_site_type_symbol
 _atom_site_label
 _atom_site_symmetry_multiplicity
 _atom_site_fract_x
 _atom_site_fract_y
 _atom_site_fract_z
 _atom_site_occupancy
  Na  Na0  1  0.000000  0.000000  0.500000  1
  Ag  Ag1  1  0.666667  0.333333  0.842895  1
  Ag  Ag2  1  0.333333  0.666667  0.157105  1
  Ag  Ag3  1  0.333333  0.666667  0.689305  1
  Ag  Ag4  1  0.666667  0.333333  0.310695  1
  Se  Se5  1  0.000000  0.000000  0.909743  1
  Se  Se6  1  0.000000  0.000000  0.090257  1
  Se  Se7  1  0.666667  0.333333  0.638345  1
  Se  Se8  1  0.333333  0.666667  0.361655  1
