# generated using pymatgen
data_PrSi4Ir5Rh
_symmetry_space_group_name_H-M   'P 1'
_cell_length_a   7.05061802
_cell_length_b   7.06656628
_cell_length_c   3.87934800
_cell_angle_alpha   90.00000000
_cell_angle_beta   90.00000000
_cell_angle_gamma   120.07485049
_symmetry_Int_Tables_number   1
_chemical_formula_structural   PrSi4Ir5Rh
_chemical_formula_sum   'Pr1 Si4 Ir5 Rh1'
_cell_volume   167.26186581
_cell_formula_units_Z   1
loop_
 _symmetry_equiv_pos_site_id
 _symmetry_equiv_pos_as_xyz
  1  'x, y, z'
loop_
 _atom_site_type_symbol
 _atom_site_label
 _atom_site_symmetry_multiplicity
 _atom_site_fract_x
 _atom_site_fract_y
 _atom_site_fract_z
 _atom_site_occupancy
  Pr  Pr0  1  0.999028  0.999514  0.000000  1
  Si  Si1  1  0.334091  0.667046  0.000000  1
  Si  Si2  1  0.398177  0.199087  0.499999  1
  Si  Si3  1  0.799932  0.200208  0.499999  1
  Si  Si4  1  0.799933  0.599724  0.499999  1
  Ir  Ir5  1  0.533268  0.065414  0.000000  1
  Ir  Ir6  1  0.935167  0.467584  0.000000  1
  Ir  Ir7  1  0.533268  0.467855  0.000000  1
  Ir  Ir8  1  0.199616  0.399220  0.499999  1
  Ir  Ir9  1  0.199616  0.800397  0.499999  1
  Rh  Rh10  1  0.601237  0.800619  0.499999  1
