# generated using pymatgen
data_Dy4ErSi9P3Ir19
_symmetry_space_group_name_H-M   'P 1'
_cell_length_a   12.83093200
_cell_length_b   12.83066539
_cell_length_c   3.94670100
_cell_angle_alpha   90.00000000
_cell_angle_beta   90.00000000
_cell_angle_gamma   119.99931389
_symmetry_Int_Tables_number   1
_chemical_formula_structural   Dy4ErSi9P3Ir19
_chemical_formula_sum   'Dy4 Er1 Si9 P3 Ir19'
_cell_volume   562.69783286
_cell_formula_units_Z   1
loop_
 _symmetry_equiv_pos_site_id
 _symmetry_equiv_pos_as_xyz
  1  'x, y, z'
loop_
 _atom_site_type_symbol
 _atom_site_label
 _atom_site_symmetry_multiplicity
 _atom_site_fract_x
 _atom_site_fract_y
 _atom_site_fract_z
 _atom_site_occupancy
  Dy  Dy0  1  0.666650  0.333327  0.000000  1
  Dy  Dy1  1  0.333350  0.666678  0.000000  1
  Dy  Dy2  1  0.814493  0.814498  0.500000  1
  Dy  Dy3  1  0.185507  0.000005  0.500000  1
  Er  Er4  1  0.000000  0.185710  0.500000  1
  Si  Si5  1  0.686321  0.167297  0.500000  1
  Si  Si6  1  0.832689  0.519005  0.500000  1
  Si  Si7  1  0.480946  0.313656  0.500000  1
  Si  Si8  1  0.167311  0.686317  0.500000  1
  Si  Si9  1  0.519054  0.832709  0.500000  1
  Si  Si10  1  0.313679  0.480976  0.500000  1
  Si  Si11  1  0.633063  0.633059  0.000000  1
  Si  Si12  1  0.366937  0.999996  0.000000  1
  Si  Si13  1  0.000000  0.366697  0.000000  1
  P  P14  1  0.178211  0.178388  0.000000  1
  P  P15  1  0.821789  0.000177  0.000000  1
  P  P16  1  0.000000  0.821655  0.000000  1
  Ir  Ir17  1  0.807305  0.179578  0.000000  1
  Ir  Ir18  1  0.820448  0.627326  0.000000  1
  Ir  Ir19  1  0.372675  0.193132  0.000000  1
  Ir  Ir20  1  0.179552  0.806878  0.000000  1
  Ir  Ir21  1  0.627325  0.820457  0.000000  1
  Ir  Ir22  1  0.192695  0.372272  0.000000  1
  Ir  Ir23  1  0.447107  0.447096  0.000000  1
  Ir  Ir24  1  0.552893  0.999988  0.000000  1
  Ir  Ir25  1  0.000000  0.552850  0.000000  1
  Ir  Ir26  1  0.277829  0.277987  0.500000  1
  Ir  Ir27  1  0.722171  0.000158  0.500000  1
  Ir  Ir28  1  0.000000  0.721896  0.500000  1
  Ir  Ir29  1  0.872488  0.359622  0.500000  1
  Ir  Ir30  1  0.640316  0.512755  0.500000  1
  Ir  Ir31  1  0.487218  0.127539  0.500000  1
  Ir  Ir32  1  0.359684  0.872438  0.500000  1
  Ir  Ir33  1  0.512782  0.640320  0.500000  1
  Ir  Ir34  1  0.127512  0.487133  0.500000  1
  Ir  Ir35  1  0.000000  0.000425  0.000000  1
