# generated using pymatgen
data_TbLu3InPt11
_symmetry_space_group_name_H-M   'P 1'
_cell_length_a   4.15986300
_cell_length_b   5.81044211
_cell_length_c   11.60722923
_cell_angle_alpha   88.02687385
_cell_angle_beta   90.00000000
_cell_angle_gamma   90.00000000
_symmetry_Int_Tables_number   1
_chemical_formula_structural   TbLu3InPt11
_chemical_formula_sum   'Tb1 Lu3 In1 Pt11'
_cell_volume   280.38785108
_cell_formula_units_Z   1
loop_
 _symmetry_equiv_pos_site_id
 _symmetry_equiv_pos_as_xyz
  1  'x, y, z'
loop_
 _atom_site_type_symbol
 _atom_site_label
 _atom_site_symmetry_multiplicity
 _atom_site_fract_x
 _atom_site_fract_y
 _atom_site_fract_z
 _atom_site_occupancy
  Tb  Tb0  1  0.500000  0.759135  0.375947  1
  Lu  Lu1  1  0.500000  0.714212  0.862271  1
  Lu  Lu2  1  0.500000  0.285617  0.137462  1
  Lu  Lu3  1  0.500000  0.240974  0.624312  1
  In  In4  1  0.000000  0.000232  0.999403  1
  Pt  Pt5  1  0.000000  0.022128  0.247735  1
  Pt  Pt6  1  0.000000  0.980547  0.750874  1
  Pt  Pt7  1  0.000000  0.499766  0.999557  1
  Pt  Pt8  1  0.000000  0.497442  0.501827  1
  Pt  Pt9  1  0.000000  0.519059  0.248199  1
  Pt  Pt10  1  0.000000  0.478351  0.750465  1
  Pt  Pt11  1  0.500000  0.258476  0.377505  1
  Pt  Pt12  1  0.500000  0.226309  0.879731  1
  Pt  Pt13  1  0.500000  0.773833  0.118322  1
  Pt  Pt14  1  0.500000  0.741526  0.624569  1
  Pt  Pt15  1  0.000000  0.002395  0.501819  1
