# generated using pymatgen
data_Ce2Th2Al18RuRh5
_symmetry_space_group_name_H-M   'P 1'
_cell_length_a   7.63414015
_cell_length_b   7.65234149
_cell_length_c   9.50007983
_cell_angle_alpha   89.93420230
_cell_angle_beta   89.91764931
_cell_angle_gamma   119.30736404
_symmetry_Int_Tables_number   1
_chemical_formula_structural   Ce2Th2Al18RuRh5
_chemical_formula_sum   'Ce2 Th2 Al18 Ru1 Rh5'
_cell_volume   483.94939715
_cell_formula_units_Z   1
loop_
 _symmetry_equiv_pos_site_id
 _symmetry_equiv_pos_as_xyz
  1  'x, y, z'
loop_
 _atom_site_type_symbol
 _atom_site_label
 _atom_site_symmetry_multiplicity
 _atom_site_fract_x
 _atom_site_fract_y
 _atom_site_fract_z
 _atom_site_occupancy
  Ce  Ce0  1  0.672765  0.995238  0.249233  1
  Ce  Ce1  1  0.327235  0.004762  0.750767  1
  Th  Th2  1  0.995144  0.673093  0.249387  1
  Th  Th3  1  0.004856  0.326907  0.750613  1
  Al  Al4  1  0.002625  0.332373  0.076936  1
  Al  Al5  1  0.997375  0.667627  0.923064  1
  Al  Al6  1  0.997853  0.666466  0.577241  1
  Al  Al7  1  0.338534  0.004468  0.426041  1
  Al  Al8  1  0.002147  0.333534  0.422759  1
  Al  Al9  1  0.661466  0.995532  0.573959  1
  Al  Al10  1  0.662507  0.995065  0.926396  1
  Al  Al11  1  0.337493  0.004935  0.073604  1
  Al  Al12  1  0.336143  0.334153  0.547195  1
  Al  Al13  1  0.663857  0.665847  0.452805  1
  Al  Al14  1  0.665342  0.667253  0.046604  1
  Al  Al15  1  0.334658  0.332747  0.953396  1
  Al  Al16  1  0.131289  0.132111  0.249168  1
  Al  Al17  1  0.868711  0.867889  0.750832  1
  Al  Al18  1  0.344178  0.549506  0.250157  1
  Al  Al19  1  0.655822  0.450494  0.749843  1
  Al  Al20  1  0.546927  0.339756  0.250115  1
  Al  Al21  1  0.453073  0.660244  0.749885  1
  Ru  Ru22  1  0.000000  0.000000  0.000000  1
  Rh  Rh23  1  0.673538  0.329417  0.000044  1
  Rh  Rh24  1  0.326462  0.670583  0.999956  1
  Rh  Rh25  1  0.326581  0.670677  0.500067  1
  Rh  Rh26  1  0.673419  0.329323  0.499933  1
  Rh  Rh27  1  0.000000  0.000000  0.500000  1
