# generated using pymatgen
data_ErCrF7
_symmetry_space_group_name_H-M   'P 1'
_cell_length_a   5.53339802
_cell_length_b   5.79985138
_cell_length_c   8.06609653
_cell_angle_alpha   103.24797621
_cell_angle_beta   90.00961364
_cell_angle_gamma   90.00094652
_symmetry_Int_Tables_number   1
_chemical_formula_structural   ErCrF7
_chemical_formula_sum   'Er2 Cr2 F14'
_cell_volume   251.97524935
_cell_formula_units_Z   2
loop_
 _symmetry_equiv_pos_site_id
 _symmetry_equiv_pos_as_xyz
  1  'x, y, z'
loop_
 _atom_site_type_symbol
 _atom_site_label
 _atom_site_symmetry_multiplicity
 _atom_site_fract_x
 _atom_site_fract_y
 _atom_site_fract_z
 _atom_site_occupancy
  Er  Er0  1  0.700150  0.653667  0.693067  1
  Er  Er1  1  0.200064  0.346387  0.306846  1
  Cr  Cr2  1  0.708341  0.815248  0.224051  1
  Cr  Cr3  1  0.208568  0.184710  0.776035  1
  F  F4  1  0.903931  0.454667  0.484535  1
  F  F5  1  0.403847  0.545310  0.515413  1
  F  F6  1  0.422653  0.937765  0.769369  1
  F  F7  1  0.922540  0.062305  0.230684  1
  F  F8  1  0.950164  0.962506  0.759689  1
  F  F9  1  0.449816  0.037443  0.240357  1
  F  F10  1  0.998262  0.436266  0.794424  1
  F  F11  1  0.498027  0.563862  0.205588  1
  F  F12  1  0.702910  0.768041  0.989730  1
  F  F13  1  0.203161  0.231906  0.010264  1
  F  F14  1  0.709548  0.869291  0.455552  1
  F  F15  1  0.209657  0.130677  0.544466  1
  F  F16  1  0.480744  0.388951  0.791470  1
  F  F17  1  0.980339  0.610997  0.208464  1
