# generated using pymatgen
data_Lu3In3Ag2Os
_symmetry_space_group_name_H-M   'P 1'
_cell_length_a   7.93173900
_cell_length_b   7.93173834
_cell_length_c   3.65886700
_cell_angle_alpha   90.00000000
_cell_angle_beta   90.00000000
_cell_angle_gamma   119.99999857
_symmetry_Int_Tables_number   1
_chemical_formula_structural   Lu3In3Ag2Os
_chemical_formula_sum   'Lu3 In3 Ag2 Os1'
_cell_volume   199.34899707
_cell_formula_units_Z   1
loop_
 _symmetry_equiv_pos_site_id
 _symmetry_equiv_pos_as_xyz
  1  'x, y, z'
loop_
 _atom_site_type_symbol
 _atom_site_label
 _atom_site_symmetry_multiplicity
 _atom_site_fract_x
 _atom_site_fract_y
 _atom_site_fract_z
 _atom_site_occupancy
  Lu  Lu0  1  0.035337  0.615267  0.500000  1
  Lu  Lu1  1  0.579929  0.964663  0.500000  1
  Lu  Lu2  1  0.384733  0.420071  0.500000  1
  In  In3  1  0.995961  0.273098  0.000000  1
  In  In4  1  0.277137  0.004039  0.000000  1
  In  In5  1  0.726902  0.722863  0.000000  1
  Ag  Ag6  1  0.000000  0.000000  0.500000  1
  Ag  Ag7  1  0.666667  0.333333  0.000000  1
  Os  Os8  1  0.333333  0.666667  0.000000  1
