# generated using pymatgen
data_DyTm3(Al3Rh)6
_symmetry_space_group_name_H-M   'P 1'
_cell_length_a   7.53289158
_cell_length_b   7.53375485
_cell_length_c   9.44964300
_cell_angle_alpha   90.00000000
_cell_angle_beta   90.00000000
_cell_angle_gamma   119.50499551
_symmetry_Int_Tables_number   1
_chemical_formula_structural   DyTm3(Al3Rh)6
_chemical_formula_sum   'Dy1 Tm3 Al18 Rh6'
_cell_volume   466.72810367
_cell_formula_units_Z   1
loop_
 _symmetry_equiv_pos_site_id
 _symmetry_equiv_pos_as_xyz
  1  'x, y, z'
loop_
 _atom_site_type_symbol
 _atom_site_label
 _atom_site_symmetry_multiplicity
 _atom_site_fract_x
 _atom_site_fract_y
 _atom_site_fract_z
 _atom_site_occupancy
  Dy  Dy0  1  0.994867  0.670382  0.250000  1
  Tm  Tm1  1  0.005064  0.329336  0.750000  1
  Tm  Tm2  1  0.670559  0.994934  0.250000  1
  Tm  Tm3  1  0.329418  0.005174  0.750000  1
  Al  Al4  1  0.126960  0.127422  0.250000  1
  Al  Al5  1  0.873380  0.873676  0.750000  1
  Al  Al6  1  0.000561  0.334210  0.074210  1
  Al  Al7  1  0.999404  0.665128  0.924280  1
  Al  Al8  1  0.999404  0.665128  0.575720  1
  Al  Al9  1  0.335305  0.001115  0.425699  1
  Al  Al10  1  0.000561  0.334210  0.425790  1
  Al  Al11  1  0.665175  0.999507  0.574884  1
  Al  Al12  1  0.665175  0.999507  0.925116  1
  Al  Al13  1  0.335305  0.001115  0.074301  1
  Al  Al14  1  0.332795  0.332793  0.553988  1
  Al  Al15  1  0.666733  0.667217  0.447302  1
  Al  Al16  1  0.666733  0.667217  0.052698  1
  Al  Al17  1  0.332795  0.332793  0.946012  1
  Al  Al18  1  0.339333  0.549175  0.250000  1
  Al  Al19  1  0.660995  0.450451  0.750000  1
  Al  Al20  1  0.548612  0.338145  0.250000  1
  Al  Al21  1  0.450624  0.661296  0.750000  1
  Rh  Rh22  1  0.671895  0.327373  0.999842  1
  Rh  Rh23  1  0.327657  0.671951  0.999525  1
  Rh  Rh24  1  0.327657  0.671951  0.500475  1
  Rh  Rh25  1  0.671895  0.327373  0.500158  1
  Rh  Rh26  1  0.000569  0.000710  0.999754  1
  Rh  Rh27  1  0.000569  0.000710  0.500246  1
