# generated using pymatgen
data_TmLu3MoOsC4
_symmetry_space_group_name_H-M   'P 1'
_cell_length_a   4.98758600
_cell_length_b   6.50667010
_cell_length_c   9.70670850
_cell_angle_alpha   88.98772602
_cell_angle_beta   90.00000000
_cell_angle_gamma   90.00000000
_symmetry_Int_Tables_number   1
_chemical_formula_structural   TmLu3MoOsC4
_chemical_formula_sum   'Tm2 Lu6 Mo2 Os2 C8'
_cell_volume   314.95854000
_cell_formula_units_Z   2
loop_
 _symmetry_equiv_pos_site_id
 _symmetry_equiv_pos_as_xyz
  1  'x, y, z'
loop_
 _atom_site_type_symbol
 _atom_site_label
 _atom_site_symmetry_multiplicity
 _atom_site_fract_x
 _atom_site_fract_y
 _atom_site_fract_z
 _atom_site_occupancy
  Tm  Tm0  1  0.750000  0.965660  0.714733  1
  Tm  Tm1  1  0.250000  0.034340  0.285267  1
  Lu  Lu2  1  0.250000  0.673565  0.559440  1
  Lu  Lu3  1  0.750000  0.326435  0.440560  1
  Lu  Lu4  1  0.750000  0.830210  0.060248  1
  Lu  Lu5  1  0.250000  0.169790  0.939752  1
  Lu  Lu6  1  0.250000  0.542886  0.220165  1
  Lu  Lu7  1  0.750000  0.457114  0.779835  1
  Mo  Mo8  1  0.250000  0.709902  0.871563  1
  Mo  Mo9  1  0.750000  0.290098  0.128437  1
  Os  Os10  1  0.750000  0.783688  0.370625  1
  Os  Os11  1  0.250000  0.216312  0.629375  1
  C  C12  1  0.250000  0.443141  0.757843  1
  C  C13  1  0.750000  0.556859  0.242157  1
  C  C14  1  0.750000  0.053460  0.260478  1
  C  C15  1  0.250000  0.946540  0.739522  1
  C  C16  1  0.250000  0.828549  0.057608  1
  C  C17  1  0.750000  0.171451  0.942392  1
  C  C18  1  0.750000  0.667625  0.554028  1
  C  C19  1  0.250000  0.332375  0.445972  1
