# generated using pymatgen
data_Sr15La2Pr3Pt16
_symmetry_space_group_name_H-M   'P 1'
_cell_length_a   7.94477238
_cell_length_b   8.10994683
_cell_length_c   15.63824017
_cell_angle_alpha   90.07285004
_cell_angle_beta   90.16435492
_cell_angle_gamma   90.14175509
_symmetry_Int_Tables_number   1
_chemical_formula_structural   Sr15La2Pr3Pt16
_chemical_formula_sum   'Sr15 La2 Pr3 Pt16'
_cell_volume   1007.59005807
_cell_formula_units_Z   1
loop_
 _symmetry_equiv_pos_site_id
 _symmetry_equiv_pos_as_xyz
  1  'x, y, z'
loop_
 _atom_site_type_symbol
 _atom_site_label
 _atom_site_symmetry_multiplicity
 _atom_site_fract_x
 _atom_site_fract_y
 _atom_site_fract_z
 _atom_site_occupancy
  Sr  Sr0  1  0.164385  0.327920  0.379836  1
  Sr  Sr1  1  0.336817  0.827780  0.619491  1
  Sr  Sr2  1  0.837413  0.671956  0.881650  1
  Sr  Sr3  1  0.492035  0.323123  0.903550  1
  Sr  Sr4  1  0.990945  0.178644  0.597289  1
  Sr  Sr5  1  0.508325  0.679717  0.402580  1
  Sr  Sr6  1  0.009073  0.820822  0.096045  1
  Sr  Sr7  1  0.506256  0.679206  0.095727  1
  Sr  Sr8  1  0.006822  0.819138  0.406536  1
  Sr  Sr9  1  0.493743  0.318896  0.594507  1
  Sr  Sr10  1  0.993089  0.181122  0.904886  1
  Sr  Sr11  1  0.174697  0.486968  0.749823  1
  Sr  Sr12  1  0.675368  0.013994  0.750781  1
  Sr  Sr13  1  0.827726  0.516538  0.250283  1
  Sr  Sr14  1  0.321663  0.985021  0.250620  1
  La  La15  1  0.335816  0.833008  0.878149  1
  La  La16  1  0.834343  0.669472  0.623435  1
  Pr  Pr17  1  0.665099  0.169836  0.375725  1
  Pr  Pr18  1  0.163945  0.329311  0.122265  1
  Pr  Pr19  1  0.662702  0.171601  0.121353  1
  Pt  Pt20  1  0.330494  0.041908  0.039184  1
  Pt  Pt21  1  0.820656  0.460762  0.463356  1
  Pt  Pt22  1  0.679248  0.959574  0.535975  1
  Pt  Pt23  1  0.175217  0.541338  0.964157  1
  Pt  Pt24  1  0.652302  0.973696  0.960910  1
  Pt  Pt25  1  0.142122  0.531121  0.543720  1
  Pt  Pt26  1  0.356498  0.031063  0.455630  1
  Pt  Pt27  1  0.844993  0.455349  0.044124  1
  Pt  Pt28  1  0.544146  0.623473  0.753965  1
  Pt  Pt29  1  0.045213  0.878741  0.748825  1
  Pt  Pt30  1  0.460189  0.373272  0.245661  1
  Pt  Pt31  1  0.950439  0.124006  0.243808  1
  Pt  Pt32  1  0.289305  0.121080  0.755417  1
  Pt  Pt33  1  0.787216  0.380393  0.745047  1
  Pt  Pt34  1  0.706266  0.883073  0.249992  1
  Pt  Pt35  1  0.215435  0.617075  0.245696  1
