# generated using pymatgen
data_YTm2Pa(ReB6)2
_symmetry_space_group_name_H-M   'P 1'
_cell_length_a   3.68408900
_cell_length_b   9.13415672
_cell_length_c   11.51324301
_cell_angle_alpha   90.31636422
_cell_angle_beta   90.00000000
_cell_angle_gamma   90.00000000
_symmetry_Int_Tables_number   1
_chemical_formula_structural   YTm2Pa(ReB6)2
_chemical_formula_sum   'Y2 Tm4 Pa2 Re4 B24'
_cell_volume   387.42676722
_cell_formula_units_Z   2
loop_
 _symmetry_equiv_pos_site_id
 _symmetry_equiv_pos_as_xyz
  1  'x, y, z'
loop_
 _atom_site_type_symbol
 _atom_site_label
 _atom_site_symmetry_multiplicity
 _atom_site_fract_x
 _atom_site_fract_y
 _atom_site_fract_z
 _atom_site_occupancy
  Y  Y0  1  0.000000  0.823115  0.085870  1
  Y  Y1  1  0.000000  0.176885  0.914130  1
  Tm  Tm2  1  0.000000  0.944842  0.372657  1
  Tm  Tm3  1  0.000000  0.055158  0.627343  1
  Tm  Tm4  1  0.000000  0.443895  0.126713  1
  Tm  Tm5  1  0.000000  0.556105  0.873287  1
  Pa  Pa6  1  0.000000  0.321099  0.413378  1
  Pa  Pa7  1  0.000000  0.678901  0.586622  1
  Re  Re8  1  0.000000  0.635575  0.324312  1
  Re  Re9  1  0.000000  0.364425  0.675688  1
  Re  Re10  1  0.000000  0.141026  0.182434  1
  Re  Re11  1  0.000000  0.858974  0.817566  1
  B  B12  1  0.500000  0.553682  0.432995  1
  B  B13  1  0.500000  0.446318  0.567005  1
  B  B14  1  0.500000  0.053729  0.067753  1
  B  B15  1  0.500000  0.946271  0.932247  1
  B  B16  1  0.500000  0.749324  0.419559  1
  B  B17  1  0.500000  0.250676  0.580441  1
  B  B18  1  0.500000  0.249140  0.080923  1
  B  B19  1  0.500000  0.750860  0.919077  1
  B  B20  1  0.500000  0.791809  0.265879  1
  B  B21  1  0.500000  0.208191  0.734121  1
  B  B22  1  0.500000  0.292736  0.234300  1
  B  B23  1  0.500000  0.707264  0.765700  1
  B  B24  1  0.500000  0.630541  0.185309  1
  B  B25  1  0.500000  0.369459  0.814691  1
  B  B26  1  0.500000  0.131639  0.314904  1
  B  B27  1  0.500000  0.868361  0.685096  1
  B  B28  1  0.500000  0.982106  0.213014  1
  B  B29  1  0.500000  0.017894  0.786986  1
  B  B30  1  0.500000  0.482463  0.286451  1
  B  B31  1  0.500000  0.517537  0.713549  1
  B  B32  1  0.500000  0.602207  0.028549  1
  B  B33  1  0.500000  0.397793  0.971451  1
  B  B34  1  0.500000  0.107808  0.470287  1
  B  B35  1  0.500000  0.892192  0.529713  1
