# generated using pymatgen
data_La2YAl12Os3Pd
_symmetry_space_group_name_H-M   'P 1'
_cell_length_a   8.89020600
_cell_length_b   8.99262959
_cell_length_c   9.67427112
_cell_angle_alpha   89.93515378
_cell_angle_beta   90.00000000
_cell_angle_gamma   119.62393338
_symmetry_Int_Tables_number   1
_chemical_formula_structural   La2YAl12Os3Pd
_chemical_formula_sum   'La4 Y2 Al24 Os6 Pd2'
_cell_volume   672.32670638
_cell_formula_units_Z   2
loop_
 _symmetry_equiv_pos_site_id
 _symmetry_equiv_pos_as_xyz
  1  'x, y, z'
loop_
 _atom_site_type_symbol
 _atom_site_label
 _atom_site_symmetry_multiplicity
 _atom_site_fract_x
 _atom_site_fract_y
 _atom_site_fract_z
 _atom_site_occupancy
  La  La0  1  0.618483  0.812864  0.253562  1
  La  La1  1  0.381517  0.187136  0.746438  1
  La  La2  1  0.194379  0.812864  0.253562  1
  La  La3  1  0.805621  0.187136  0.746438  1
  Y  Y4  1  0.192536  0.385073  0.252620  1
  Y  Y5  1  0.807464  0.614927  0.747380  1
  Al  Al6  1  0.335280  0.670562  0.016622  1
  Al  Al7  1  0.664720  0.329438  0.983378  1
  Al  Al8  1  0.667594  0.335185  0.513685  1
  Al  Al9  1  0.332406  0.664815  0.486315  1
  Al  Al10  1  0.163982  0.327965  0.570783  1
  Al  Al11  1  0.836018  0.672035  0.429217  1
  Al  Al12  1  0.672951  0.833460  0.576312  1
  Al  Al13  1  0.838265  0.676530  0.077285  1
  Al  Al14  1  0.327049  0.166540  0.423688  1
  Al  Al15  1  0.161735  0.323470  0.922715  1
  Al  Al16  1  0.160509  0.833460  0.576312  1
  Al  Al17  1  0.325035  0.159332  0.078054  1
  Al  Al18  1  0.839491  0.166540  0.423688  1
  Al  Al19  1  0.674965  0.840668  0.921946  1
  Al  Al20  1  0.834299  0.159332  0.078054  1
  Al  Al21  1  0.165701  0.840668  0.921946  1
  Al  Al22  1  0.564211  0.128423  0.248807  1
  Al  Al23  1  0.435789  0.871577  0.751193  1
  Al  Al24  1  0.875016  0.437312  0.252190  1
  Al  Al25  1  0.124984  0.562688  0.747810  1
  Al  Al26  1  0.562298  0.437312  0.252190  1
  Al  Al27  1  0.437702  0.562688  0.747810  1
  Al  Al28  1  0.004707  0.009414  0.250544  1
  Al  Al29  1  0.995293  0.990586  0.749456  1
  Os  Os30  1  0.500000  0.000000  0.000000  1
  Os  Os31  1  0.500000  0.000000  0.500000  1
  Os  Os32  1  0.000000  0.500000  0.500000  1
  Os  Os33  1  0.500000  0.500000  0.500000  1
  Os  Os34  1  0.000000  0.000000  0.000000  1
  Os  Os35  1  0.000000  0.000000  0.500000  1
  Pd  Pd36  1  0.000000  0.500000  0.000000  1
  Pd  Pd37  1  0.500000  0.500000  0.000000  1
