# generated using pymatgen
data_Ti4Si2Ir9Rh
_symmetry_space_group_name_H-M   'P 1'
_cell_length_a   3.94477100
_cell_length_b   5.44044997
_cell_length_c   10.67526787
_cell_angle_alpha   89.93180492
_cell_angle_beta   90.00000000
_cell_angle_gamma   90.00000000
_symmetry_Int_Tables_number   1
_chemical_formula_structural   Ti4Si2Ir9Rh
_chemical_formula_sum   'Ti4 Si2 Ir9 Rh1'
_cell_volume   229.10527667
_cell_formula_units_Z   1
loop_
 _symmetry_equiv_pos_site_id
 _symmetry_equiv_pos_as_xyz
  1  'x, y, z'
loop_
 _atom_site_type_symbol
 _atom_site_label
 _atom_site_symmetry_multiplicity
 _atom_site_fract_x
 _atom_site_fract_y
 _atom_site_fract_z
 _atom_site_occupancy
  Ti  Ti0  1  0.500000  0.323780  0.140073  1
  Ti  Ti1  1  0.500000  0.676220  0.859927  1
  Ti  Ti2  1  0.500000  0.822129  0.359514  1
  Ti  Ti3  1  0.500000  0.177871  0.640486  1
  Si  Si4  1  0.000000  0.000000  0.000000  1
  Si  Si5  1  0.000000  0.500000  0.500000  1
  Ir  Ir6  1  0.000000  0.000000  0.500000  1
  Ir  Ir7  1  0.000000  0.069185  0.245271  1
  Ir  Ir8  1  0.000000  0.930815  0.754729  1
  Ir  Ir9  1  0.000000  0.568776  0.254361  1
  Ir  Ir10  1  0.000000  0.431224  0.745639  1
  Ir  Ir11  1  0.500000  0.316542  0.393840  1
  Ir  Ir12  1  0.500000  0.683458  0.606160  1
  Ir  Ir13  1  0.500000  0.816860  0.106190  1
  Ir  Ir14  1  0.500000  0.183140  0.893810  1
  Rh  Rh15  1  0.000000  0.500000  0.000000  1
