# generated using pymatgen
data_Er12Al(InOs)2
_symmetry_space_group_name_H-M   'P 1'
_cell_length_a   8.40893119
_cell_length_b   8.40893125
_cell_length_c   8.40893079
_cell_angle_alpha   110.38994407
_cell_angle_beta   110.38994927
_cell_angle_gamma   107.64899259
_symmetry_Int_Tables_number   1
_chemical_formula_structural   Er12Al(InOs)2
_chemical_formula_sum   'Er12 Al1 In2 Os2'
_cell_volume   457.37475990
_cell_formula_units_Z   1
loop_
 _symmetry_equiv_pos_site_id
 _symmetry_equiv_pos_as_xyz
  1  'x, y, z'
loop_
 _atom_site_type_symbol
 _atom_site_label
 _atom_site_symmetry_multiplicity
 _atom_site_fract_x
 _atom_site_fract_y
 _atom_site_fract_z
 _atom_site_occupancy
  Er  Er0  1  0.315796  0.315796  0.631591  1
  Er  Er1  1  0.684204  0.684204  0.368409  1
  Er  Er2  1  0.315796  0.684204  0.000000  1
  Er  Er3  1  0.684204  0.315796  0.000000  1
  Er  Er4  1  0.446051  0.196801  0.249251  1
  Er  Er5  1  0.553949  0.803199  0.750749  1
  Er  Er6  1  0.947550  0.196801  0.750749  1
  Er  Er7  1  0.196801  0.947550  0.750749  1
  Er  Er8  1  0.052450  0.803199  0.249251  1
  Er  Er9  1  0.803199  0.052450  0.249251  1
  Er  Er10  1  0.196801  0.446051  0.249251  1
  Er  Er11  1  0.803199  0.553949  0.750749  1
  Al  Al12  1  0.000000  0.000000  0.000000  1
  In  In13  1  0.500000  0.000000  0.500000  1
  In  In14  1  0.000000  0.500000  0.500000  1
  Os  Os15  1  0.344761  0.344761  0.000000  1
  Os  Os16  1  0.655239  0.655239  0.000000  1
