# generated using pymatgen
data_Zr3TiNb2(SiTc)6
_symmetry_space_group_name_H-M   'P 1'
_cell_length_a   3.37060700
_cell_length_b   6.93382636
_cell_length_c   11.97124412
_cell_angle_alpha   89.73004913
_cell_angle_beta   90.00000000
_cell_angle_gamma   90.00000000
_symmetry_Int_Tables_number   1
_chemical_formula_structural   Zr3TiNb2(SiTc)6
_chemical_formula_sum   'Zr3 Ti1 Nb2 Si6 Tc6'
_cell_volume   279.77927912
_cell_formula_units_Z   1
loop_
 _symmetry_equiv_pos_site_id
 _symmetry_equiv_pos_as_xyz
  1  'x, y, z'
loop_
 _atom_site_type_symbol
 _atom_site_label
 _atom_site_symmetry_multiplicity
 _atom_site_fract_x
 _atom_site_fract_y
 _atom_site_fract_z
 _atom_site_occupancy
  Zr  Zr0  1  0.500000  0.297589  0.297308  1
  Zr  Zr1  1  0.500000  0.297227  0.702196  1
  Zr  Zr2  1  0.500000  0.798610  0.201145  1
  Ti  Ti3  1  0.500000  0.405792  0.999657  1
  Nb  Nb4  1  0.500000  0.902142  0.501857  1
  Nb  Nb5  1  0.500000  0.796002  0.799904  1
  Si  Si6  1  0.000000  0.992494  0.667324  1
  Si  Si7  1  0.000000  0.497218  0.159400  1
  Si  Si8  1  0.000000  0.501451  0.837637  1
  Si  Si9  1  0.000000  0.997335  0.338356  1
  Si  Si10  1  0.500000  0.005365  0.998579  1
  Si  Si11  1  0.500000  0.501908  0.499539  1
  Tc  Tc12  1  0.000000  0.746678  0.995785  1
  Tc  Tc13  1  0.000000  0.244385  0.502125  1
  Tc  Tc14  1  0.000000  0.629771  0.627266  1
  Tc  Tc15  1  0.000000  0.129924  0.124725  1
  Tc  Tc16  1  0.000000  0.126909  0.871815  1
  Tc  Tc17  1  0.000000  0.629397  0.375385  1
