# generated using pymatgen
data_Dy9ScPt18
_symmetry_space_group_name_H-M   'P 1'
_cell_length_a   9.74398076
_cell_length_b   9.74398076
_cell_length_c   5.76164200
_cell_angle_alpha   90.00000000
_cell_angle_beta   90.00000000
_cell_angle_gamma   90.30608415
_symmetry_Int_Tables_number   1
_chemical_formula_structural   Dy9ScPt18
_chemical_formula_sum   'Dy9 Sc1 Pt18'
_cell_volume   547.03222171
_cell_formula_units_Z   1
loop_
 _symmetry_equiv_pos_site_id
 _symmetry_equiv_pos_as_xyz
  1  'x, y, z'
loop_
 _atom_site_type_symbol
 _atom_site_label
 _atom_site_symmetry_multiplicity
 _atom_site_fract_x
 _atom_site_fract_y
 _atom_site_fract_z
 _atom_site_occupancy
  Dy  Dy0  1  0.452985  0.808323  0.000000  1
  Dy  Dy1  1  0.547015  0.191677  0.000000  1
  Dy  Dy2  1  0.191677  0.547015  0.000000  1
  Dy  Dy3  1  0.808323  0.452985  0.000000  1
  Dy  Dy4  1  0.309377  0.047161  0.500000  1
  Dy  Dy5  1  0.690623  0.952839  0.500000  1
  Dy  Dy6  1  0.952839  0.690623  0.500000  1
  Dy  Dy7  1  0.047161  0.309377  0.500000  1
  Dy  Dy8  1  0.000000  0.000000  0.000000  1
  Sc  Sc9  1  0.500000  0.500000  0.500000  1
  Pt  Pt10  1  0.192367  0.807633  0.251091  1
  Pt  Pt11  1  0.807633  0.192367  0.748909  1
  Pt  Pt12  1  0.807633  0.192367  0.251091  1
  Pt  Pt13  1  0.192367  0.807633  0.748909  1
  Pt  Pt14  1  0.441231  0.774432  0.500000  1
  Pt  Pt15  1  0.558769  0.225568  0.500000  1
  Pt  Pt16  1  0.225568  0.558769  0.500000  1
  Pt  Pt17  1  0.774432  0.441231  0.500000  1
  Pt  Pt18  1  0.310872  0.310872  0.251193  1
  Pt  Pt19  1  0.689128  0.689128  0.748807  1
  Pt  Pt20  1  0.689128  0.689128  0.251193  1
  Pt  Pt21  1  0.310872  0.310872  0.748807  1
  Pt  Pt22  1  0.281673  0.060419  0.000000  1
  Pt  Pt23  1  0.718327  0.939581  0.000000  1
  Pt  Pt24  1  0.939581  0.718327  0.000000  1
  Pt  Pt25  1  0.060419  0.281673  0.000000  1
  Pt  Pt26  1  0.000000  0.000000  0.500000  1
  Pt  Pt27  1  0.500000  0.500000  0.000000  1
