# generated using pymatgen
data_Y2TiSi3Rh4
_symmetry_space_group_name_H-M   'P 1'
_cell_length_a   4.06710700
_cell_length_b   4.06710700
_cell_length_c   10.39006300
_cell_angle_alpha   90.00000000
_cell_angle_beta   90.00000000
_cell_angle_gamma   90.00000000
_symmetry_Int_Tables_number   1
_chemical_formula_structural   Y2TiSi3Rh4
_chemical_formula_sum   'Y2 Ti1 Si3 Rh4'
_cell_volume   171.86576575
_cell_formula_units_Z   1
loop_
 _symmetry_equiv_pos_site_id
 _symmetry_equiv_pos_as_xyz
  1  'x, y, z'
loop_
 _atom_site_type_symbol
 _atom_site_label
 _atom_site_symmetry_multiplicity
 _atom_site_fract_x
 _atom_site_fract_y
 _atom_site_fract_z
 _atom_site_occupancy
  Y  Y0  1  0.500000  0.000000  0.241984  1
  Y  Y1  1  0.000000  0.500000  0.758016  1
  Ti  Ti2  1  0.500000  0.500000  0.500000  1
  Si  Si3  1  0.000000  0.000000  0.500000  1
  Si  Si4  1  0.000000  0.500000  0.125646  1
  Si  Si5  1  0.500000  0.000000  0.874354  1
  Rh  Rh6  1  0.000000  0.500000  0.356689  1
  Rh  Rh7  1  0.500000  0.000000  0.643311  1
  Rh  Rh8  1  0.500000  0.500000  0.000000  1
  Rh  Rh9  1  0.000000  0.000000  0.000000  1
