# generated using pymatgen
data_ZrInPd7PtSe
_symmetry_space_group_name_H-M   'P 1'
_cell_length_a   4.06258000
_cell_length_b   4.06258000
_cell_length_c   11.30335400
_cell_angle_alpha   90.00000000
_cell_angle_beta   90.00000000
_cell_angle_gamma   90.00000000
_symmetry_Int_Tables_number   1
_chemical_formula_structural   ZrInPd7PtSe
_chemical_formula_sum   'Zr1 In1 Pd7 Pt1 Se1'
_cell_volume   186.55684198
_cell_formula_units_Z   1
loop_
 _symmetry_equiv_pos_site_id
 _symmetry_equiv_pos_as_xyz
  1  'x, y, z'
loop_
 _atom_site_type_symbol
 _atom_site_label
 _atom_site_symmetry_multiplicity
 _atom_site_fract_x
 _atom_site_fract_y
 _atom_site_fract_z
 _atom_site_occupancy
  Zr  Zr0  1  0.500000  0.500000  0.824578  1
  In  In1  1  0.500000  0.500000  0.181265  1
  Pd  Pd2  1  0.500000  0.000000  0.996916  1
  Pd  Pd3  1  0.000000  0.500000  0.996916  1
  Pd  Pd4  1  0.500000  0.000000  0.644052  1
  Pd  Pd5  1  0.000000  0.500000  0.644052  1
  Pd  Pd6  1  0.500000  0.000000  0.358369  1
  Pd  Pd7  1  0.000000  0.500000  0.358369  1
  Pd  Pd8  1  0.000000  0.000000  0.176532  1
  Pt  Pt9  1  0.000000  0.000000  0.821101  1
  Se  Se10  1  0.000000  0.000000  0.497847  1
