# generated using pymatgen
data_Yb4Zn4CuRh3
_symmetry_space_group_name_H-M   'P 1'
_cell_length_a   4.09388300
_cell_length_b   6.90533619
_cell_length_c   7.90185923
_cell_angle_alpha   89.97247683
_cell_angle_beta   90.00000000
_cell_angle_gamma   90.00000000
_symmetry_Int_Tables_number   1
_chemical_formula_structural   Yb4Zn4CuRh3
_chemical_formula_sum   'Yb4 Zn4 Cu1 Rh3'
_cell_volume   223.38267788
_cell_formula_units_Z   1
loop_
 _symmetry_equiv_pos_site_id
 _symmetry_equiv_pos_as_xyz
  1  'x, y, z'
loop_
 _atom_site_type_symbol
 _atom_site_label
 _atom_site_symmetry_multiplicity
 _atom_site_fract_x
 _atom_site_fract_y
 _atom_site_fract_z
 _atom_site_occupancy
  Yb  Yb0  1  0.250000  0.522697  0.186130  1
  Yb  Yb1  1  0.750000  0.464635  0.815750  1
  Yb  Yb2  1  0.750000  0.977196  0.675896  1
  Yb  Yb3  1  0.250000  0.027475  0.320830  1
  Zn  Zn4  1  0.250000  0.645584  0.561772  1
  Zn  Zn5  1  0.750000  0.354891  0.437972  1
  Zn  Zn6  1  0.750000  0.856724  0.063939  1
  Zn  Zn7  1  0.250000  0.148582  0.937750  1
  Cu  Cu8  1  0.250000  0.776888  0.873827  1
  Rh  Rh9  1  0.750000  0.227210  0.126409  1
  Rh  Rh10  1  0.750000  0.727579  0.371594  1
  Rh  Rh11  1  0.250000  0.270538  0.628130  1
