# generated using pymatgen
data_Er8B24Ru2RhW
_symmetry_space_group_name_H-M   'P 1'
_cell_length_a   3.63755500
_cell_length_b   9.12726954
_cell_length_c   11.50896901
_cell_angle_alpha   90.24726506
_cell_angle_beta   90.00000000
_cell_angle_gamma   90.00000000
_symmetry_Int_Tables_number   1
_chemical_formula_structural   Er8B24Ru2RhW
_chemical_formula_sum   'Er8 B24 Ru2 Rh1 W1'
_cell_volume   382.10508806
_cell_formula_units_Z   1
loop_
 _symmetry_equiv_pos_site_id
 _symmetry_equiv_pos_as_xyz
  1  'x, y, z'
loop_
 _atom_site_type_symbol
 _atom_site_label
 _atom_site_symmetry_multiplicity
 _atom_site_fract_x
 _atom_site_fract_y
 _atom_site_fract_z
 _atom_site_occupancy
  Er  Er0  1  0.500000  0.317306  0.413110  1
  Er  Er1  1  0.500000  0.677073  0.587321  1
  Er  Er2  1  0.500000  0.178044  0.914758  1
  Er  Er3  1  0.500000  0.824735  0.084213  1
  Er  Er4  1  0.500000  0.444836  0.125581  1
  Er  Er5  1  0.500000  0.557644  0.871158  1
  Er  Er6  1  0.500000  0.055983  0.629184  1
  Er  Er7  1  0.500000  0.944453  0.374214  1
  B  B8  1  0.000000  0.106281  0.472395  1
  B  B9  1  0.000000  0.890949  0.530558  1
  B  B10  1  0.000000  0.396066  0.969407  1
  B  B11  1  0.000000  0.608539  0.028925  1
  B  B12  1  0.000000  0.131815  0.317483  1
  B  B13  1  0.000000  0.867466  0.684957  1
  B  B14  1  0.000000  0.369213  0.814605  1
  B  B15  1  0.000000  0.633045  0.183814  1
  B  B16  1  0.000000  0.050880  0.064360  1
  B  B17  1  0.000000  0.946334  0.932007  1
  B  B18  1  0.000000  0.445334  0.566261  1
  B  B19  1  0.000000  0.553066  0.433912  1
  B  B20  1  0.000000  0.483034  0.287292  1
  B  B21  1  0.000000  0.517027  0.711649  1
  B  B22  1  0.000000  0.016699  0.787255  1
  B  B23  1  0.000000  0.978813  0.213712  1
  B  B24  1  0.000000  0.251270  0.078382  1
  B  B25  1  0.000000  0.752229  0.918721  1
  B  B26  1  0.000000  0.250727  0.580650  1
  B  B27  1  0.000000  0.748594  0.421665  1
  B  B28  1  0.000000  0.295494  0.236209  1
  B  B29  1  0.000000  0.707998  0.765157  1
  B  B30  1  0.000000  0.208978  0.734522  1
  B  B31  1  0.000000  0.791683  0.266649  1
  Ru  Ru32  1  0.500000  0.860867  0.819880  1
  Ru  Ru33  1  0.500000  0.361984  0.679046  1
  Rh  Rh34  1  0.500000  0.637509  0.321826  1
  W  W35  1  0.500000  0.138033  0.179164  1
