# generated using pymatgen
data_Rb5Sb6
_symmetry_space_group_name_H-M   'P 1'
_cell_length_a   17.52894979
_cell_length_b   17.52894985
_cell_length_c   5.73783100
_cell_angle_alpha   90.00000000
_cell_angle_beta   90.00000000
_cell_angle_gamma   163.26772996
_symmetry_Int_Tables_number   1
_chemical_formula_structural   Rb5Sb6
_chemical_formula_sum   'Rb5 Sb6'
_cell_volume   507.57604650
_cell_formula_units_Z   1
loop_
 _symmetry_equiv_pos_site_id
 _symmetry_equiv_pos_as_xyz
  1  'x, y, z'
loop_
 _atom_site_type_symbol
 _atom_site_label
 _atom_site_symmetry_multiplicity
 _atom_site_fract_x
 _atom_site_fract_y
 _atom_site_fract_z
 _atom_site_occupancy
  Rb  Rb0  1  0.000000  0.000000  0.000000  1
  Rb  Rb1  1  0.618342  0.381658  0.000000  1
  Rb  Rb2  1  0.381658  0.618342  0.000000  1
  Rb  Rb3  1  0.803779  0.196220  0.500000  1
  Rb  Rb4  1  0.196220  0.803779  0.500000  1
  Sb  Sb5  1  0.731668  0.268332  0.000000  1
  Sb  Sb6  1  0.268332  0.731668  0.000000  1
  Sb  Sb7  1  0.916426  0.083574  0.500000  1
  Sb  Sb8  1  0.548652  0.451347  0.500000  1
  Sb  Sb9  1  0.451347  0.548652  0.500000  1
  Sb  Sb10  1  0.083574  0.916426  0.500000  1
