# generated using pymatgen
data_Cr7FeGe4(O2F)8
_symmetry_space_group_name_H-M   'P 1'
_cell_length_a   4.94571026
_cell_length_b   8.99262037
_cell_length_c   9.42633436
_cell_angle_alpha   89.98164071
_cell_angle_beta   89.97401686
_cell_angle_gamma   90.02689403
_symmetry_Int_Tables_number   1
_chemical_formula_structural   Cr7FeGe4(O2F)8
_chemical_formula_sum   'Cr7 Fe1 Ge4 O16 F8'
_cell_volume   419.23511855
_cell_formula_units_Z   1
loop_
 _symmetry_equiv_pos_site_id
 _symmetry_equiv_pos_as_xyz
  1  'x, y, z'
loop_
 _atom_site_type_symbol
 _atom_site_label
 _atom_site_symmetry_multiplicity
 _atom_site_fract_x
 _atom_site_fract_y
 _atom_site_fract_z
 _atom_site_occupancy
  Cr  Cr0  1  0.596961  0.083267  0.868870  1
  Cr  Cr1  1  0.903419  0.416999  0.369377  1
  Cr  Cr2  1  0.096708  0.582909  0.630567  1
  Cr  Cr3  1  0.403536  0.582462  0.130738  1
  Cr  Cr4  1  0.902575  0.083189  0.369738  1
  Cr  Cr5  1  0.096638  0.917065  0.630434  1
  Cr  Cr6  1  0.596544  0.417060  0.869288  1
  Fe  Fe7  1  0.402905  0.916377  0.129322  1
  Ge  Ge8  1  0.602871  0.749793  0.439957  1
  Ge  Ge9  1  0.897671  0.749373  0.938614  1
  Ge  Ge10  1  0.101611  0.250519  0.060572  1
  Ge  Ge11  1  0.397527  0.249969  0.560481  1
  O  O12  1  0.717469  0.912168  0.991893  1
  O  O13  1  0.783982  0.912406  0.493622  1
  O  O14  1  0.784445  0.587228  0.493597  1
  O  O15  1  0.216016  0.748805  0.027960  1
  O  O16  1  0.284738  0.088481  0.007426  1
  O  O17  1  0.284095  0.412774  0.006814  1
  O  O18  1  0.951482  0.749785  0.750700  1
  O  O19  1  0.282699  0.749959  0.527963  1
  O  O20  1  0.216417  0.087425  0.507046  1
  O  O21  1  0.548503  0.750237  0.251978  1
  O  O22  1  0.782233  0.250109  0.971959  1
  O  O23  1  0.216070  0.412439  0.506807  1
  O  O24  1  0.715456  0.587485  0.993170  1
  O  O25  1  0.717419  0.250530  0.472472  1
  O  O26  1  0.048632  0.250293  0.248706  1
  O  O27  1  0.451270  0.250063  0.748715  1
  F  F28  1  0.085521  0.936197  0.252589  1
  F  F29  1  0.086672  0.565266  0.252423  1
  F  F30  1  0.913434  0.434610  0.747617  1
  F  F31  1  0.413401  0.934744  0.752544  1
  F  F32  1  0.587273  0.064587  0.248637  1
  F  F33  1  0.586603  0.434612  0.247573  1
  F  F34  1  0.413549  0.565324  0.752419  1
  F  F35  1  0.913654  0.065492  0.747411  1
