# generated using pymatgen
data_TbEr2NiIr8
_symmetry_space_group_name_H-M   'P 1'
_cell_length_a   5.29888037
_cell_length_b   5.29887921
_cell_length_c   9.15265911
_cell_angle_alpha   73.17363768
_cell_angle_beta   73.17364044
_cell_angle_gamma   60.00000454
_symmetry_Int_Tables_number   1
_chemical_formula_structural   TbEr2NiIr8
_chemical_formula_sum   'Tb1 Er2 Ni1 Ir8'
_cell_volume   209.75854278
_cell_formula_units_Z   1
loop_
 _symmetry_equiv_pos_site_id
 _symmetry_equiv_pos_as_xyz
  1  'x, y, z'
loop_
 _atom_site_type_symbol
 _atom_site_label
 _atom_site_symmetry_multiplicity
 _atom_site_fract_x
 _atom_site_fract_y
 _atom_site_fract_z
 _atom_site_occupancy
  Tb  Tb0  1  0.000276  0.000276  0.999172  1
  Er  Er1  1  0.140718  0.140718  0.577848  1
  Er  Er2  1  0.860983  0.860983  0.417051  1
  Ni  Ni3  1  0.666844  0.666844  0.999468  1
  Ir  Ir4  1  0.077107  0.583614  0.755664  1
  Ir  Ir5  1  0.583614  0.583614  0.755664  1
  Ir  Ir6  1  0.583614  0.077107  0.755664  1
  Ir  Ir7  1  0.915360  0.419955  0.244731  1
  Ir  Ir8  1  0.419955  0.419955  0.244731  1
  Ir  Ir9  1  0.419955  0.915360  0.244731  1
  Ir  Ir10  1  0.332467  0.332467  0.002598  1
  Ir  Ir11  1  0.499108  0.499108  0.502677  1
