# generated using pymatgen
data_Lu6Fe3Si6Ru
_symmetry_space_group_name_H-M   'P 1'
_cell_length_a   5.54189715
_cell_length_b   5.54189900
_cell_length_c   13.39859903
_cell_angle_alpha   89.81123646
_cell_angle_beta   90.18876433
_cell_angle_gamma   136.94364418
_symmetry_Int_Tables_number   1
_chemical_formula_structural   Lu6Fe3Si6Ru
_chemical_formula_sum   'Lu6 Fe3 Si6 Ru1'
_cell_volume   280.94072430
_cell_formula_units_Z   1
loop_
 _symmetry_equiv_pos_site_id
 _symmetry_equiv_pos_as_xyz
  1  'x, y, z'
loop_
 _atom_site_type_symbol
 _atom_site_label
 _atom_site_symmetry_multiplicity
 _atom_site_fract_x
 _atom_site_fract_y
 _atom_site_fract_z
 _atom_site_occupancy
  Lu  Lu0  1  0.637982  0.362018  0.248813  1
  Lu  Lu1  1  0.362635  0.637365  0.750718  1
  Lu  Lu2  1  0.919450  0.080550  0.112050  1
  Lu  Lu3  1  0.079162  0.920838  0.890065  1
  Lu  Lu4  1  0.079798  0.920202  0.613266  1
  Lu  Lu5  1  0.922254  0.077746  0.384276  1
  Fe  Fe6  1  0.212435  0.787565  0.417595  1
  Fe  Fe7  1  0.212768  0.787232  0.081664  1
  Fe  Fe8  1  0.786103  0.213897  0.920535  1
  Si  Si9  1  0.326958  0.673042  0.249221  1
  Si  Si10  1  0.670918  0.329082  0.755036  1
  Si  Si11  1  0.622126  0.377874  0.039971  1
  Si  Si12  1  0.376889  0.623111  0.961275  1
  Si  Si13  1  0.384538  0.615462  0.534670  1
  Si  Si14  1  0.618370  0.381630  0.457416  1
  Ru  Ru15  1  0.787612  0.212388  0.583430  1
