# generated using pymatgen
data_La2As4Ir3Ru
_symmetry_space_group_name_H-M   'P 1'
_cell_length_a   4.35984300
_cell_length_b   4.35984300
_cell_length_c   9.96412000
_cell_angle_alpha   90.00000000
_cell_angle_beta   90.00000000
_cell_angle_gamma   90.00000000
_symmetry_Int_Tables_number   1
_chemical_formula_structural   La2As4Ir3Ru
_chemical_formula_sum   'La2 As4 Ir3 Ru1'
_cell_volume   189.40029452
_cell_formula_units_Z   1
loop_
 _symmetry_equiv_pos_site_id
 _symmetry_equiv_pos_as_xyz
  1  'x, y, z'
loop_
 _atom_site_type_symbol
 _atom_site_label
 _atom_site_symmetry_multiplicity
 _atom_site_fract_x
 _atom_site_fract_y
 _atom_site_fract_z
 _atom_site_occupancy
  La  La0  1  0.000000  0.500000  0.243725  1
  La  La1  1  0.500000  0.000000  0.756275  1
  As  As2  1  0.000000  0.000000  0.000000  1
  As  As3  1  0.500000  0.500000  0.000000  1
  As  As4  1  0.000000  0.500000  0.632505  1
  As  As5  1  0.500000  0.000000  0.367495  1
  Ir  Ir6  1  0.500000  0.500000  0.500000  1
  Ir  Ir7  1  0.000000  0.500000  0.880908  1
  Ir  Ir8  1  0.500000  0.000000  0.119092  1
  Ru  Ru9  1  0.000000  0.000000  0.500000  1
