# generated using pymatgen
data_Nd2Er4CrCo17P12
_symmetry_space_group_name_H-M   'P 1'
_cell_length_a   3.69132400
_cell_length_b   10.51432500
_cell_length_c   12.18318400
_cell_angle_alpha   90.00000000
_cell_angle_beta   90.00000000
_cell_angle_gamma   90.00000000
_symmetry_Int_Tables_number   1
_chemical_formula_structural   Nd2Er4CrCo17P12
_chemical_formula_sum   'Nd2 Er4 Cr1 Co17 P12'
_cell_volume   472.85105974
_cell_formula_units_Z   1
loop_
 _symmetry_equiv_pos_site_id
 _symmetry_equiv_pos_as_xyz
  1  'x, y, z'
loop_
 _atom_site_type_symbol
 _atom_site_label
 _atom_site_symmetry_multiplicity
 _atom_site_fract_x
 _atom_site_fract_y
 _atom_site_fract_z
 _atom_site_occupancy
  Nd  Nd0  1  0.750000  0.250000  0.476898  1
  Nd  Nd1  1  0.250000  0.750000  0.522540  1
  Er  Er2  1  0.250000  0.932373  0.795027  1
  Er  Er3  1  0.250000  0.567627  0.795027  1
  Er  Er4  1  0.750000  0.068110  0.203564  1
  Er  Er5  1  0.750000  0.431890  0.203564  1
  Cr  Cr6  1  0.250000  0.250000  0.846363  1
  Co  Co7  1  0.750000  0.750000  0.156987  1
  Co  Co8  1  0.250000  0.250000  0.293994  1
  Co  Co9  1  0.750000  0.750000  0.706977  1
  Co  Co10  1  0.750000  0.250000  0.012759  1
  Co  Co11  1  0.250000  0.750000  0.986083  1
  Co  Co12  1  0.250000  0.417246  0.006240  1
  Co  Co13  1  0.250000  0.082754  0.006240  1
  Co  Co14  1  0.750000  0.582869  0.994085  1
  Co  Co15  1  0.750000  0.917131  0.994085  1
  Co  Co16  1  0.250000  0.454102  0.571146  1
  Co  Co17  1  0.250000  0.045898  0.571146  1
  Co  Co18  1  0.750000  0.546108  0.429224  1
  Co  Co19  1  0.750000  0.953892  0.429224  1
  Co  Co20  1  0.250000  0.870966  0.287480  1
  Co  Co21  1  0.250000  0.629034  0.287480  1
  Co  Co22  1  0.750000  0.129407  0.712423  1
  Co  Co23  1  0.750000  0.370593  0.712423  1
  P  P24  1  0.250000  0.250000  0.117148  1
  P  P25  1  0.750000  0.750000  0.883768  1
  P  P26  1  0.250000  0.250000  0.659385  1
  P  P27  1  0.750000  0.750000  0.339163  1
  P  P28  1  0.250000  0.441762  0.381495  1
  P  P29  1  0.250000  0.058238  0.381495  1
  P  P30  1  0.750000  0.558473  0.618204  1
  P  P31  1  0.750000  0.941527  0.618204  1
  P  P32  1  0.250000  0.902868  0.106662  1
  P  P33  1  0.250000  0.597132  0.106662  1
  P  P34  1  0.750000  0.095943  0.893418  1
  P  P35  1  0.750000  0.404057  0.893418  1
