# generated using pymatgen
data_Dy4MnNbRu6
_symmetry_space_group_name_H-M   'P 1'
_cell_length_a   5.53990946
_cell_length_b   5.21816162
_cell_length_c   9.01372600
_cell_angle_alpha   90.00000000
_cell_angle_beta   90.00000000
_cell_angle_gamma   122.20665208
_symmetry_Int_Tables_number   1
_chemical_formula_structural   Dy4MnNbRu6
_chemical_formula_sum   'Dy4 Mn1 Nb1 Ru6'
_cell_volume   220.47649830
_cell_formula_units_Z   1
loop_
 _symmetry_equiv_pos_site_id
 _symmetry_equiv_pos_as_xyz
  1  'x, y, z'
loop_
 _atom_site_type_symbol
 _atom_site_label
 _atom_site_symmetry_multiplicity
 _atom_site_fract_x
 _atom_site_fract_y
 _atom_site_fract_z
 _atom_site_occupancy
  Dy  Dy0  1  0.668932  0.337632  0.569544  1
  Dy  Dy1  1  0.326821  0.652765  0.438226  1
  Dy  Dy2  1  0.326821  0.652765  0.061774  1
  Dy  Dy3  1  0.668932  0.337632  0.930456  1
  Mn  Mn4  1  0.162734  0.324888  0.750000  1
  Nb  Nb5  1  0.846222  0.688993  0.250000  1
  Ru  Ru6  1  0.996441  0.995687  0.507618  1
  Ru  Ru7  1  0.996441  0.995687  0.992382  1
  Ru  Ru8  1  0.179649  0.828519  0.750000  1
  Ru  Ru9  1  0.648523  0.828264  0.750000  1
  Ru  Ru10  1  0.824750  0.178084  0.250000  1
  Ru  Ru11  1  0.353736  0.179084  0.250000  1
