# generated using pymatgen
data_Ho6Sc4In8IrPdRh2
_symmetry_space_group_name_H-M   'P 1'
_cell_length_a   3.54092000
_cell_length_b   7.88135321
_cell_length_c   17.92388700
_cell_angle_alpha   89.94075847
_cell_angle_beta   90.00000000
_cell_angle_gamma   90.00000000
_symmetry_Int_Tables_number   1
_chemical_formula_structural   Ho6Sc4In8IrPdRh2
_chemical_formula_sum   'Ho6 Sc4 In8 Ir1 Pd1 Rh2'
_cell_volume   500.20597070
_cell_formula_units_Z   1
loop_
 _symmetry_equiv_pos_site_id
 _symmetry_equiv_pos_as_xyz
  1  'x, y, z'
loop_
 _atom_site_type_symbol
 _atom_site_label
 _atom_site_symmetry_multiplicity
 _atom_site_fract_x
 _atom_site_fract_y
 _atom_site_fract_z
 _atom_site_occupancy
  Ho  Ho0  1  0.000000  0.999981  0.999214  1
  Ho  Ho1  1  0.000000  0.499922  0.500579  1
  Ho  Ho2  1  0.000000  0.752809  0.782635  1
  Ho  Ho3  1  0.000000  0.255784  0.215103  1
  Ho  Ho4  1  0.000000  0.250326  0.717108  1
  Ho  Ho5  1  0.000000  0.741641  0.282191  1
  Sc  Sc6  1  0.000000  0.876886  0.589859  1
  Sc  Sc7  1  0.000000  0.123786  0.414044  1
  Sc  Sc8  1  0.000000  0.377369  0.910195  1
  Sc  Sc9  1  0.000000  0.622574  0.088649  1
  In  In10  1  0.500000  0.809727  0.439501  1
  In  In11  1  0.500000  0.188816  0.561124  1
  In  In12  1  0.500000  0.311309  0.060075  1
  In  In13  1  0.500000  0.688381  0.939567  1
  In  In14  1  0.500000  0.921391  0.149407  1
  In  In15  1  0.500000  0.077839  0.850239  1
  In  In16  1  0.500000  0.421720  0.350489  1
  In  In17  1  0.500000  0.577620  0.650542  1
  Ir  Ir18  1  0.500000  0.964955  0.693233  1
  Pd  Pd19  1  0.500000  0.036325  0.306612  1
  Rh  Rh20  1  0.500000  0.464738  0.807609  1
  Rh  Rh21  1  0.500000  0.536101  0.192025  1
