# generated using pymatgen
data_TbTm3(GaRh2)8
_symmetry_space_group_name_H-M   'P 1'
_cell_length_a   4.24844700
_cell_length_b   9.29303514
_cell_length_c   11.26838459
_cell_angle_alpha   90.07768400
_cell_angle_beta   90.00000000
_cell_angle_gamma   90.00000000
_symmetry_Int_Tables_number   1
_chemical_formula_structural   TbTm3(GaRh2)8
_chemical_formula_sum   'Tb1 Tm3 Ga8 Rh16'
_cell_volume   444.88631392
_cell_formula_units_Z   1
loop_
 _symmetry_equiv_pos_site_id
 _symmetry_equiv_pos_as_xyz
  1  'x, y, z'
loop_
 _atom_site_type_symbol
 _atom_site_label
 _atom_site_symmetry_multiplicity
 _atom_site_fract_x
 _atom_site_fract_y
 _atom_site_fract_z
 _atom_site_occupancy
  Tb  Tb0  1  0.250000  0.144208  0.826559  1
  Tm  Tm1  1  0.250000  0.355582  0.326582  1
  Tm  Tm2  1  0.750000  0.855451  0.173474  1
  Tm  Tm3  1  0.750000  0.644524  0.673456  1
  Ga  Ga4  1  0.250000  0.412746  0.634229  1
  Ga  Ga5  1  0.250000  0.087523  0.134604  1
  Ga  Ga6  1  0.750000  0.587545  0.365499  1
  Ga  Ga7  1  0.750000  0.911627  0.865597  1
  Ga  Ga8  1  0.250000  0.611842  0.060720  1
  Ga  Ga9  1  0.250000  0.888096  0.560728  1
  Ga  Ga10  1  0.750000  0.388308  0.939476  1
  Ga  Ga11  1  0.750000  0.112057  0.439216  1
  Rh  Rh12  1  0.250000  0.622702  0.500505  1
  Rh  Rh13  1  0.250000  0.876821  0.000863  1
  Rh  Rh14  1  0.750000  0.377651  0.499222  1
  Rh  Rh15  1  0.750000  0.122111  0.000788  1
  Rh  Rh16  1  0.250000  0.703517  0.272232  1
  Rh  Rh17  1  0.250000  0.796092  0.771938  1
  Rh  Rh18  1  0.750000  0.298075  0.726910  1
  Rh  Rh19  1  0.750000  0.203567  0.228282  1
  Rh  Rh20  1  0.250000  0.166924  0.562348  1
  Rh  Rh21  1  0.250000  0.333431  0.063831  1
  Rh  Rh22  1  0.750000  0.833173  0.436654  1
  Rh  Rh23  1  0.750000  0.666722  0.936793  1
  Rh  Rh24  1  0.250000  0.000285  0.341640  1
  Rh  Rh25  1  0.250000  0.499741  0.841789  1
  Rh  Rh26  1  0.750000  0.999063  0.657715  1
  Rh  Rh27  1  0.750000  0.500614  0.158351  1
