# generated using pymatgen
data_Zr4SnSb7
_symmetry_space_group_name_H-M   'P 1'
_cell_length_a   4.03276500
_cell_length_b   7.43031619
_cell_length_c   9.77608330
_cell_angle_alpha   89.96596971
_cell_angle_beta   90.00000000
_cell_angle_gamma   90.00000000
_symmetry_Int_Tables_number   1
_chemical_formula_structural   Zr4SnSb7
_chemical_formula_sum   'Zr4 Sn1 Sb7'
_cell_volume   292.93753817
_cell_formula_units_Z   1
loop_
 _symmetry_equiv_pos_site_id
 _symmetry_equiv_pos_as_xyz
  1  'x, y, z'
loop_
 _atom_site_type_symbol
 _atom_site_label
 _atom_site_symmetry_multiplicity
 _atom_site_fract_x
 _atom_site_fract_y
 _atom_site_fract_z
 _atom_site_occupancy
  Zr  Zr0  1  0.000000  0.762448  0.660981  1
  Zr  Zr1  1  0.000000  0.259633  0.838989  1
  Zr  Zr2  1  0.500000  0.238732  0.335524  1
  Zr  Zr3  1  0.500000  0.741783  0.164441  1
  Sn  Sn4  1  0.000000  0.364813  0.545625  1
  Sb  Sb5  1  0.000000  0.433173  0.149436  1
  Sb  Sb6  1  0.000000  0.932846  0.352296  1
  Sb  Sb7  1  0.500000  0.567956  0.848629  1
  Sb  Sb8  1  0.500000  0.073996  0.647079  1
  Sb  Sb9  1  0.000000  0.865925  0.954464  1
  Sb  Sb10  1  0.500000  0.625441  0.456678  1
  Sb  Sb11  1  0.500000  0.133254  0.045856  1
