# generated using pymatgen
data_Dy2Ho2Si6PtRh
_symmetry_space_group_name_H-M   'P 1'
_cell_length_a   8.16814700
_cell_length_b   8.16814642
_cell_length_c   7.92995800
_cell_angle_alpha   90.00000000
_cell_angle_beta   90.00000000
_cell_angle_gamma   119.99999020
_symmetry_Int_Tables_number   1
_chemical_formula_structural   Dy2Ho2Si6PtRh
_chemical_formula_sum   'Dy4 Ho4 Si12 Pt2 Rh2'
_cell_volume   458.19318034
_cell_formula_units_Z   2
loop_
 _symmetry_equiv_pos_site_id
 _symmetry_equiv_pos_as_xyz
  1  'x, y, z'
loop_
 _atom_site_type_symbol
 _atom_site_label
 _atom_site_symmetry_multiplicity
 _atom_site_fract_x
 _atom_site_fract_y
 _atom_site_fract_z
 _atom_site_occupancy
  Dy  Dy0  1  0.000000  0.000000  0.750000  1
  Dy  Dy1  1  0.508952  0.017905  0.750000  1
  Dy  Dy2  1  0.508952  0.491048  0.750000  1
  Dy  Dy3  1  0.982095  0.491048  0.750000  1
  Ho  Ho4  1  0.000000  0.000000  0.250000  1
  Ho  Ho5  1  0.012915  0.506457  0.250000  1
  Ho  Ho6  1  0.493543  0.506457  0.250000  1
  Ho  Ho7  1  0.493543  0.987085  0.250000  1
  Si  Si8  1  0.164218  0.328433  0.001273  1
  Si  Si9  1  0.671567  0.835782  0.001273  1
  Si  Si10  1  0.164218  0.328433  0.498727  1
  Si  Si11  1  0.335460  0.167731  0.999087  1
  Si  Si12  1  0.164218  0.835782  0.001273  1
  Si  Si13  1  0.671567  0.835782  0.498727  1
  Si  Si14  1  0.832269  0.664540  0.999087  1
  Si  Si15  1  0.335460  0.167731  0.500913  1
  Si  Si16  1  0.164218  0.835782  0.498727  1
  Si  Si17  1  0.832269  0.664540  0.500913  1
  Si  Si18  1  0.832269  0.167731  0.999087  1
  Si  Si19  1  0.832269  0.167731  0.500913  1
  Pt  Pt20  1  0.333333  0.666667  0.976301  1
  Pt  Pt21  1  0.333333  0.666667  0.523699  1
  Rh  Rh22  1  0.666667  0.333333  0.036018  1
  Rh  Rh23  1  0.666667  0.333333  0.463982  1
