# generated using pymatgen
data_PrNd2Y3RuI10
_symmetry_space_group_name_H-M   'P 1'
_cell_length_a   7.86926622
_cell_length_b   9.90420142
_cell_length_c   9.94307975
_cell_angle_alpha   107.15173757
_cell_angle_beta   96.17161330
_cell_angle_gamma   104.87589633
_symmetry_Int_Tables_number   1
_chemical_formula_structural   PrNd2Y3RuI10
_chemical_formula_sum   'Pr1 Nd2 Y3 Ru1 I10'
_cell_volume   701.44362554
_cell_formula_units_Z   1
loop_
 _symmetry_equiv_pos_site_id
 _symmetry_equiv_pos_as_xyz
  1  'x, y, z'
loop_
 _atom_site_type_symbol
 _atom_site_label
 _atom_site_symmetry_multiplicity
 _atom_site_fract_x
 _atom_site_fract_y
 _atom_site_fract_z
 _atom_site_occupancy
  Pr  Pr0  1  0.116394  0.042861  0.758929  1
  Nd  Nd1  1  0.882136  0.957062  0.238427  1
  Nd  Nd2  1  0.969063  0.283101  0.084572  1
  Y  Y3  1  0.648281  0.872086  0.833288  1
  Y  Y4  1  0.351245  0.124494  0.166640  1
  Y  Y5  1  0.031106  0.724430  0.918414  1
  Ru  Ru6  1  0.999443  0.001485  0.000430  1
  I  I7  1  0.356312  0.445382  0.271806  1
  I  I8  1  0.657445  0.555249  0.732335  1
  I  I9  1  0.732572  0.909778  0.543727  1
  I  I10  1  0.086803  0.377140  0.819312  1
  I  I11  1  0.916346  0.630257  0.175218  1
  I  I12  1  0.448493  0.816973  0.087148  1
  I  I13  1  0.547775  0.179368  0.910636  1
  I  I14  1  0.770883  0.255741  0.346077  1
  I  I15  1  0.223797  0.737898  0.659494  1
  I  I16  1  0.261905  0.086695  0.453547  1
