# generated using pymatgen
data_U2Ni8As3P
_symmetry_space_group_name_H-M   'P 1'
_cell_length_a   7.25630347
_cell_length_b   7.25630347
_cell_length_c   3.81107100
_cell_angle_alpha   90.00000000
_cell_angle_beta   90.00000000
_cell_angle_gamma   90.16439480
_symmetry_Int_Tables_number   1
_chemical_formula_structural   U2Ni8As3P
_chemical_formula_sum   'U2 Ni8 As3 P1'
_cell_volume   200.66707780
_cell_formula_units_Z   1
loop_
 _symmetry_equiv_pos_site_id
 _symmetry_equiv_pos_as_xyz
  1  'x, y, z'
loop_
 _atom_site_type_symbol
 _atom_site_label
 _atom_site_symmetry_multiplicity
 _atom_site_fract_x
 _atom_site_fract_y
 _atom_site_fract_z
 _atom_site_occupancy
  U  U0  1  0.502608  0.497392  0.000000  1
  U  U1  1  0.996816  0.003184  0.500000  1
  Ni  Ni2  1  0.593520  0.158893  0.500000  1
  Ni  Ni3  1  0.411296  0.842599  0.500000  1
  Ni  Ni4  1  0.157401  0.588704  0.500000  1
  Ni  Ni5  1  0.841107  0.406480  0.500000  1
  Ni  Ni6  1  0.085354  0.341076  0.000000  1
  Ni  Ni7  1  0.910538  0.657128  0.000000  1
  Ni  Ni8  1  0.658924  0.914646  0.000000  1
  Ni  Ni9  1  0.342872  0.089462  0.000000  1
  As  As10  1  0.218704  0.781296  0.000000  1
  As  As11  1  0.283396  0.283194  0.500000  1
  As  As12  1  0.716806  0.716604  0.500000  1
  P  P13  1  0.780660  0.219340  0.000000  1
