# generated using pymatgen
data_Dy3Ho5In4
_symmetry_space_group_name_H-M   'P 1'
_cell_length_a   5.18227900
_cell_length_b   6.75133082
_cell_length_c   9.73599876
_cell_angle_alpha   89.88838698
_cell_angle_beta   90.00000000
_cell_angle_gamma   90.00000000
_symmetry_Int_Tables_number   1
_chemical_formula_structural   Dy3Ho5In4
_chemical_formula_sum   'Dy3 Ho5 In4'
_cell_volume   340.63546770
_cell_formula_units_Z   1
loop_
 _symmetry_equiv_pos_site_id
 _symmetry_equiv_pos_as_xyz
  1  'x, y, z'
loop_
 _atom_site_type_symbol
 _atom_site_label
 _atom_site_symmetry_multiplicity
 _atom_site_fract_x
 _atom_site_fract_y
 _atom_site_fract_z
 _atom_site_occupancy
  Dy  Dy0  1  0.750000  0.685488  0.428035  1
  Dy  Dy1  1  0.250000  0.314723  0.571776  1
  Dy  Dy2  1  0.750000  0.184836  0.071936  1
  Ho  Ho3  1  0.250000  0.814925  0.928143  1
  Ho  Ho4  1  0.750000  0.531523  0.786164  1
  Ho  Ho5  1  0.250000  0.469154  0.213746  1
  Ho  Ho6  1  0.750000  0.030854  0.714251  1
  Ho  Ho7  1  0.250000  0.968890  0.285928  1
  In  In8  1  0.750000  0.210316  0.396427  1
  In  In9  1  0.250000  0.789519  0.604018  1
  In  In10  1  0.750000  0.710552  0.102969  1
  In  In11  1  0.250000  0.289219  0.896604  1
