# generated using pymatgen
data_Hf6Co9TcB4
_symmetry_space_group_name_H-M   'P 1'
_cell_length_a   8.84400610
_cell_length_b   8.94524213
_cell_length_c   3.16593000
_cell_angle_alpha   90.00000000
_cell_angle_beta   90.00000000
_cell_angle_gamma   89.74040026
_symmetry_Int_Tables_number   1
_chemical_formula_structural   Hf6Co9TcB4
_chemical_formula_sum   'Hf6 Co9 Tc1 B4'
_cell_volume   250.45977397
_cell_formula_units_Z   1
loop_
 _symmetry_equiv_pos_site_id
 _symmetry_equiv_pos_as_xyz
  1  'x, y, z'
loop_
 _atom_site_type_symbol
 _atom_site_label
 _atom_site_symmetry_multiplicity
 _atom_site_fract_x
 _atom_site_fract_y
 _atom_site_fract_z
 _atom_site_occupancy
  Hf  Hf0  1  0.996597  0.990465  0.000000  1
  Hf  Hf1  1  0.501777  0.499585  0.000000  1
  Hf  Hf2  1  0.826558  0.324305  0.000000  1
  Hf  Hf3  1  0.325354  0.173599  0.000000  1
  Hf  Hf4  1  0.671442  0.824599  0.000000  1
  Hf  Hf5  1  0.176659  0.674495  0.000000  1
  Co  Co6  1  0.498192  0.998823  0.500000  1
  Co  Co7  1  0.999932  0.509466  0.500000  1
  Co  Co8  1  0.229469  0.924230  0.500000  1
  Co  Co9  1  0.767155  0.065930  0.500000  1
  Co  Co10  1  0.925028  0.771887  0.500000  1
  Co  Co11  1  0.432183  0.728659  0.500000  1
  Co  Co12  1  0.569974  0.268711  0.500000  1
  Co  Co13  1  0.727629  0.571477  0.500000  1
  Co  Co14  1  0.277196  0.440269  0.500000  1
  Tc  Tc15  1  0.069766  0.226960  0.500000  1
  B  B16  1  0.619951  0.116865  0.000000  1
  B  B17  1  0.124398  0.389874  0.000000  1
  B  B18  1  0.880873  0.618717  0.000000  1
  B  B19  1  0.379866  0.881082  0.000000  1
