# generated using pymatgen
data_La8GeSBr12
_symmetry_space_group_name_H-M   'P 1'
_cell_length_a   4.24173900
_cell_length_b   13.82613759
_cell_length_c   14.63570700
_cell_angle_alpha   89.98330789
_cell_angle_beta   90.00000000
_cell_angle_gamma   90.00000000
_symmetry_Int_Tables_number   1
_chemical_formula_structural   La8GeSBr12
_chemical_formula_sum   'La8 Ge1 S1 Br12'
_cell_volume   858.33832576
_cell_formula_units_Z   1
loop_
 _symmetry_equiv_pos_site_id
 _symmetry_equiv_pos_as_xyz
  1  'x, y, z'
loop_
 _atom_site_type_symbol
 _atom_site_label
 _atom_site_symmetry_multiplicity
 _atom_site_fract_x
 _atom_site_fract_y
 _atom_site_fract_z
 _atom_site_occupancy
  La  La0  1  0.500000  0.116444  0.344138  1
  La  La1  1  0.500000  0.883556  0.655862  1
  La  La2  1  0.500000  0.622328  0.163629  1
  La  La3  1  0.500000  0.377672  0.836371  1
  La  La4  1  0.000000  0.113119  0.575177  1
  La  La5  1  0.000000  0.886881  0.424823  1
  La  La6  1  0.000000  0.623338  0.917511  1
  La  La7  1  0.000000  0.376662  0.082489  1
  Ge  Ge8  1  0.500000  0.500000  0.000000  1
  S  S9  1  0.500000  0.000000  0.500000  1
  Br  Br10  1  0.500000  0.239353  0.166987  1
  Br  Br11  1  0.500000  0.760647  0.833013  1
  Br  Br12  1  0.500000  0.749865  0.339964  1
  Br  Br13  1  0.500000  0.250135  0.660036  1
  Br  Br14  1  0.000000  0.255261  0.413665  1
  Br  Br15  1  0.000000  0.744739  0.586335  1
  Br  Br16  1  0.000000  0.757651  0.087942  1
  Br  Br17  1  0.000000  0.242349  0.912058  1
  Br  Br18  1  0.000000  0.000294  0.244205  1
  Br  Br19  1  0.000000  0.999706  0.755795  1
  Br  Br20  1  0.000000  0.502049  0.259410  1
  Br  Br21  1  0.000000  0.497951  0.740590  1
