# generated using pymatgen
data_Sc18TiRe7O6
_symmetry_space_group_name_H-M   'P 1'
_cell_length_a   8.58702300
_cell_length_b   8.58702270
_cell_length_c   8.38183700
_cell_angle_alpha   90.00000000
_cell_angle_beta   90.00000000
_cell_angle_gamma   119.99999731
_symmetry_Int_Tables_number   1
_chemical_formula_structural   Sc18TiRe7O6
_chemical_formula_sum   'Sc18 Ti1 Re7 O6'
_cell_volume   535.24804704
_cell_formula_units_Z   1
loop_
 _symmetry_equiv_pos_site_id
 _symmetry_equiv_pos_as_xyz
  1  'x, y, z'
loop_
 _atom_site_type_symbol
 _atom_site_label
 _atom_site_symmetry_multiplicity
 _atom_site_fract_x
 _atom_site_fract_y
 _atom_site_fract_z
 _atom_site_occupancy
  Sc  Sc0  1  0.457163  0.914325  0.249335  1
  Sc  Sc1  1  0.542837  0.085675  0.750665  1
  Sc  Sc2  1  0.085675  0.542837  0.249335  1
  Sc  Sc3  1  0.914325  0.457163  0.750665  1
  Sc  Sc4  1  0.457163  0.542837  0.249335  1
  Sc  Sc5  1  0.542837  0.457163  0.750665  1
  Sc  Sc6  1  0.202502  0.405002  0.549058  1
  Sc  Sc7  1  0.797498  0.594998  0.450942  1
  Sc  Sc8  1  0.594998  0.797498  0.549058  1
  Sc  Sc9  1  0.797156  0.594314  0.049612  1
  Sc  Sc10  1  0.405002  0.202502  0.450942  1
  Sc  Sc11  1  0.202844  0.405686  0.950388  1
  Sc  Sc12  1  0.202502  0.797498  0.549058  1
  Sc  Sc13  1  0.405686  0.202844  0.049612  1
  Sc  Sc14  1  0.797498  0.202502  0.450942  1
  Sc  Sc15  1  0.594314  0.797156  0.950388  1
  Sc  Sc16  1  0.797156  0.202844  0.049612  1
  Sc  Sc17  1  0.202844  0.797156  0.950388  1
  Ti  Ti18  1  0.000000  0.000000  0.000000  1
  Re  Re19  1  0.107270  0.214538  0.250981  1
  Re  Re20  1  0.892730  0.785462  0.749019  1
  Re  Re21  1  0.785462  0.892730  0.250981  1
  Re  Re22  1  0.214538  0.107270  0.749019  1
  Re  Re23  1  0.107270  0.892730  0.250981  1
  Re  Re24  1  0.892730  0.107270  0.749019  1
  Re  Re25  1  0.000000  0.000000  0.500000  1
  O  O26  1  0.500000  0.000000  0.000000  1
  O  O27  1  0.000000  0.500000  0.000000  1
  O  O28  1  0.500000  0.000000  0.500000  1
  O  O29  1  0.500000  0.500000  0.000000  1
  O  O30  1  0.000000  0.500000  0.500000  1
  O  O31  1  0.500000  0.500000  0.500000  1
