# generated using pymatgen
data_Tb3Sn3Ir2Pt
_symmetry_space_group_name_H-M   'P 1'
_cell_length_a   7.58753100
_cell_length_b   7.58753196
_cell_length_c   3.92876000
_cell_angle_alpha   90.00000000
_cell_angle_beta   90.00000000
_cell_angle_gamma   119.99999144
_symmetry_Int_Tables_number   1
_chemical_formula_structural   Tb3Sn3Ir2Pt
_chemical_formula_sum   'Tb3 Sn3 Ir2 Pt1'
_cell_volume   195.87868543
_cell_formula_units_Z   1
loop_
 _symmetry_equiv_pos_site_id
 _symmetry_equiv_pos_as_xyz
  1  'x, y, z'
loop_
 _atom_site_type_symbol
 _atom_site_label
 _atom_site_symmetry_multiplicity
 _atom_site_fract_x
 _atom_site_fract_y
 _atom_site_fract_z
 _atom_site_occupancy
  Tb  Tb0  1  0.596620  0.006272  0.000000  1
  Tb  Tb1  1  0.993728  0.590347  0.000000  1
  Tb  Tb2  1  0.409653  0.403380  0.000000  1
  Sn  Sn3  1  0.259567  0.002783  0.500000  1
  Sn  Sn4  1  0.997217  0.256784  0.500000  1
  Sn  Sn5  1  0.743216  0.740433  0.500000  1
  Ir  Ir6  1  0.666667  0.333333  0.500000  1
  Ir  Ir7  1  0.000000  0.000000  0.000000  1
  Pt  Pt8  1  0.333333  0.666667  0.500000  1
