# generated using pymatgen
data_Er8MgInNiIr
_symmetry_space_group_name_H-M   'P 1'
_cell_length_a   9.54892798
_cell_length_b   9.55809565
_cell_length_c   9.54595151
_cell_angle_alpha   60.32910010
_cell_angle_beta   60.39896047
_cell_angle_gamma   60.05647575
_symmetry_Int_Tables_number   1
_chemical_formula_structural   Er8MgInNiIr
_chemical_formula_sum   'Er16 Mg2 In2 Ni2 Ir2'
_cell_volume   619.70466509
_cell_formula_units_Z   2
loop_
 _symmetry_equiv_pos_site_id
 _symmetry_equiv_pos_as_xyz
  1  'x, y, z'
loop_
 _atom_site_type_symbol
 _atom_site_label
 _atom_site_symmetry_multiplicity
 _atom_site_fract_x
 _atom_site_fract_y
 _atom_site_fract_z
 _atom_site_occupancy
  Er  Er0  1  0.060498  0.062716  0.435094  1
  Er  Er1  1  0.648556  0.045097  0.652637  1
  Er  Er2  1  0.192406  0.808334  0.190172  1
  Er  Er3  1  0.438017  0.063844  0.434674  1
  Er  Er4  1  0.190854  0.186696  0.811851  1
  Er  Er5  1  0.651692  0.656354  0.657334  1
  Er  Er6  1  0.051464  0.650923  0.646958  1
  Er  Er7  1  0.435836  0.064548  0.063470  1
  Er  Er8  1  0.643348  0.651293  0.049952  1
  Er  Er9  1  0.190986  0.810609  0.812019  1
  Er  Er10  1  0.814771  0.185521  0.811423  1
  Er  Er11  1  0.811666  0.187944  0.188200  1
  Er  Er12  1  0.812293  0.809289  0.188737  1
  Er  Er13  1  0.062918  0.437065  0.435041  1
  Er  Er14  1  0.434640  0.432603  0.064227  1
  Er  Er15  1  0.057612  0.437630  0.058275  1
  Mg  Mg16  1  0.735882  0.422420  0.420560  1
  Mg  Mg17  1  0.423188  0.421887  0.734974  1
  In  In18  1  0.419389  0.748310  0.418215  1
  In  In19  1  0.419225  0.414707  0.416967  1
  Ni  Ni20  1  0.856795  0.856132  0.859458  1
  Ni  Ni21  1  0.423741  0.860887  0.862099  1
  Ir  Ir22  1  0.860897  0.858730  0.425984  1
  Ir  Ir23  1  0.863332  0.426462  0.861680  1
