# generated using pymatgen
data_Tb2Ti3P7(IrRh2)3
_symmetry_space_group_name_H-M   'P 1'
_cell_length_a   3.84784000
_cell_length_b   9.68578613
_cell_length_c   9.68548310
_cell_angle_alpha   119.99525944
_cell_angle_beta   89.99928956
_cell_angle_gamma   90.00082662
_symmetry_Int_Tables_number   1
_chemical_formula_structural   Tb2Ti3P7(IrRh2)3
_chemical_formula_sum   'Tb2 Ti3 P7 Ir3 Rh6'
_cell_volume   312.62560354
_cell_formula_units_Z   1
loop_
 _symmetry_equiv_pos_site_id
 _symmetry_equiv_pos_as_xyz
  1  'x, y, z'
loop_
 _atom_site_type_symbol
 _atom_site_label
 _atom_site_symmetry_multiplicity
 _atom_site_fract_x
 _atom_site_fract_y
 _atom_site_fract_z
 _atom_site_occupancy
  Tb  Tb0  1  0.261715  0.666632  0.333318  1
  Tb  Tb1  1  0.761779  0.333420  0.666680  1
  Ti  Ti2  1  0.762058  0.100085  0.878536  1
  Ti  Ti3  1  0.762079  0.121351  0.221466  1
  Ti  Ti4  1  0.762052  0.778483  0.899944  1
  P  P5  1  0.262483  0.999907  0.999947  1
  P  P6  1  0.761816  0.875795  0.588734  1
  P  P7  1  0.761815  0.411125  0.287038  1
  P  P8  1  0.761772  0.712946  0.124210  1
  P  P9  1  0.261870  0.116452  0.417019  1
  P  P10  1  0.261880  0.583059  0.699394  1
  P  P11  1  0.261853  0.300642  0.883646  1
  Ir  Ir12  1  0.261792  0.884381  0.159234  1
  Ir  Ir13  1  0.261865  0.840833  0.725183  1
  Ir  Ir14  1  0.261818  0.274589  0.115483  1
  Rh  Rh15  1  0.761925  0.609263  0.557062  1
  Rh  Rh16  1  0.761871  0.442927  0.052241  1
  Rh  Rh17  1  0.761839  0.947876  0.390794  1
  Rh  Rh18  1  0.261975  0.364748  0.437462  1
  Rh  Rh19  1  0.261910  0.562537  0.927213  1
  Rh  Rh20  1  0.261833  0.072946  0.635400  1
