# generated using pymatgen
data_NaTb6BeBr12
_symmetry_space_group_name_H-M   'P 1'
_cell_length_a   9.24399758
_cell_length_b   9.24399733
_cell_length_c   9.24399779
_cell_angle_alpha   106.95667525
_cell_angle_beta   106.95668175
_cell_angle_gamma   106.95668854
_symmetry_Int_Tables_number   1
_chemical_formula_structural   NaTb6BeBr12
_chemical_formula_sum   'Na1 Tb6 Be1 Br12'
_cell_volume   658.62323151
_cell_formula_units_Z   1
loop_
 _symmetry_equiv_pos_site_id
 _symmetry_equiv_pos_as_xyz
  1  'x, y, z'
loop_
 _atom_site_type_symbol
 _atom_site_label
 _atom_site_symmetry_multiplicity
 _atom_site_fract_x
 _atom_site_fract_y
 _atom_site_fract_z
 _atom_site_occupancy
  Na  Na0  1  0.500000  0.500000  0.500000  1
  Tb  Tb1  1  0.315800  0.107283  0.028257  1
  Tb  Tb2  1  0.028257  0.315800  0.107283  1
  Tb  Tb3  1  0.107283  0.028257  0.315800  1
  Tb  Tb4  1  0.684200  0.892717  0.971743  1
  Tb  Tb5  1  0.971743  0.684200  0.892717  1
  Tb  Tb6  1  0.892717  0.971743  0.684200  1
  Be  Be7  1  0.000000  0.000000  0.000000  1
  Br  Br8  1  0.682515  0.219200  0.073792  1
  Br  Br9  1  0.073792  0.682515  0.219200  1
  Br  Br10  1  0.219200  0.073792  0.682515  1
  Br  Br11  1  0.317485  0.780800  0.926208  1
  Br  Br12  1  0.926208  0.317485  0.780800  1
  Br  Br13  1  0.780800  0.926208  0.317485  1
  Br  Br14  1  0.448603  0.147529  0.367897  1
  Br  Br15  1  0.367897  0.448603  0.147529  1
  Br  Br16  1  0.147529  0.367897  0.448603  1
  Br  Br17  1  0.551397  0.852471  0.632103  1
  Br  Br18  1  0.632103  0.551397  0.852471  1
  Br  Br19  1  0.852471  0.632103  0.551397  1
