# generated using pymatgen
data_Y3In2CuHgPd2
_symmetry_space_group_name_H-M   'P 1'
_cell_length_a   7.76838551
_cell_length_b   7.76838367
_cell_length_c   3.74525200
_cell_angle_alpha   90.00000000
_cell_angle_beta   90.00000000
_cell_angle_gamma   119.60768009
_symmetry_Int_Tables_number   1
_chemical_formula_structural   Y3In2CuHgPd2
_chemical_formula_sum   'Y3 In2 Cu1 Hg1 Pd2'
_cell_volume   196.50629148
_cell_formula_units_Z   1
loop_
 _symmetry_equiv_pos_site_id
 _symmetry_equiv_pos_as_xyz
  1  'x, y, z'
loop_
 _atom_site_type_symbol
 _atom_site_label
 _atom_site_symmetry_multiplicity
 _atom_site_fract_x
 _atom_site_fract_y
 _atom_site_fract_z
 _atom_site_occupancy
  Y  Y0  1  0.417179  0.417179  0.500000  1
  Y  Y1  1  0.593105  0.994586  0.500000  1
  Y  Y2  1  0.994586  0.593105  0.500000  1
  In  In3  1  0.256570  0.003466  0.000000  1
  In  In4  1  0.003466  0.256570  0.000000  1
  Cu  Cu5  1  0.004722  0.004722  0.500000  1
  Hg  Hg6  1  0.741826  0.741826  0.000000  1
  Pd  Pd7  1  0.664946  0.323600  0.000000  1
  Pd  Pd8  1  0.323600  0.664946  0.000000  1
