# generated using pymatgen
data_Tb3(GaNi2)5
_symmetry_space_group_name_H-M   'P 1'
_cell_length_a   8.70938013
_cell_length_b   8.70938053
_cell_length_c   4.03778400
_cell_angle_alpha   90.00000000
_cell_angle_beta   90.00000000
_cell_angle_gamma   120.16572179
_symmetry_Int_Tables_number   1
_chemical_formula_structural   Tb3(GaNi2)5
_chemical_formula_sum   'Tb3 Ga5 Ni10'
_cell_volume   264.80157516
_cell_formula_units_Z   1
loop_
 _symmetry_equiv_pos_site_id
 _symmetry_equiv_pos_as_xyz
  1  'x, y, z'
loop_
 _atom_site_type_symbol
 _atom_site_label
 _atom_site_symmetry_multiplicity
 _atom_site_fract_x
 _atom_site_fract_y
 _atom_site_fract_z
 _atom_site_occupancy
  Tb  Tb0  1  0.337552  0.662448  0.000000  1
  Tb  Tb1  1  0.662448  0.337552  0.000000  1
  Tb  Tb2  1  0.000000  0.000000  0.000000  1
  Ga  Ga3  1  0.500000  0.000000  0.500000  1
  Ga  Ga4  1  0.000000  0.500000  0.500000  1
  Ga  Ga5  1  0.500000  0.500000  0.500000  1
  Ga  Ga6  1  0.153988  0.846012  0.500000  1
  Ga  Ga7  1  0.846012  0.153988  0.500000  1
  Ni  Ni8  1  0.334596  0.997327  0.000000  1
  Ni  Ni9  1  0.665404  0.002673  0.000000  1
  Ni  Ni10  1  0.997327  0.334596  0.000000  1
  Ni  Ni11  1  0.002673  0.665404  0.000000  1
  Ni  Ni12  1  0.673884  0.673884  0.000000  1
  Ni  Ni13  1  0.326116  0.326116  0.000000  1
  Ni  Ni14  1  0.173294  0.338873  0.500000  1
  Ni  Ni15  1  0.826706  0.661127  0.500000  1
  Ni  Ni16  1  0.661127  0.826706  0.500000  1
  Ni  Ni17  1  0.338873  0.173294  0.500000  1
