# generated using pymatgen
data_Li2CoP2Os
_symmetry_space_group_name_H-M   'P 1'
_cell_length_a   3.69704000
_cell_length_b   6.50681000
_cell_length_c   6.56663300
_cell_angle_alpha   90.00000000
_cell_angle_beta   90.00000000
_cell_angle_gamma   90.00000000
_symmetry_Int_Tables_number   1
_chemical_formula_structural   Li2CoP2Os
_chemical_formula_sum   'Li4 Co2 P4 Os2'
_cell_volume   157.96650872
_cell_formula_units_Z   2
loop_
 _symmetry_equiv_pos_site_id
 _symmetry_equiv_pos_as_xyz
  1  'x, y, z'
loop_
 _atom_site_type_symbol
 _atom_site_label
 _atom_site_symmetry_multiplicity
 _atom_site_fract_x
 _atom_site_fract_y
 _atom_site_fract_z
 _atom_site_occupancy
  Li  Li0  1  0.500000  0.520948  0.594866  1
  Li  Li1  1  0.500000  0.020948  0.405134  1
  Li  Li2  1  0.000000  0.483614  0.906999  1
  Li  Li3  1  0.000000  0.983614  0.093001  1
  Co  Co4  1  0.500000  0.638008  0.194098  1
  Co  Co5  1  0.500000  0.138008  0.805902  1
  P  P6  1  0.500000  0.289798  0.106582  1
  P  P7  1  0.500000  0.789798  0.893418  1
  P  P8  1  0.000000  0.708853  0.374565  1
  P  P9  1  0.000000  0.208853  0.625435  1
  Os  Os10  1  0.000000  0.358778  0.302632  1
  Os  Os11  1  0.000000  0.858778  0.697368  1
