# generated using pymatgen
data_Y5Ho7In20
_symmetry_space_group_name_H-M   'P 1'
_cell_length_a   6.50422304
_cell_length_b   10.40828589
_cell_length_c   12.29529130
_cell_angle_alpha   89.91584134
_cell_angle_beta   89.99684744
_cell_angle_gamma   90.01237018
_symmetry_Int_Tables_number   1
_chemical_formula_structural   Y5Ho7In20
_chemical_formula_sum   'Y5 Ho7 In20'
_cell_volume   832.36341096
_cell_formula_units_Z   1
loop_
 _symmetry_equiv_pos_site_id
 _symmetry_equiv_pos_as_xyz
  1  'x, y, z'
loop_
 _atom_site_type_symbol
 _atom_site_label
 _atom_site_symmetry_multiplicity
 _atom_site_fract_x
 _atom_site_fract_y
 _atom_site_fract_z
 _atom_site_occupancy
  Y  Y0  1  0.390198  0.506789  0.357800  1
  Y  Y1  1  0.109755  0.506943  0.858006  1
  Y  Y2  1  0.390391  0.993162  0.358192  1
  Y  Y3  1  0.890122  0.006937  0.141734  1
  Y  Y4  1  0.609936  0.493045  0.642438  1
  Ho  Ho5  1  0.350116  0.750173  0.055921  1
  Ho  Ho6  1  0.149938  0.749698  0.555988  1
  Ho  Ho7  1  0.650073  0.250519  0.944078  1
  Ho  Ho8  1  0.850470  0.249671  0.444169  1
  Ho  Ho9  1  0.890674  0.493344  0.141853  1
  Ho  Ho10  1  0.609265  0.006609  0.641768  1
  Ho  Ho11  1  0.109292  0.993271  0.858304  1
  In  In12  1  0.616303  0.750380  0.505500  1
  In  In13  1  0.883995  0.749822  0.005254  1
  In  In14  1  0.384263  0.249740  0.495293  1
  In  In15  1  0.116175  0.249670  0.994570  1
  In  In16  1  0.651435  0.749612  0.245432  1
  In  In17  1  0.848764  0.751135  0.745587  1
  In  In18  1  0.348756  0.248934  0.754462  1
  In  In19  1  0.150768  0.250219  0.254101  1
  In  In20  1  0.125330  0.750026  0.284283  1
  In  In21  1  0.373797  0.750931  0.784541  1
  In  In22  1  0.873663  0.248966  0.715456  1
  In  In23  1  0.626263  0.250587  0.215406  1
  In  In24  1  0.875398  0.543681  0.400890  1
  In  In25  1  0.624788  0.956425  0.900510  1
  In  In26  1  0.124670  0.043489  0.599535  1
  In  In27  1  0.375051  0.456089  0.098631  1
  In  In28  1  0.124535  0.455758  0.598795  1
  In  In29  1  0.375492  0.044059  0.098486  1
  In  In30  1  0.875653  0.956102  0.401504  1
  In  In31  1  0.624676  0.544214  0.901513  1
