# generated using pymatgen
data_Nd12FeIrBr17
_symmetry_space_group_name_H-M   'P 1'
_cell_length_a   9.60632760
_cell_length_b   11.49539894
_cell_length_c   11.56020255
_cell_angle_alpha   93.54617844
_cell_angle_beta   104.78343424
_cell_angle_gamma   114.49789531
_symmetry_Int_Tables_number   1
_chemical_formula_structural   Nd12FeIrBr17
_chemical_formula_sum   'Nd12 Fe1 Ir1 Br17'
_cell_volume   1102.61985292
_cell_formula_units_Z   1
loop_
 _symmetry_equiv_pos_site_id
 _symmetry_equiv_pos_as_xyz
  1  'x, y, z'
loop_
 _atom_site_type_symbol
 _atom_site_label
 _atom_site_symmetry_multiplicity
 _atom_site_fract_x
 _atom_site_fract_y
 _atom_site_fract_z
 _atom_site_occupancy
  Nd  Nd0  1  0.057678  0.514535  0.319889  1
  Nd  Nd1  1  0.979546  0.810237  0.570620  1
  Nd  Nd2  1  0.641122  0.238383  0.287113  1
  Nd  Nd3  1  0.018859  0.193963  0.421451  1
  Nd  Nd4  1  0.235078  0.671686  0.001185  1
  Nd  Nd5  1  0.262781  0.000974  0.893831  1
  Nd  Nd6  1  0.366281  0.762300  0.709002  1
  Nd  Nd7  1  0.934689  0.475176  0.676352  1
  Nd  Nd8  1  0.743615  0.009802  0.109714  1
  Nd  Nd9  1  0.154961  0.286703  0.147882  1
  Nd  Nd10  1  0.770253  0.326108  0.006812  1
  Nd  Nd11  1  0.836668  0.711487  0.854868  1
  Fe  Fe12  1  0.895770  0.261231  0.213568  1
  Ir  Ir13  1  0.104281  0.738782  0.786084  1
  Br  Br14  1  0.794000  0.524448  0.424402  1
  Br  Br15  1  0.647948  0.424785  0.759898  1
  Br  Br16  1  0.847695  0.903736  0.328277  1
  Br  Br17  1  0.319499  0.213803  0.363715  1
  Br  Br18  1  0.151026  0.096627  0.672476  1
  Br  Br19  1  0.582341  0.048115  0.851292  1
  Br  Br20  1  0.759514  0.182494  0.533283  1
  Br  Br21  1  0.542019  0.706998  0.948088  1
  Br  Br22  1  0.353031  0.574938  0.242432  1
  Br  Br23  1  0.205896  0.475987  0.577792  1
  Br  Br24  1  0.054205  0.375135  0.902951  1
  Br  Br25  1  0.458429  0.294120  0.051802  1
  Br  Br26  1  0.999618  0.999266  0.998784  1
  Br  Br27  1  0.238824  0.814687  0.465224  1
  Br  Br28  1  0.416381  0.950656  0.147643  1
  Br  Br29  1  0.680206  0.786605  0.636259  1
  Br  Br30  1  0.947787  0.626233  0.097315  1
