# generated using pymatgen
data_MnAl2VFe4
_symmetry_space_group_name_H-M   'P 1'
_cell_length_a   4.02532427
_cell_length_b   4.02532415
_cell_length_c   6.95899653
_cell_angle_alpha   73.19213616
_cell_angle_beta   106.80786664
_cell_angle_gamma   119.99609817
_symmetry_Int_Tables_number   1
_chemical_formula_structural   MnAl2VFe4
_chemical_formula_sum   'Mn1 Al2 V1 Fe4'
_cell_volume   92.05064613
_cell_formula_units_Z   1
loop_
 _symmetry_equiv_pos_site_id
 _symmetry_equiv_pos_as_xyz
  1  'x, y, z'
loop_
 _atom_site_type_symbol
 _atom_site_label
 _atom_site_symmetry_multiplicity
 _atom_site_fract_x
 _atom_site_fract_y
 _atom_site_fract_z
 _atom_site_occupancy
  Mn  Mn0  1  0.375000  0.625000  0.125000  1
  Al  Al1  1  0.124444  0.875556  0.372838  1
  Al  Al2  1  0.625556  0.374444  0.877162  1
  V  V3  1  0.875000  0.125000  0.625000  1
  Fe  Fe4  1  0.750094  0.249906  0.249915  1
  Fe  Fe5  1  0.250013  0.749987  0.750266  1
  Fe  Fe6  1  0.999906  0.000094  0.000085  1
  Fe  Fe7  1  0.499987  0.500013  0.499734  1
