# generated using pymatgen
data_Tb5Nd5(Sn5Rh2)4
_symmetry_space_group_name_H-M   'P 1'
_cell_length_a   14.17100600
_cell_length_b   14.17100600
_cell_length_c   4.58217900
_cell_angle_alpha   90.00000000
_cell_angle_beta   90.00000000
_cell_angle_gamma   90.00000000
_symmetry_Int_Tables_number   1
_chemical_formula_structural   Tb5Nd5(Sn5Rh2)4
_chemical_formula_sum   'Tb5 Nd5 Sn20 Rh8'
_cell_volume   920.18132376
_cell_formula_units_Z   1
loop_
 _symmetry_equiv_pos_site_id
 _symmetry_equiv_pos_as_xyz
  1  'x, y, z'
loop_
 _atom_site_type_symbol
 _atom_site_label
 _atom_site_symmetry_multiplicity
 _atom_site_fract_x
 _atom_site_fract_y
 _atom_site_fract_z
 _atom_site_occupancy
  Tb  Tb0  1  0.500000  0.500000  0.000000  1
  Tb  Tb1  1  0.677215  0.177514  0.500000  1
  Tb  Tb2  1  0.322785  0.822486  0.500000  1
  Tb  Tb3  1  0.177514  0.322785  0.500000  1
  Tb  Tb4  1  0.822486  0.677215  0.500000  1
  Nd  Nd5  1  0.000000  0.000000  0.000000  1
  Nd  Nd6  1  0.888051  0.388258  0.500000  1
  Nd  Nd7  1  0.111949  0.611742  0.500000  1
  Nd  Nd8  1  0.388258  0.111949  0.500000  1
  Nd  Nd9  1  0.611742  0.888051  0.500000  1
  Sn  Sn10  1  0.569903  0.070219  0.000000  1
  Sn  Sn11  1  0.430097  0.929781  0.000000  1
  Sn  Sn12  1  0.070219  0.430097  0.000000  1
  Sn  Sn13  1  0.929781  0.569903  0.000000  1
  Sn  Sn14  1  0.654256  0.698051  0.000000  1
  Sn  Sn15  1  0.345744  0.301949  0.000000  1
  Sn  Sn16  1  0.154395  0.801717  0.000000  1
  Sn  Sn17  1  0.845605  0.198283  0.000000  1
  Sn  Sn18  1  0.301949  0.654256  0.000000  1
  Sn  Sn19  1  0.698051  0.345744  0.000000  1
  Sn  Sn20  1  0.198283  0.154395  0.000000  1
  Sn  Sn21  1  0.801717  0.845605  0.000000  1
  Sn  Sn22  1  0.661869  0.505425  0.500000  1
  Sn  Sn23  1  0.338131  0.494575  0.500000  1
  Sn  Sn24  1  0.163637  0.994633  0.500000  1
  Sn  Sn25  1  0.836363  0.005367  0.500000  1
  Sn  Sn26  1  0.494575  0.661869  0.500000  1
  Sn  Sn27  1  0.505425  0.338131  0.500000  1
  Sn  Sn28  1  0.005367  0.163637  0.500000  1
  Sn  Sn29  1  0.994633  0.836363  0.500000  1
  Rh  Rh30  1  0.746114  0.528975  0.000000  1
  Rh  Rh31  1  0.253886  0.471025  0.000000  1
  Rh  Rh32  1  0.247220  0.970846  0.000000  1
  Rh  Rh33  1  0.752780  0.029154  0.000000  1
  Rh  Rh34  1  0.471025  0.746114  0.000000  1
  Rh  Rh35  1  0.528975  0.253886  0.000000  1
  Rh  Rh36  1  0.029154  0.247220  0.000000  1
  Rh  Rh37  1  0.970846  0.752780  0.000000  1
