# generated using pymatgen
data_PrNp7VSe17
_symmetry_space_group_name_H-M   'P 1'
_cell_length_a   8.25636171
_cell_length_b   8.23618816
_cell_length_c   10.92057200
_cell_angle_alpha   80.61375927
_cell_angle_beta   80.47758745
_cell_angle_gamma   64.89850552
_symmetry_Int_Tables_number   1
_chemical_formula_structural   PrNp7VSe17
_chemical_formula_sum   'Pr1 Np7 V1 Se17'
_cell_volume   659.61092184
_cell_formula_units_Z   1
loop_
 _symmetry_equiv_pos_site_id
 _symmetry_equiv_pos_as_xyz
  1  'x, y, z'
loop_
 _atom_site_type_symbol
 _atom_site_label
 _atom_site_symmetry_multiplicity
 _atom_site_fract_x
 _atom_site_fract_y
 _atom_site_fract_z
 _atom_site_occupancy
  Pr  Pr0  1  0.813495  0.306868  0.298237  1
  Np  Np1  1  0.299321  0.820259  0.296955  1
  Np  Np2  1  0.180996  0.699328  0.701057  1
  Np  Np3  1  0.698228  0.182828  0.704201  1
  Np  Np4  1  0.204068  0.204181  0.543620  1
  Np  Np5  1  0.796044  0.793649  0.456701  1
  Np  Np6  1  0.680417  0.680415  0.980479  1
  Np  Np7  1  0.318791  0.317508  0.018611  1
  V  V8  1  0.002367  0.998609  0.000081  1
  Se  Se9  1  0.823192  0.433628  0.543929  1
  Se  Se10  1  0.433144  0.818740  0.536128  1
  Se  Se11  1  0.178670  0.565686  0.465286  1
  Se  Se12  1  0.567743  0.170271  0.473695  1
  Se  Se13  1  0.945236  0.323742  0.018900  1
  Se  Se14  1  0.322225  0.946581  0.027135  1
  Se  Se15  1  0.055062  0.676982  0.969012  1
  Se  Se16  1  0.678481  0.058952  0.973360  1
  Se  Se17  1  0.224713  0.204873  0.278208  1
  Se  Se18  1  0.790888  0.787761  0.722503  1
  Se  Se19  1  0.060513  0.056687  0.772768  1
  Se  Se20  1  0.946031  0.928727  0.225760  1
  Se  Se21  1  0.301091  0.303843  0.755998  1
  Se  Se22  1  0.687305  0.714456  0.241582  1
  Se  Se23  1  0.520666  0.522812  0.829890  1
  Se  Se24  1  0.467358  0.488891  0.163197  1
  Se  Se25  1  0.003955  0.993721  0.502707  1
