# generated using pymatgen
data_La3CrFeC6
_symmetry_space_group_name_H-M   'P 1'
_cell_length_a   8.31821300
_cell_length_b   8.31821122
_cell_length_c   5.27755400
_cell_angle_alpha   90.00000000
_cell_angle_beta   90.00000000
_cell_angle_gamma   119.99999623
_symmetry_Int_Tables_number   1
_chemical_formula_structural   La3CrFeC6
_chemical_formula_sum   'La6 Cr2 Fe2 C12'
_cell_volume   316.24474276
_cell_formula_units_Z   2
loop_
 _symmetry_equiv_pos_site_id
 _symmetry_equiv_pos_as_xyz
  1  'x, y, z'
loop_
 _atom_site_type_symbol
 _atom_site_label
 _atom_site_symmetry_multiplicity
 _atom_site_fract_x
 _atom_site_fract_y
 _atom_site_fract_z
 _atom_site_occupancy
  La  La0  1  0.612368  0.686272  0.750000  1
  La  La1  1  0.926097  0.612368  0.250000  1
  La  La2  1  0.686272  0.073903  0.250000  1
  La  La3  1  0.313728  0.926097  0.750000  1
  La  La4  1  0.073903  0.387632  0.750000  1
  La  La5  1  0.387632  0.313728  0.250000  1
  Cr  Cr6  1  0.000000  0.000000  0.500000  1
  Cr  Cr7  1  0.000000  0.000000  0.000000  1
  Fe  Fe8  1  0.666667  0.333333  0.750000  1
  Fe  Fe9  1  0.333333  0.666667  0.250000  1
  C  C10  1  0.951129  0.768082  0.750000  1
  C  C11  1  0.183047  0.951129  0.250000  1
  C  C12  1  0.768082  0.816953  0.250000  1
  C  C13  1  0.231918  0.183047  0.750000  1
  C  C14  1  0.816953  0.048871  0.750000  1
  C  C15  1  0.048871  0.231918  0.250000  1
  C  C16  1  0.857519  0.577570  0.750000  1
  C  C17  1  0.279948  0.857519  0.250000  1
  C  C18  1  0.577570  0.720052  0.250000  1
  C  C19  1  0.422430  0.279948  0.750000  1
  C  C20  1  0.142481  0.422430  0.250000  1
  C  C21  1  0.720052  0.142481  0.750000  1
