# generated using pymatgen
data_Pm4Mg(FeO4)3
_symmetry_space_group_name_H-M   'P 1'
_cell_length_a   5.45807169
_cell_length_b   5.69611180
_cell_length_c   7.78384349
_cell_angle_alpha   90.21830943
_cell_angle_beta   90.17655543
_cell_angle_gamma   90.18594656
_symmetry_Int_Tables_number   1
_chemical_formula_structural   Pm4Mg(FeO4)3
_chemical_formula_sum   'Pm4 Mg1 Fe3 O12'
_cell_volume   241.99384344
_cell_formula_units_Z   1
loop_
 _symmetry_equiv_pos_site_id
 _symmetry_equiv_pos_as_xyz
  1  'x, y, z'
loop_
 _atom_site_type_symbol
 _atom_site_label
 _atom_site_symmetry_multiplicity
 _atom_site_fract_x
 _atom_site_fract_y
 _atom_site_fract_z
 _atom_site_occupancy
  Pm  Pm0  1  0.987431  0.058497  0.243976  1
  Pm  Pm1  1  0.519099  0.563332  0.243277  1
  Pm  Pm2  1  0.480902  0.436668  0.756723  1
  Pm  Pm3  1  0.012568  0.941503  0.756024  1
  Mg  Mg4  1  0.500000  0.000000  0.000000  1
  Fe  Fe5  1  0.000000  0.499999  0.000000  1
  Fe  Fe6  1  0.500000  0.000000  0.500000  1
  Fe  Fe7  1  0.000000  0.499999  0.500000  1
  O  O8  1  0.705659  0.306033  0.046387  1
  O  O9  1  0.804164  0.796815  0.048570  1
  O  O10  1  0.098142  0.471401  0.253438  1
  O  O11  1  0.404982  0.970894  0.259247  1
  O  O12  1  0.706931  0.299031  0.445030  1
  O  O13  1  0.797865  0.795285  0.446650  1
  O  O14  1  0.202136  0.204715  0.553351  1
  O  O15  1  0.293070  0.700969  0.554971  1
  O  O16  1  0.595019  0.029106  0.740753  1
  O  O17  1  0.901859  0.528599  0.746562  1
  O  O18  1  0.195837  0.203185  0.951431  1
  O  O19  1  0.294342  0.693967  0.953614  1
