# generated using pymatgen
data_Y9ErCd3Fe
_symmetry_space_group_name_H-M   'P 1'
_cell_length_a   9.58263700
_cell_length_b   9.58263718
_cell_length_c   9.83184800
_cell_angle_alpha   90.00000000
_cell_angle_beta   90.00000000
_cell_angle_gamma   120.00000282
_symmetry_Int_Tables_number   1
_chemical_formula_structural   Y9ErCd3Fe
_chemical_formula_sum   'Y18 Er2 Cd6 Fe2'
_cell_volume   781.87235398
_cell_formula_units_Z   2
loop_
 _symmetry_equiv_pos_site_id
 _symmetry_equiv_pos_as_xyz
  1  'x, y, z'
loop_
 _atom_site_type_symbol
 _atom_site_label
 _atom_site_symmetry_multiplicity
 _atom_site_fract_x
 _atom_site_fract_y
 _atom_site_fract_z
 _atom_site_occupancy
  Y  Y0  1  0.211253  0.788747  0.936265  1
  Y  Y1  1  0.211253  0.422505  0.936265  1
  Y  Y2  1  0.577495  0.788747  0.936265  1
  Y  Y3  1  0.788747  0.211253  0.063735  1
  Y  Y4  1  0.788747  0.577495  0.063735  1
  Y  Y5  1  0.422505  0.211253  0.063735  1
  Y  Y6  1  0.788747  0.211253  0.436265  1
  Y  Y7  1  0.788747  0.577495  0.436265  1
  Y  Y8  1  0.422505  0.211253  0.436265  1
  Y  Y9  1  0.211253  0.788747  0.563735  1
  Y  Y10  1  0.211253  0.422505  0.563735  1
  Y  Y11  1  0.577495  0.788747  0.563735  1
  Y  Y12  1  0.541400  0.458600  0.750000  1
  Y  Y13  1  0.541400  0.082800  0.750000  1
  Y  Y14  1  0.917200  0.458600  0.750000  1
  Y  Y15  1  0.458600  0.541400  0.250000  1
  Y  Y16  1  0.458600  0.917200  0.250000  1
  Y  Y17  1  0.082800  0.541400  0.250000  1
  Er  Er18  1  0.000000  0.000000  0.000000  1
  Er  Er19  1  0.000000  0.000000  0.500000  1
  Cd  Cd20  1  0.886158  0.113842  0.750000  1
  Cd  Cd21  1  0.886158  0.772316  0.750000  1
  Cd  Cd22  1  0.227684  0.113842  0.750000  1
  Cd  Cd23  1  0.113842  0.886158  0.250000  1
  Cd  Cd24  1  0.113842  0.227684  0.250000  1
  Cd  Cd25  1  0.772316  0.886158  0.250000  1
  Fe  Fe26  1  0.333333  0.666667  0.750000  1
  Fe  Fe27  1  0.666667  0.333333  0.250000  1
