# generated using pymatgen
data_Ba4NaRh2O9
_symmetry_space_group_name_H-M   'P 1'
_cell_length_a   8.34104044
_cell_length_b   10.19097435
_cell_length_c   10.19427700
_cell_angle_alpha   119.58511046
_cell_angle_beta   89.98148080
_cell_angle_gamma   90.17542592
_symmetry_Int_Tables_number   1
_chemical_formula_structural   Ba4NaRh2O9
_chemical_formula_sum   'Ba12 Na3 Rh6 O27'
_cell_volume   753.56561268
_cell_formula_units_Z   3
loop_
 _symmetry_equiv_pos_site_id
 _symmetry_equiv_pos_as_xyz
  1  'x, y, z'
loop_
 _atom_site_type_symbol
 _atom_site_label
 _atom_site_symmetry_multiplicity
 _atom_site_fract_x
 _atom_site_fract_y
 _atom_site_fract_z
 _atom_site_occupancy
  Ba  Ba0  1  0.499732  0.641133  0.642214  1
  Ba  Ba1  1  0.501017  0.351742  0.996760  1
  Ba  Ba2  1  0.499214  0.996285  0.353850  1
  Ba  Ba3  1  0.249098  0.661965  0.974871  1
  Ba  Ba4  1  0.249263  0.018982  0.686066  1
  Ba  Ba5  1  0.248894  0.308761  0.332566  1
  Ba  Ba6  1  0.751052  0.331323  0.309842  1
  Ba  Ba7  1  0.751199  0.684239  0.020158  1
  Ba  Ba8  1  0.750622  0.973680  0.663110  1
  Ba  Ba9  1  0.000118  0.669816  0.670850  1
  Ba  Ba10  1  0.000290  0.324114  0.997904  1
  Ba  Ba11  1  0.000154  0.996311  0.325073  1
  Na  Na12  1  0.743332  0.329450  0.663829  1
  Na  Na13  1  0.256325  0.662797  0.330111  1
  Na  Na14  1  0.499717  0.995506  0.998329  1
  Rh  Rh15  1  0.160074  0.997152  0.998503  1
  Rh  Rh16  1  0.839677  0.996978  0.998366  1
  Rh  Rh17  1  0.081818  0.330239  0.664750  1
  Rh  Rh18  1  0.918061  0.663734  0.331613  1
  Rh  Rh19  1  0.404353  0.329684  0.663965  1
  Rh  Rh20  1  0.595698  0.662712  0.330494  1
  O  O21  1  0.000008  0.148483  0.149504  1
  O  O22  1  0.999650  0.845410  0.998656  1
  O  O23  1  0.999891  0.997656  0.846809  1
  O  O24  1  0.290925  0.164102  0.005462  1
  O  O25  1  0.289786  0.989106  0.158410  1
  O  O26  1  0.290123  0.837596  0.831688  1
  O  O27  1  0.709807  0.829982  0.839050  1
  O  O28  1  0.710109  0.155997  0.990222  1
  O  O29  1  0.710114  0.003467  0.165092  1
  O  O30  1  0.242103  0.168236  0.517250  1
  O  O31  1  0.243455  0.478093  0.649548  1
  O  O32  1  0.243387  0.344280  0.826808  1
  O  O33  1  0.756827  0.825564  0.345589  1
  O  O34  1  0.756429  0.648400  0.479151  1
  O  O35  1  0.757506  0.515826  0.169536  1
  O  O36  1  0.046873  0.499487  0.321413  1
  O  O37  1  0.047200  0.675918  0.178273  1
  O  O38  1  0.046894  0.817570  0.496008  1
  O  O39  1  0.953672  0.494602  0.818288  1
  O  O40  1  0.952419  0.177103  0.677186  1
  O  O41  1  0.952828  0.319648  0.500369  1
  O  O42  1  0.463830  0.493396  0.314954  1
  O  O43  1  0.464713  0.677519  0.175696  1
  O  O44  1  0.463120  0.815711  0.498180  1
  O  O45  1  0.537246  0.497607  0.816963  1
  O  O46  1  0.535548  0.175035  0.678847  1
  O  O47  1  0.535826  0.314606  0.494828  1
