# generated using pymatgen
data_Li4Ta3Mn4NbO16
_symmetry_space_group_name_H-M   'P 1'
_cell_length_a   6.25649001
_cell_length_b   8.65253604
_cell_length_c   6.25560515
_cell_angle_alpha   89.98475411
_cell_angle_beta   89.99931375
_cell_angle_gamma   89.99734064
_symmetry_Int_Tables_number   1
_chemical_formula_structural   Li4Ta3Mn4NbO16
_chemical_formula_sum   'Li4 Ta3 Mn4 Nb1 O16'
_cell_volume   338.64407795
_cell_formula_units_Z   1
loop_
 _symmetry_equiv_pos_site_id
 _symmetry_equiv_pos_as_xyz
  1  'x, y, z'
loop_
 _atom_site_type_symbol
 _atom_site_label
 _atom_site_symmetry_multiplicity
 _atom_site_fract_x
 _atom_site_fract_y
 _atom_site_fract_z
 _atom_site_occupancy
  Li  Li0  1  0.222087  0.999987  0.000010  1
  Li  Li1  1  0.776521  0.499996  0.999978  1
  Li  Li2  1  0.000091  0.249310  0.221711  1
  Li  Li3  1  0.000108  0.750691  0.778280  1
  Ta  Ta4  1  0.499962  0.749365  0.773994  1
  Ta  Ta5  1  0.499956  0.250632  0.226011  1
  Ta  Ta6  1  0.226460  0.000006  0.500003  1
  Mn  Mn7  1  0.252917  0.625766  0.251076  1
  Mn  Mn8  1  0.252954  0.374257  0.748928  1
  Mn  Mn9  1  0.748466  0.875323  0.251038  1
  Mn  Mn10  1  0.748407  0.124661  0.748973  1
  Nb  Nb11  1  0.777505  0.499989  0.499991  1
  O  O12  1  0.266026  0.253546  0.031817  1
  O  O13  1  0.733847  0.246368  0.031850  1
  O  O14  1  0.031866  0.996054  0.266558  1
  O  O15  1  0.969097  0.503945  0.264400  1
  O  O16  1  0.031843  0.003954  0.733433  1
  O  O17  1  0.969118  0.496061  0.735565  1
  O  O18  1  0.266022  0.746469  0.968184  1
  O  O19  1  0.733856  0.753633  0.968147  1
  O  O20  1  0.483514  0.020335  0.271765  1
  O  O21  1  0.513891  0.479101  0.269700  1
  O  O22  1  0.271336  0.229777  0.483912  1
  O  O23  1  0.727712  0.269318  0.483505  1
  O  O24  1  0.271327  0.770223  0.516109  1
  O  O25  1  0.727689  0.730676  0.516493  1
  O  O26  1  0.513933  0.520897  0.730335  1
  O  O27  1  0.483489  0.979660  0.728239  1
