# generated using pymatgen
data_La2(SnPd3)3
_symmetry_space_group_name_H-M   'P 1'
_cell_length_a   8.12359856
_cell_length_b   8.12359728
_cell_length_c   9.50940400
_cell_angle_alpha   90.00000000
_cell_angle_beta   90.00000000
_cell_angle_gamma   120.02172669
_symmetry_Int_Tables_number   1
_chemical_formula_structural   La2(SnPd3)3
_chemical_formula_sum   'La4 Sn6 Pd18'
_cell_volume   543.35747557
_cell_formula_units_Z   2
loop_
 _symmetry_equiv_pos_site_id
 _symmetry_equiv_pos_as_xyz
  1  'x, y, z'
loop_
 _atom_site_type_symbol
 _atom_site_label
 _atom_site_symmetry_multiplicity
 _atom_site_fract_x
 _atom_site_fract_y
 _atom_site_fract_z
 _atom_site_occupancy
  La  La0  1  0.329054  0.015769  0.750000  1
  La  La1  1  0.670946  0.984231  0.250000  1
  La  La2  1  0.015769  0.329054  0.750000  1
  La  La3  1  0.984231  0.670946  0.250000  1
  Sn  Sn4  1  0.000000  0.000000  0.500000  1
  Sn  Sn5  1  0.678571  0.321429  0.000000  1
  Sn  Sn6  1  0.321429  0.678571  0.500000  1
  Sn  Sn7  1  0.321429  0.678571  0.000000  1
  Sn  Sn8  1  0.000000  0.000000  0.000000  1
  Sn  Sn9  1  0.678571  0.321429  0.500000  1
  Pd  Pd10  1  0.334221  0.334221  0.965569  1
  Pd  Pd11  1  0.448430  0.643279  0.750000  1
  Pd  Pd12  1  0.551570  0.356721  0.250000  1
  Pd  Pd13  1  0.643279  0.448430  0.750000  1
  Pd  Pd14  1  0.005399  0.341417  0.085721  1
  Pd  Pd15  1  0.994601  0.658583  0.585721  1
  Pd  Pd16  1  0.341417  0.005399  0.414279  1
  Pd  Pd17  1  0.658583  0.994601  0.914279  1
  Pd  Pd18  1  0.994601  0.658583  0.914279  1
  Pd  Pd19  1  0.005399  0.341417  0.414279  1
  Pd  Pd20  1  0.658583  0.994601  0.585721  1
  Pd  Pd21  1  0.856949  0.856949  0.750000  1
  Pd  Pd22  1  0.334221  0.334221  0.534431  1
  Pd  Pd23  1  0.665779  0.665779  0.034431  1
  Pd  Pd24  1  0.341417  0.005399  0.085721  1
  Pd  Pd25  1  0.665779  0.665779  0.465569  1
  Pd  Pd26  1  0.143051  0.143051  0.250000  1
  Pd  Pd27  1  0.356721  0.551570  0.250000  1
