# generated using pymatgen
data_Er2B6(Ir2Rh)3
_symmetry_space_group_name_H-M   'P 1'
_cell_length_a   5.61414216
_cell_length_b   5.62355486
_cell_length_c   8.62893100
_cell_angle_alpha   90.00000000
_cell_angle_beta   90.00000000
_cell_angle_gamma   119.84438038
_symmetry_Int_Tables_number   1
_chemical_formula_structural   Er2B6(Ir2Rh)3
_chemical_formula_sum   'Er2 B6 Ir6 Rh3'
_cell_volume   236.29844554
_cell_formula_units_Z   1
loop_
 _symmetry_equiv_pos_site_id
 _symmetry_equiv_pos_as_xyz
  1  'x, y, z'
loop_
 _atom_site_type_symbol
 _atom_site_label
 _atom_site_symmetry_multiplicity
 _atom_site_fract_x
 _atom_site_fract_y
 _atom_site_fract_z
 _atom_site_occupancy
  Er  Er0  1  0.000000  0.000000  0.703119  1
  Er  Er1  1  0.000000  0.000000  0.298117  1
  B  B2  1  0.667098  0.331646  0.999942  1
  B  B3  1  0.332902  0.668354  0.999942  1
  B  B4  1  0.666621  0.332927  0.667754  1
  B  B5  1  0.333379  0.667073  0.667754  1
  B  B6  1  0.333729  0.667410  0.331872  1
  B  B7  1  0.666271  0.332590  0.331872  1
  Ir  Ir8  1  0.500000  0.000000  0.835731  1
  Ir  Ir9  1  0.000000  0.500000  0.835945  1
  Ir  Ir10  1  0.500000  0.000000  0.164482  1
  Ir  Ir11  1  0.500000  0.500000  0.499691  1
  Ir  Ir12  1  0.500000  0.000000  0.499988  1
  Ir  Ir13  1  0.000000  0.500000  0.499038  1
  Rh  Rh14  1  0.500000  0.500000  0.836037  1
  Rh  Rh15  1  0.500000  0.500000  0.164213  1
  Rh  Rh16  1  0.000000  0.500000  0.164503  1
