# generated using pymatgen
data_AcLa10Tb(Si7Br3)2
_symmetry_space_group_name_H-M   'P 1'
_cell_length_a   4.13941500
_cell_length_b   11.97505200
_cell_length_c   16.85096900
_cell_angle_alpha   90.00000000
_cell_angle_beta   90.00000000
_cell_angle_gamma   90.00000000
_symmetry_Int_Tables_number   1
_chemical_formula_structural   AcLa10Tb(Si7Br3)2
_chemical_formula_sum   'Ac1 La10 Tb1 Si14 Br6'
_cell_volume   835.29764444
_cell_formula_units_Z   1
loop_
 _symmetry_equiv_pos_site_id
 _symmetry_equiv_pos_as_xyz
  1  'x, y, z'
loop_
 _atom_site_type_symbol
 _atom_site_label
 _atom_site_symmetry_multiplicity
 _atom_site_fract_x
 _atom_site_fract_y
 _atom_site_fract_z
 _atom_site_occupancy
  Ac  Ac0  1  0.500000  0.337215  0.500000  1
  La  La1  1  0.000000  0.657973  0.000000  1
  La  La2  1  0.500000  0.359144  0.758731  1
  La  La3  1  0.000000  0.641890  0.747351  1
  La  La4  1  0.500000  0.359144  0.241269  1
  La  La5  1  0.000000  0.641890  0.252649  1
  La  La6  1  0.500000  0.068474  0.881717  1
  La  La7  1  0.000000  0.931984  0.620838  1
  La  La8  1  0.500000  0.068474  0.118283  1
  La  La9  1  0.000000  0.931984  0.379162  1
  La  La10  1  0.000000  0.642276  0.500000  1
  Tb  Tb11  1  0.500000  0.356082  0.000000  1
  Si  Si12  1  0.000000  0.156220  0.000000  1
  Si  Si13  1  0.500000  0.845870  0.500000  1
  Si  Si14  1  0.500000  0.560874  0.880579  1
  Si  Si15  1  0.000000  0.437965  0.626304  1
  Si  Si16  1  0.500000  0.560874  0.119421  1
  Si  Si17  1  0.000000  0.437965  0.373696  1
  Si  Si18  1  0.000000  0.257170  0.877557  1
  Si  Si19  1  0.500000  0.745113  0.625588  1
  Si  Si20  1  0.000000  0.257170  0.122443  1
  Si  Si21  1  0.500000  0.745113  0.374412  1
  Si  Si22  1  0.000000  0.456522  0.880732  1
  Si  Si23  1  0.500000  0.544186  0.626209  1
  Si  Si24  1  0.500000  0.544186  0.373791  1
  Si  Si25  1  0.000000  0.456522  0.119268  1
  Br  Br26  1  0.500000  0.109119  0.692643  1
  Br  Br27  1  0.000000  0.893343  0.808484  1
  Br  Br28  1  0.000000  0.130654  0.500000  1
  Br  Br29  1  0.500000  0.862144  0.000000  1
  Br  Br30  1  0.500000  0.109119  0.307357  1
  Br  Br31  1  0.000000  0.893343  0.191516  1
