# generated using pymatgen
data_Ho8Hf12Si15P
_symmetry_space_group_name_H-M   'P 1'
_cell_length_a   7.25336996
_cell_length_b   7.25793342
_cell_length_c   13.33403432
_cell_angle_alpha   89.81975665
_cell_angle_beta   89.95125448
_cell_angle_gamma   89.97035000
_symmetry_Int_Tables_number   1
_chemical_formula_structural   Ho8Hf12Si15P
_chemical_formula_sum   'Ho8 Hf12 Si15 P1'
_cell_volume   701.95943274
_cell_formula_units_Z   1
loop_
 _symmetry_equiv_pos_site_id
 _symmetry_equiv_pos_as_xyz
  1  'x, y, z'
loop_
 _atom_site_type_symbol
 _atom_site_label
 _atom_site_symmetry_multiplicity
 _atom_site_fract_x
 _atom_site_fract_y
 _atom_site_fract_z
 _atom_site_occupancy
  Ho  Ho0  1  0.998880  0.344835  0.216157  1
  Ho  Ho1  1  0.004738  0.656126  0.714885  1
  Ho  Ho2  1  0.155601  0.496149  0.464506  1
  Ho  Ho3  1  0.506257  0.842767  0.034222  1
  Ho  Ho4  1  0.844245  0.503212  0.965189  1
  Ho  Ho5  1  0.495739  0.155337  0.534636  1
  Ho  Ho6  1  0.345234  0.996140  0.785084  1
  Ho  Ho7  1  0.652158  0.006360  0.284795  1
  Hf  Hf8  1  0.174883  0.174953  0.000367  1
  Hf  Hf9  1  0.826220  0.826158  0.499573  1
  Hf  Hf10  1  0.324336  0.674914  0.250526  1
  Hf  Hf11  1  0.674759  0.325506  0.750054  1
  Hf  Hf12  1  0.151762  0.999816  0.372831  1
  Hf  Hf13  1  0.851496  0.003476  0.875053  1
  Hf  Hf14  1  0.503058  0.649153  0.624623  1
  Hf  Hf15  1  0.352133  0.496637  0.875397  1
  Hf  Hf16  1  0.494381  0.348059  0.127914  1
  Hf  Hf17  1  0.647351  0.502189  0.375553  1
  Hf  Hf18  1  0.997176  0.149439  0.625203  1
  Hf  Hf19  1  0.000781  0.849201  0.124593  1
  Si  Si20  1  0.638547  0.705340  0.817243  1
  Si  Si21  1  0.204084  0.862605  0.566246  1
  Si  Si22  1  0.138291  0.794445  0.931915  1
  Si  Si23  1  0.794610  0.139553  0.068130  1
  Si  Si24  1  0.861901  0.204733  0.432203  1
  Si  Si25  1  0.295589  0.361230  0.682320  1
  Si  Si26  1  0.703705  0.636566  0.183375  1
  Si  Si27  1  0.294559  0.040186  0.181152  1
  Si  Si28  1  0.704430  0.951456  0.685512  1
  Si  Si29  1  0.451622  0.796479  0.435809  1
  Si  Si30  1  0.204082  0.547705  0.064473  1
  Si  Si31  1  0.549025  0.204188  0.936588  1
  Si  Si32  1  0.795861  0.451781  0.564374  1
  Si  Si33  1  0.049223  0.296238  0.814152  1
  Si  Si34  1  0.951123  0.705098  0.315049  1
  P  P35  1  0.362158  0.301973  0.320293  1
