# generated using pymatgen
data_Tb3Zn2In3Cu
_symmetry_space_group_name_H-M   'P 1'
_cell_length_a   7.26226400
_cell_length_b   7.26226304
_cell_length_c   4.38591200
_cell_angle_alpha   90.00000000
_cell_angle_beta   90.00000000
_cell_angle_gamma   120.00000439
_symmetry_Int_Tables_number   1
_chemical_formula_structural   Tb3Zn2In3Cu
_chemical_formula_sum   'Tb3 Zn2 In3 Cu1'
_cell_volume   200.32471494
_cell_formula_units_Z   1
loop_
 _symmetry_equiv_pos_site_id
 _symmetry_equiv_pos_as_xyz
  1  'x, y, z'
loop_
 _atom_site_type_symbol
 _atom_site_label
 _atom_site_symmetry_multiplicity
 _atom_site_fract_x
 _atom_site_fract_y
 _atom_site_fract_z
 _atom_site_occupancy
  Tb  Tb0  1  0.000000  0.591079  0.500000  1
  Tb  Tb1  1  0.408921  0.408921  0.500000  1
  Tb  Tb2  1  0.591079  0.000000  0.500000  1
  Zn  Zn3  1  0.333333  0.666667  0.000000  1
  Zn  Zn4  1  0.666667  0.333333  0.000000  1
  In  In5  1  0.751634  0.751634  0.000000  1
  In  In6  1  0.000000  0.248366  0.000000  1
  In  In7  1  0.248366  0.000000  0.000000  1
  Cu  Cu8  1  0.000000  0.000000  0.500000  1
