# generated using pymatgen
data_TbTcF7
_symmetry_space_group_name_H-M   'P 1'
_cell_length_a   5.62138800
_cell_length_b   8.96700479
_cell_length_c   12.06563041
_cell_angle_alpha   62.38157652
_cell_angle_beta   90.00000000
_cell_angle_gamma   90.00000000
_symmetry_Int_Tables_number   1
_chemical_formula_structural   TbTcF7
_chemical_formula_sum   'Tb4 Tc4 F28'
_cell_volume   538.89164086
_cell_formula_units_Z   4
loop_
 _symmetry_equiv_pos_site_id
 _symmetry_equiv_pos_as_xyz
  1  'x, y, z'
loop_
 _atom_site_type_symbol
 _atom_site_label
 _atom_site_symmetry_multiplicity
 _atom_site_fract_x
 _atom_site_fract_y
 _atom_site_fract_z
 _atom_site_occupancy
  Tb  Tb0  1  0.258530  0.813793  0.264490  1
  Tb  Tb1  1  0.741470  0.186207  0.735510  1
  Tb  Tb2  1  0.758530  0.186207  0.235510  1
  Tb  Tb3  1  0.241470  0.813793  0.764490  1
  Tc  Tc4  1  0.757835  0.726718  0.042806  1
  Tc  Tc5  1  0.242165  0.273282  0.957194  1
  Tc  Tc6  1  0.257835  0.273282  0.457194  1
  Tc  Tc7  1  0.742165  0.726718  0.542806  1
  F  F8  1  0.945071  0.707488  0.418139  1
  F  F9  1  0.054929  0.292512  0.581861  1
  F  F10  1  0.445071  0.292512  0.081861  1
  F  F11  1  0.554929  0.707488  0.918139  1
  F  F12  1  0.476956  0.729517  0.138467  1
  F  F13  1  0.523044  0.270483  0.861533  1
  F  F14  1  0.976956  0.270483  0.361533  1
  F  F15  1  0.023044  0.729517  0.638467  1
  F  F16  1  0.955502  0.744519  0.171434  1
  F  F17  1  0.044498  0.255481  0.828566  1
  F  F18  1  0.455502  0.255481  0.328566  1
  F  F19  1  0.544498  0.744519  0.671434  1
  F  F20  1  0.771124  0.480088  0.140294  1
  F  F21  1  0.228876  0.519912  0.859706  1
  F  F22  1  0.271124  0.519912  0.359706  1
  F  F23  1  0.728876  0.480088  0.640294  1
  F  F24  1  0.950421  0.278639  0.046283  1
  F  F25  1  0.049579  0.721361  0.953717  1
  F  F26  1  0.450421  0.721361  0.453717  1
  F  F27  1  0.549579  0.278639  0.546283  1
  F  F28  1  0.740733  0.972683  0.446268  1
  F  F29  1  0.259267  0.027317  0.553732  1
  F  F30  1  0.240733  0.027317  0.053732  1
  F  F31  1  0.759267  0.972683  0.946268  1
  F  F32  1  0.583292  0.970347  0.231116  1
  F  F33  1  0.416708  0.029653  0.768884  1
  F  F34  1  0.083292  0.029653  0.268884  1
  F  F35  1  0.916708  0.970347  0.731116  1
