# generated using pymatgen
data_Tb3Yb(TcB4)4
_symmetry_space_group_name_H-M   'P 1'
_cell_length_a   3.60050000
_cell_length_b   5.97221811
_cell_length_c   11.56162547
_cell_angle_alpha   90.03968426
_cell_angle_beta   90.00000000
_cell_angle_gamma   90.00000000
_symmetry_Int_Tables_number   1
_chemical_formula_structural   Tb3Yb(TcB4)4
_chemical_formula_sum   'Tb3 Yb1 Tc4 B16'
_cell_volume   248.60924091
_cell_formula_units_Z   1
loop_
 _symmetry_equiv_pos_site_id
 _symmetry_equiv_pos_as_xyz
  1  'x, y, z'
loop_
 _atom_site_type_symbol
 _atom_site_label
 _atom_site_symmetry_multiplicity
 _atom_site_fract_x
 _atom_site_fract_y
 _atom_site_fract_z
 _atom_site_occupancy
  Tb  Tb0  1  0.500000  0.628093  0.150230  1
  Tb  Tb1  1  0.500000  0.371191  0.848873  1
  Tb  Tb2  1  0.500000  0.127064  0.350005  1
  Yb  Yb3  1  0.500000  0.871967  0.650239  1
  Tc  Tc4  1  0.500000  0.630549  0.414872  1
  Tc  Tc5  1  0.500000  0.368434  0.584723  1
  Tc  Tc6  1  0.500000  0.132564  0.087142  1
  Tc  Tc7  1  0.500000  0.866420  0.913047  1
  B  B8  1  0.000000  0.976800  0.192283  1
  B  B9  1  0.000000  0.022990  0.807155  1
  B  B10  1  0.000000  0.477972  0.308206  1
  B  B11  1  0.000000  0.522518  0.691812  1
  B  B12  1  0.000000  0.786880  0.316059  1
  B  B13  1  0.000000  0.213383  0.684364  1
  B  B14  1  0.000000  0.286641  0.185123  1
  B  B15  1  0.000000  0.714550  0.814346  1
  B  B16  1  0.000000  0.864178  0.468597  1
  B  B17  1  0.000000  0.135751  0.532288  1
  B  B18  1  0.000000  0.363637  0.031256  1
  B  B19  1  0.000000  0.636174  0.968468  1
  B  B20  1  0.000000  0.887181  0.047021  1
  B  B21  1  0.000000  0.112475  0.952542  1
  B  B22  1  0.000000  0.387569  0.453538  1
  B  B23  1  0.000000  0.615020  0.547813  1
