# generated using pymatgen
data_Tb16Cd4FeCoPd2
_symmetry_space_group_name_H-M   'P 1'
_cell_length_a   9.63984927
_cell_length_b   9.63984821
_cell_length_c   9.66675495
_cell_angle_alpha   59.94907226
_cell_angle_beta   59.94907386
_cell_angle_gamma   59.98831591
_symmetry_Int_Tables_number   1
_chemical_formula_structural   Tb16Cd4FeCoPd2
_chemical_formula_sum   'Tb16 Cd4 Fe1 Co1 Pd2'
_cell_volume   634.64828870
_cell_formula_units_Z   1
loop_
 _symmetry_equiv_pos_site_id
 _symmetry_equiv_pos_as_xyz
  1  'x, y, z'
loop_
 _atom_site_type_symbol
 _atom_site_label
 _atom_site_symmetry_multiplicity
 _atom_site_fract_x
 _atom_site_fract_y
 _atom_site_fract_z
 _atom_site_occupancy
  Tb  Tb0  1  0.344477  0.344477  0.360587  1
  Tb  Tb1  1  0.347339  0.347339  0.945866  1
  Tb  Tb2  1  0.339672  0.958510  0.352127  1
  Tb  Tb3  1  0.958510  0.339672  0.352127  1
  Tb  Tb4  1  0.819941  0.189327  0.189914  1
  Tb  Tb5  1  0.186297  0.821487  0.801222  1
  Tb  Tb6  1  0.189327  0.819941  0.189914  1
  Tb  Tb7  1  0.821487  0.186297  0.801222  1
  Tb  Tb8  1  0.188053  0.188053  0.809921  1
  Tb  Tb9  1  0.808825  0.808825  0.189886  1
  Tb  Tb10  1  0.936217  0.559871  0.566563  1
  Tb  Tb11  1  0.561182  0.935061  0.937818  1
  Tb  Tb12  1  0.559871  0.936217  0.566563  1
  Tb  Tb13  1  0.935061  0.561182  0.937818  1
  Tb  Tb14  1  0.562219  0.562219  0.939311  1
  Tb  Tb15  1  0.936077  0.936077  0.564538  1
  Cd  Cd16  1  0.579824  0.579824  0.580134  1
  Cd  Cd17  1  0.580579  0.580579  0.258135  1
  Cd  Cd18  1  0.582676  0.255041  0.580828  1
  Cd  Cd19  1  0.255041  0.582676  0.580828  1
  Fe  Fe20  1  0.144377  0.144377  0.574511  1
  Co  Co21  1  0.143491  0.143491  0.139656  1
  Pd  Pd22  1  0.146252  0.573207  0.140258  1
  Pd  Pd23  1  0.573207  0.146252  0.140258  1
