# generated using pymatgen
data_Ho4Sn5AsIr7
_symmetry_space_group_name_H-M   'P 1'
_cell_length_a   7.53603911
_cell_length_b   7.53603860
_cell_length_c   7.53603968
_cell_angle_alpha   109.44024425
_cell_angle_beta   109.48671899
_cell_angle_gamma   109.48670996
_symmetry_Int_Tables_number   1
_chemical_formula_structural   Ho4Sn5AsIr7
_chemical_formula_sum   'Ho4 Sn5 As1 Ir7'
_cell_volume   329.46357863
_cell_formula_units_Z   1
loop_
 _symmetry_equiv_pos_site_id
 _symmetry_equiv_pos_as_xyz
  1  'x, y, z'
loop_
 _atom_site_type_symbol
 _atom_site_label
 _atom_site_symmetry_multiplicity
 _atom_site_fract_x
 _atom_site_fract_y
 _atom_site_fract_z
 _atom_site_occupancy
  Ho  Ho0  1  0.000000  0.991825  0.526630  1
  Ho  Ho1  1  0.000000  0.526630  0.991825  1
  Ho  Ho2  1  0.465196  0.991825  0.991825  1
  Ho  Ho3  1  0.534804  0.526630  0.526630  1
  Sn  Sn4  1  0.686155  0.699799  0.013644  1
  Sn  Sn5  1  0.313845  0.013644  0.327489  1
  Sn  Sn6  1  0.000000  0.291171  0.291171  1
  Sn  Sn7  1  0.313845  0.327489  0.013644  1
  Sn  Sn8  1  0.686155  0.013644  0.699799  1
  As  As9  1  0.000000  0.655786  0.655786  1
  Ir  Ir10  1  0.754522  0.248596  0.494074  1
  Ir  Ir11  1  0.754522  0.494074  0.248596  1
  Ir  Ir12  1  0.500000  0.259888  0.759888  1
  Ir  Ir13  1  0.245478  0.494074  0.739552  1
  Ir  Ir14  1  0.245478  0.739552  0.494074  1
  Ir  Ir15  1  0.500000  0.759888  0.259888  1
  Ir  Ir16  1  0.000000  0.965483  0.965483  1
