# generated using pymatgen
data_Nd2UFe2Ge7
_symmetry_space_group_name_H-M   'P 1'
_cell_length_a   12.58105324
_cell_length_b   12.58105457
_cell_length_c   4.24594500
_cell_angle_alpha   90.00000000
_cell_angle_beta   90.00000000
_cell_angle_gamma   160.44431192
_symmetry_Int_Tables_number   1
_chemical_formula_structural   Nd2UFe2Ge7
_chemical_formula_sum   'Nd2 U1 Fe2 Ge7'
_cell_volume   224.95405524
_cell_formula_units_Z   1
loop_
 _symmetry_equiv_pos_site_id
 _symmetry_equiv_pos_as_xyz
  1  'x, y, z'
loop_
 _atom_site_type_symbol
 _atom_site_label
 _atom_site_symmetry_multiplicity
 _atom_site_fract_x
 _atom_site_fract_y
 _atom_site_fract_z
 _atom_site_occupancy
  Nd  Nd0  1  0.316265  0.683735  0.000000  1
  Nd  Nd1  1  0.683735  0.316265  0.000000  1
  U  U2  1  0.000000  0.000000  0.500000  1
  Fe  Fe3  1  0.123001  0.876999  0.500000  1
  Fe  Fe4  1  0.876999  0.123001  0.500000  1
  Ge  Ge5  1  0.218893  0.781107  0.500000  1
  Ge  Ge6  1  0.781107  0.218893  0.500000  1
  Ge  Ge7  1  0.085214  0.914786  0.000000  1
  Ge  Ge8  1  0.914786  0.085214  0.000000  1
  Ge  Ge9  1  0.414666  0.585334  0.500000  1
  Ge  Ge10  1  0.500000  0.500000  0.000000  1
  Ge  Ge11  1  0.585334  0.414666  0.500000  1
