# generated using pymatgen
data_UPa3(CoGe)4
_symmetry_space_group_name_H-M   'P 1'
_cell_length_a   4.20827500
_cell_length_b   6.89839509
_cell_length_c   7.24321708
_cell_angle_alpha   89.98204065
_cell_angle_beta   90.00000000
_cell_angle_gamma   90.00000000
_symmetry_Int_Tables_number   1
_chemical_formula_structural   UPa3(CoGe)4
_chemical_formula_sum   'U1 Pa3 Co4 Ge4'
_cell_volume   210.27307036
_cell_formula_units_Z   1
loop_
 _symmetry_equiv_pos_site_id
 _symmetry_equiv_pos_as_xyz
  1  'x, y, z'
loop_
 _atom_site_type_symbol
 _atom_site_label
 _atom_site_symmetry_multiplicity
 _atom_site_fract_x
 _atom_site_fract_y
 _atom_site_fract_z
 _atom_site_occupancy
  U  U0  1  0.750000  0.486835  0.290898  1
  Pa  Pa1  1  0.250000  0.011850  0.792780  1
  Pa  Pa2  1  0.250000  0.511234  0.704921  1
  Pa  Pa3  1  0.750000  0.985343  0.208818  1
  Co  Co4  1  0.250000  0.282663  0.085781  1
  Co  Co5  1  0.250000  0.768278  0.417782  1
  Co  Co6  1  0.750000  0.726636  0.919245  1
  Co  Co7  1  0.750000  0.238473  0.579100  1
  Ge  Ge8  1  0.250000  0.686650  0.085844  1
  Ge  Ge9  1  0.250000  0.192178  0.413289  1
  Ge  Ge10  1  0.750000  0.303578  0.916252  1
  Ge  Ge11  1  0.750000  0.806282  0.585289  1
