# generated using pymatgen
data_HoIn(ReH9)2
_symmetry_space_group_name_H-M   'P 1'
_cell_length_a   5.13267766
_cell_length_b   5.13243889
_cell_length_c   8.97051700
_cell_angle_alpha   93.48452216
_cell_angle_beta   86.52124311
_cell_angle_gamma   124.87354612
_symmetry_Int_Tables_number   1
_chemical_formula_structural   HoIn(ReH9)2
_chemical_formula_sum   'Ho1 In1 Re2 H18'
_cell_volume   193.41846114
_cell_formula_units_Z   1
loop_
 _symmetry_equiv_pos_site_id
 _symmetry_equiv_pos_as_xyz
  1  'x, y, z'
loop_
 _atom_site_type_symbol
 _atom_site_label
 _atom_site_symmetry_multiplicity
 _atom_site_fract_x
 _atom_site_fract_y
 _atom_site_fract_z
 _atom_site_occupancy
  Ho  Ho0  1  0.000000  0.000000  0.500000  1
  In  In1  1  0.000000  0.000000  0.000000  1
  Re  Re2  1  0.333835  0.666345  0.712357  1
  Re  Re3  1  0.666165  0.333655  0.287643  1
  H  H4  1  0.387998  0.612123  0.525060  1
  H  H5  1  0.612002  0.387877  0.474940  1
  H  H6  1  0.412942  0.587157  0.874676  1
  H  H7  1  0.587058  0.412843  0.125324  1
  H  H8  1  0.466951  0.967025  0.841071  1
  H  H9  1  0.966777  0.466672  0.158937  1
  H  H10  1  0.594998  0.027912  0.642411  1
  H  H11  1  0.027744  0.594781  0.357603  1
  H  H12  1  0.533049  0.032975  0.158929  1
  H  H13  1  0.033223  0.533328  0.841063  1
  H  H14  1  0.405002  0.972088  0.357589  1
  H  H15  1  0.972256  0.405219  0.642397  1
  H  H16  1  0.701908  0.730933  0.708123  1
  H  H17  1  0.730853  0.701786  0.291896  1
  H  H18  1  0.298092  0.269067  0.291877  1
  H  H19  1  0.269147  0.298214  0.708104  1
  H  H20  1  0.149354  0.850899  0.687891  1
  H  H21  1  0.850646  0.149101  0.312109  1
