# generated using pymatgen
data_HoEr2Mg3Ge2Pd
_symmetry_space_group_name_H-M   'P 1'
_cell_length_a   7.23797211
_cell_length_b   7.23797173
_cell_length_c   4.26179300
_cell_angle_alpha   90.00000000
_cell_angle_beta   90.00000000
_cell_angle_gamma   120.06359594
_symmetry_Int_Tables_number   1
_chemical_formula_structural   HoEr2Mg3Ge2Pd
_chemical_formula_sum   'Ho1 Er2 Mg3 Ge2 Pd1'
_cell_volume   193.23157938
_cell_formula_units_Z   1
loop_
 _symmetry_equiv_pos_site_id
 _symmetry_equiv_pos_as_xyz
  1  'x, y, z'
loop_
 _atom_site_type_symbol
 _atom_site_label
 _atom_site_symmetry_multiplicity
 _atom_site_fract_x
 _atom_site_fract_y
 _atom_site_fract_z
 _atom_site_occupancy
  Ho  Ho0  1  0.416384  0.416384  0.500000  1
  Er  Er1  1  0.583601  0.999902  0.500000  1
  Er  Er2  1  0.999902  0.583601  0.500000  1
  Mg  Mg3  1  0.757407  0.757407  0.000000  1
  Mg  Mg4  1  0.242692  0.999839  0.000000  1
  Mg  Mg5  1  0.999839  0.242692  0.000000  1
  Ge  Ge6  1  0.666891  0.333367  0.000000  1
  Ge  Ge7  1  0.333367  0.666891  0.000000  1
  Pd  Pd8  1  0.999917  0.999917  0.500000  1
