# generated using pymatgen
data_CaCeAl20(OsRu)2
_symmetry_space_group_name_H-M   'P 1'
_cell_length_a   6.88141936
_cell_length_b   6.88273558
_cell_length_c   9.17479300
_cell_angle_alpha   90.00000000
_cell_angle_beta   90.00000000
_cell_angle_gamma   96.69102746
_symmetry_Int_Tables_number   1
_chemical_formula_structural   CaCeAl20(OsRu)2
_chemical_formula_sum   'Ca1 Ce1 Al20 Os2 Ru2'
_cell_volume   431.58589804
_cell_formula_units_Z   1
loop_
 _symmetry_equiv_pos_site_id
 _symmetry_equiv_pos_as_xyz
  1  'x, y, z'
loop_
 _atom_site_type_symbol
 _atom_site_label
 _atom_site_symmetry_multiplicity
 _atom_site_fract_x
 _atom_site_fract_y
 _atom_site_fract_z
 _atom_site_occupancy
  Ca  Ca0  1  0.874139  0.124710  0.750000  1
  Ce  Ce1  1  0.125510  0.876529  0.250000  1
  Al  Al2  1  0.590181  0.861077  0.250000  1
  Al  Al3  1  0.778717  0.519657  0.250000  1
  Al  Al4  1  0.160327  0.838461  0.898709  1
  Al  Al5  1  0.412242  0.140169  0.750000  1
  Al  Al6  1  0.623211  0.377260  0.955855  1
  Al  Al7  1  0.843382  0.157221  0.400112  1
  Al  Al8  1  0.774296  0.775248  0.998928  1
  Al  Al9  1  0.859457  0.587155  0.750000  1
  Al  Al10  1  0.843382  0.157221  0.099888  1
  Al  Al11  1  0.219461  0.477192  0.750000  1
  Al  Al12  1  0.160327  0.838461  0.601291  1
  Al  Al13  1  0.774296  0.775248  0.501072  1
  Al  Al14  1  0.480471  0.221025  0.250000  1
  Al  Al15  1  0.623211  0.377260  0.544145  1
  Al  Al16  1  0.223593  0.227125  0.500575  1
  Al  Al17  1  0.377247  0.622218  0.445996  1
  Al  Al18  1  0.138685  0.411194  0.250000  1
  Al  Al19  1  0.522874  0.781296  0.750000  1
  Al  Al20  1  0.377247  0.622218  0.054004  1
  Al  Al21  1  0.223593  0.227125  0.999425  1
  Os  Os22  1  0.497356  0.000097  0.000076  1
  Os  Os23  1  0.497356  0.000097  0.499924  1
  Ru  Ru24  1  0.999720  0.502368  0.999951  1
  Ru  Ru25  1  0.999720  0.502368  0.500049  1
