# generated using pymatgen
data_Tm5(TcO6)2
_symmetry_space_group_name_H-M   'P 1'
_cell_length_a   6.73575143
_cell_length_b   6.73575160
_cell_length_c   7.42817602
_cell_angle_alpha   73.77225947
_cell_angle_beta   73.77225496
_cell_angle_gamma   49.33390516
_symmetry_Int_Tables_number   1
_chemical_formula_structural   Tm5(TcO6)2
_chemical_formula_sum   'Tm5 Tc2 O12'
_cell_volume   243.24816561
_cell_formula_units_Z   1
loop_
 _symmetry_equiv_pos_site_id
 _symmetry_equiv_pos_as_xyz
  1  'x, y, z'
loop_
 _atom_site_type_symbol
 _atom_site_label
 _atom_site_symmetry_multiplicity
 _atom_site_fract_x
 _atom_site_fract_y
 _atom_site_fract_z
 _atom_site_occupancy
  Tm  Tm0  1  0.803468  0.803468  0.358571  1
  Tm  Tm1  1  0.196532  0.196532  0.641429  1
  Tm  Tm2  1  0.184388  0.184388  0.177657  1
  Tm  Tm3  1  0.815612  0.815612  0.822343  1
  Tm  Tm4  1  0.500000  0.500000  0.500000  1
  Tc  Tc5  1  0.285471  0.714529  0.000000  1
  Tc  Tc6  1  0.714529  0.285471  0.000000  1
  O  O7  1  0.413363  0.920286  0.913440  1
  O  O8  1  0.079714  0.586637  0.086560  1
  O  O9  1  0.586637  0.079714  0.086560  1
  O  O10  1  0.920286  0.413363  0.913440  1
  O  O11  1  0.598623  0.094448  0.572711  1
  O  O12  1  0.905552  0.401377  0.427289  1
  O  O13  1  0.401377  0.905552  0.427289  1
  O  O14  1  0.000875  0.000875  0.818173  1
  O  O15  1  0.999125  0.999125  0.181827  1
  O  O16  1  0.497783  0.497783  0.793585  1
  O  O17  1  0.502217  0.502217  0.206415  1
  O  O18  1  0.094448  0.598623  0.572711  1
