# generated using pymatgen
data_La3Y(PPt)4
_symmetry_space_group_name_H-M   'P 1'
_cell_length_a   4.20732200
_cell_length_b   4.20732173
_cell_length_c   16.24585400
_cell_angle_alpha   90.00000000
_cell_angle_beta   90.00000000
_cell_angle_gamma   119.99998639
_symmetry_Int_Tables_number   1
_chemical_formula_structural   La3Y(PPt)4
_chemical_formula_sum   'La3 Y1 P4 Pt4'
_cell_volume   249.04894817
_cell_formula_units_Z   1
loop_
 _symmetry_equiv_pos_site_id
 _symmetry_equiv_pos_as_xyz
  1  'x, y, z'
loop_
 _atom_site_type_symbol
 _atom_site_label
 _atom_site_symmetry_multiplicity
 _atom_site_fract_x
 _atom_site_fract_y
 _atom_site_fract_z
 _atom_site_occupancy
  La  La0  1  0.000000  0.000000  0.994088  1
  La  La1  1  0.000000  0.000000  0.505912  1
  La  La2  1  0.000000  0.000000  0.250000  1
  Y  Y3  1  0.000000  0.000000  0.750000  1
  P  P4  1  0.333333  0.666667  0.873638  1
  P  P5  1  0.666667  0.333333  0.377855  1
  P  P6  1  0.666667  0.333333  0.122145  1
  P  P7  1  0.333333  0.666667  0.626362  1
  Pt  Pt8  1  0.333333  0.666667  0.377024  1
  Pt  Pt9  1  0.666667  0.333333  0.859511  1
  Pt  Pt10  1  0.666667  0.333333  0.640489  1
  Pt  Pt11  1  0.333333  0.666667  0.122976  1
