# generated using pymatgen
data_Pa2Mn15Ga2C3
_symmetry_space_group_name_H-M   'P 1'
_cell_length_a   6.48711850
_cell_length_b   6.48711904
_cell_length_c   6.44089111
_cell_angle_alpha   83.32273310
_cell_angle_beta   83.32272771
_cell_angle_gamma   82.73629962
_symmetry_Int_Tables_number   1
_chemical_formula_structural   Pa2Mn15Ga2C3
_chemical_formula_sum   'Pa2 Mn15 Ga2 C3'
_cell_volume   265.62807729
_cell_formula_units_Z   1
loop_
 _symmetry_equiv_pos_site_id
 _symmetry_equiv_pos_as_xyz
  1  'x, y, z'
loop_
 _atom_site_type_symbol
 _atom_site_label
 _atom_site_symmetry_multiplicity
 _atom_site_fract_x
 _atom_site_fract_y
 _atom_site_fract_z
 _atom_site_occupancy
  Pa  Pa0  1  0.656117  0.656117  0.657293  1
  Pa  Pa1  1  0.343883  0.343883  0.342707  1
  Mn  Mn2  1  0.000000  0.000000  0.500000  1
  Mn  Mn3  1  0.725861  0.274139  0.000000  1
  Mn  Mn4  1  0.002670  0.730334  0.280522  1
  Mn  Mn5  1  0.269666  0.997330  0.719478  1
  Mn  Mn6  1  0.997330  0.269666  0.719478  1
  Mn  Mn7  1  0.730334  0.002670  0.280522  1
  Mn  Mn8  1  0.274139  0.725861  0.000000  1
  Mn  Mn9  1  0.351532  0.351532  0.841133  1
  Mn  Mn10  1  0.846246  0.347000  0.355721  1
  Mn  Mn11  1  0.347000  0.846246  0.355721  1
  Mn  Mn12  1  0.648468  0.648468  0.158867  1
  Mn  Mn13  1  0.153754  0.653000  0.644279  1
  Mn  Mn14  1  0.653000  0.153754  0.644279  1
  Mn  Mn15  1  0.907061  0.907061  0.898071  1
  Mn  Mn16  1  0.092939  0.092939  0.101929  1
  Ga  Ga17  1  0.500000  0.000000  0.000000  1
  Ga  Ga18  1  0.000000  0.500000  0.000000  1
  C  C19  1  0.500000  0.500000  0.000000  1
  C  C20  1  0.000000  0.500000  0.500000  1
  C  C21  1  0.500000  0.000000  0.500000  1
