# generated using pymatgen
data_Tm6Al24OsRu4Pt3
_symmetry_space_group_name_H-M   'P 1'
_cell_length_a   8.79304400
_cell_length_b   8.82112024
_cell_length_c   9.50617244
_cell_angle_alpha   89.71018753
_cell_angle_beta   90.00000000
_cell_angle_gamma   119.89476812
_symmetry_Int_Tables_number   1
_chemical_formula_structural   Tm6Al24OsRu4Pt3
_chemical_formula_sum   'Tm6 Al24 Os1 Ru4 Pt3'
_cell_volume   639.22162654
_cell_formula_units_Z   1
loop_
 _symmetry_equiv_pos_site_id
 _symmetry_equiv_pos_as_xyz
  1  'x, y, z'
loop_
 _atom_site_type_symbol
 _atom_site_label
 _atom_site_symmetry_multiplicity
 _atom_site_fract_x
 _atom_site_fract_y
 _atom_site_fract_z
 _atom_site_occupancy
  Tm  Tm0  1  0.803342  0.192432  0.750235  1
  Tm  Tm1  1  0.196658  0.807568  0.249765  1
  Tm  Tm2  1  0.389090  0.192432  0.750235  1
  Tm  Tm3  1  0.610910  0.807568  0.249765  1
  Tm  Tm4  1  0.805990  0.611981  0.750585  1
  Tm  Tm5  1  0.194010  0.388019  0.249415  1
  Al  Al6  1  0.664608  0.329215  0.971266  1
  Al  Al7  1  0.335392  0.670785  0.028734  1
  Al  Al8  1  0.330479  0.660959  0.471495  1
  Al  Al9  1  0.669521  0.339041  0.528505  1
  Al  Al10  1  0.843183  0.168698  0.422319  1
  Al  Al11  1  0.156817  0.831302  0.577681  1
  Al  Al12  1  0.325515  0.168698  0.422319  1
  Al  Al13  1  0.167244  0.842418  0.921073  1
  Al  Al14  1  0.674485  0.831302  0.577681  1
  Al  Al15  1  0.832756  0.157582  0.078927  1
  Al  Al16  1  0.837094  0.674189  0.423130  1
  Al  Al17  1  0.675173  0.842418  0.921073  1
  Al  Al18  1  0.162906  0.325811  0.576870  1
  Al  Al19  1  0.324827  0.157582  0.078927  1
  Al  Al20  1  0.161736  0.323470  0.920121  1
  Al  Al21  1  0.838264  0.676530  0.079879  1
  Al  Al22  1  0.437401  0.561388  0.746865  1
  Al  Al23  1  0.562599  0.438612  0.253135  1
  Al  Al24  1  0.123986  0.561388  0.746865  1
  Al  Al25  1  0.876014  0.438612  0.253135  1
  Al  Al26  1  0.436736  0.873474  0.752623  1
  Al  Al27  1  0.563264  0.126526  0.247377  1
  Al  Al28  1  0.999648  0.999296  0.749876  1
  Al  Al29  1  0.000352  0.000704  0.250124  1
  Os  Os30  1  0.500000  0.000000  0.000000  1
  Ru  Ru31  1  0.500000  0.500000  0.500000  1
  Ru  Ru32  1  0.000000  0.500000  0.500000  1
  Ru  Ru33  1  0.000000  0.000000  0.000000  1
  Ru  Ru34  1  0.000000  0.000000  0.500000  1
  Pt  Pt35  1  0.500000  0.500000  0.000000  1
  Pt  Pt36  1  0.000000  0.500000  0.000000  1
  Pt  Pt37  1  0.500000  0.000000  0.500000  1
