# generated using pymatgen
data_SmDy(SeO4)3
_symmetry_space_group_name_H-M   'P 1'
_cell_length_a   10.10190756
_cell_length_b   10.10191728
_cell_length_c   10.10191428
_cell_angle_alpha   57.72330525
_cell_angle_beta   57.72331366
_cell_angle_gamma   57.72330715
_symmetry_Int_Tables_number   1
_chemical_formula_structural   SmDy(SeO4)3
_chemical_formula_sum   'Sm2 Dy2 Se6 O24'
_cell_volume   690.82169244
_cell_formula_units_Z   2
loop_
 _symmetry_equiv_pos_site_id
 _symmetry_equiv_pos_as_xyz
  1  'x, y, z'
loop_
 _atom_site_type_symbol
 _atom_site_label
 _atom_site_symmetry_multiplicity
 _atom_site_fract_x
 _atom_site_fract_y
 _atom_site_fract_z
 _atom_site_occupancy
  Sm  Sm0  1  0.356544  0.356544  0.356544  1
  Sm  Sm1  1  0.643456  0.643456  0.643456  1
  Dy  Dy2  1  0.144483  0.144483  0.144483  1
  Dy  Dy3  1  0.855517  0.855517  0.855517  1
  Se  Se4  1  0.035631  0.463886  0.754065  1
  Se  Se5  1  0.463886  0.754065  0.035631  1
  Se  Se6  1  0.754065  0.035631  0.463885  1
  Se  Se7  1  0.964369  0.536114  0.245935  1
  Se  Se8  1  0.245935  0.964369  0.536115  1
  Se  Se9  1  0.536114  0.245935  0.964369  1
  O  O10  1  0.223923  0.995182  0.368881  1
  O  O11  1  0.368881  0.223923  0.995182  1
  O  O12  1  0.995182  0.368881  0.223923  1
  O  O13  1  0.776077  0.004818  0.631119  1
  O  O14  1  0.631119  0.776077  0.004818  1
  O  O15  1  0.004818  0.631119  0.776077  1
  O  O16  1  0.269152  0.128932  0.509879  1
  O  O17  1  0.509879  0.269152  0.128932  1
  O  O18  1  0.128932  0.509879  0.269152  1
  O  O19  1  0.730848  0.871068  0.490121  1
  O  O20  1  0.064854  0.295413  0.921020  1
  O  O21  1  0.295414  0.921020  0.064854  1
  O  O22  1  0.921019  0.064854  0.295414  1
  O  O23  1  0.935146  0.704587  0.078980  1
  O  O24  1  0.704586  0.078980  0.935146  1
  O  O25  1  0.078981  0.935146  0.704586  1
  O  O26  1  0.204571  0.437115  0.586661  1
  O  O27  1  0.437116  0.586661  0.204571  1
  O  O28  1  0.586661  0.204571  0.437115  1
  O  O29  1  0.795429  0.562885  0.413339  1
  O  O30  1  0.562884  0.413339  0.795429  1
  O  O31  1  0.413339  0.795429  0.562885  1
  O  O32  1  0.871068  0.490121  0.730848  1
  O  O33  1  0.490121  0.730848  0.871068  1
