# generated using pymatgen
data_Zr3Sc5Ta11Si16Ru
_symmetry_space_group_name_H-M   'P 1'
_cell_length_a   6.86902922
_cell_length_b   6.87235841
_cell_length_c   12.68519581
_cell_angle_alpha   90.36375861
_cell_angle_beta   90.08442252
_cell_angle_gamma   89.90760247
_symmetry_Int_Tables_number   1
_chemical_formula_structural   Zr3Sc5Ta11Si16Ru
_chemical_formula_sum   'Zr3 Sc5 Ta11 Si16 Ru1'
_cell_volume   598.80932908
_cell_formula_units_Z   1
loop_
 _symmetry_equiv_pos_site_id
 _symmetry_equiv_pos_as_xyz
  1  'x, y, z'
loop_
 _atom_site_type_symbol
 _atom_site_label
 _atom_site_symmetry_multiplicity
 _atom_site_fract_x
 _atom_site_fract_y
 _atom_site_fract_z
 _atom_site_occupancy
  Zr  Zr0  1  0.002563  0.658040  0.031615  1
  Zr  Zr1  1  0.841564  0.510492  0.281749  1
  Zr  Zr2  1  0.157740  0.498487  0.780258  1
  Sc  Sc3  1  0.500769  0.838939  0.718200  1
  Sc  Sc4  1  0.498390  0.161810  0.219357  1
  Sc  Sc5  1  0.999426  0.342586  0.530709  1
  Sc  Sc6  1  0.659760  0.000247  0.969874  1
  Sc  Sc7  1  0.337816  0.999633  0.470120  1
  Ta  Ta8  1  0.330034  0.331530  0.000113  1
  Ta  Ta9  1  0.172501  0.827796  0.250614  1
  Ta  Ta10  1  0.831486  0.170522  0.748634  1
  Ta  Ta11  1  0.670944  0.664903  0.499707  1
  Ta  Ta12  1  0.004236  0.151576  0.125902  1
  Ta  Ta13  1  0.346938  0.504813  0.375977  1
  Ta  Ta14  1  0.653005  0.496187  0.876023  1
  Ta  Ta15  1  0.509148  0.343246  0.623229  1
  Ta  Ta16  1  0.497108  0.655603  0.124747  1
  Ta  Ta17  1  0.997392  0.843111  0.629488  1
  Ta  Ta18  1  0.152504  0.005780  0.873264  1
  Si  Si19  1  0.301566  0.958178  0.063877  1
  Si  Si20  1  0.545154  0.804050  0.316655  1
  Si  Si21  1  0.458702  0.197808  0.813273  1
  Si  Si22  1  0.799571  0.543200  0.685763  1
  Si  Si23  1  0.203366  0.454421  0.187492  1
  Si  Si24  1  0.703131  0.036284  0.559146  1
  Si  Si25  1  0.953036  0.297361  0.936654  1
  Si  Si26  1  0.038933  0.710489  0.437706  1
  Si  Si27  1  0.705501  0.361983  0.073352  1
  Si  Si28  1  0.128087  0.200330  0.321699  1
  Si  Si29  1  0.859571  0.795803  0.822300  1
  Si  Si30  1  0.207142  0.136879  0.676300  1
  Si  Si31  1  0.795711  0.866888  0.180241  1
  Si  Si32  1  0.295726  0.634451  0.571245  1
  Si  Si33  1  0.364515  0.707754  0.928087  1
  Si  Si34  1  0.638147  0.288451  0.426813  1
  Ru  Ru35  1  0.838819  0.000370  0.369820  1
