# generated using pymatgen
data_HoTm2Nb(Co4P3)2
_symmetry_space_group_name_H-M   'P 1'
_cell_length_a   3.68980900
_cell_length_b   10.59874800
_cell_length_c   12.28249400
_cell_angle_alpha   90.00000000
_cell_angle_beta   90.00000000
_cell_angle_gamma   90.00000000
_symmetry_Int_Tables_number   1
_chemical_formula_structural   HoTm2Nb(Co4P3)2
_chemical_formula_sum   'Ho2 Tm4 Nb2 Co16 P12'
_cell_volume   480.33586247
_cell_formula_units_Z   2
loop_
 _symmetry_equiv_pos_site_id
 _symmetry_equiv_pos_as_xyz
  1  'x, y, z'
loop_
 _atom_site_type_symbol
 _atom_site_label
 _atom_site_symmetry_multiplicity
 _atom_site_fract_x
 _atom_site_fract_y
 _atom_site_fract_z
 _atom_site_occupancy
  Ho  Ho0  1  0.000000  0.500000  0.527246  1
  Ho  Ho1  1  0.500000  0.000000  0.472754  1
  Tm  Tm2  1  0.500000  0.820653  0.205141  1
  Tm  Tm3  1  0.500000  0.179347  0.205141  1
  Tm  Tm4  1  0.000000  0.679347  0.794859  1
  Tm  Tm5  1  0.000000  0.320653  0.794859  1
  Nb  Nb6  1  0.500000  0.500000  0.157308  1
  Nb  Nb7  1  0.000000  0.000000  0.842692  1
  Co  Co8  1  0.500000  0.500000  0.702276  1
  Co  Co9  1  0.000000  0.000000  0.297724  1
  Co  Co10  1  0.000000  0.500000  0.985541  1
  Co  Co11  1  0.500000  0.000000  0.014459  1
  Co  Co12  1  0.500000  0.332526  0.991244  1
  Co  Co13  1  0.500000  0.667474  0.991244  1
  Co  Co14  1  0.000000  0.167474  0.008756  1
  Co  Co15  1  0.000000  0.832526  0.008756  1
  Co  Co16  1  0.500000  0.295117  0.432330  1
  Co  Co17  1  0.500000  0.704883  0.432330  1
  Co  Co18  1  0.000000  0.204883  0.567670  1
  Co  Co19  1  0.000000  0.795117  0.567670  1
  Co  Co20  1  0.500000  0.876558  0.704569  1
  Co  Co21  1  0.500000  0.123442  0.704569  1
  Co  Co22  1  0.000000  0.623442  0.295431  1
  Co  Co23  1  0.000000  0.376558  0.295431  1
  P  P24  1  0.500000  0.500000  0.880946  1
  P  P25  1  0.000000  0.000000  0.119054  1
  P  P26  1  0.500000  0.500000  0.356924  1
  P  P27  1  0.000000  0.000000  0.643076  1
  P  P28  1  0.500000  0.311653  0.616218  1
  P  P29  1  0.500000  0.688347  0.616218  1
  P  P30  1  0.000000  0.188347  0.383782  1
  P  P31  1  0.000000  0.811653  0.383782  1
  P  P32  1  0.500000  0.840483  0.892460  1
  P  P33  1  0.500000  0.159517  0.892460  1
  P  P34  1  0.000000  0.659517  0.107540  1
  P  P35  1  0.000000  0.340483  0.107540  1
