# generated using pymatgen
data_Yb6SmY(Si4Mo3)4
_symmetry_space_group_name_H-M   'P 1'
_cell_length_a   6.74281178
_cell_length_b   6.94471582
_cell_length_c   13.04287476
_cell_angle_alpha   89.89523734
_cell_angle_beta   89.98667192
_cell_angle_gamma   90.02673706
_symmetry_Int_Tables_number   1
_chemical_formula_structural   Yb6SmY(Si4Mo3)4
_chemical_formula_sum   'Yb6 Sm1 Y1 Si16 Mo12'
_cell_volume   610.75643935
_cell_formula_units_Z   1
loop_
 _symmetry_equiv_pos_site_id
 _symmetry_equiv_pos_as_xyz
  1  'x, y, z'
loop_
 _atom_site_type_symbol
 _atom_site_label
 _atom_site_symmetry_multiplicity
 _atom_site_fract_x
 _atom_site_fract_y
 _atom_site_fract_z
 _atom_site_occupancy
  Yb  Yb0  1  0.498118  0.334902  0.090349  1
  Yb  Yb1  1  0.998101  0.165316  0.409576  1
  Yb  Yb2  1  0.501207  0.668337  0.592859  1
  Yb  Yb3  1  0.001226  0.832114  0.907100  1
  Yb  Yb4  1  0.501597  0.666739  0.908193  1
  Yb  Yb5  1  0.001384  0.832781  0.591661  1
  Sm  Sm6  1  0.000343  0.167046  0.091766  1
  Y  Y7  1  0.499870  0.332024  0.407820  1
  Si  Si8  1  0.658631  0.041779  0.545854  1
  Si  Si9  1  0.158771  0.459349  0.953357  1
  Si  Si10  1  0.343978  0.954964  0.045274  1
  Si  Si11  1  0.841991  0.543585  0.454461  1
  Si  Si12  1  0.341115  0.955812  0.455088  1
  Si  Si13  1  0.840752  0.546208  0.044804  1
  Si  Si14  1  0.658032  0.042109  0.953265  1
  Si  Si15  1  0.159196  0.457668  0.545972  1
  Si  Si16  1  0.535049  0.373027  0.750427  1
  Si  Si17  1  0.035061  0.126953  0.749425  1
  Si  Si18  1  0.464583  0.631086  0.249182  1
  Si  Si19  1  0.964361  0.867664  0.251510  1
  Si  Si20  1  0.800764  0.629951  0.749793  1
  Si  Si21  1  0.300796  0.870016  0.750251  1
  Si  Si22  1  0.198260  0.371208  0.250809  1
  Si  Si23  1  0.696613  0.129736  0.250484  1
  Mo  Mo24  1  0.833900  0.331799  0.627104  1
  Mo  Mo25  1  0.333961  0.168143  0.872618  1
  Mo  Mo26  1  0.165478  0.667167  0.126956  1
  Mo  Mo27  1  0.665269  0.832582  0.373446  1
  Mo  Mo28  1  0.167834  0.666458  0.373043  1
  Mo  Mo29  1  0.667218  0.833393  0.127607  1
  Mo  Mo30  1  0.835178  0.331356  0.872425  1
  Mo  Mo31  1  0.335539  0.169144  0.627148  1
  Mo  Mo32  1  0.661441  0.009161  0.749771  1
  Mo  Mo33  1  0.161576  0.490953  0.749957  1
  Mo  Mo34  1  0.336745  0.993895  0.250950  1
  Mo  Mo35  1  0.836057  0.505573  0.249697  1
