# generated using pymatgen
data_LiGaSnF6
_symmetry_space_group_name_H-M   'P 1'
_cell_length_a   5.29490800
_cell_length_b   5.29490851
_cell_length_c   10.21973700
_cell_angle_alpha   90.00000000
_cell_angle_beta   90.00000000
_cell_angle_gamma   119.99998435
_symmetry_Int_Tables_number   1
_chemical_formula_structural   LiGaSnF6
_chemical_formula_sum   'Li2 Ga2 Sn2 F12'
_cell_volume   248.13458382
_cell_formula_units_Z   2
loop_
 _symmetry_equiv_pos_site_id
 _symmetry_equiv_pos_as_xyz
  1  'x, y, z'
loop_
 _atom_site_type_symbol
 _atom_site_label
 _atom_site_symmetry_multiplicity
 _atom_site_fract_x
 _atom_site_fract_y
 _atom_site_fract_z
 _atom_site_occupancy
  Li  Li0  1  0.333333  0.666667  0.250000  1
  Li  Li1  1  0.666667  0.333333  0.750000  1
  Ga  Ga2  1  0.666667  0.333333  0.250000  1
  Ga  Ga3  1  0.333333  0.666667  0.750000  1
  Sn  Sn4  1  0.000000  0.000000  0.000000  1
  Sn  Sn5  1  0.000000  0.000000  0.500000  1
  F  F6  1  0.980153  0.356261  0.144394  1
  F  F7  1  0.019847  0.376107  0.644394  1
  F  F8  1  0.623893  0.643739  0.644394  1
  F  F9  1  0.356261  0.980153  0.644394  1
  F  F10  1  0.643739  0.019847  0.355606  1
  F  F11  1  0.643739  0.623893  0.144394  1
  F  F12  1  0.376107  0.019847  0.144394  1
  F  F13  1  0.376107  0.356261  0.355606  1
  F  F14  1  0.356261  0.376107  0.855606  1
  F  F15  1  0.980153  0.623893  0.355606  1
  F  F16  1  0.019847  0.643739  0.855606  1
  F  F17  1  0.623893  0.980153  0.855606  1
