# generated using pymatgen
data_Tb2Tm4FeBiSb
_symmetry_space_group_name_H-M   'P 1'
_cell_length_a   8.19700329
_cell_length_b   8.20520967
_cell_length_c   4.15469900
_cell_angle_alpha   90.00000000
_cell_angle_beta   90.00000000
_cell_angle_gamma   119.93658043
_symmetry_Int_Tables_number   1
_chemical_formula_structural   Tb2Tm4FeBiSb
_chemical_formula_sum   'Tb2 Tm4 Fe1 Bi1 Sb1'
_cell_volume   242.15429367
_cell_formula_units_Z   1
loop_
 _symmetry_equiv_pos_site_id
 _symmetry_equiv_pos_as_xyz
  1  'x, y, z'
loop_
 _atom_site_type_symbol
 _atom_site_label
 _atom_site_symmetry_multiplicity
 _atom_site_fract_x
 _atom_site_fract_y
 _atom_site_fract_z
 _atom_site_occupancy
  Tb  Tb0  1  0.994458  0.603654  0.500000  1
  Tb  Tb1  1  0.396633  0.390197  0.500000  1
  Tm  Tm2  1  0.231312  0.001863  0.000000  1
  Tm  Tm3  1  0.769255  0.768140  0.000000  1
  Tm  Tm4  1  0.997447  0.230110  0.000000  1
  Tm  Tm5  1  0.611806  0.006192  0.500000  1
  Fe  Fe6  1  0.997057  0.000008  0.500000  1
  Bi  Bi7  1  0.335361  0.668704  0.000000  1
  Sb  Sb8  1  0.666671  0.331132  0.000000  1
