# generated using pymatgen
data_Tb13Nd3MgAg3Pt4
_symmetry_space_group_name_H-M   'P 1'
_cell_length_a   9.69233977
_cell_length_b   9.73300976
_cell_length_c   9.73131410
_cell_angle_alpha   60.31288537
_cell_angle_beta   60.25313545
_cell_angle_gamma   60.08981123
_symmetry_Int_Tables_number   1
_chemical_formula_structural   Tb13Nd3MgAg3Pt4
_chemical_formula_sum   'Tb13 Nd3 Mg1 Ag3 Pt4'
_cell_volume   652.33856083
_cell_formula_units_Z   1
loop_
 _symmetry_equiv_pos_site_id
 _symmetry_equiv_pos_as_xyz
  1  'x, y, z'
loop_
 _atom_site_type_symbol
 _atom_site_label
 _atom_site_symmetry_multiplicity
 _atom_site_fract_x
 _atom_site_fract_y
 _atom_site_fract_z
 _atom_site_occupancy
  Tb  Tb0  1  0.350283  0.349793  0.349274  1
  Tb  Tb1  1  0.354828  0.352552  0.944560  1
  Tb  Tb2  1  0.354643  0.943444  0.353064  1
  Tb  Tb3  1  0.930450  0.357188  0.358059  1
  Tb  Tb4  1  0.810260  0.187677  0.191868  1
  Tb  Tb5  1  0.187111  0.813362  0.811932  1
  Tb  Tb6  1  0.187101  0.812526  0.188960  1
  Tb  Tb7  1  0.810207  0.187307  0.810465  1
  Tb  Tb8  1  0.188818  0.187799  0.812265  1
  Tb  Tb9  1  0.809305  0.810550  0.188324  1
  Tb  Tb10  1  0.933620  0.563957  0.562058  1
  Tb  Tb11  1  0.559945  0.939955  0.936339  1
  Tb  Tb12  1  0.561773  0.937178  0.564510  1
  Nd  Nd13  1  0.936589  0.563983  0.934099  1
  Nd  Nd14  1  0.563960  0.567916  0.935266  1
  Nd  Nd15  1  0.933757  0.933063  0.565269  1
  Mg  Mg16  1  0.289999  0.568565  0.568972  1
  Ag  Ag17  1  0.583724  0.587377  0.582607  1
  Ag  Ag18  1  0.579302  0.587958  0.249463  1
  Ag  Ag19  1  0.579120  0.246069  0.588479  1
  Pt  Pt20  1  0.143701  0.145039  0.145050  1
  Pt  Pt21  1  0.141694  0.145128  0.569965  1
  Pt  Pt22  1  0.139118  0.570235  0.145663  1
  Pt  Pt23  1  0.570695  0.141382  0.143493  1
