# generated using pymatgen
data_Tb16Tl3InIrRu3
_symmetry_space_group_name_H-M   'P 1'
_cell_length_a   9.73085197
_cell_length_b   9.72011995
_cell_length_c   9.71594691
_cell_angle_alpha   59.90942647
_cell_angle_beta   59.94924490
_cell_angle_gamma   59.96347050
_symmetry_Int_Tables_number   1
_chemical_formula_structural   Tb16Tl3InIrRu3
_chemical_formula_sum   'Tb16 Tl3 In1 Ir1 Ru3'
_cell_volume   648.94523009
_cell_formula_units_Z   1
loop_
 _symmetry_equiv_pos_site_id
 _symmetry_equiv_pos_as_xyz
  1  'x, y, z'
loop_
 _atom_site_type_symbol
 _atom_site_label
 _atom_site_symmetry_multiplicity
 _atom_site_fract_x
 _atom_site_fract_y
 _atom_site_fract_z
 _atom_site_occupancy
  Tb  Tb0  1  0.098042  0.706344  0.097572  1
  Tb  Tb1  1  0.941720  0.939856  0.558856  1
  Tb  Tb2  1  0.942933  0.559880  0.939537  1
  Tb  Tb3  1  0.308260  0.691444  0.308069  1
  Tb  Tb4  1  0.941643  0.559949  0.556766  1
  Tb  Tb5  1  0.310164  0.308337  0.691188  1
  Tb  Tb6  1  0.098188  0.097863  0.098335  1
  Tb  Tb7  1  0.557650  0.559880  0.939537  1
  Tb  Tb8  1  0.098004  0.097850  0.706142  1
  Tb  Tb9  1  0.690311  0.308337  0.691188  1
  Tb  Tb10  1  0.692227  0.691444  0.308069  1
  Tb  Tb11  1  0.690750  0.308568  0.309932  1
  Tb  Tb12  1  0.308061  0.691111  0.692768  1
  Tb  Tb13  1  0.559568  0.939856  0.558856  1
  Tb  Tb14  1  0.705614  0.097863  0.098335  1
  Tb  Tb15  1  0.559327  0.941505  0.939842  1
  Tl  Tl16  1  0.335329  0.334724  0.333606  1
  Tl  Tl17  1  0.996340  0.334724  0.333606  1
  Tl  Tl18  1  0.335485  0.995184  0.333847  1
  In  In19  1  0.333069  0.332842  0.001019  1
  Ir  Ir20  1  0.889702  0.329161  0.891436  1
  Ru  Ru21  1  0.887452  0.891023  0.889962  1
  Ru  Ru22  1  0.888602  0.891224  0.331572  1
  Ru  Ru23  1  0.331563  0.891023  0.889962  1
