# generated using pymatgen
data_Li3Al8Ir4Os
_symmetry_space_group_name_H-M   'P 1'
_cell_length_a   5.98432000
_cell_length_b   4.27950600
_cell_length_c   8.62855300
_cell_angle_alpha   90.00000000
_cell_angle_beta   90.00002285
_cell_angle_gamma   90.00000000
_symmetry_Int_Tables_number   1
_chemical_formula_structural   Li3Al8Ir4Os
_chemical_formula_sum   'Li3 Al8 Ir4 Os1'
_cell_volume   220.97666720
_cell_formula_units_Z   1
loop_
 _symmetry_equiv_pos_site_id
 _symmetry_equiv_pos_as_xyz
  1  'x, y, z'
loop_
 _atom_site_type_symbol
 _atom_site_label
 _atom_site_symmetry_multiplicity
 _atom_site_fract_x
 _atom_site_fract_y
 _atom_site_fract_z
 _atom_site_occupancy
  Li  Li0  1  0.250000  0.250000  0.128496  1
  Li  Li1  1  0.750004  0.750001  0.375031  1
  Li  Li2  1  0.250000  0.250000  0.621438  1
  Al  Al3  1  0.997351  0.750001  0.124210  1
  Al  Al4  1  0.502643  0.750001  0.124209  1
  Al  Al5  1  0.990359  0.250000  0.374989  1
  Al  Al6  1  0.509636  0.250000  0.374991  1
  Al  Al7  1  0.502641  0.750001  0.625814  1
  Al  Al8  1  0.997367  0.750001  0.625811  1
  Al  Al9  1  0.504959  0.250000  0.874985  1
  Al  Al10  1  0.995042  0.250000  0.874986  1
  Ir  Ir11  1  0.749999  0.250000  0.126847  1
  Ir  Ir12  1  0.250000  0.750001  0.375001  1
  Ir  Ir13  1  0.749999  0.250000  0.623160  1
  Ir  Ir14  1  0.249996  0.750001  0.875012  1
  Os  Os15  1  0.750004  0.750001  0.875021  1
