# generated using pymatgen
data_Dy2Ho2GeBi5Rh7
_symmetry_space_group_name_H-M   'P 1'
_cell_length_a   7.72834685
_cell_length_b   7.72896216
_cell_length_c   7.72896215
_cell_angle_alpha   106.83416816
_cell_angle_beta   110.80808039
_cell_angle_gamma   110.80807287
_symmetry_Int_Tables_number   1
_chemical_formula_structural   Dy2Ho2GeBi5Rh7
_chemical_formula_sum   'Dy2 Ho2 Ge1 Bi5 Rh7'
_cell_volume   354.80813656
_cell_formula_units_Z   1
loop_
 _symmetry_equiv_pos_site_id
 _symmetry_equiv_pos_as_xyz
  1  'x, y, z'
loop_
 _atom_site_type_symbol
 _atom_site_label
 _atom_site_symmetry_multiplicity
 _atom_site_fract_x
 _atom_site_fract_y
 _atom_site_fract_z
 _atom_site_occupancy
  Dy  Dy0  1  0.453400  0.984372  0.984372  1
  Dy  Dy1  1  0.546604  0.530975  0.530975  1
  Ho  Ho2  1  0.999997  0.984280  0.531033  1
  Ho  Ho3  1  0.999997  0.531033  0.984280  1
  Ge  Ge4  1  0.000002  0.644806  0.644806  1
  Bi  Bi5  1  0.689110  0.705178  0.016277  1
  Bi  Bi6  1  0.310892  0.016073  0.327173  1
  Bi  Bi7  1  0.999997  0.304896  0.304896  1
  Bi  Bi8  1  0.310892  0.327173  0.016073  1
  Bi  Bi9  1  0.689110  0.016277  0.705178  1
  Rh  Rh10  1  0.754470  0.258054  0.503748  1
  Rh  Rh11  1  0.754470  0.503748  0.258054  1
  Rh  Rh12  1  0.499997  0.262313  0.762318  1
  Rh  Rh13  1  0.245530  0.503591  0.749280  1
  Rh  Rh14  1  0.245530  0.749280  0.503591  1
  Rh  Rh15  1  0.499997  0.762318  0.262313  1
  Rh  Rh16  1  0.000006  0.915635  0.915635  1
