# generated using pymatgen
data_Tb4Mn17(VP4)3
_symmetry_space_group_name_H-M   'P 1'
_cell_length_a   3.63357000
_cell_length_b   10.72936176
_cell_length_c   12.25871208
_cell_angle_alpha   89.87868620
_cell_angle_beta   90.00000000
_cell_angle_gamma   90.00000000
_symmetry_Int_Tables_number   1
_chemical_formula_structural   Tb4Mn17(VP4)3
_chemical_formula_sum   'Tb4 Mn17 V3 P12'
_cell_volume   477.91569286
_cell_formula_units_Z   1
loop_
 _symmetry_equiv_pos_site_id
 _symmetry_equiv_pos_as_xyz
  1  'x, y, z'
loop_
 _atom_site_type_symbol
 _atom_site_label
 _atom_site_symmetry_multiplicity
 _atom_site_fract_x
 _atom_site_fract_y
 _atom_site_fract_z
 _atom_site_occupancy
  Tb  Tb0  1  0.250000  0.913002  0.207210  1
  Tb  Tb1  1  0.750000  0.086796  0.794247  1
  Tb  Tb2  1  0.750000  0.413443  0.292230  1
  Tb  Tb3  1  0.250000  0.586775  0.705102  1
  Mn  Mn4  1  0.250000  0.707042  0.984574  1
  Mn  Mn5  1  0.250000  0.088205  0.994621  1
  Mn  Mn6  1  0.750000  0.909560  0.004983  1
  Mn  Mn7  1  0.750000  0.589849  0.505306  1
  Mn  Mn8  1  0.250000  0.410293  0.494388  1
  Mn  Mn9  1  0.250000  0.288722  0.682429  1
  Mn  Mn10  1  0.750000  0.710571  0.317697  1
  Mn  Mn11  1  0.750000  0.789612  0.818912  1
  Mn  Mn12  1  0.250000  0.211183  0.180961  1
  Mn  Mn13  1  0.250000  0.617166  0.192201  1
  Mn  Mn14  1  0.750000  0.383775  0.808245  1
  Mn  Mn15  1  0.750000  0.116463  0.308223  1
  Mn  Mn16  1  0.250000  0.883060  0.692850  1
  Mn  Mn17  1  0.250000  0.033350  0.435710  1
  Mn  Mn18  1  0.750000  0.966469  0.564879  1
  Mn  Mn19  1  0.750000  0.536378  0.062534  1
  Mn  Mn20  1  0.250000  0.466885  0.934222  1
  V  V21  1  0.250000  0.791645  0.482048  1
  V  V22  1  0.750000  0.207437  0.517978  1
  V  V23  1  0.750000  0.292730  0.018108  1
  P  P24  1  0.250000  0.087530  0.617277  1
  P  P25  1  0.750000  0.911361  0.383929  1
  P  P26  1  0.750000  0.588567  0.882738  1
  P  P27  1  0.250000  0.413745  0.115373  1
  P  P28  1  0.250000  0.234974  0.374824  1
  P  P29  1  0.750000  0.765626  0.625183  1
  P  P30  1  0.750000  0.734956  0.125550  1
  P  P31  1  0.250000  0.264898  0.875541  1
  P  P32  1  0.250000  0.906582  0.884226  1
  P  P33  1  0.750000  0.092044  0.116113  1
  P  P34  1  0.750000  0.407875  0.616342  1
  P  P35  1  0.250000  0.591433  0.383249  1
