# generated using pymatgen
data_AcDyPdS3
_symmetry_space_group_name_H-M   'P 1'
_cell_length_a   6.91654011
_cell_length_b   6.91653975
_cell_length_c   9.95225800
_cell_angle_alpha   90.00000000
_cell_angle_beta   90.00000000
_cell_angle_gamma   146.12121864
_symmetry_Int_Tables_number   1
_chemical_formula_structural   AcDyPdS3
_chemical_formula_sum   'Ac2 Dy2 Pd2 S6'
_cell_volume   265.39682973
_cell_formula_units_Z   2
loop_
 _symmetry_equiv_pos_site_id
 _symmetry_equiv_pos_as_xyz
  1  'x, y, z'
loop_
 _atom_site_type_symbol
 _atom_site_label
 _atom_site_symmetry_multiplicity
 _atom_site_fract_x
 _atom_site_fract_y
 _atom_site_fract_z
 _atom_site_occupancy
  Ac  Ac0  1  0.248202  0.751797  0.250000  1
  Ac  Ac1  1  0.751797  0.248202  0.750000  1
  Dy  Dy2  1  0.500000  0.500000  0.000000  1
  Dy  Dy3  1  0.500000  0.500000  0.500000  1
  Pd  Pd4  1  0.973412  0.026588  0.250000  1
  Pd  Pd5  1  0.026588  0.973412  0.750000  1
  S  S6  1  0.855229  0.144771  0.056935  1
  S  S7  1  0.585557  0.414442  0.250000  1
  S  S8  1  0.855229  0.144771  0.443064  1
  S  S9  1  0.144771  0.855229  0.556935  1
  S  S10  1  0.414442  0.585557  0.750000  1
  S  S11  1  0.144771  0.855229  0.943065  1
