# generated using pymatgen
data_SmGd3Cr6O24
_symmetry_space_group_name_H-M   'P 1'
_cell_length_a   9.47689273
_cell_length_b   9.47689182
_cell_length_c   10.09437400
_cell_angle_alpha   117.99630105
_cell_angle_beta   62.00368818
_cell_angle_gamma   120.00001373
_symmetry_Int_Tables_number   1
_chemical_formula_structural   SmGd3Cr6O24
_chemical_formula_sum   'Sm1 Gd3 Cr6 O24'
_cell_volume   659.78991989
_cell_formula_units_Z   1
loop_
 _symmetry_equiv_pos_site_id
 _symmetry_equiv_pos_as_xyz
  1  'x, y, z'
loop_
 _atom_site_type_symbol
 _atom_site_label
 _atom_site_symmetry_multiplicity
 _atom_site_fract_x
 _atom_site_fract_y
 _atom_site_fract_z
 _atom_site_occupancy
  Sm  Sm0  1  0.354005  0.646035  0.938018  1
  Gd  Gd1  1  0.645040  0.354954  0.064848  1
  Gd  Gd2  1  0.858947  0.141060  0.423135  1
  Gd  Gd3  1  0.140173  0.859798  0.579436  1
  Cr  Cr4  1  0.247366  0.032848  0.249771  1
  Cr  Cr5  1  0.967198  0.464260  0.249719  1
  Cr  Cr6  1  0.535648  0.752587  0.249831  1
  Cr  Cr7  1  0.467251  0.251870  0.750306  1
  Cr  Cr8  1  0.034312  0.532778  0.750324  1
  Cr  Cr9  1  0.748139  0.965748  0.750318  1
  O  O10  1  0.153276  0.483835  0.107698  1
  O  O11  1  0.516072  0.777043  0.107755  1
  O  O12  1  0.222884  0.846757  0.107750  1
  O  O13  1  0.448648  0.167489  0.203660  1
  O  O14  1  0.832563  0.484799  0.203639  1
  O  O15  1  0.515139  0.551371  0.203785  1
  O  O16  1  0.117250  0.115043  0.269468  1
  O  O17  1  0.884972  0.271615  0.269392  1
  O  O18  1  0.728275  0.882731  0.269535  1
  O  O19  1  0.197992  0.001738  0.417442  1
  O  O20  1  0.998283  0.613639  0.417395  1
  O  O21  1  0.386267  0.801964  0.417475  1
  O  O22  1  0.616033  0.202128  0.582722  1
  O  O23  1  0.003351  0.384010  0.582752  1
  O  O24  1  0.797903  0.996651  0.582703  1
  O  O25  1  0.274711  0.119853  0.730618  1
  O  O26  1  0.114584  0.725316  0.730638  1
  O  O27  1  0.880079  0.885446  0.730662  1
  O  O28  1  0.489629  0.452337  0.792052  1
  O  O29  1  0.170624  0.510365  0.792066  1
  O  O30  1  0.547634  0.829454  0.792123  1
  O  O31  1  0.767114  0.150440  0.894309  1
  O  O32  1  0.488973  0.232960  0.894313  1
  O  O33  1  0.849666  0.511078  0.894348  1
