# generated using pymatgen
data_Cs4Mg3Cd3Te8
_symmetry_space_group_name_H-M   'P 1'
_cell_length_a   10.93036150
_cell_length_b   10.90863470
_cell_length_c   10.93099013
_cell_angle_alpha   143.74467409
_cell_angle_beta   104.81216721
_cell_angle_gamma   86.53192986
_symmetry_Int_Tables_number   1
_chemical_formula_structural   Cs4Mg3Cd3Te8
_chemical_formula_sum   'Cs4 Mg3 Cd3 Te8'
_cell_volume   720.58308842
_cell_formula_units_Z   1
loop_
 _symmetry_equiv_pos_site_id
 _symmetry_equiv_pos_as_xyz
  1  'x, y, z'
loop_
 _atom_site_type_symbol
 _atom_site_label
 _atom_site_symmetry_multiplicity
 _atom_site_fract_x
 _atom_site_fract_y
 _atom_site_fract_z
 _atom_site_occupancy
  Cs  Cs0  1  0.122892  0.238449  0.360838  1
  Cs  Cs1  1  0.376212  0.735128  0.112902  1
  Cs  Cs2  1  0.622384  0.261540  0.884439  1
  Cs  Cs3  1  0.877772  0.764866  0.641074  1
  Mg  Mg4  1  0.514266  0.750016  0.764293  1
  Mg  Mg5  1  0.984955  0.750018  0.234991  1
  Mg  Mg6  1  0.485449  0.249973  0.235422  1
  Cd  Cd7  1  0.749151  0.250004  0.499155  1
  Cd  Cd8  1  0.251555  0.750000  0.501567  1
  Cd  Cd9  1  0.019071  0.250028  0.769045  1
  Te  Te10  1  0.224037  0.078688  0.588748  1
  Te  Te11  1  0.279830  0.873794  0.862936  1
  Te  Te12  1  0.010064  0.421284  0.145304  1
  Te  Te13  1  0.489140  0.626182  0.406021  1
  Te  Te14  1  0.776735  0.911462  0.397325  1
  Te  Te15  1  0.719762  0.126011  0.136900  1
  Te  Te16  1  0.985847  0.588570  0.865296  1
  Te  Te17  1  0.510882  0.373987  0.593745  1
