# generated using pymatgen
data_Pr6Si4Ir3Pt
_symmetry_space_group_name_H-M   'P 1'
_cell_length_a   5.84372900
_cell_length_b   5.84372940
_cell_length_c   13.63087300
_cell_angle_alpha   90.00000000
_cell_angle_beta   90.00000000
_cell_angle_gamma   138.19652832
_symmetry_Int_Tables_number   1
_chemical_formula_structural   Pr6Si4Ir3Pt
_chemical_formula_sum   'Pr6 Si4 Ir3 Pt1'
_cell_volume   310.28056739
_cell_formula_units_Z   1
loop_
 _symmetry_equiv_pos_site_id
 _symmetry_equiv_pos_as_xyz
  1  'x, y, z'
loop_
 _atom_site_type_symbol
 _atom_site_label
 _atom_site_symmetry_multiplicity
 _atom_site_fract_x
 _atom_site_fract_y
 _atom_site_fract_z
 _atom_site_occupancy
  Pr  Pr0  1  0.772040  0.227960  0.604433  1
  Pr  Pr1  1  0.518955  0.481045  0.250000  1
  Pr  Pr2  1  0.227197  0.772803  0.401004  1
  Pr  Pr3  1  0.772040  0.227960  0.895567  1
  Pr  Pr4  1  0.480634  0.519366  0.750000  1
  Pr  Pr5  1  0.227197  0.772803  0.098996  1
  Si  Si6  1  0.060023  0.939977  0.588850  1
  Si  Si7  1  0.060023  0.939977  0.911150  1
  Si  Si8  1  0.941587  0.058413  0.415211  1
  Si  Si9  1  0.941587  0.058413  0.084789  1
  Ir  Ir10  1  0.180527  0.819473  0.750000  1
  Ir  Ir11  1  0.502318  0.497682  0.000267  1
  Ir  Ir12  1  0.502318  0.497682  0.499733  1
  Pt  Pt13  1  0.813553  0.186447  0.250000  1
