# generated using pymatgen
data_Lu5(AlSb)2
_symmetry_space_group_name_H-M   'P 1'
_cell_length_a   8.54016727
_cell_length_b   8.54016892
_cell_length_c   7.81636100
_cell_angle_alpha   90.00000000
_cell_angle_beta   90.00000000
_cell_angle_gamma   125.54212645
_symmetry_Int_Tables_number   1
_chemical_formula_structural   Lu5(AlSb)2
_chemical_formula_sum   'Lu10 Al4 Sb4'
_cell_volume   463.86920218
_cell_formula_units_Z   2
loop_
 _symmetry_equiv_pos_site_id
 _symmetry_equiv_pos_as_xyz
  1  'x, y, z'
loop_
 _atom_site_type_symbol
 _atom_site_label
 _atom_site_symmetry_multiplicity
 _atom_site_fract_x
 _atom_site_fract_y
 _atom_site_fract_z
 _atom_site_occupancy
  Lu  Lu0  1  0.037812  0.300783  0.332377  1
  Lu  Lu1  1  0.962188  0.699217  0.667623  1
  Lu  Lu2  1  0.462188  0.199217  0.832377  1
  Lu  Lu3  1  0.800783  0.537812  0.167623  1
  Lu  Lu4  1  0.537812  0.800783  0.167623  1
  Lu  Lu5  1  0.199217  0.462188  0.832377  1
  Lu  Lu6  1  0.699217  0.962188  0.667623  1
  Lu  Lu7  1  0.300783  0.037812  0.332377  1
  Lu  Lu8  1  0.000000  0.000000  0.000000  1
  Lu  Lu9  1  0.500000  0.500000  0.500000  1
  Al  Al10  1  0.375866  0.375866  0.123763  1
  Al  Al11  1  0.624134  0.624134  0.876237  1
  Al  Al12  1  0.124134  0.124134  0.623763  1
  Al  Al13  1  0.875866  0.875866  0.376237  1
  Sb  Sb14  1  0.794341  0.205659  0.000000  1
  Sb  Sb15  1  0.205659  0.794341  0.000000  1
  Sb  Sb16  1  0.705659  0.294341  0.500000  1
  Sb  Sb17  1  0.294341  0.705659  0.500000  1
