# generated using pymatgen
data_Sr4LuSn3
_symmetry_space_group_name_H-M   'P 1'
_cell_length_a   9.70913722
_cell_length_b   9.70916258
_cell_length_c   9.70955497
_cell_angle_alpha   96.89547180
_cell_angle_beta   96.89125757
_cell_angle_gamma   139.45588792
_symmetry_Int_Tables_number   1
_chemical_formula_structural   Sr4LuSn3
_chemical_formula_sum   'Sr8 Lu2 Sn6'
_cell_volume   558.13532621
_cell_formula_units_Z   2
loop_
 _symmetry_equiv_pos_site_id
 _symmetry_equiv_pos_as_xyz
  1  'x, y, z'
loop_
 _atom_site_type_symbol
 _atom_site_label
 _atom_site_symmetry_multiplicity
 _atom_site_fract_x
 _atom_site_fract_y
 _atom_site_fract_z
 _atom_site_occupancy
  Sr  Sr0  1  0.085192  0.212287  0.297473  1
  Sr  Sr1  1  0.914808  0.787713  0.702527  1
  Sr  Sr2  1  0.787701  0.085159  0.872889  1
  Sr  Sr3  1  0.414822  0.712283  0.127105  1
  Sr  Sr4  1  0.212299  0.914841  0.127111  1
  Sr  Sr5  1  0.585178  0.287717  0.872895  1
  Sr  Sr6  1  0.712271  0.585170  0.297461  1
  Sr  Sr7  1  0.287729  0.414830  0.702539  1
  Lu  Lu8  1  0.250000  0.749998  0.499995  1
  Lu  Lu9  1  0.750000  0.250002  0.500005  1
  Sn  Sn10  1  0.143825  0.643828  0.787639  1
  Sn  Sn11  1  0.856175  0.356172  0.212361  1
  Sn  Sn12  1  0.356189  0.143824  0.499998  1
  Sn  Sn13  1  0.643811  0.856176  0.500002  1
  Sn  Sn14  1  0.249946  0.249999  0.999947  1
  Sn  Sn15  1  0.750054  0.750001  0.000053  1
