# generated using pymatgen
data_Y4VRu7
_symmetry_space_group_name_H-M   'P 1'
_cell_length_a   5.48794500
_cell_length_b   5.18647145
_cell_length_c   9.00580500
_cell_angle_alpha   90.00000000
_cell_angle_beta   90.00000000
_cell_angle_gamma   121.94219153
_symmetry_Int_Tables_number   1
_chemical_formula_structural   Y4VRu7
_chemical_formula_sum   'Y4 V1 Ru7'
_cell_volume   217.51953311
_cell_formula_units_Z   1
loop_
 _symmetry_equiv_pos_site_id
 _symmetry_equiv_pos_as_xyz
  1  'x, y, z'
loop_
 _atom_site_type_symbol
 _atom_site_label
 _atom_site_symmetry_multiplicity
 _atom_site_fract_x
 _atom_site_fract_y
 _atom_site_fract_z
 _atom_site_occupancy
  Y  Y0  1  0.334595  0.669192  0.431213  1
  Y  Y1  1  0.674340  0.348679  0.564449  1
  Y  Y2  1  0.674340  0.348679  0.935551  1
  Y  Y3  1  0.334595  0.669192  0.068787  1
  V  V4  1  0.149742  0.299483  0.750000  1
  Ru  Ru5  1  0.179430  0.823975  0.750000  1
  Ru  Ru6  1  0.334413  0.165903  0.250000  1
  Ru  Ru7  1  0.823392  0.646784  0.250000  1
  Ru  Ru8  1  0.644545  0.823975  0.750000  1
  Ru  Ru9  1  0.009559  0.019118  0.999516  1
  Ru  Ru10  1  0.831490  0.165903  0.250000  1
  Ru  Ru11  1  0.009559  0.019118  0.500484  1
