# generated using pymatgen
data_Sc12Mn3Sn2
_symmetry_space_group_name_H-M   'P 1'
_cell_length_a   7.81511133
_cell_length_b   7.81494856
_cell_length_c   7.81511140
_cell_angle_alpha   108.63142602
_cell_angle_beta   108.63554329
_cell_angle_gamma   111.16087411
_symmetry_Int_Tables_number   1
_chemical_formula_structural   Sc12Mn3Sn2
_chemical_formula_sum   'Sc12 Mn3 Sn2'
_cell_volume   367.18570792
_cell_formula_units_Z   1
loop_
 _symmetry_equiv_pos_site_id
 _symmetry_equiv_pos_as_xyz
  1  'x, y, z'
loop_
 _atom_site_type_symbol
 _atom_site_label
 _atom_site_symmetry_multiplicity
 _atom_site_fract_x
 _atom_site_fract_y
 _atom_site_fract_z
 _atom_site_occupancy
  Sc  Sc0  1  0.304728  0.304719  0.609453  1
  Sc  Sc1  1  0.695272  0.695281  0.390547  1
  Sc  Sc2  1  0.695266  0.304719  0.999991  1
  Sc  Sc3  1  0.304734  0.695281  0.000009  1
  Sc  Sc4  1  0.193201  0.428365  0.235164  1
  Sc  Sc5  1  0.806799  0.571635  0.764836  1
  Sc  Sc6  1  0.193201  0.958038  0.764838  1
  Sc  Sc7  1  0.958036  0.193190  0.764835  1
  Sc  Sc8  1  0.806799  0.041962  0.235162  1
  Sc  Sc9  1  0.041964  0.806810  0.235165  1
  Sc  Sc10  1  0.428354  0.193190  0.235152  1
  Sc  Sc11  1  0.571646  0.806810  0.764848  1
  Mn  Mn12  1  0.381095  0.381098  0.000003  1
  Mn  Mn13  1  0.618905  0.618902  0.999997  1
  Mn  Mn14  1  0.000000  0.000000  0.000000  1
  Sn  Sn15  1  0.000000  0.500000  0.500000  1
  Sn  Sn16  1  0.500000  0.000000  0.500000  1
