# generated using pymatgen
data_TbDy9In8(IrPt)2
_symmetry_space_group_name_H-M   'P 1'
_cell_length_a   3.63731800
_cell_length_b   8.12664308
_cell_length_c   18.26220905
_cell_angle_alpha   89.85050169
_cell_angle_beta   90.00000000
_cell_angle_gamma   90.00000000
_symmetry_Int_Tables_number   1
_chemical_formula_structural   TbDy9In8(IrPt)2
_chemical_formula_sum   'Tb1 Dy9 In8 Ir2 Pt2'
_cell_volume   539.81418107
_cell_formula_units_Z   1
loop_
 _symmetry_equiv_pos_site_id
 _symmetry_equiv_pos_as_xyz
  1  'x, y, z'
loop_
 _atom_site_type_symbol
 _atom_site_label
 _atom_site_symmetry_multiplicity
 _atom_site_fract_x
 _atom_site_fract_y
 _atom_site_fract_z
 _atom_site_occupancy
  Tb  Tb0  1  0.000000  0.000000  0.000000  1
  Dy  Dy1  1  0.000000  0.115144  0.412154  1
  Dy  Dy2  1  0.000000  0.884856  0.587846  1
  Dy  Dy3  1  0.000000  0.382578  0.913702  1
  Dy  Dy4  1  0.000000  0.617422  0.086298  1
  Dy  Dy5  1  0.000000  0.237216  0.221638  1
  Dy  Dy6  1  0.000000  0.762784  0.778362  1
  Dy  Dy7  1  0.000000  0.249262  0.720066  1
  Dy  Dy8  1  0.000000  0.750738  0.279934  1
  Dy  Dy9  1  0.000000  0.500000  0.500000  1
  In  In10  1  0.500000  0.424000  0.351311  1
  In  In11  1  0.500000  0.576000  0.648689  1
  In  In12  1  0.500000  0.072719  0.850461  1
  In  In13  1  0.500000  0.927281  0.149539  1
  In  In14  1  0.500000  0.293184  0.066841  1
  In  In15  1  0.500000  0.706816  0.933159  1
  In  In16  1  0.500000  0.206557  0.568108  1
  In  In17  1  0.500000  0.793443  0.431892  1
  Ir  Ir18  1  0.500000  0.021432  0.303806  1
  Ir  Ir19  1  0.500000  0.978568  0.696194  1
  Pt  Pt20  1  0.500000  0.477153  0.802887  1
  Pt  Pt21  1  0.500000  0.522847  0.197113  1
