# generated using pymatgen
data_Pr8Tm12Si15P
_symmetry_space_group_name_H-M   'P 1'
_cell_length_a   7.44545765
_cell_length_b   7.75191786
_cell_length_c   14.65153200
_cell_angle_alpha   90.00000000
_cell_angle_beta   90.00000000
_cell_angle_gamma   90.58680813
_symmetry_Int_Tables_number   1
_chemical_formula_structural   Pr8Tm12Si15P
_chemical_formula_sum   'Pr8 Tm12 Si15 P1'
_cell_volume   845.59191178
_cell_formula_units_Z   1
loop_
 _symmetry_equiv_pos_site_id
 _symmetry_equiv_pos_as_xyz
  1  'x, y, z'
loop_
 _atom_site_type_symbol
 _atom_site_label
 _atom_site_symmetry_multiplicity
 _atom_site_fract_x
 _atom_site_fract_y
 _atom_site_fract_z
 _atom_site_occupancy
  Pr  Pr0  1  0.015153  0.176312  0.402206  1
  Pr  Pr1  1  0.514723  0.324386  0.402199  1
  Pr  Pr2  1  0.487166  0.674910  0.901277  1
  Pr  Pr3  1  0.487166  0.674910  0.598723  1
  Pr  Pr4  1  0.989269  0.825878  0.601327  1
  Pr  Pr5  1  0.989269  0.825878  0.898673  1
  Pr  Pr6  1  0.514723  0.324386  0.097801  1
  Pr  Pr7  1  0.015153  0.176312  0.097794  1
  Tm  Tm8  1  0.323076  0.170458  0.626515  1
  Tm  Tm9  1  0.673465  0.823637  0.376134  1
  Tm  Tm10  1  0.659215  0.992181  0.750000  1
  Tm  Tm11  1  0.171790  0.677572  0.376926  1
  Tm  Tm12  1  0.824711  0.326112  0.876876  1
  Tm  Tm13  1  0.824711  0.326112  0.623124  1
  Tm  Tm14  1  0.837878  0.491586  0.250000  1
  Tm  Tm15  1  0.339921  0.007443  0.250000  1
  Tm  Tm16  1  0.323076  0.170458  0.873485  1
  Tm  Tm17  1  0.171790  0.677572  0.123074  1
  Tm  Tm18  1  0.673465  0.823637  0.123866  1
  Tm  Tm19  1  0.160294  0.507072  0.750000  1
  Si  Si20  1  0.464501  0.616578  0.250000  1
  Si  Si21  1  0.019649  0.132466  0.750000  1
  Si  Si22  1  0.530772  0.378821  0.750000  1
  Si  Si23  1  0.153565  0.465430  0.540078  1
  Si  Si24  1  0.967787  0.882673  0.250000  1
  Si  Si25  1  0.716990  0.121993  0.250000  1
  Si  Si26  1  0.848075  0.536010  0.038765  1
  Si  Si27  1  0.349896  0.966769  0.038056  1
  Si  Si28  1  0.153565  0.465430  0.959922  1
  Si  Si29  1  0.650145  0.032561  0.539951  1
  Si  Si30  1  0.349896  0.966769  0.461944  1
  Si  Si31  1  0.848075  0.536010  0.461235  1
  Si  Si32  1  0.784900  0.625111  0.750000  1
  Si  Si33  1  0.218085  0.378936  0.250000  1
  Si  Si34  1  0.650145  0.032561  0.960049  1
  P  P35  1  0.297942  0.865072  0.750000  1
