# generated using pymatgen
data_Ac2Dy(MgTl)3
_symmetry_space_group_name_H-M   'P 1'
_cell_length_a   7.84813000
_cell_length_b   7.98761148
_cell_length_c   4.92444800
_cell_angle_alpha   90.00000000
_cell_angle_beta   90.00000000
_cell_angle_gamma   120.58968772
_symmetry_Int_Tables_number   1
_chemical_formula_structural   Ac2Dy(MgTl)3
_chemical_formula_sum   'Ac2 Dy1 Mg3 Tl3'
_cell_volume   265.74181841
_cell_formula_units_Z   1
loop_
 _symmetry_equiv_pos_site_id
 _symmetry_equiv_pos_as_xyz
  1  'x, y, z'
loop_
 _atom_site_type_symbol
 _atom_site_label
 _atom_site_symmetry_multiplicity
 _atom_site_fract_x
 _atom_site_fract_y
 _atom_site_fract_z
 _atom_site_occupancy
  Ac  Ac0  1  0.425069  0.427612  0.500000  1
  Ac  Ac1  1  0.574931  0.002543  0.500000  1
  Dy  Dy2  1  0.000000  0.581555  0.500000  1
  Mg  Mg3  1  0.760339  0.756738  0.000000  1
  Mg  Mg4  1  0.239661  0.996398  0.000000  1
  Mg  Mg5  1  0.000000  0.241704  0.000000  1
  Tl  Tl6  1  0.687920  0.348232  0.000000  1
  Tl  Tl7  1  0.312080  0.660312  0.000000  1
  Tl  Tl8  1  0.000000  0.984907  0.500000  1
