# generated using pymatgen
data_TbY3Ga12Ag
_symmetry_space_group_name_H-M   'P 1'
_cell_length_a   7.56377157
_cell_length_b   7.56269816
_cell_length_c   7.56377101
_cell_angle_alpha   109.46835420
_cell_angle_beta   109.47409641
_cell_angle_gamma   109.46834815
_symmetry_Int_Tables_number   1
_chemical_formula_structural   TbY3Ga12Ag
_chemical_formula_sum   'Tb1 Y3 Ga12 Ag1'
_cell_volume   333.07880463
_cell_formula_units_Z   1
loop_
 _symmetry_equiv_pos_site_id
 _symmetry_equiv_pos_as_xyz
  1  'x, y, z'
loop_
 _atom_site_type_symbol
 _atom_site_label
 _atom_site_symmetry_multiplicity
 _atom_site_fract_x
 _atom_site_fract_y
 _atom_site_fract_z
 _atom_site_occupancy
  Tb  Tb0  1  0.000000  0.500000  0.000000  1
  Y  Y1  1  0.500000  0.500000  0.500000  1
  Y  Y2  1  0.000000  0.000000  0.500000  1
  Y  Y3  1  0.500000  0.000000  0.000000  1
  Ga  Ga4  1  0.500005  0.750002  0.250002  1
  Ga  Ga5  1  0.499995  0.249998  0.749998  1
  Ga  Ga6  1  0.250002  0.500000  0.749998  1
  Ga  Ga7  1  0.749998  0.500000  0.250002  1
  Ga  Ga8  1  0.749998  0.249998  0.499995  1
  Ga  Ga9  1  0.250002  0.750002  0.500005  1
  Ga  Ga10  1  0.000000  0.305992  0.305965  1
  Ga  Ga11  1  0.000000  0.694008  0.694035  1
  Ga  Ga12  1  0.305965  0.999972  0.305965  1
  Ga  Ga13  1  0.694035  0.000028  0.694035  1
  Ga  Ga14  1  0.305965  0.305992  0.000000  1
  Ga  Ga15  1  0.694035  0.694008  0.000000  1
  Ag  Ag16  1  0.000000  0.000000  0.000000  1
