# generated using pymatgen
data_Ho11Tm9(Bi2Pt)4
_symmetry_space_group_name_H-M   'P 1'
_cell_length_a   8.00318760
_cell_length_b   9.00195000
_cell_length_c   12.35775103
_cell_angle_alpha   90.00000000
_cell_angle_beta   90.04210766
_cell_angle_gamma   90.00000000
_symmetry_Int_Tables_number   1
_chemical_formula_structural   Ho11Tm9(Bi2Pt)4
_chemical_formula_sum   'Ho11 Tm9 Bi8 Pt4'
_cell_volume   890.30521545
_cell_formula_units_Z   1
loop_
 _symmetry_equiv_pos_site_id
 _symmetry_equiv_pos_as_xyz
  1  'x, y, z'
loop_
 _atom_site_type_symbol
 _atom_site_label
 _atom_site_symmetry_multiplicity
 _atom_site_fract_x
 _atom_site_fract_y
 _atom_site_fract_z
 _atom_site_occupancy
  Ho  Ho0  1  0.661360  0.250000  0.290064  1
  Ho  Ho1  1  0.838213  0.250000  0.789692  1
  Ho  Ho2  1  0.161402  0.750000  0.210182  1
  Ho  Ho3  1  0.873421  0.750000  0.802147  1
  Ho  Ho4  1  0.126951  0.250000  0.197821  1
  Ho  Ho5  1  0.372938  0.250000  0.697862  1
  Ho  Ho6  1  0.627122  0.750000  0.302356  1
  Ho  Ho7  1  0.051837  0.750000  0.500869  1
  Ho  Ho8  1  0.948706  0.250000  0.499583  1
  Ho  Ho9  1  0.551201  0.250000  0.999056  1
  Ho  Ho10  1  0.448155  0.750000  0.000303  1
  Tm  Tm11  1  0.338862  0.750000  0.709177  1
  Tm  Tm12  1  0.676633  0.546628  0.566675  1
  Tm  Tm13  1  0.323509  0.453645  0.433728  1
  Tm  Tm14  1  0.176535  0.453715  0.933552  1
  Tm  Tm15  1  0.323509  0.046355  0.433728  1
  Tm  Tm16  1  0.823176  0.546432  0.066254  1
  Tm  Tm17  1  0.676633  0.953372  0.566675  1
  Tm  Tm18  1  0.823176  0.953568  0.066254  1
  Tm  Tm19  1  0.176535  0.046285  0.933552  1
  Bi  Bi20  1  0.567581  0.510552  0.827342  1
  Bi  Bi21  1  0.431842  0.490164  0.172143  1
  Bi  Bi22  1  0.068880  0.490339  0.672439  1
  Bi  Bi23  1  0.431842  0.009836  0.172143  1
  Bi  Bi24  1  0.931798  0.509911  0.327892  1
  Bi  Bi25  1  0.567581  0.989448  0.827342  1
  Bi  Bi26  1  0.931798  0.990089  0.327892  1
  Bi  Bi27  1  0.068880  0.009661  0.672439  1
  Pt  Pt28  1  0.074381  0.750000  0.988704  1
  Pt  Pt29  1  0.925291  0.250000  0.011166  1
  Pt  Pt30  1  0.574733  0.250000  0.511550  1
  Pt  Pt31  1  0.425523  0.750000  0.489418  1
