# generated using pymatgen
data_Tb4Co17SiTc3P11
_symmetry_space_group_name_H-M   'P 1'
_cell_length_a   3.70586100
_cell_length_b   10.37651620
_cell_length_c   11.81720286
_cell_angle_alpha   90.07290707
_cell_angle_beta   90.00000000
_cell_angle_gamma   90.00000000
_symmetry_Int_Tables_number   1
_chemical_formula_structural   Tb4Co17SiTc3P11
_chemical_formula_sum   'Tb4 Co17 Si1 Tc3 P11'
_cell_volume   454.41748454
_cell_formula_units_Z   1
loop_
 _symmetry_equiv_pos_site_id
 _symmetry_equiv_pos_as_xyz
  1  'x, y, z'
loop_
 _atom_site_type_symbol
 _atom_site_label
 _atom_site_symmetry_multiplicity
 _atom_site_fract_x
 _atom_site_fract_y
 _atom_site_fract_z
 _atom_site_occupancy
  Tb  Tb0  1  0.250000  0.581907  0.699926  1
  Tb  Tb1  1  0.250000  0.915294  0.204695  1
  Tb  Tb2  1  0.750000  0.414047  0.297138  1
  Tb  Tb3  1  0.750000  0.083863  0.795484  1
  Co  Co4  1  0.750000  0.215076  0.509542  1
  Co  Co5  1  0.250000  0.405479  0.488356  1
  Co  Co6  1  0.250000  0.093200  0.989152  1
  Co  Co7  1  0.750000  0.592583  0.509532  1
  Co  Co8  1  0.750000  0.907518  0.011178  1
  Co  Co9  1  0.250000  0.219847  0.176946  1
  Co  Co10  1  0.250000  0.277477  0.675294  1
  Co  Co11  1  0.750000  0.785313  0.821744  1
  Co  Co12  1  0.750000  0.721413  0.323320  1
  Co  Co13  1  0.250000  0.887622  0.700044  1
  Co  Co14  1  0.250000  0.613669  0.202382  1
  Co  Co15  1  0.750000  0.116161  0.301459  1
  Co  Co16  1  0.750000  0.383013  0.797670  1
  Co  Co17  1  0.250000  0.462981  0.935235  1
  Co  Co18  1  0.250000  0.035494  0.432251  1
  Co  Co19  1  0.750000  0.533251  0.071262  1
  Co  Co20  1  0.750000  0.967416  0.567646  1
  Si  Si21  1  0.750000  0.581650  0.886337  1
  Tc  Tc22  1  0.250000  0.709895  0.988912  1
  Tc  Tc23  1  0.250000  0.789700  0.489204  1
  Tc  Tc24  1  0.750000  0.288838  0.011056  1
  P  P25  1  0.250000  0.418932  0.114982  1
  P  P26  1  0.250000  0.081851  0.611318  1
  P  P27  1  0.750000  0.920975  0.387275  1
  P  P28  1  0.250000  0.271097  0.864451  1
  P  P29  1  0.250000  0.229125  0.369100  1
  P  P30  1  0.750000  0.728994  0.134108  1
  P  P31  1  0.750000  0.772337  0.633288  1
  P  P32  1  0.250000  0.596339  0.391965  1
  P  P33  1  0.250000  0.902682  0.890733  1
  P  P34  1  0.750000  0.397322  0.606615  1
  P  P35  1  0.750000  0.097645  0.110403  1
