# generated using pymatgen
data_PrGaHgPt3
_symmetry_space_group_name_H-M   'P 1'
_cell_length_a   5.58239262
_cell_length_b   5.32527478
_cell_length_c   5.58239500
_cell_angle_alpha   58.38955166
_cell_angle_beta   60.00000366
_cell_angle_gamma   58.38955036
_symmetry_Int_Tables_number   1
_chemical_formula_structural   PrGaHgPt3
_chemical_formula_sum   'Pr1 Ga1 Hg1 Pt3'
_cell_volume   114.40787127
_cell_formula_units_Z   1
loop_
 _symmetry_equiv_pos_site_id
 _symmetry_equiv_pos_as_xyz
  1  'x, y, z'
loop_
 _atom_site_type_symbol
 _atom_site_label
 _atom_site_symmetry_multiplicity
 _atom_site_fract_x
 _atom_site_fract_y
 _atom_site_fract_z
 _atom_site_occupancy
  Pr  Pr0  1  0.504012  0.487965  0.504012  1
  Ga  Ga1  1  0.122706  0.631883  0.122706  1
  Hg  Hg2  1  0.752859  0.741422  0.752859  1
  Pt  Pt3  1  0.122486  0.129577  0.625452  1
  Pt  Pt4  1  0.625452  0.129577  0.122486  1
  Pt  Pt5  1  0.122486  0.129577  0.122486  1
