# generated using pymatgen
data_Pr4Ho15ErBi12
_symmetry_space_group_name_H-M   'P 1'
_cell_length_a   8.35157201
_cell_length_b   9.51919200
_cell_length_c   12.19186700
_cell_angle_alpha   90.00000000
_cell_angle_beta   89.97181029
_cell_angle_gamma   90.00000000
_symmetry_Int_Tables_number   1
_chemical_formula_structural   Pr4Ho15ErBi12
_chemical_formula_sum   'Pr4 Ho15 Er1 Bi12'
_cell_volume   969.25596059
_cell_formula_units_Z   1
loop_
 _symmetry_equiv_pos_site_id
 _symmetry_equiv_pos_as_xyz
  1  'x, y, z'
loop_
 _atom_site_type_symbol
 _atom_site_label
 _atom_site_symmetry_multiplicity
 _atom_site_fract_x
 _atom_site_fract_y
 _atom_site_fract_z
 _atom_site_occupancy
  Pr  Pr0  1  0.170451  0.750000  0.225045  1
  Pr  Pr1  1  0.329904  0.750000  0.725351  1
  Pr  Pr2  1  0.829810  0.250000  0.774924  1
  Pr  Pr3  1  0.670369  0.250000  0.274567  1
  Ho  Ho4  1  0.810974  0.563291  0.063815  1
  Ho  Ho5  1  0.688921  0.936786  0.563945  1
  Ho  Ho6  1  0.188926  0.063166  0.936157  1
  Ho  Ho7  1  0.311128  0.436794  0.436014  1
  Ho  Ho8  1  0.188926  0.436834  0.936157  1
  Ho  Ho9  1  0.311128  0.063206  0.436014  1
  Ho  Ho10  1  0.810974  0.936709  0.063815  1
  Ho  Ho11  1  0.688921  0.563214  0.563945  1
  Ho  Ho12  1  0.021747  0.750000  0.502924  1
  Ho  Ho13  1  0.521863  0.250000  0.997046  1
  Ho  Ho14  1  0.978120  0.250000  0.496987  1
  Ho  Ho15  1  0.665150  0.750000  0.288212  1
  Ho  Ho16  1  0.834681  0.750000  0.788617  1
  Ho  Ho17  1  0.334599  0.250000  0.711692  1
  Ho  Ho18  1  0.165243  0.250000  0.211541  1
  Er  Er19  1  0.478373  0.750000  0.003067  1
  Bi  Bi20  1  0.402801  0.750000  0.465196  1
  Bi  Bi21  1  0.097720  0.750000  0.965129  1
  Bi  Bi22  1  0.597160  0.250000  0.534859  1
  Bi  Bi23  1  0.902836  0.250000  0.034850  1
  Bi  Bi24  1  0.934846  0.506315  0.328629  1
  Bi  Bi25  1  0.564840  0.993382  0.829067  1
  Bi  Bi26  1  0.065048  0.006295  0.671378  1
  Bi  Bi27  1  0.434902  0.493986  0.170992  1
  Bi  Bi28  1  0.065048  0.493705  0.671378  1
  Bi  Bi29  1  0.434902  0.006014  0.170992  1
  Bi  Bi30  1  0.934846  0.993685  0.328629  1
  Bi  Bi31  1  0.564840  0.506618  0.829067  1
