# generated using pymatgen
data_La15PrMgIn3Rh4
_symmetry_space_group_name_H-M   'P 1'
_cell_length_a   10.09960366
_cell_length_b   10.13866876
_cell_length_c   10.14693119
_cell_angle_alpha   60.05910463
_cell_angle_beta   59.90802805
_cell_angle_gamma   59.87896273
_symmetry_Int_Tables_number   1
_chemical_formula_structural   La15PrMgIn3Rh4
_chemical_formula_sum   'La15 Pr1 Mg1 In3 Rh4'
_cell_volume   733.83243282
_cell_formula_units_Z   1
loop_
 _symmetry_equiv_pos_site_id
 _symmetry_equiv_pos_as_xyz
  1  'x, y, z'
loop_
 _atom_site_type_symbol
 _atom_site_label
 _atom_site_symmetry_multiplicity
 _atom_site_fract_x
 _atom_site_fract_y
 _atom_site_fract_z
 _atom_site_occupancy
  La  La0  1  0.348220  0.346081  0.346371  1
  La  La1  1  0.349603  0.347166  0.956960  1
  La  La2  1  0.349125  0.956301  0.347834  1
  La  La3  1  0.954244  0.348369  0.349012  1
  La  La4  1  0.808306  0.192827  0.193188  1
  La  La5  1  0.189177  0.810326  0.809724  1
  La  La6  1  0.189427  0.810000  0.190655  1
  La  La7  1  0.807590  0.193451  0.805955  1
  La  La8  1  0.189540  0.190638  0.809687  1
  La  La9  1  0.807110  0.806910  0.193759  1
  La  La10  1  0.937730  0.563482  0.561958  1
  La  La11  1  0.560771  0.939227  0.938867  1
  La  La12  1  0.563210  0.939638  0.559817  1
  La  La13  1  0.937197  0.561925  0.939040  1
  La  La14  1  0.561983  0.559537  0.940566  1
  Pr  Pr15  1  0.936764  0.940050  0.560873  1
  Mg  Mg16  1  0.274644  0.574903  0.574887  1
  In  In17  1  0.579269  0.580440  0.580497  1
  In  In18  1  0.578709  0.581425  0.258507  1
  In  In19  1  0.579102  0.258046  0.581806  1
  Rh  Rh20  1  0.140764  0.140644  0.141355  1
  Rh  Rh21  1  0.141127  0.141089  0.576272  1
  Rh  Rh22  1  0.140630  0.576535  0.141143  1
  Rh  Rh23  1  0.575761  0.140992  0.141266  1
