# generated using pymatgen
data_YTm4Nb3(Co4P3)4
_symmetry_space_group_name_H-M   'P 1'
_cell_length_a   12.17774400
_cell_length_b   12.17774379
_cell_length_c   3.68880300
_cell_angle_alpha   90.00000000
_cell_angle_beta   90.00000000
_cell_angle_gamma   119.99999514
_symmetry_Int_Tables_number   1
_chemical_formula_structural   YTm4Nb3(Co4P3)4
_chemical_formula_sum   'Y1 Tm4 Nb3 Co16 P12'
_cell_volume   473.75061647
_cell_formula_units_Z   1
loop_
 _symmetry_equiv_pos_site_id
 _symmetry_equiv_pos_as_xyz
  1  'x, y, z'
loop_
 _atom_site_type_symbol
 _atom_site_label
 _atom_site_symmetry_multiplicity
 _atom_site_fract_x
 _atom_site_fract_y
 _atom_site_fract_z
 _atom_site_occupancy
  Y  Y0  1  0.666667  0.333333  0.000000  1
  Tm  Tm1  1  0.816579  0.000113  0.500000  1
  Tm  Tm2  1  0.999887  0.816466  0.500000  1
  Tm  Tm3  1  0.183534  0.183421  0.500000  1
  Tm  Tm4  1  0.333333  0.666667  0.000000  1
  Nb  Nb5  1  0.444450  0.999627  0.000000  1
  Nb  Nb6  1  0.000373  0.444823  0.000000  1
  Nb  Nb7  1  0.555177  0.555550  0.000000  1
  Co  Co8  1  0.277775  0.999507  0.500000  1
  Co  Co9  1  0.000493  0.278268  0.500000  1
  Co  Co10  1  0.721732  0.722225  0.500000  1
  Co  Co11  1  0.626824  0.804067  0.000000  1
  Co  Co12  1  0.195933  0.822756  0.000000  1
  Co  Co13  1  0.177244  0.373176  0.000000  1
  Co  Co14  1  0.372282  0.176560  0.000000  1
  Co  Co15  1  0.804278  0.627718  0.000000  1
  Co  Co16  1  0.823440  0.195722  0.000000  1
  Co  Co17  1  0.518726  0.872198  0.500000  1
  Co  Co18  1  0.127802  0.646527  0.500000  1
  Co  Co19  1  0.353473  0.481274  0.500000  1
  Co  Co20  1  0.479358  0.353137  0.500000  1
  Co  Co21  1  0.873780  0.520642  0.500000  1
  Co  Co22  1  0.646863  0.126220  0.500000  1
  Co  Co23  1  0.000000  0.000000  0.000000  1
  P  P24  1  0.177123  0.999632  0.000000  1
  P  P25  1  0.000368  0.177492  0.000000  1
  P  P26  1  0.822508  0.822877  0.000000  1
  P  P27  1  0.519680  0.688447  0.500000  1
  P  P28  1  0.311553  0.831233  0.500000  1
  P  P29  1  0.168767  0.480320  0.500000  1
  P  P30  1  0.478600  0.167313  0.500000  1
  P  P31  1  0.688711  0.521400  0.500000  1
  P  P32  1  0.832687  0.311289  0.500000  1
  P  P33  1  0.644859  0.000037  0.000000  1
  P  P34  1  0.999963  0.644822  0.000000  1
  P  P35  1  0.355178  0.355141  0.000000  1
