# generated using pymatgen
data_Yb2DyHo(B4Ru)4
_symmetry_space_group_name_H-M   'P 1'
_cell_length_a   3.54654500
_cell_length_b   5.95796401
_cell_length_c   11.52187271
_cell_angle_alpha   90.02273196
_cell_angle_beta   90.00000000
_cell_angle_gamma   90.00000000
_symmetry_Int_Tables_number   1
_chemical_formula_structural   Yb2DyHo(B4Ru)4
_chemical_formula_sum   'Yb2 Dy1 Ho1 B16 Ru4'
_cell_volume   243.45931110
_cell_formula_units_Z   1
loop_
 _symmetry_equiv_pos_site_id
 _symmetry_equiv_pos_as_xyz
  1  'x, y, z'
loop_
 _atom_site_type_symbol
 _atom_site_label
 _atom_site_symmetry_multiplicity
 _atom_site_fract_x
 _atom_site_fract_y
 _atom_site_fract_z
 _atom_site_occupancy
  Yb  Yb0  1  0.000000  0.370642  0.350148  1
  Yb  Yb1  1  0.000000  0.129359  0.850337  1
  Dy  Dy2  1  0.000000  0.628777  0.650435  1
  Ho  Ho3  1  0.000000  0.871361  0.150413  1
  B  B4  1  0.500000  0.975603  0.691914  1
  B  B5  1  0.500000  0.023539  0.308060  1
  B  B6  1  0.500000  0.476280  0.808520  1
  B  B7  1  0.500000  0.524537  0.191947  1
  B  B8  1  0.500000  0.787799  0.814920  1
  B  B9  1  0.500000  0.211866  0.185015  1
  B  B10  1  0.500000  0.287715  0.685122  1
  B  B11  1  0.500000  0.712104  0.314487  1
  B  B12  1  0.500000  0.864173  0.969089  1
  B  B13  1  0.500000  0.135834  0.030522  1
  B  B14  1  0.500000  0.364055  0.530259  1
  B  B15  1  0.500000  0.635947  0.468739  1
  B  B16  1  0.500000  0.889030  0.546309  1
  B  B17  1  0.500000  0.113979  0.452440  1
  B  B18  1  0.500000  0.385926  0.952757  1
  B  B19  1  0.500000  0.611484  0.046716  1
  Ru  Ru20  1  0.000000  0.638075  0.910338  1
  Ru  Ru21  1  0.000000  0.361691  0.090956  1
  Ru  Ru22  1  0.000000  0.138194  0.590839  1
  Ru  Ru23  1  0.000000  0.862030  0.409718  1
