# generated using pymatgen
data_La3ThMgRu
_symmetry_space_group_name_H-M   'P 1'
_cell_length_a   10.11370932
_cell_length_b   10.11370849
_cell_length_c   10.11370900
_cell_angle_alpha   59.99999507
_cell_angle_beta   59.99999777
_cell_angle_gamma   59.99999770
_symmetry_Int_Tables_number   1
_chemical_formula_structural   La3ThMgRu
_chemical_formula_sum   'La12 Th4 Mg4 Ru4'
_cell_volume   731.50335752
_cell_formula_units_Z   4
loop_
 _symmetry_equiv_pos_site_id
 _symmetry_equiv_pos_as_xyz
  1  'x, y, z'
loop_
 _atom_site_type_symbol
 _atom_site_label
 _atom_site_symmetry_multiplicity
 _atom_site_fract_x
 _atom_site_fract_y
 _atom_site_fract_z
 _atom_site_occupancy
  La  La0  1  0.809707  0.190293  0.190293  1
  La  La1  1  0.190293  0.809707  0.809707  1
  La  La2  1  0.190293  0.809707  0.190293  1
  La  La3  1  0.809707  0.190293  0.809707  1
  La  La4  1  0.190293  0.190293  0.809707  1
  La  La5  1  0.809707  0.809707  0.190293  1
  La  La6  1  0.941228  0.558772  0.558772  1
  La  La7  1  0.558772  0.941228  0.941228  1
  La  La8  1  0.558772  0.941228  0.558772  1
  La  La9  1  0.941228  0.558772  0.941228  1
  La  La10  1  0.558772  0.558772  0.941228  1
  La  La11  1  0.941228  0.941228  0.558772  1
  Th  Th12  1  0.343152  0.343152  0.343152  1
  Th  Th13  1  0.343152  0.343152  0.970543  1
  Th  Th14  1  0.343152  0.970543  0.343152  1
  Th  Th15  1  0.970543  0.343152  0.343152  1
  Mg  Mg16  1  0.578454  0.578454  0.578454  1
  Mg  Mg17  1  0.578454  0.578454  0.264638  1
  Mg  Mg18  1  0.578454  0.264638  0.578454  1
  Mg  Mg19  1  0.264638  0.578454  0.578454  1
  Ru  Ru20  1  0.145279  0.145279  0.145279  1
  Ru  Ru21  1  0.145279  0.145279  0.564164  1
  Ru  Ru22  1  0.145279  0.564164  0.145279  1
  Ru  Ru23  1  0.564164  0.145279  0.145279  1
