# generated using pymatgen
data_Sc10Sn6N
_symmetry_space_group_name_H-M   'P 1'
_cell_length_a   8.42495000
_cell_length_b   8.42494974
_cell_length_c   6.02361500
_cell_angle_alpha   90.00000000
_cell_angle_beta   90.00000000
_cell_angle_gamma   119.99999318
_symmetry_Int_Tables_number   1
_chemical_formula_structural   Sc10Sn6N
_chemical_formula_sum   'Sc10 Sn6 N1'
_cell_volume   370.27340375
_cell_formula_units_Z   1
loop_
 _symmetry_equiv_pos_site_id
 _symmetry_equiv_pos_as_xyz
  1  'x, y, z'
loop_
 _atom_site_type_symbol
 _atom_site_label
 _atom_site_symmetry_multiplicity
 _atom_site_fract_x
 _atom_site_fract_y
 _atom_site_fract_z
 _atom_site_occupancy
  Sc  Sc0  1  0.666667  0.333333  0.500000  1
  Sc  Sc1  1  0.333333  0.666667  0.500000  1
  Sc  Sc2  1  0.333333  0.666667  0.000000  1
  Sc  Sc3  1  0.666667  0.333333  0.000000  1
  Sc  Sc4  1  0.777870  0.777870  0.273072  1
  Sc  Sc5  1  0.222130  0.000000  0.273072  1
  Sc  Sc6  1  0.000000  0.222130  0.273072  1
  Sc  Sc7  1  0.222130  0.222130  0.726928  1
  Sc  Sc8  1  0.777870  0.000000  0.726928  1
  Sc  Sc9  1  0.000000  0.777870  0.726928  1
  Sn  Sn10  1  0.399003  0.399003  0.248134  1
  Sn  Sn11  1  0.600997  0.000000  0.248134  1
  Sn  Sn12  1  0.000000  0.600997  0.248134  1
  Sn  Sn13  1  0.600997  0.600997  0.751866  1
  Sn  Sn14  1  0.399003  0.000000  0.751866  1
  Sn  Sn15  1  0.000000  0.399003  0.751866  1
  N  N16  1  0.000000  0.000000  0.500000  1
