# generated using pymatgen
data_Er3Si3Pd
_symmetry_space_group_name_H-M   'P 1'
_cell_length_a   5.63252250
_cell_length_b   5.63252163
_cell_length_c   13.54763107
_cell_angle_alpha   71.40675403
_cell_angle_beta   71.40675682
_cell_angle_gamma   44.05836046
_symmetry_Int_Tables_number   1
_chemical_formula_structural   Er3Si3Pd
_chemical_formula_sum   'Er6 Si6 Pd2'
_cell_volume   280.64451329
_cell_formula_units_Z   2
loop_
 _symmetry_equiv_pos_site_id
 _symmetry_equiv_pos_as_xyz
  1  'x, y, z'
loop_
 _atom_site_type_symbol
 _atom_site_label
 _atom_site_symmetry_multiplicity
 _atom_site_fract_x
 _atom_site_fract_y
 _atom_site_fract_z
 _atom_site_occupancy
  Er  Er0  1  0.472618  0.472618  0.376210  1
  Er  Er1  1  0.602633  0.602633  0.077583  1
  Er  Er2  1  0.744978  0.744978  0.774841  1
  Er  Er3  1  0.527382  0.527382  0.623790  1
  Er  Er4  1  0.397367  0.397367  0.922417  1
  Er  Er5  1  0.255022  0.255022  0.225159  1
  Si  Si6  1  0.876564  0.876564  0.544440  1
  Si  Si7  1  0.961290  0.961290  0.229858  1
  Si  Si8  1  0.886596  0.886596  0.074407  1
  Si  Si9  1  0.113404  0.113404  0.925593  1
  Si  Si10  1  0.123436  0.123436  0.455560  1
  Si  Si11  1  0.038710  0.038710  0.770142  1
  Pd  Pd12  1  0.753108  0.753108  0.400647  1
  Pd  Pd13  1  0.246892  0.246892  0.599353  1
