# generated using pymatgen
data_Nd19DySi15Tc
_symmetry_space_group_name_H-M   'P 1'
_cell_length_a   7.91915821
_cell_length_b   7.91264408
_cell_length_c   15.26478800
_cell_angle_alpha   90.26647127
_cell_angle_beta   89.87054252
_cell_angle_gamma   89.94666369
_symmetry_Int_Tables_number   1
_chemical_formula_structural   Nd19DySi15Tc
_chemical_formula_sum   'Nd19 Dy1 Si15 Tc1'
_cell_volume   956.50100358
_cell_formula_units_Z   1
loop_
 _symmetry_equiv_pos_site_id
 _symmetry_equiv_pos_as_xyz
  1  'x, y, z'
loop_
 _atom_site_type_symbol
 _atom_site_label
 _atom_site_symmetry_multiplicity
 _atom_site_fract_x
 _atom_site_fract_y
 _atom_site_fract_z
 _atom_site_occupancy
  Nd  Nd0  1  0.191768  0.808469  0.250311  1
  Nd  Nd1  1  0.825696  0.190022  0.747988  1
  Nd  Nd2  1  0.695054  0.690201  0.502429  1
  Nd  Nd3  1  0.370615  0.011994  0.451220  1
  Nd  Nd4  1  0.483333  0.884737  0.696254  1
  Nd  Nd5  1  0.510294  0.123378  0.197924  1
  Nd  Nd6  1  0.877637  0.489311  0.300914  1
  Nd  Nd7  1  0.129156  0.501180  0.799684  1
  Nd  Nd8  1  0.625218  0.988582  0.948754  1
  Nd  Nd9  1  0.007348  0.378248  0.551131  1
  Nd  Nd10  1  0.988800  0.624464  0.051033  1
  Nd  Nd11  1  0.132438  0.982932  0.872685  1
  Nd  Nd12  1  0.517670  0.630329  0.126182  1
  Nd  Nd13  1  0.471558  0.360661  0.629718  1
  Nd  Nd14  1  0.628471  0.515416  0.875436  1
  Nd  Nd15  1  0.374883  0.483102  0.372742  1
  Nd  Nd16  1  0.872813  0.021037  0.375886  1
  Nd  Nd17  1  0.982187  0.127489  0.124091  1
  Nd  Nd18  1  0.025264  0.879909  0.627288  1
  Dy  Dy19  1  0.310281  0.307709  0.998869  1
  Si  Si20  1  0.331442  0.690593  0.953038  1
  Si  Si21  1  0.663702  0.302629  0.451213  1
  Si  Si22  1  0.693470  0.331393  0.048996  1
  Si  Si23  1  0.304624  0.668471  0.546482  1
  Si  Si24  1  0.807012  0.832097  0.202660  1
  Si  Si25  1  0.168237  0.196257  0.296985  1
  Si  Si26  1  0.830020  0.802799  0.800453  1
  Si  Si27  1  0.289426  0.926009  0.058647  1
  Si  Si28  1  0.579346  0.787062  0.310752  1
  Si  Si29  1  0.417233  0.213148  0.815465  1
  Si  Si30  1  0.777488  0.582484  0.692222  1
  Si  Si31  1  0.213618  0.420783  0.186780  1
  Si  Si32  1  0.704637  0.074491  0.558482  1
  Si  Si33  1  0.924881  0.287973  0.941684  1
  Si  Si34  1  0.078468  0.714824  0.440004  1
  Tc  Tc35  1  0.195910  0.169816  0.695601  1
