# generated using pymatgen
data_Tb6Co17TcP12
_symmetry_space_group_name_H-M   'P 1'
_cell_length_a   3.70663600
_cell_length_b   10.52636600
_cell_length_c   12.22966700
_cell_angle_alpha   90.00000000
_cell_angle_beta   90.00000000
_cell_angle_gamma   90.00000000
_symmetry_Int_Tables_number   1
_chemical_formula_structural   Tb6Co17TcP12
_chemical_formula_sum   'Tb6 Co17 Tc1 P12'
_cell_volume   477.16989683
_cell_formula_units_Z   1
loop_
 _symmetry_equiv_pos_site_id
 _symmetry_equiv_pos_as_xyz
  1  'x, y, z'
loop_
 _atom_site_type_symbol
 _atom_site_label
 _atom_site_symmetry_multiplicity
 _atom_site_fract_x
 _atom_site_fract_y
 _atom_site_fract_z
 _atom_site_occupancy
  Tb  Tb0  1  0.000000  0.500000  0.523535  1
  Tb  Tb1  1  0.500000  0.000000  0.478279  1
  Tb  Tb2  1  0.500000  0.817500  0.206653  1
  Tb  Tb3  1  0.500000  0.182500  0.206653  1
  Tb  Tb4  1  0.000000  0.682943  0.794864  1
  Tb  Tb5  1  0.000000  0.317057  0.794864  1
  Co  Co6  1  0.000000  0.000000  0.840399  1
  Co  Co7  1  0.500000  0.500000  0.703420  1
  Co  Co8  1  0.000000  0.000000  0.295950  1
  Co  Co9  1  0.000000  0.500000  0.987602  1
  Co  Co10  1  0.500000  0.000000  0.014413  1
  Co  Co11  1  0.500000  0.332051  0.991476  1
  Co  Co12  1  0.500000  0.667949  0.991476  1
  Co  Co13  1  0.000000  0.166435  0.005580  1
  Co  Co14  1  0.000000  0.833565  0.005580  1
  Co  Co15  1  0.500000  0.296848  0.430455  1
  Co  Co16  1  0.500000  0.703152  0.430455  1
  Co  Co17  1  0.000000  0.203213  0.569079  1
  Co  Co18  1  0.000000  0.796787  0.569079  1
  Co  Co19  1  0.500000  0.879461  0.709382  1
  Co  Co20  1  0.500000  0.120539  0.709382  1
  Co  Co21  1  0.000000  0.620368  0.291609  1
  Co  Co22  1  0.000000  0.379632  0.291609  1
  Tc  Tc23  1  0.500000  0.500000  0.156599  1
  P  P24  1  0.500000  0.500000  0.882038  1
  P  P25  1  0.000000  0.000000  0.116747  1
  P  P26  1  0.500000  0.500000  0.348319  1
  P  P27  1  0.000000  0.000000  0.656576  1
  P  P28  1  0.500000  0.310436  0.616081  1
  P  P29  1  0.500000  0.689564  0.616081  1
  P  P30  1  0.000000  0.189027  0.384487  1
  P  P31  1  0.000000  0.810973  0.384487  1
  P  P32  1  0.500000  0.849575  0.892503  1
  P  P33  1  0.500000  0.150425  0.892503  1
  P  P34  1  0.000000  0.655404  0.105894  1
  P  P35  1  0.000000  0.344596  0.105894  1
