# generated using pymatgen
data_TbYTm2(NiP)4
_symmetry_space_group_name_H-M   'P 1'
_cell_length_a   3.88659200
_cell_length_b   3.88659301
_cell_length_c   15.35967500
_cell_angle_alpha   90.00000000
_cell_angle_beta   90.00000000
_cell_angle_gamma   120.00000839
_symmetry_Int_Tables_number   1
_chemical_formula_structural   TbYTm2(NiP)4
_chemical_formula_sum   'Tb1 Y1 Tm2 Ni4 P4'
_cell_volume   200.93270902
_cell_formula_units_Z   1
loop_
 _symmetry_equiv_pos_site_id
 _symmetry_equiv_pos_as_xyz
  1  'x, y, z'
loop_
 _atom_site_type_symbol
 _atom_site_label
 _atom_site_symmetry_multiplicity
 _atom_site_fract_x
 _atom_site_fract_y
 _atom_site_fract_z
 _atom_site_occupancy
  Tb  Tb0  1  0.000000  0.000000  0.500000  1
  Y  Y1  1  0.000000  0.000000  0.000000  1
  Tm  Tm2  1  0.000000  0.000000  0.250015  1
  Tm  Tm3  1  0.000000  0.000000  0.749985  1
  Ni  Ni4  1  0.333333  0.666667  0.367701  1
  Ni  Ni5  1  0.666667  0.333333  0.632299  1
  Ni  Ni6  1  0.666667  0.333333  0.867737  1
  Ni  Ni7  1  0.333333  0.666667  0.132263  1
  P  P8  1  0.333333  0.666667  0.876189  1
  P  P9  1  0.666667  0.333333  0.123811  1
  P  P10  1  0.666667  0.333333  0.376009  1
  P  P11  1  0.333333  0.666667  0.623991  1
