# generated using pymatgen
data_Pr3GaGeRh2
_symmetry_space_group_name_H-M   'P 1'
_cell_length_a   5.79930600
_cell_length_b   8.20894200
_cell_length_c   13.59459800
_cell_angle_alpha   90.00000000
_cell_angle_beta   90.00000000
_cell_angle_gamma   90.00000000
_symmetry_Int_Tables_number   1
_chemical_formula_structural   Pr3GaGeRh2
_chemical_formula_sum   'Pr12 Ga4 Ge4 Rh8'
_cell_volume   647.18669717
_cell_formula_units_Z   4
loop_
 _symmetry_equiv_pos_site_id
 _symmetry_equiv_pos_as_xyz
  1  'x, y, z'
loop_
 _atom_site_type_symbol
 _atom_site_label
 _atom_site_symmetry_multiplicity
 _atom_site_fract_x
 _atom_site_fract_y
 _atom_site_fract_z
 _atom_site_occupancy
  Pr  Pr0  1  0.149000  0.900994  0.600255  1
  Pr  Pr1  1  0.851000  0.099006  0.100255  1
  Pr  Pr2  1  0.149000  0.599006  0.399745  1
  Pr  Pr3  1  0.851000  0.400994  0.899745  1
  Pr  Pr4  1  0.851000  0.099006  0.399745  1
  Pr  Pr5  1  0.149000  0.900994  0.899745  1
  Pr  Pr6  1  0.851000  0.400994  0.600255  1
  Pr  Pr7  1  0.149000  0.599006  0.100255  1
  Pr  Pr8  1  0.363497  0.258831  0.750000  1
  Pr  Pr9  1  0.636503  0.741169  0.250000  1
  Pr  Pr10  1  0.363497  0.241169  0.250000  1
  Pr  Pr11  1  0.636503  0.758831  0.750000  1
  Ga  Ga12  1  0.373187  0.250000  0.500000  1
  Ga  Ga13  1  0.626813  0.750000  0.000000  1
  Ga  Ga14  1  0.626813  0.750000  0.500000  1
  Ga  Ga15  1  0.373187  0.250000  0.000000  1
  Ge  Ge16  1  0.858926  0.115642  0.750000  1
  Ge  Ge17  1  0.141074  0.884358  0.250000  1
  Ge  Ge18  1  0.858926  0.384358  0.250000  1
  Ge  Ge19  1  0.141074  0.615642  0.750000  1
  Rh  Rh20  1  0.633528  0.029219  0.592915  1
  Rh  Rh21  1  0.366472  0.970781  0.092915  1
  Rh  Rh22  1  0.633528  0.470781  0.407085  1
  Rh  Rh23  1  0.366472  0.529219  0.907085  1
  Rh  Rh24  1  0.366472  0.970781  0.407085  1
  Rh  Rh25  1  0.633528  0.029219  0.907085  1
  Rh  Rh26  1  0.366472  0.529219  0.592915  1
  Rh  Rh27  1  0.633528  0.470781  0.092915  1
