# generated using pymatgen
data_Tb8Sc12Si15Ir
_symmetry_space_group_name_H-M   'P 1'
_cell_length_a   7.09621327
_cell_length_b   7.44511129
_cell_length_c   13.99611800
_cell_angle_alpha   90.00000000
_cell_angle_beta   90.00000000
_cell_angle_gamma   90.23496465
_symmetry_Int_Tables_number   1
_chemical_formula_structural   Tb8Sc12Si15Ir
_chemical_formula_sum   'Tb8 Sc12 Si15 Ir1'
_cell_volume   739.43805302
_cell_formula_units_Z   1
loop_
 _symmetry_equiv_pos_site_id
 _symmetry_equiv_pos_as_xyz
  1  'x, y, z'
loop_
 _atom_site_type_symbol
 _atom_site_label
 _atom_site_symmetry_multiplicity
 _atom_site_fract_x
 _atom_site_fract_y
 _atom_site_fract_z
 _atom_site_occupancy
  Tb  Tb0  1  0.011644  0.177895  0.096798  1
  Tb  Tb1  1  0.990719  0.825897  0.903550  1
  Tb  Tb2  1  0.488285  0.676187  0.903901  1
  Tb  Tb3  1  0.990719  0.825897  0.596450  1
  Tb  Tb4  1  0.511159  0.323601  0.096893  1
  Tb  Tb5  1  0.011644  0.177895  0.403202  1
  Tb  Tb6  1  0.511159  0.323601  0.403107  1
  Tb  Tb7  1  0.488285  0.676187  0.596099  1
  Sc  Sc8  1  0.156638  0.497816  0.750000  1
  Sc  Sc9  1  0.838094  0.496525  0.250000  1
  Sc  Sc10  1  0.338790  0.003713  0.250000  1
  Sc  Sc11  1  0.669133  0.999732  0.750000  1
  Sc  Sc12  1  0.321592  0.173246  0.626676  1
  Sc  Sc13  1  0.671142  0.824895  0.373827  1
  Sc  Sc14  1  0.170831  0.677349  0.374322  1
  Sc  Sc15  1  0.671142  0.824895  0.126173  1
  Sc  Sc16  1  0.834907  0.320315  0.626707  1
  Sc  Sc17  1  0.321592  0.173246  0.873324  1
  Sc  Sc18  1  0.834907  0.320315  0.873293  1
  Sc  Sc19  1  0.170831  0.677349  0.125678  1
  Si  Si20  1  0.968383  0.882625  0.250000  1
  Si  Si21  1  0.467835  0.616034  0.250000  1
  Si  Si22  1  0.530742  0.388483  0.750000  1
  Si  Si23  1  0.286627  0.870413  0.750000  1
  Si  Si24  1  0.713014  0.128131  0.250000  1
  Si  Si25  1  0.212592  0.372458  0.250000  1
  Si  Si26  1  0.779474  0.625207  0.750000  1
  Si  Si27  1  0.158766  0.467868  0.537431  1
  Si  Si28  1  0.843874  0.535823  0.461204  1
  Si  Si29  1  0.345715  0.965533  0.460343  1
  Si  Si30  1  0.843874  0.535823  0.038796  1
  Si  Si31  1  0.655997  0.034121  0.538158  1
  Si  Si32  1  0.158766  0.467868  0.962569  1
  Si  Si33  1  0.655997  0.034121  0.961842  1
  Si  Si34  1  0.345715  0.965533  0.039657  1
  Ir  Ir35  1  0.029412  0.113404  0.750000  1
