# generated using pymatgen
data_Tb9Ho4Er7Pb16
_symmetry_space_group_name_H-M   'P 1'
_cell_length_a   8.19483317
_cell_length_b   8.27719496
_cell_length_c   15.62105900
_cell_angle_alpha   90.00671529
_cell_angle_beta   90.01246551
_cell_angle_gamma   90.06464593
_symmetry_Int_Tables_number   1
_chemical_formula_structural   Tb9Ho4Er7Pb16
_chemical_formula_sum   'Tb9 Ho4 Er7 Pb16'
_cell_volume   1059.57934629
_cell_formula_units_Z   1
loop_
 _symmetry_equiv_pos_site_id
 _symmetry_equiv_pos_as_xyz
  1  'x, y, z'
loop_
 _atom_site_type_symbol
 _atom_site_label
 _atom_site_symmetry_multiplicity
 _atom_site_fract_x
 _atom_site_fract_y
 _atom_site_fract_z
 _atom_site_occupancy
  Tb  Tb0  1  0.876714  0.659416  0.879515  1
  Tb  Tb1  1  0.534293  0.322752  0.900199  1
  Tb  Tb2  1  0.034513  0.176926  0.599690  1
  Tb  Tb3  1  0.465581  0.676990  0.400122  1
  Tb  Tb4  1  0.965526  0.823359  0.100306  1
  Tb  Tb5  1  0.465830  0.676819  0.099935  1
  Tb  Tb6  1  0.965529  0.823023  0.400070  1
  Tb  Tb7  1  0.534272  0.322875  0.599819  1
  Tb  Tb8  1  0.034454  0.176756  0.900013  1
  Ho  Ho9  1  0.376346  0.840792  0.878977  1
  Ho  Ho10  1  0.876408  0.659006  0.620826  1
  Ho  Ho11  1  0.623652  0.158990  0.379081  1
  Ho  Ho12  1  0.123474  0.341095  0.120821  1
  Er  Er13  1  0.623371  0.158907  0.121266  1
  Er  Er14  1  0.123583  0.340916  0.379063  1
  Er  Er15  1  0.376585  0.841064  0.620765  1
  Er  Er16  1  0.208344  0.504379  0.749824  1
  Er  Er17  1  0.707907  0.995764  0.749771  1
  Er  Er18  1  0.791797  0.495319  0.250121  1
  Er  Er19  1  0.291790  0.004467  0.249979  1
  Pb  Pb20  1  0.282557  0.034132  0.042764  1
  Pb  Pb21  1  0.782689  0.465832  0.457210  1
  Pb  Pb22  1  0.717343  0.965855  0.542725  1
  Pb  Pb23  1  0.218985  0.533615  0.957363  1
  Pb  Pb24  1  0.716672  0.967373  0.957464  1
  Pb  Pb25  1  0.217463  0.534200  0.542645  1
  Pb  Pb26  1  0.282387  0.034237  0.457270  1
  Pb  Pb27  1  0.782071  0.465048  0.043509  1
  Pb  Pb28  1  0.570928  0.627341  0.749613  1
  Pb  Pb29  1  0.072024  0.873396  0.749509  1
  Pb  Pb30  1  0.428451  0.372666  0.250045  1
  Pb  Pb31  1  0.928686  0.127360  0.250025  1
  Pb  Pb32  1  0.345433  0.152112  0.749916  1
  Pb  Pb33  1  0.845410  0.347186  0.749731  1
  Pb  Pb34  1  0.654467  0.847722  0.249988  1
  Pb  Pb35  1  0.154464  0.652310  0.250063  1
