# generated using pymatgen
data_La4Ho6Sn7Hg
_symmetry_space_group_name_H-M   'P 1'
_cell_length_a   8.01110000
_cell_length_b   8.43824700
_cell_length_c   15.68104700
_cell_angle_alpha   90.00000000
_cell_angle_beta   90.00000000
_cell_angle_gamma   90.00000000
_symmetry_Int_Tables_number   1
_chemical_formula_structural   La4Ho6Sn7Hg
_chemical_formula_sum   'La8 Ho12 Sn14 Hg2'
_cell_volume   1060.03314052
_cell_formula_units_Z   2
loop_
 _symmetry_equiv_pos_site_id
 _symmetry_equiv_pos_as_xyz
  1  'x, y, z'
loop_
 _atom_site_type_symbol
 _atom_site_label
 _atom_site_symmetry_multiplicity
 _atom_site_fract_x
 _atom_site_fract_y
 _atom_site_fract_z
 _atom_site_occupancy
  La  La0  1  0.499875  0.315527  0.907369  1
  La  La1  1  0.999875  0.184473  0.592631  1
  La  La2  1  0.498393  0.678788  0.405426  1
  La  La3  1  0.998393  0.821212  0.094574  1
  La  La4  1  0.498393  0.678788  0.094574  1
  La  La5  1  0.998393  0.821212  0.405426  1
  La  La6  1  0.499875  0.315527  0.592631  1
  La  La7  1  0.999875  0.184473  0.907369  1
  Ho  Ho8  1  0.334516  0.833498  0.873423  1
  Ho  Ho9  1  0.834516  0.666502  0.626577  1
  Ho  Ho10  1  0.664616  0.165002  0.374071  1
  Ho  Ho11  1  0.164616  0.334998  0.125929  1
  Ho  Ho12  1  0.664616  0.165002  0.125929  1
  Ho  Ho13  1  0.164616  0.334998  0.374071  1
  Ho  Ho14  1  0.334516  0.833498  0.626577  1
  Ho  Ho15  1  0.834516  0.666502  0.873423  1
  Ho  Ho16  1  0.177620  0.497335  0.750000  1
  Ho  Ho17  1  0.677620  0.002665  0.750000  1
  Ho  Ho18  1  0.829169  0.501831  0.250000  1
  Ho  Ho19  1  0.329169  0.998169  0.250000  1
  Sn  Sn20  1  0.323463  0.039584  0.040896  1
  Sn  Sn21  1  0.823463  0.460416  0.459104  1
  Sn  Sn22  1  0.680121  0.960348  0.542337  1
  Sn  Sn23  1  0.180121  0.539652  0.957663  1
  Sn  Sn24  1  0.680121  0.960348  0.957663  1
  Sn  Sn25  1  0.180121  0.539652  0.542337  1
  Sn  Sn26  1  0.323463  0.039584  0.459104  1
  Sn  Sn27  1  0.823463  0.460416  0.040896  1
  Sn  Sn28  1  0.468652  0.377189  0.250000  1
  Sn  Sn29  1  0.968652  0.122811  0.250000  1
  Sn  Sn30  1  0.296191  0.134334  0.750000  1
  Sn  Sn31  1  0.796191  0.365666  0.750000  1
  Sn  Sn32  1  0.693339  0.855344  0.250000  1
  Sn  Sn33  1  0.193339  0.644656  0.250000  1
  Hg  Hg34  1  0.533066  0.623039  0.750000  1
  Hg  Hg35  1  0.033066  0.876961  0.750000  1
