# generated using pymatgen
data_Er8Sc11Si16Os
_symmetry_space_group_name_H-M   'P 1'
_cell_length_a   6.98701101
_cell_length_b   7.33341411
_cell_length_c   13.82478500
_cell_angle_alpha   90.00000000
_cell_angle_beta   90.00000000
_cell_angle_gamma   90.10594758
_symmetry_Int_Tables_number   1
_chemical_formula_structural   Er8Sc11Si16Os
_chemical_formula_sum   'Er8 Sc11 Si16 Os1'
_cell_volume   708.36204149
_cell_formula_units_Z   1
loop_
 _symmetry_equiv_pos_site_id
 _symmetry_equiv_pos_as_xyz
  1  'x, y, z'
loop_
 _atom_site_type_symbol
 _atom_site_label
 _atom_site_symmetry_multiplicity
 _atom_site_fract_x
 _atom_site_fract_y
 _atom_site_fract_z
 _atom_site_occupancy
  Er  Er0  1  0.012446  0.178806  0.092568  1
  Er  Er1  1  0.992844  0.818679  0.900871  1
  Er  Er2  1  0.489652  0.673195  0.902982  1
  Er  Er3  1  0.992844  0.818679  0.599129  1
  Er  Er4  1  0.511740  0.322981  0.094322  1
  Er  Er5  1  0.012446  0.178806  0.407432  1
  Er  Er6  1  0.511740  0.322981  0.405678  1
  Er  Er7  1  0.489652  0.673195  0.597018  1
  Sc  Sc8  1  0.843512  0.496471  0.250000  1
  Sc  Sc9  1  0.343539  0.003731  0.250000  1
  Sc  Sc10  1  0.656249  0.994567  0.750000  1
  Sc  Sc11  1  0.324461  0.175407  0.627527  1
  Sc  Sc12  1  0.673253  0.825007  0.373909  1
  Sc  Sc13  1  0.173238  0.673057  0.377003  1
  Sc  Sc14  1  0.673253  0.825007  0.126091  1
  Sc  Sc15  1  0.823215  0.331713  0.628718  1
  Sc  Sc16  1  0.324461  0.175407  0.872473  1
  Sc  Sc17  1  0.823215  0.331713  0.871282  1
  Sc  Sc18  1  0.173238  0.673057  0.122997  1
  Si  Si19  1  0.026234  0.116522  0.750000  1
  Si  Si20  1  0.975403  0.887444  0.250000  1
  Si  Si21  1  0.470795  0.613662  0.250000  1
  Si  Si22  1  0.511762  0.396817  0.750000  1
  Si  Si23  1  0.285374  0.857057  0.750000  1
  Si  Si24  1  0.717993  0.131986  0.250000  1
  Si  Si25  1  0.215841  0.369055  0.250000  1
  Si  Si26  1  0.794638  0.631662  0.750000  1
  Si  Si27  1  0.156435  0.466433  0.550070  1
  Si  Si28  1  0.842390  0.536184  0.464060  1
  Si  Si29  1  0.345259  0.964681  0.462838  1
  Si  Si30  1  0.842390  0.536184  0.035940  1
  Si  Si31  1  0.659283  0.034505  0.539591  1
  Si  Si32  1  0.156435  0.466433  0.949930  1
  Si  Si33  1  0.659283  0.034505  0.960409  1
  Si  Si34  1  0.345259  0.964681  0.037162  1
  Os  Os35  1  0.150230  0.499729  0.750000  1
