# generated using pymatgen
data_Tm2Ta(SnRu2)3
_symmetry_space_group_name_H-M   'P 1'
_cell_length_a   4.60097300
_cell_length_b   6.50740800
_cell_length_c   13.81407100
_cell_angle_alpha   90.00000000
_cell_angle_beta   90.00002490
_cell_angle_gamma   90.00000000
_symmetry_Int_Tables_number   1
_chemical_formula_structural   Tm2Ta(SnRu2)3
_chemical_formula_sum   'Tm4 Ta2 Sn6 Ru12'
_cell_volume   413.59892890
_cell_formula_units_Z   2
loop_
 _symmetry_equiv_pos_site_id
 _symmetry_equiv_pos_as_xyz
  1  'x, y, z'
loop_
 _atom_site_type_symbol
 _atom_site_label
 _atom_site_symmetry_multiplicity
 _atom_site_fract_x
 _atom_site_fract_y
 _atom_site_fract_z
 _atom_site_occupancy
  Tm  Tm0  1  0.999997  0.000000  0.998479  1
  Tm  Tm1  1  0.500009  0.500001  0.166142  1
  Tm  Tm2  1  0.000007  0.000000  0.333843  1
  Tm  Tm3  1  0.499999  0.500001  0.501536  1
  Ta  Ta4  1  0.000003  0.000000  0.667252  1
  Ta  Ta5  1  0.500004  0.500001  0.832734  1
  Sn  Sn6  1  0.000006  0.500001  0.999702  1
  Sn  Sn7  1  0.499984  0.000000  0.165179  1
  Sn  Sn8  1  0.000007  0.500001  0.334827  1
  Sn  Sn9  1  0.500008  0.000000  0.500315  1
  Sn  Sn10  1  0.000001  0.500001  0.665507  1
  Sn  Sn11  1  0.499999  0.000000  0.834475  1
  Ru  Ru12  1  0.499997  0.260352  0.989909  1
  Ru  Ru13  1  0.499997  0.739648  0.989909  1
  Ru  Ru14  1  0.999997  0.249470  0.165404  1
  Ru  Ru15  1  0.999997  0.750531  0.165404  1
  Ru  Ru16  1  0.499991  0.250499  0.334594  1
  Ru  Ru17  1  0.499991  0.749501  0.334594  1
  Ru  Ru18  1  0.999995  0.239658  0.510098  1
  Ru  Ru19  1  0.999995  0.760343  0.510098  1
  Ru  Ru20  1  0.500002  0.240860  0.673329  1
  Ru  Ru21  1  0.500002  0.759140  0.673329  1
  Ru  Ru22  1  0.000008  0.259146  0.826671  1
  Ru  Ru23  1  0.000008  0.740855  0.826671  1
