# generated using pymatgen
data_CeDy3(AuBr6)4
_symmetry_space_group_name_H-M   'P 1'
_cell_length_a   8.31284014
_cell_length_b   10.44982923
_cell_length_c   14.85335100
_cell_angle_alpha   103.38136674
_cell_angle_beta   96.46893539
_cell_angle_gamma   112.71442012
_symmetry_Int_Tables_number   1
_chemical_formula_structural   CeDy3(AuBr6)4
_chemical_formula_sum   'Ce1 Dy3 Au4 Br24'
_cell_volume   1128.16806402
_cell_formula_units_Z   1
loop_
 _symmetry_equiv_pos_site_id
 _symmetry_equiv_pos_as_xyz
  1  'x, y, z'
loop_
 _atom_site_type_symbol
 _atom_site_label
 _atom_site_symmetry_multiplicity
 _atom_site_fract_x
 _atom_site_fract_y
 _atom_site_fract_z
 _atom_site_occupancy
  Ce  Ce0  1  0.023133  0.686641  0.128844  1
  Dy  Dy1  1  0.578923  0.923092  0.622474  1
  Dy  Dy2  1  0.423639  0.079436  0.379285  1
  Dy  Dy3  1  0.975002  0.309879  0.869155  1
  Au  Au4  1  0.294085  0.631548  0.762848  1
  Au  Au5  1  0.704978  0.367001  0.237584  1
  Au  Au6  1  0.500471  0.500426  0.500133  1
  Au  Au7  1  0.000313  0.001509  0.999099  1
  Br  Br8  1  0.609242  0.737859  0.748620  1
  Br  Br9  1  0.390012  0.261563  0.251464  1
  Br  Br10  1  0.278245  0.849175  0.731989  1
  Br  Br11  1  0.720729  0.149481  0.268108  1
  Br  Br12  1  0.976099  0.527468  0.772451  1
  Br  Br13  1  0.024714  0.468001  0.229769  1
  Br  Br14  1  0.308308  0.409990  0.789671  1
  Br  Br15  1  0.687352  0.588551  0.211802  1
  Br  Br16  1  0.687256  0.364733  0.506833  1
  Br  Br17  1  0.314204  0.636481  0.493719  1
  Br  Br18  1  0.764078  0.733984  0.528404  1
  Br  Br19  1  0.237055  0.266712  0.472075  1
  Br  Br20  1  0.791534  0.114086  0.976738  1
  Br  Br21  1  0.211928  0.890320  0.020968  1
  Br  Br22  1  0.767534  0.793725  0.032332  1
  Br  Br23  1  0.230587  0.209126  0.965308  1
  Br  Br24  1  0.621078  0.191579  0.745228  1
  Br  Br25  1  0.381436  0.808966  0.256102  1
  Br  Br26  1  0.944232  0.055920  0.726426  1
  Br  Br27  1  0.056029  0.945993  0.275122  1
  Br  Br28  1  0.721336  0.047616  0.482061  1
  Br  Br29  1  0.279348  0.952800  0.518069  1
  Br  Br30  1  0.764763  0.434726  0.974765  1
  Br  Br31  1  0.232356  0.561613  0.022554  1
