# generated using pymatgen
data_LaMg(TaSe2)8
_symmetry_space_group_name_H-M   'P 1'
_cell_length_a   7.02591600
_cell_length_b   7.02591809
_cell_length_c   14.49114900
_cell_angle_alpha   90.00000000
_cell_angle_beta   90.00000000
_cell_angle_gamma   120.00000899
_symmetry_Int_Tables_number   1
_chemical_formula_structural   LaMg(TaSe2)8
_chemical_formula_sum   'La1 Mg1 Ta8 Se16'
_cell_volume   619.49734561
_cell_formula_units_Z   1
loop_
 _symmetry_equiv_pos_site_id
 _symmetry_equiv_pos_as_xyz
  1  'x, y, z'
loop_
 _atom_site_type_symbol
 _atom_site_label
 _atom_site_symmetry_multiplicity
 _atom_site_fract_x
 _atom_site_fract_y
 _atom_site_fract_z
 _atom_site_occupancy
  La  La0  1  0.000000  0.000000  0.000000  1
  Mg  Mg1  1  0.000000  0.000000  0.500000  1
  Ta  Ta2  1  0.000000  0.000000  0.259524  1
  Ta  Ta3  1  0.000000  0.000000  0.740476  1
  Ta  Ta4  1  0.507565  0.015130  0.262564  1
  Ta  Ta5  1  0.492435  0.984870  0.737436  1
  Ta  Ta6  1  0.984870  0.492435  0.262564  1
  Ta  Ta7  1  0.015130  0.507565  0.737436  1
  Ta  Ta8  1  0.507565  0.492435  0.262564  1
  Ta  Ta9  1  0.492435  0.507565  0.737436  1
  Se  Se10  1  0.333333  0.666667  0.619286  1
  Se  Se11  1  0.666667  0.333333  0.380714  1
  Se  Se12  1  0.666667  0.333333  0.142756  1
  Se  Se13  1  0.333333  0.666667  0.857244  1
  Se  Se14  1  0.170692  0.341384  0.148100  1
  Se  Se15  1  0.829308  0.658616  0.851900  1
  Se  Se16  1  0.658616  0.829308  0.148100  1
  Se  Se17  1  0.832437  0.664872  0.625002  1
  Se  Se18  1  0.341384  0.170692  0.851900  1
  Se  Se19  1  0.167563  0.335128  0.374998  1
  Se  Se20  1  0.170692  0.829308  0.148100  1
  Se  Se21  1  0.335128  0.167563  0.625002  1
  Se  Se22  1  0.829308  0.170692  0.851900  1
  Se  Se23  1  0.664872  0.832437  0.374998  1
  Se  Se24  1  0.832437  0.167563  0.625002  1
  Se  Se25  1  0.167563  0.832437  0.374998  1
