# generated using pymatgen
data_Mn(BW)3
_symmetry_space_group_name_H-M   'P 1'
_cell_length_a   3.15488800
_cell_length_b   4.57573464
_cell_length_c   10.91854000
_cell_angle_alpha   90.00000000
_cell_angle_beta   90.00000000
_cell_angle_gamma   110.16599511
_symmetry_Int_Tables_number   1
_chemical_formula_structural   Mn(BW)3
_chemical_formula_sum   'Mn2 B6 W6'
_cell_volume   147.95687234
_cell_formula_units_Z   2
loop_
 _symmetry_equiv_pos_site_id
 _symmetry_equiv_pos_as_xyz
  1  'x, y, z'
loop_
 _atom_site_type_symbol
 _atom_site_label
 _atom_site_symmetry_multiplicity
 _atom_site_fract_x
 _atom_site_fract_y
 _atom_site_fract_z
 _atom_site_occupancy
  Mn  Mn0  1  0.500000  0.000000  0.500000  1
  Mn  Mn1  1  0.500000  0.000000  0.000000  1
  B  B2  1  0.907951  0.815902  0.394363  1
  B  B3  1  0.092049  0.184098  0.605637  1
  B  B4  1  0.907951  0.815902  0.105637  1
  B  B5  1  0.092049  0.184098  0.894363  1
  B  B6  1  0.788588  0.577176  0.250000  1
  B  B7  1  0.211412  0.422824  0.750000  1
  W  W8  1  0.208099  0.416197  0.392934  1
  W  W9  1  0.791901  0.583803  0.607066  1
  W  W10  1  0.208099  0.416197  0.107066  1
  W  W11  1  0.791901  0.583803  0.892934  1
  W  W12  1  0.494975  0.989949  0.250000  1
  W  W13  1  0.505025  0.010051  0.750000  1
