# generated using pymatgen
data_Dy8GaSi11Pt4
_symmetry_space_group_name_H-M   'P 1'
_cell_length_a   8.17725500
_cell_length_b   8.18002830
_cell_length_c   8.13093900
_cell_angle_alpha   89.99816436
_cell_angle_beta   89.99998595
_cell_angle_gamma   119.98878147
_symmetry_Int_Tables_number   1
_chemical_formula_structural   Dy8GaSi11Pt4
_chemical_formula_sum   'Dy8 Ga1 Si11 Pt4'
_cell_volume   471.06709120
_cell_formula_units_Z   1
loop_
 _symmetry_equiv_pos_site_id
 _symmetry_equiv_pos_as_xyz
  1  'x, y, z'
loop_
 _atom_site_type_symbol
 _atom_site_label
 _atom_site_symmetry_multiplicity
 _atom_site_fract_x
 _atom_site_fract_y
 _atom_site_fract_z
 _atom_site_occupancy
  Dy  Dy0  1  0.998272  0.996545  0.251876  1
  Dy  Dy1  1  0.998281  0.996562  0.747971  1
  Dy  Dy2  1  0.002512  0.501926  0.249531  1
  Dy  Dy3  1  0.499414  0.501926  0.249531  1
  Dy  Dy4  1  0.501602  0.003204  0.750116  1
  Dy  Dy5  1  0.498945  0.997890  0.250034  1
  Dy  Dy6  1  0.501935  0.499251  0.750453  1
  Dy  Dy7  1  0.997316  0.499252  0.750453  1
  Ga  Ga8  1  0.164647  0.329294  0.999392  1
  Si  Si9  1  0.669041  0.834434  0.999324  1
  Si  Si10  1  0.165134  0.330267  0.500764  1
  Si  Si11  1  0.332812  0.163394  0.000707  1
  Si  Si12  1  0.165393  0.834434  0.999324  1
  Si  Si13  1  0.669050  0.834882  0.500868  1
  Si  Si14  1  0.834419  0.668838  0.000575  1
  Si  Si15  1  0.330632  0.165474  0.499178  1
  Si  Si16  1  0.165832  0.834883  0.500868  1
  Si  Si17  1  0.834638  0.669275  0.499191  1
  Si  Si18  1  0.830582  0.163394  0.000707  1
  Si  Si19  1  0.834841  0.165473  0.499178  1
  Pt  Pt20  1  0.337423  0.674846  0.996476  1
  Pt  Pt21  1  0.333236  0.666472  0.502703  1
  Pt  Pt22  1  0.667315  0.334629  0.003345  1
  Pt  Pt23  1  0.666726  0.333453  0.497435  1
