# generated using pymatgen
data_Ho4Er6(SnSb)3
_symmetry_space_group_name_H-M   'P 1'
_cell_length_a   8.91021930
_cell_length_b   8.89368810
_cell_length_c   6.39171300
_cell_angle_alpha   90.00000000
_cell_angle_beta   90.00000000
_cell_angle_gamma   119.84224641
_symmetry_Int_Tables_number   1
_chemical_formula_structural   Ho4Er6(SnSb)3
_chemical_formula_sum   'Ho4 Er6 Sn3 Sb3'
_cell_volume   439.34568046
_cell_formula_units_Z   1
loop_
 _symmetry_equiv_pos_site_id
 _symmetry_equiv_pos_as_xyz
  1  'x, y, z'
loop_
 _atom_site_type_symbol
 _atom_site_label
 _atom_site_symmetry_multiplicity
 _atom_site_fract_x
 _atom_site_fract_y
 _atom_site_fract_z
 _atom_site_occupancy
  Ho  Ho0  1  0.001570  0.760322  0.750000  1
  Ho  Ho1  1  0.001271  0.242472  0.250000  1
  Ho  Ho2  1  0.757538  0.756325  0.250000  1
  Ho  Ho3  1  0.757030  0.000186  0.750000  1
  Er  Er4  1  0.242735  0.241734  0.750000  1
  Er  Er5  1  0.239978  0.999835  0.250000  1
  Er  Er6  1  0.332318  0.666405  0.500259  1
  Er  Er7  1  0.666718  0.333415  0.999811  1
  Er  Er8  1  0.666718  0.333415  0.500189  1
  Er  Er9  1  0.332318  0.666405  0.999741  1
  Sn  Sn10  1  0.392681  0.999531  0.750000  1
  Sn  Sn11  1  0.391758  0.391345  0.250000  1
  Sn  Sn12  1  0.000423  0.607678  0.250000  1
  Sb  Sb13  1  0.999446  0.391347  0.750000  1
  Sb  Sb14  1  0.609133  0.609177  0.750000  1
  Sb  Sb15  1  0.608364  0.000409  0.250000  1
