# generated using pymatgen
data_Pm4Sn3
_symmetry_space_group_name_H-M   'P 1'
_cell_length_a   6.28159954
_cell_length_b   6.29367061
_cell_length_c   10.70967087
_cell_angle_alpha   68.37555950
_cell_angle_beta   80.84370521
_cell_angle_gamma   134.44160684
_symmetry_Int_Tables_number   1
_chemical_formula_structural   Pm4Sn3
_chemical_formula_sum   'Pm4 Sn3'
_cell_volume   218.57232643
_cell_formula_units_Z   1
loop_
 _symmetry_equiv_pos_site_id
 _symmetry_equiv_pos_as_xyz
  1  'x, y, z'
loop_
 _atom_site_type_symbol
 _atom_site_label
 _atom_site_symmetry_multiplicity
 _atom_site_fract_x
 _atom_site_fract_y
 _atom_site_fract_z
 _atom_site_occupancy
  Pm  Pm0  1  0.788973  0.332123  0.698684  1
  Pm  Pm1  1  0.043600  0.488171  0.228864  1
  Pm  Pm2  1  0.506304  0.551641  0.386405  1
  Pm  Pm3  1  0.759958  0.716398  0.913973  1
  Sn  Sn4  1  0.277750  0.024196  0.305252  1
  Sn  Sn5  1  0.966012  0.333301  0.972538  1
  Sn  Sn6  1  0.581591  0.713673  0.640758  1
