# generated using pymatgen
data_Pr17Nd3(GaSi5)2
_symmetry_space_group_name_H-M   'P 1'
_cell_length_a   7.81951300
_cell_length_b   7.81951300
_cell_length_c   14.47563500
_cell_angle_alpha   90.00000000
_cell_angle_beta   90.00000000
_cell_angle_gamma   90.00000000
_symmetry_Int_Tables_number   1
_chemical_formula_structural   Pr17Nd3(GaSi5)2
_chemical_formula_sum   'Pr17 Nd3 Ga2 Si10'
_cell_volume   885.10956893
_cell_formula_units_Z   1
loop_
 _symmetry_equiv_pos_site_id
 _symmetry_equiv_pos_as_xyz
  1  'x, y, z'
loop_
 _atom_site_type_symbol
 _atom_site_label
 _atom_site_symmetry_multiplicity
 _atom_site_fract_x
 _atom_site_fract_y
 _atom_site_fract_z
 _atom_site_occupancy
  Pr  Pr0  1  0.814005  0.827522  0.605084  1
  Pr  Pr1  1  0.185235  0.830064  0.109809  1
  Pr  Pr2  1  0.172297  0.813822  0.394883  1
  Pr  Pr3  1  0.827703  0.186178  0.394883  1
  Pr  Pr4  1  0.686178  0.672297  0.394883  1
  Pr  Pr5  1  0.672478  0.314005  0.605084  1
  Pr  Pr6  1  0.327522  0.685995  0.605084  1
  Pr  Pr7  1  0.669936  0.685235  0.109809  1
  Pr  Pr8  1  0.685422  0.330367  0.890185  1
  Pr  Pr9  1  0.830367  0.814578  0.890185  1
  Pr  Pr10  1  0.313822  0.327703  0.394883  1
  Pr  Pr11  1  0.185995  0.172478  0.605084  1
  Pr  Pr12  1  0.814765  0.169936  0.109809  1
  Pr  Pr13  1  0.314578  0.669633  0.890185  1
  Pr  Pr14  1  0.330064  0.314765  0.109809  1
  Pr  Pr15  1  0.169633  0.185422  0.890185  1
  Pr  Pr16  1  0.500000  0.000000  0.772178  1
  Nd  Nd17  1  0.000000  0.500000  0.729662  1
  Nd  Nd18  1  0.000000  0.500000  0.228326  1
  Nd  Nd19  1  0.500000  0.000000  0.270370  1
  Ga  Ga20  1  0.500000  0.000000  0.995671  1
  Ga  Ga21  1  0.000000  0.500000  0.004914  1
  Si  Si22  1  0.614373  0.385887  0.252950  1
  Si  Si23  1  0.113429  0.885677  0.746835  1
  Si  Si24  1  0.385677  0.386571  0.746835  1
  Si  Si25  1  0.385627  0.614113  0.252950  1
  Si  Si26  1  0.885887  0.885627  0.252950  1
  Si  Si27  1  0.614323  0.613429  0.746835  1
  Si  Si28  1  0.000000  0.500000  0.508467  1
  Si  Si29  1  0.886571  0.114323  0.746835  1
  Si  Si30  1  0.500000  0.000000  0.491430  1
  Si  Si31  1  0.114113  0.114373  0.252950  1
