# generated using pymatgen
data_Zr5Sc(Tc2W)6
_symmetry_space_group_name_H-M   'P 1'
_cell_length_a   4.50178100
_cell_length_b   6.39811700
_cell_length_c   13.63607400
_cell_angle_alpha   90.00000000
_cell_angle_beta   89.99997467
_cell_angle_gamma   90.00000000
_symmetry_Int_Tables_number   1
_chemical_formula_structural   Zr5Sc(Tc2W)6
_chemical_formula_sum   'Zr5 Sc1 Tc12 W6'
_cell_volume   392.75876962
_cell_formula_units_Z   1
loop_
 _symmetry_equiv_pos_site_id
 _symmetry_equiv_pos_as_xyz
  1  'x, y, z'
loop_
 _atom_site_type_symbol
 _atom_site_label
 _atom_site_symmetry_multiplicity
 _atom_site_fract_x
 _atom_site_fract_y
 _atom_site_fract_z
 _atom_site_occupancy
  Zr  Zr0  1  0.000006  0.000000  0.999017  1
  Zr  Zr1  1  0.499957  0.500000  0.165702  1
  Zr  Zr2  1  0.999957  0.000000  0.333334  1
  Zr  Zr3  1  0.500008  0.500000  0.500964  1
  Zr  Zr4  1  0.000053  0.000000  0.667649  1
  Sc  Sc5  1  0.500052  0.500000  0.833325  1
  Tc  Tc6  1  0.500002  0.250369  0.999742  1
  Tc  Tc7  1  0.500002  0.749632  0.999742  1
  Tc  Tc8  1  0.999959  0.249359  0.166574  1
  Tc  Tc9  1  0.999959  0.750640  0.166574  1
  Tc  Tc10  1  0.499957  0.250887  0.333332  1
  Tc  Tc11  1  0.499957  0.749112  0.333332  1
  Tc  Tc12  1  0.000010  0.249359  0.500092  1
  Tc  Tc13  1  0.000010  0.750640  0.500092  1
  Tc  Tc14  1  0.500055  0.250364  0.666928  1
  Tc  Tc15  1  0.500055  0.749635  0.666928  1
  Tc  Tc16  1  0.000041  0.251464  0.833335  1
  Tc  Tc17  1  0.000041  0.748535  0.833335  1
  W  W18  1  0.999996  0.500000  0.996987  1
  W  W19  1  0.499959  0.000000  0.165655  1
  W  W20  1  0.999951  0.500000  0.333335  1
  W  W21  1  0.500006  0.000000  0.501014  1
  W  W22  1  0.000041  0.500000  0.669679  1
  W  W23  1  0.500065  0.000000  0.833331  1
