# generated using pymatgen
data_Hf3NbCo2N
_symmetry_space_group_name_H-M   'P 1'
_cell_length_a   8.41800373
_cell_length_b   8.41800348
_cell_length_c   8.41800300
_cell_angle_alpha   59.99999795
_cell_angle_beta   59.99999893
_cell_angle_gamma   60.00000057
_symmetry_Int_Tables_number   1
_chemical_formula_structural   Hf3NbCo2N
_chemical_formula_sum   'Hf12 Nb4 Co8 N4'
_cell_volume   421.80554503
_cell_formula_units_Z   4
loop_
 _symmetry_equiv_pos_site_id
 _symmetry_equiv_pos_as_xyz
  1  'x, y, z'
loop_
 _atom_site_type_symbol
 _atom_site_label
 _atom_site_symmetry_multiplicity
 _atom_site_fract_x
 _atom_site_fract_y
 _atom_site_fract_z
 _atom_site_occupancy
  Hf  Hf0  1  0.812050  0.812050  0.187950  1
  Hf  Hf1  1  0.187950  0.187950  0.812050  1
  Hf  Hf2  1  0.812050  0.187950  0.812050  1
  Hf  Hf3  1  0.187950  0.812050  0.187950  1
  Hf  Hf4  1  0.187950  0.812050  0.812050  1
  Hf  Hf5  1  0.812050  0.187950  0.187950  1
  Hf  Hf6  1  0.437950  0.437950  0.062050  1
  Hf  Hf7  1  0.062050  0.062050  0.437950  1
  Hf  Hf8  1  0.437950  0.062050  0.437950  1
  Hf  Hf9  1  0.062050  0.437950  0.062050  1
  Hf  Hf10  1  0.062050  0.437950  0.437950  1
  Hf  Hf11  1  0.437950  0.062050  0.062050  1
  Nb  Nb12  1  0.125000  0.625000  0.625000  1
  Nb  Nb13  1  0.625000  0.125000  0.625000  1
  Nb  Nb14  1  0.625000  0.625000  0.125000  1
  Nb  Nb15  1  0.625000  0.625000  0.625000  1
  Co  Co16  1  0.749856  0.416715  0.416715  1
  Co  Co17  1  0.416715  0.749856  0.416715  1
  Co  Co18  1  0.416715  0.416715  0.749856  1
  Co  Co19  1  0.416715  0.416715  0.416715  1
  Co  Co20  1  0.500144  0.833285  0.833285  1
  Co  Co21  1  0.833285  0.500144  0.833285  1
  Co  Co22  1  0.833285  0.833285  0.500144  1
  Co  Co23  1  0.833285  0.833285  0.833285  1
  N  N24  1  0.625000  0.125000  0.125000  1
  N  N25  1  0.125000  0.625000  0.125000  1
  N  N26  1  0.125000  0.125000  0.625000  1
  N  N27  1  0.125000  0.125000  0.125000  1
