# generated using pymatgen
data_Nb2VFe2Si
_symmetry_space_group_name_H-M   'P 1'
_cell_length_a   4.88633500
_cell_length_b   4.85943604
_cell_length_c   8.06800800
_cell_angle_alpha   90.00000000
_cell_angle_beta   90.00000000
_cell_angle_gamma   120.18328618
_symmetry_Int_Tables_number   1
_chemical_formula_structural   Nb2VFe2Si
_chemical_formula_sum   'Nb4 V2 Fe4 Si2'
_cell_volume   165.60025067
_cell_formula_units_Z   2
loop_
 _symmetry_equiv_pos_site_id
 _symmetry_equiv_pos_as_xyz
  1  'x, y, z'
loop_
 _atom_site_type_symbol
 _atom_site_label
 _atom_site_symmetry_multiplicity
 _atom_site_fract_x
 _atom_site_fract_y
 _atom_site_fract_z
 _atom_site_occupancy
  Nb  Nb0  1  0.333840  0.667678  0.060273  1
  Nb  Nb1  1  0.333840  0.667678  0.439727  1
  Nb  Nb2  1  0.665353  0.330707  0.568259  1
  Nb  Nb3  1  0.665353  0.330707  0.931740  1
  V  V4  1  0.344491  0.173135  0.250000  1
  V  V5  1  0.828643  0.173135  0.250000  1
  Fe  Fe6  1  0.832769  0.665540  0.250000  1
  Fe  Fe7  1  0.172295  0.344588  0.750001  1
  Fe  Fe8  1  0.172176  0.830009  0.750001  1
  Fe  Fe9  1  0.657834  0.830009  0.750001  1
  Si  Si10  1  0.996703  0.993407  0.992263  1
  Si  Si11  1  0.996703  0.993407  0.507737  1
