# generated using pymatgen
data_Tb4TmGa2Pb
_symmetry_space_group_name_H-M   'P 1'
_cell_length_a   8.77307068
_cell_length_b   8.77307114
_cell_length_c   8.77307000
_cell_angle_alpha   125.43442779
_cell_angle_beta   125.43441388
_cell_angle_gamma   80.81972027
_symmetry_Int_Tables_number   1
_chemical_formula_structural   Tb4TmGa2Pb
_chemical_formula_sum   'Tb8 Tm2 Ga4 Pb2'
_cell_volume   432.11492968
_cell_formula_units_Z   2
loop_
 _symmetry_equiv_pos_site_id
 _symmetry_equiv_pos_as_xyz
  1  'x, y, z'
loop_
 _atom_site_type_symbol
 _atom_site_label
 _atom_site_symmetry_multiplicity
 _atom_site_fract_x
 _atom_site_fract_y
 _atom_site_fract_z
 _atom_site_occupancy
  Tb  Tb0  1  0.514437  0.014437  0.812358  1
  Tb  Tb1  1  0.202126  0.702126  0.187711  1
  Tb  Tb2  1  0.014432  0.202137  0.500017  1
  Tb  Tb3  1  0.702137  0.514432  0.500017  1
  Tb  Tb4  1  0.485563  0.985563  0.187642  1
  Tb  Tb5  1  0.797874  0.297874  0.812289  1
  Tb  Tb6  1  0.985568  0.797863  0.499983  1
  Tb  Tb7  1  0.297863  0.485568  0.499983  1
  Tm  Tm8  1  0.500000  0.500000  0.000000  1
  Tm  Tm9  1  0.000000  0.000000  0.000000  1
  Ga  Ga10  1  0.144430  0.644430  0.788857  1
  Ga  Ga11  1  0.855570  0.355570  0.211143  1
  Ga  Ga12  1  0.644420  0.855580  0.500000  1
  Ga  Ga13  1  0.355580  0.144420  0.500000  1
  Pb  Pb14  1  0.249930  0.250070  0.000000  1
  Pb  Pb15  1  0.750070  0.749930  0.000000  1
