# generated using pymatgen
data_AlBi3(PS3)6
_symmetry_space_group_name_H-M   'P 1'
_cell_length_a   10.94017132
_cell_length_b   10.94017084
_cell_length_c   7.46767641
_cell_angle_alpha   75.97344346
_cell_angle_beta   75.97344633
_cell_angle_gamma   60.04554591
_symmetry_Int_Tables_number   1
_chemical_formula_structural   AlBi3(PS3)6
_chemical_formula_sum   'Al1 Bi3 P6 S18'
_cell_volume   743.43643598
_cell_formula_units_Z   1
loop_
 _symmetry_equiv_pos_site_id
 _symmetry_equiv_pos_as_xyz
  1  'x, y, z'
loop_
 _atom_site_type_symbol
 _atom_site_label
 _atom_site_symmetry_multiplicity
 _atom_site_fract_x
 _atom_site_fract_y
 _atom_site_fract_z
 _atom_site_occupancy
  Al  Al0  1  0.164564  0.835436  0.500000  1
  Bi  Bi1  1  0.164055  0.476348  0.500797  1
  Bi  Bi2  1  0.523652  0.835945  0.499203  1
  Bi  Bi3  1  0.805045  0.194955  0.500000  1
  P  P4  1  0.857069  0.857189  0.344913  1
  P  P5  1  0.142811  0.142931  0.655087  1
  P  P6  1  0.501438  0.528097  0.343959  1
  P  P7  1  0.471903  0.498562  0.656041  1
  P  P8  1  0.186281  0.173033  0.342922  1
  P  P9  1  0.826967  0.813719  0.657078  1
  S  S10  1  0.712759  0.456440  0.257966  1
  S  S11  1  0.543560  0.287241  0.742034  1
  S  S12  1  0.080203  0.762630  0.284456  1
  S  S13  1  0.237370  0.919797  0.715544  1
  S  S14  1  0.396423  0.094830  0.254717  1
  S  S15  1  0.905170  0.603577  0.745283  1
  S  S16  1  0.786181  0.744945  0.259397  1
  S  S17  1  0.255055  0.213819  0.740603  1
  S  S18  1  0.422937  0.424351  0.257876  1
  S  S19  1  0.575649  0.577063  0.742124  1
  S  S20  1  0.091516  0.064044  0.283666  1
  S  S21  1  0.935956  0.908484  0.716334  1
  S  S22  1  0.392957  0.751185  0.283420  1
  S  S23  1  0.248815  0.607043  0.716580  1
  S  S24  1  0.074622  0.384452  0.258136  1
  S  S25  1  0.615548  0.925378  0.741864  1
  S  S26  1  0.753893  0.067295  0.256642  1
  S  S27  1  0.932705  0.246107  0.743358  1
