# generated using pymatgen
data_Cs5Ce2Se4Br9
_symmetry_space_group_name_H-M   'P 1'
_cell_length_a   11.44833807
_cell_length_b   11.44833902
_cell_length_c   11.44833786
_cell_angle_alpha   139.72679999
_cell_angle_beta   121.27193277
_cell_angle_gamma   73.61613598
_symmetry_Int_Tables_number   1
_chemical_formula_structural   Cs5Ce2Se4Br9
_chemical_formula_sum   'Cs5 Ce2 Se4 Br9'
_cell_volume   811.19742450
_cell_formula_units_Z   1
loop_
 _symmetry_equiv_pos_site_id
 _symmetry_equiv_pos_as_xyz
  1  'x, y, z'
loop_
 _atom_site_type_symbol
 _atom_site_label
 _atom_site_symmetry_multiplicity
 _atom_site_fract_x
 _atom_site_fract_y
 _atom_site_fract_z
 _atom_site_occupancy
  Cs  Cs0  1  0.434936  0.660073  0.774863  1
  Cs  Cs1  1  0.885211  0.660073  0.225137  1
  Cs  Cs2  1  0.500000  0.000000  0.500000  1
  Cs  Cs3  1  0.565064  0.339927  0.225137  1
  Cs  Cs4  1  0.114789  0.339927  0.774863  1
  Ce  Ce5  1  0.109262  0.109262  0.000000  1
  Ce  Ce6  1  0.890738  0.890738  0.000000  1
  Se  Se7  1  0.104082  0.761166  0.865247  1
  Se  Se8  1  0.895918  0.761166  0.657085  1
  Se  Se9  1  0.895918  0.238834  0.134753  1
  Se  Se10  1  0.104082  0.238834  0.342915  1
  Br  Br11  1  0.220275  0.967048  0.746771  1
  Br  Br12  1  0.603527  0.862772  0.740756  1
  Br  Br13  1  0.779725  0.032952  0.253229  1
  Br  Br14  1  0.396473  0.137228  0.259244  1
  Br  Br15  1  0.122016  0.862772  0.259244  1
  Br  Br16  1  0.220275  0.473504  0.253229  1
  Br  Br17  1  0.779725  0.526496  0.746771  1
  Br  Br18  1  0.877984  0.137228  0.740756  1
  Br  Br19  1  0.500000  0.500000  0.000000  1
