# generated using pymatgen
data_Ho10InSnSb4
_symmetry_space_group_name_H-M   'P 1'
_cell_length_a   8.92446642
_cell_length_b   8.92177977
_cell_length_c   6.41801700
_cell_angle_alpha   90.00000000
_cell_angle_beta   90.00000000
_cell_angle_gamma   119.80523339
_symmetry_Int_Tables_number   1
_chemical_formula_structural   Ho10InSnSb4
_chemical_formula_sum   'Ho10 In1 Sn1 Sb4'
_cell_volume   443.41895835
_cell_formula_units_Z   1
loop_
 _symmetry_equiv_pos_site_id
 _symmetry_equiv_pos_as_xyz
  1  'x, y, z'
loop_
 _atom_site_type_symbol
 _atom_site_label
 _atom_site_symmetry_multiplicity
 _atom_site_fract_x
 _atom_site_fract_y
 _atom_site_fract_z
 _atom_site_occupancy
  Ho  Ho0  1  0.333574  0.665958  0.999235  1
  Ho  Ho1  1  0.664061  0.332414  0.500568  1
  Ho  Ho2  1  0.664061  0.332414  0.999432  1
  Ho  Ho3  1  0.333574  0.665958  0.500765  1
  Ho  Ho4  1  0.755698  0.998425  0.750000  1
  Ho  Ho5  1  0.756125  0.757072  0.250000  1
  Ho  Ho6  1  0.002827  0.243148  0.250000  1
  Ho  Ho7  1  0.000822  0.757653  0.750000  1
  Ho  Ho8  1  0.243636  0.241710  0.750000  1
  Ho  Ho9  1  0.243088  0.003664  0.250000  1
  In  In10  1  0.392791  0.393897  0.250000  1
  Sn  Sn11  1  0.391373  0.997994  0.750000  1
  Sb  Sb12  1  0.000004  0.610206  0.250000  1
  Sb  Sb13  1  0.998000  0.388781  0.750000  1
  Sb  Sb14  1  0.610348  0.610066  0.750000  1
  Sb  Sb15  1  0.610019  0.000641  0.250000  1
