# generated using pymatgen
data_TbPrCo9P6Ru
_symmetry_space_group_name_H-M   'P 1'
_cell_length_a   3.70090700
_cell_length_b   10.43508300
_cell_length_c   11.82394800
_cell_angle_alpha   90.00000000
_cell_angle_beta   90.00000000
_cell_angle_gamma   90.00000000
_symmetry_Int_Tables_number   1
_chemical_formula_structural   TbPrCo9P6Ru
_chemical_formula_sum   'Tb2 Pr2 Co18 P12 Ru2'
_cell_volume   456.63226062
_cell_formula_units_Z   2
loop_
 _symmetry_equiv_pos_site_id
 _symmetry_equiv_pos_as_xyz
  1  'x, y, z'
loop_
 _atom_site_type_symbol
 _atom_site_label
 _atom_site_symmetry_multiplicity
 _atom_site_fract_x
 _atom_site_fract_y
 _atom_site_fract_z
 _atom_site_occupancy
  Tb  Tb0  1  0.750000  0.413529  0.296406  1
  Tb  Tb1  1  0.750000  0.086471  0.796406  1
  Pr  Pr2  1  0.250000  0.582713  0.701879  1
  Pr  Pr3  1  0.250000  0.917287  0.201879  1
  Co  Co4  1  0.750000  0.285683  0.008225  1
  Co  Co5  1  0.750000  0.214317  0.508225  1
  Co  Co6  1  0.250000  0.404045  0.486684  1
  Co  Co7  1  0.250000  0.095955  0.986684  1
  Co  Co8  1  0.750000  0.590513  0.505984  1
  Co  Co9  1  0.750000  0.909487  0.005984  1
  Co  Co10  1  0.250000  0.221393  0.175939  1
  Co  Co11  1  0.250000  0.278607  0.675939  1
  Co  Co12  1  0.750000  0.779879  0.823694  1
  Co  Co13  1  0.750000  0.720121  0.323694  1
  Co  Co14  1  0.250000  0.888846  0.701881  1
  Co  Co15  1  0.250000  0.611154  0.201881  1
  Co  Co16  1  0.750000  0.118979  0.302462  1
  Co  Co17  1  0.750000  0.381021  0.802462  1
  Co  Co18  1  0.250000  0.462870  0.934677  1
  Co  Co19  1  0.250000  0.037130  0.434677  1
  Co  Co20  1  0.750000  0.529916  0.070081  1
  Co  Co21  1  0.750000  0.970084  0.570081  1
  P  P22  1  0.250000  0.416531  0.113027  1
  P  P23  1  0.250000  0.083469  0.613027  1
  P  P24  1  0.750000  0.578210  0.890674  1
  P  P25  1  0.750000  0.921790  0.390674  1
  P  P26  1  0.250000  0.271589  0.867891  1
  P  P27  1  0.250000  0.228411  0.367891  1
  P  P28  1  0.750000  0.722835  0.132405  1
  P  P29  1  0.750000  0.777165  0.632405  1
  P  P30  1  0.250000  0.595404  0.390946  1
  P  P31  1  0.250000  0.904596  0.890946  1
  P  P32  1  0.750000  0.392784  0.606490  1
  P  P33  1  0.750000  0.107216  0.106490  1
  Ru  Ru34  1  0.250000  0.713706  0.990655  1
  Ru  Ru35  1  0.250000  0.786294  0.490655  1
