# generated using pymatgen
data_Ca4HfZr3H20
_symmetry_space_group_name_H-M   'P 1'
_cell_length_a   3.45151801
_cell_length_b   5.19902204
_cell_length_c   14.16720813
_cell_angle_alpha   90.01402177
_cell_angle_beta   90.00626768
_cell_angle_gamma   90.00010452
_symmetry_Int_Tables_number   1
_chemical_formula_structural   Ca4HfZr3H20
_chemical_formula_sum   'Ca4 Hf1 Zr3 H20'
_cell_volume   254.22371462
_cell_formula_units_Z   1
loop_
 _symmetry_equiv_pos_site_id
 _symmetry_equiv_pos_as_xyz
  1  'x, y, z'
loop_
 _atom_site_type_symbol
 _atom_site_label
 _atom_site_symmetry_multiplicity
 _atom_site_fract_x
 _atom_site_fract_y
 _atom_site_fract_z
 _atom_site_occupancy
  Ca  Ca0  1  0.733448  0.502388  0.814406  1
  Ca  Ca1  1  0.233499  0.997576  0.186135  1
  Ca  Ca2  1  0.766427  0.497672  0.313909  1
  Ca  Ca3  1  0.266599  0.002305  0.685802  1
  Hf  Hf4  1  0.227507  0.001424  0.932820  1
  Zr  Zr5  1  0.727439  0.498614  0.065900  1
  Zr  Zr6  1  0.272728  0.998910  0.433188  1
  Zr  Zr7  1  0.772763  0.501080  0.567014  1
  H  H8  1  0.723943  0.759634  0.950095  1
  H  H9  1  0.223923  0.750328  0.048169  1
  H  H10  1  0.775992  0.246284  0.450408  1
  H  H11  1  0.275986  0.253995  0.549729  1
  H  H12  1  0.231215  0.760572  0.825083  1
  H  H13  1  0.731446  0.740842  0.176373  1
  H  H14  1  0.268508  0.241471  0.323030  1
  H  H15  1  0.768587  0.258398  0.677367  1
  H  H16  1  0.731470  0.254339  0.175758  1
  H  H17  1  0.231240  0.244178  0.825660  1
  H  H18  1  0.768559  0.746334  0.676743  1
  H  H19  1  0.268477  0.753792  0.323660  1
  H  H20  1  0.726797  0.001884  0.843831  1
  H  H21  1  0.226655  0.498083  0.156165  1
  H  H22  1  0.773486  0.998136  0.342951  1
  H  H23  1  0.273453  0.501864  0.657394  1
  H  H24  1  0.223934  0.247664  0.048496  1
  H  H25  1  0.723961  0.242508  0.949777  1
  H  H26  1  0.275977  0.747851  0.550065  1
  H  H27  1  0.775982  0.751874  0.450071  1
