# generated using pymatgen
data_CaYReH6
_symmetry_space_group_name_H-M   'P 1'
_cell_length_a   5.09196298
_cell_length_b   5.09196291
_cell_length_c   5.09196200
_cell_angle_alpha   59.99999292
_cell_angle_beta   59.99999337
_cell_angle_gamma   59.99999513
_symmetry_Int_Tables_number   1
_chemical_formula_structural   CaYReH6
_chemical_formula_sum   'Ca1 Y1 Re1 H6'
_cell_volume   93.35564076
_cell_formula_units_Z   1
loop_
 _symmetry_equiv_pos_site_id
 _symmetry_equiv_pos_as_xyz
  1  'x, y, z'
loop_
 _atom_site_type_symbol
 _atom_site_label
 _atom_site_symmetry_multiplicity
 _atom_site_fract_x
 _atom_site_fract_y
 _atom_site_fract_z
 _atom_site_occupancy
  Ca  Ca0  1  0.750000  0.750000  0.750000  1
  Y  Y1  1  0.250000  0.250000  0.250000  1
  Re  Re2  1  0.000000  0.000000  0.000000  1
  H  H3  1  0.753055  0.753055  0.246945  1
  H  H4  1  0.246945  0.753055  0.246945  1
  H  H5  1  0.753055  0.246945  0.246945  1
  H  H6  1  0.246945  0.246945  0.753055  1
  H  H7  1  0.753055  0.246945  0.753055  1
  H  H8  1  0.246945  0.753055  0.753055  1
