# generated using pymatgen
data_EuIn3PtAu2
_symmetry_space_group_name_H-M   'P 1'
_cell_length_a   4.60141600
_cell_length_b   7.66992800
_cell_length_c   9.18792100
_cell_angle_alpha   90.00000000
_cell_angle_beta   90.00000000
_cell_angle_gamma   90.00000000
_symmetry_Int_Tables_number   1
_chemical_formula_structural   EuIn3PtAu2
_chemical_formula_sum   'Eu2 In6 Pt2 Au4'
_cell_volume   324.26497218
_cell_formula_units_Z   2
loop_
 _symmetry_equiv_pos_site_id
 _symmetry_equiv_pos_as_xyz
  1  'x, y, z'
loop_
 _atom_site_type_symbol
 _atom_site_label
 _atom_site_symmetry_multiplicity
 _atom_site_fract_x
 _atom_site_fract_y
 _atom_site_fract_z
 _atom_site_occupancy
  Eu  Eu0  1  0.000000  0.500000  0.264569  1
  Eu  Eu1  1  0.500000  0.000000  0.735917  1
  In  In2  1  0.500000  0.500000  0.646085  1
  In  In3  1  0.000000  0.300465  0.889137  1
  In  In4  1  0.000000  0.699535  0.889137  1
  In  In5  1  0.500000  0.800425  0.110635  1
  In  In6  1  0.000000  0.000000  0.353952  1
  In  In7  1  0.500000  0.199575  0.110635  1
  Pt  Pt8  1  0.500000  0.500000  0.949638  1
  Pt  Pt9  1  0.000000  0.000000  0.050345  1
  Au  Au10  1  0.000000  0.737903  0.590876  1
  Au  Au11  1  0.000000  0.262097  0.590876  1
  Au  Au12  1  0.500000  0.762219  0.409099  1
  Au  Au13  1  0.500000  0.237781  0.409099  1
