# generated using pymatgen
data_Pr3Mg3Ag2Ir
_symmetry_space_group_name_H-M   'P 1'
_cell_length_a   7.98920500
_cell_length_b   7.98920483
_cell_length_c   4.04804100
_cell_angle_alpha   90.00000000
_cell_angle_beta   90.00000000
_cell_angle_gamma   120.00000485
_symmetry_Int_Tables_number   1
_chemical_formula_structural   Pr3Mg3Ag2Ir
_chemical_formula_sum   'Pr3 Mg3 Ag2 Ir1'
_cell_volume   223.76009307
_cell_formula_units_Z   1
loop_
 _symmetry_equiv_pos_site_id
 _symmetry_equiv_pos_as_xyz
  1  'x, y, z'
loop_
 _atom_site_type_symbol
 _atom_site_label
 _atom_site_symmetry_multiplicity
 _atom_site_fract_x
 _atom_site_fract_y
 _atom_site_fract_z
 _atom_site_occupancy
  Pr  Pr0  1  0.430868  0.404274  0.500000  1
  Pr  Pr1  1  0.595726  0.026594  0.500000  1
  Pr  Pr2  1  0.973406  0.569132  0.500000  1
  Mg  Mg3  1  0.754601  0.749968  0.000000  1
  Mg  Mg4  1  0.250032  0.004633  0.000000  1
  Mg  Mg5  1  0.995367  0.245399  0.000000  1
  Ag  Ag6  1  0.333333  0.666667  0.000000  1
  Ag  Ag7  1  0.000000  0.000000  0.500000  1
  Ir  Ir8  1  0.666667  0.333333  0.000000  1
