# generated using pymatgen
data_V9Si(TcGe)3
_symmetry_space_group_name_H-M   'P 1'
_cell_length_a   4.76265902
_cell_length_b   4.77827381
_cell_length_c   9.46999800
_cell_angle_alpha   90.00000000
_cell_angle_beta   90.00000000
_cell_angle_gamma   90.06723768
_symmetry_Int_Tables_number   1
_chemical_formula_structural   V9Si(TcGe)3
_chemical_formula_sum   'V9 Si1 Tc3 Ge3'
_cell_volume   215.51133151
_cell_formula_units_Z   1
loop_
 _symmetry_equiv_pos_site_id
 _symmetry_equiv_pos_as_xyz
  1  'x, y, z'
loop_
 _atom_site_type_symbol
 _atom_site_label
 _atom_site_symmetry_multiplicity
 _atom_site_fract_x
 _atom_site_fract_y
 _atom_site_fract_z
 _atom_site_occupancy
  V  V0  1  0.998350  0.498942  0.122295  1
  V  V1  1  0.001745  0.498684  0.626265  1
  V  V2  1  0.752664  0.002834  0.500000  1
  V  V3  1  0.998350  0.498942  0.877705  1
  V  V4  1  0.001745  0.498684  0.373735  1
  V  V5  1  0.499927  0.749548  0.752975  1
  V  V6  1  0.499927  0.749548  0.247025  1
  V  V7  1  0.249504  0.998071  0.000000  1
  V  V8  1  0.250040  0.002675  0.500000  1
  Si  Si9  1  0.493329  0.503543  0.000000  1
  Tc  Tc10  1  0.500547  0.252695  0.751779  1
  Tc  Tc11  1  0.500547  0.252695  0.248221  1
  Tc  Tc12  1  0.746682  0.998797  0.000000  1
  Ge  Ge13  1  0.500935  0.509743  0.500000  1
  Ge  Ge14  1  0.002854  0.992301  0.747107  1
  Ge  Ge15  1  0.002854  0.992301  0.252893  1
