# generated using pymatgen
data_Zr3Zn(Co3Ir)2
_symmetry_space_group_name_H-M   'P 1'
_cell_length_a   4.86945700
_cell_length_b   4.86945598
_cell_length_c   8.26727800
_cell_angle_alpha   90.00000000
_cell_angle_beta   90.00000000
_cell_angle_gamma   120.00001371
_symmetry_Int_Tables_number   1
_chemical_formula_structural   Zr3Zn(Co3Ir)2
_chemical_formula_sum   'Zr3 Zn1 Co6 Ir2'
_cell_volume   169.76732000
_cell_formula_units_Z   1
loop_
 _symmetry_equiv_pos_site_id
 _symmetry_equiv_pos_as_xyz
  1  'x, y, z'
loop_
 _atom_site_type_symbol
 _atom_site_label
 _atom_site_symmetry_multiplicity
 _atom_site_fract_x
 _atom_site_fract_y
 _atom_site_fract_z
 _atom_site_occupancy
  Zr  Zr0  1  0.666667  0.333333  0.549213  1
  Zr  Zr1  1  0.666667  0.333333  0.924244  1
  Zr  Zr2  1  0.333333  0.666667  0.095764  1
  Zn  Zn3  1  0.333333  0.666667  0.444234  1
  Co  Co4  1  0.830565  0.169435  0.250198  1
  Co  Co5  1  0.830565  0.661128  0.250198  1
  Co  Co6  1  0.338872  0.169435  0.250198  1
  Co  Co7  1  0.171848  0.828152  0.747502  1
  Co  Co8  1  0.171848  0.343697  0.747502  1
  Co  Co9  1  0.656303  0.828152  0.747502  1
  Ir  Ir10  1  0.000000  0.000000  0.497105  1
  Ir  Ir11  1  0.000000  0.000000  0.996339  1
