# generated using pymatgen
data_Tb4Dy2Al24GaOs7
_symmetry_space_group_name_H-M   'P 1'
_cell_length_a   8.87943218
_cell_length_b   8.87943246
_cell_length_c   9.56887939
_cell_angle_alpha   90.16666820
_cell_angle_beta   89.83333435
_cell_angle_gamma   119.87835518
_symmetry_Int_Tables_number   1
_chemical_formula_structural   Tb4Dy2Al24GaOs7
_chemical_formula_sum   'Tb4 Dy2 Al24 Ga1 Os7'
_cell_volume   654.17012220
_cell_formula_units_Z   1
loop_
 _symmetry_equiv_pos_site_id
 _symmetry_equiv_pos_as_xyz
  1  'x, y, z'
loop_
 _atom_site_type_symbol
 _atom_site_label
 _atom_site_symmetry_multiplicity
 _atom_site_fract_x
 _atom_site_fract_y
 _atom_site_fract_z
 _atom_site_occupancy
  Tb  Tb0  1  0.191860  0.384482  0.245262  1
  Tb  Tb1  1  0.808140  0.615518  0.754738  1
  Tb  Tb2  1  0.615518  0.808140  0.245262  1
  Tb  Tb3  1  0.384482  0.191860  0.754738  1
  Dy  Dy4  1  0.194248  0.805752  0.256042  1
  Dy  Dy5  1  0.805752  0.194248  0.743958  1
  Al  Al6  1  0.327054  0.672946  0.021895  1
  Al  Al7  1  0.672946  0.327054  0.978105  1
  Al  Al8  1  0.665975  0.334025  0.518428  1
  Al  Al9  1  0.334025  0.665975  0.481572  1
  Al  Al10  1  0.162498  0.325742  0.571522  1
  Al  Al11  1  0.837502  0.674258  0.428478  1
  Al  Al12  1  0.674258  0.837502  0.571522  1
  Al  Al13  1  0.852879  0.678749  0.082026  1
  Al  Al14  1  0.325742  0.162498  0.428478  1
  Al  Al15  1  0.147121  0.321251  0.917974  1
  Al  Al16  1  0.162914  0.837086  0.576306  1
  Al  Al17  1  0.321251  0.147121  0.082026  1
  Al  Al18  1  0.837086  0.162914  0.423694  1
  Al  Al19  1  0.678749  0.852879  0.917974  1
  Al  Al20  1  0.836802  0.163198  0.076567  1
  Al  Al21  1  0.163198  0.836802  0.923433  1
  Al  Al22  1  0.561907  0.121060  0.249468  1
  Al  Al23  1  0.438093  0.878940  0.750532  1
  Al  Al24  1  0.878940  0.438093  0.249468  1
  Al  Al25  1  0.121060  0.561907  0.750532  1
  Al  Al26  1  0.565916  0.434084  0.258229  1
  Al  Al27  1  0.434084  0.565916  0.741771  1
  Al  Al28  1  0.999000  0.001000  0.250744  1
  Al  Al29  1  0.001000  0.999000  0.749256  1
  Ga  Ga30  1  0.500000  0.500000  0.000000  1
  Os  Os31  1  0.500000  0.000000  0.000000  1
  Os  Os32  1  0.000000  0.500000  0.000000  1
  Os  Os33  1  0.500000  0.000000  0.500000  1
  Os  Os34  1  0.000000  0.500000  0.500000  1
  Os  Os35  1  0.500000  0.500000  0.500000  1
  Os  Os36  1  0.000000  0.000000  0.000000  1
  Os  Os37  1  0.000000  0.000000  0.500000  1
