# generated using pymatgen
data_DyHoNi7B2Pt
_symmetry_space_group_name_H-M   'P 1'
_cell_length_a   5.00807782
_cell_length_b   4.99999198
_cell_length_c   7.09101200
_cell_angle_alpha   90.00000000
_cell_angle_beta   90.00000000
_cell_angle_gamma   120.17380970
_symmetry_Int_Tables_number   1
_chemical_formula_structural   DyHoNi7B2Pt
_chemical_formula_sum   'Dy1 Ho1 Ni7 B2 Pt1'
_cell_volume   153.50266804
_cell_formula_units_Z   1
loop_
 _symmetry_equiv_pos_site_id
 _symmetry_equiv_pos_as_xyz
  1  'x, y, z'
loop_
 _atom_site_type_symbol
 _atom_site_label
 _atom_site_symmetry_multiplicity
 _atom_site_fract_x
 _atom_site_fract_y
 _atom_site_fract_z
 _atom_site_occupancy
  Dy  Dy0  1  0.499997  0.999860  0.000000  1
  Ho  Ho1  1  0.499975  0.000005  0.500000  1
  Ni  Ni2  1  0.167140  0.333382  0.000000  1
  Ni  Ni3  1  0.000784  0.002152  0.700079  1
  Ni  Ni4  1  0.497724  0.499114  0.700493  1
  Ni  Ni5  1  0.001242  0.498788  0.700345  1
  Ni  Ni6  1  0.000784  0.002152  0.299921  1
  Ni  Ni7  1  0.497724  0.499114  0.299507  1
  Ni  Ni8  1  0.001242  0.498788  0.299655  1
  B  B9  1  0.833241  0.666465  0.500000  1
  B  B10  1  0.166742  0.333459  0.500000  1
  Pt  Pt11  1  0.833402  0.666723  0.000000  1
