# generated using pymatgen
data_LaTbSi7Pd12
_symmetry_space_group_name_H-M   'P 1'
_cell_length_a   10.01214600
_cell_length_b   10.01214532
_cell_length_c   3.92577300
_cell_angle_alpha   90.00000000
_cell_angle_beta   90.00000000
_cell_angle_gamma   120.00000224
_symmetry_Int_Tables_number   1
_chemical_formula_structural   LaTbSi7Pd12
_chemical_formula_sum   'La1 Tb1 Si7 Pd12'
_cell_volume   340.80826962
_cell_formula_units_Z   1
loop_
 _symmetry_equiv_pos_site_id
 _symmetry_equiv_pos_as_xyz
  1  'x, y, z'
loop_
 _atom_site_type_symbol
 _atom_site_label
 _atom_site_symmetry_multiplicity
 _atom_site_fract_x
 _atom_site_fract_y
 _atom_site_fract_z
 _atom_site_occupancy
  La  La0  1  0.000000  0.000000  0.750082  1
  Tb  Tb1  1  0.666667  0.333333  0.247134  1
  Si  Si2  1  0.333333  0.666667  0.465238  1
  Si  Si3  1  0.735408  0.780618  0.249740  1
  Si  Si4  1  0.045210  0.264592  0.249740  1
  Si  Si5  1  0.219382  0.954790  0.249740  1
  Si  Si6  1  0.925631  0.549664  0.748710  1
  Si  Si7  1  0.624032  0.074369  0.748710  1
  Si  Si8  1  0.450336  0.375968  0.748710  1
  Pd  Pd9  1  0.772212  0.048013  0.248391  1
  Pd  Pd10  1  0.275800  0.227788  0.248391  1
  Pd  Pd11  1  0.951987  0.724200  0.248391  1
  Pd  Pd12  1  0.891572  0.287433  0.750278  1
  Pd  Pd13  1  0.395859  0.108428  0.750278  1
  Pd  Pd14  1  0.712567  0.604141  0.750278  1
  Pd  Pd15  1  0.480185  0.553536  0.248961  1
  Pd  Pd16  1  0.073351  0.519815  0.248961  1
  Pd  Pd17  1  0.446464  0.926649  0.248961  1
  Pd  Pd18  1  0.189017  0.774946  0.750273  1
  Pd  Pd19  1  0.585929  0.810983  0.750273  1
  Pd  Pd20  1  0.225054  0.414071  0.750273  1
