# generated using pymatgen
data_Pr2Th2Mg2Si3Ge
_symmetry_space_group_name_H-M   'P 1'
_cell_length_a   7.40939890
_cell_length_b   7.40939993
_cell_length_c   4.38703700
_cell_angle_alpha   90.00000000
_cell_angle_beta   90.00000000
_cell_angle_gamma   90.35537663
_symmetry_Int_Tables_number   1
_chemical_formula_structural   Pr2Th2Mg2Si3Ge
_chemical_formula_sum   'Pr2 Th2 Mg2 Si3 Ge1'
_cell_volume   240.84018753
_cell_formula_units_Z   1
loop_
 _symmetry_equiv_pos_site_id
 _symmetry_equiv_pos_as_xyz
  1  'x, y, z'
loop_
 _atom_site_type_symbol
 _atom_site_label
 _atom_site_symmetry_multiplicity
 _atom_site_fract_x
 _atom_site_fract_y
 _atom_site_fract_z
 _atom_site_occupancy
  Pr  Pr0  1  0.178574  0.319648  0.500000  1
  Pr  Pr1  1  0.819648  0.678574  0.500000  1
  Th  Th2  1  0.678149  0.178149  0.500000  1
  Th  Th3  1  0.323752  0.823752  0.500000  1
  Mg  Mg4  1  0.999512  0.001430  0.000000  1
  Mg  Mg5  1  0.501430  0.499512  0.000000  1
  Si  Si6  1  0.880087  0.380087  0.000000  1
  Si  Si7  1  0.614818  0.884946  0.000000  1
  Si  Si8  1  0.384946  0.114818  0.000000  1
  Ge  Ge9  1  0.119086  0.619086  0.000000  1
