# generated using pymatgen
data_Dy14Er6Co3Bi8Ru
_symmetry_space_group_name_H-M   'P 1'
_cell_length_a   7.98763109
_cell_length_b   8.91996466
_cell_length_c   12.43439187
_cell_angle_alpha   89.96868398
_cell_angle_beta   90.21688786
_cell_angle_gamma   90.03126703
_symmetry_Int_Tables_number   1
_chemical_formula_structural   Dy14Er6Co3Bi8Ru
_chemical_formula_sum   'Dy14 Er6 Co3 Bi8 Ru1'
_cell_volume   885.93618765
_cell_formula_units_Z   1
loop_
 _symmetry_equiv_pos_site_id
 _symmetry_equiv_pos_as_xyz
  1  'x, y, z'
loop_
 _atom_site_type_symbol
 _atom_site_label
 _atom_site_symmetry_multiplicity
 _atom_site_fract_x
 _atom_site_fract_y
 _atom_site_fract_z
 _atom_site_occupancy
  Dy  Dy0  1  0.847022  0.750220  0.800219  1
  Dy  Dy1  1  0.152178  0.249743  0.198600  1
  Dy  Dy2  1  0.348050  0.249927  0.698869  1
  Dy  Dy3  1  0.653444  0.750064  0.296322  1
  Dy  Dy4  1  0.379187  0.750009  0.692319  1
  Dy  Dy5  1  0.617943  0.250025  0.311253  1
  Dy  Dy6  1  0.881286  0.249506  0.811311  1
  Dy  Dy7  1  0.117837  0.750484  0.186941  1
  Dy  Dy8  1  0.949002  0.750041  0.503823  1
  Dy  Dy9  1  0.051020  0.249950  0.496792  1
  Dy  Dy10  1  0.450527  0.249628  0.997291  1
  Dy  Dy11  1  0.549725  0.750386  0.002459  1
  Dy  Dy12  1  0.823467  0.463507  0.063172  1
  Dy  Dy13  1  0.175529  0.534772  0.936867  1
  Er  Er14  1  0.675638  0.042387  0.564428  1
  Er  Er15  1  0.325260  0.965645  0.436487  1
  Er  Er16  1  0.173984  0.965072  0.937040  1
  Er  Er17  1  0.325186  0.534336  0.436544  1
  Er  Er18  1  0.825009  0.036623  0.062960  1
  Er  Er19  1  0.675649  0.457629  0.564391  1
  Co  Co20  1  0.434418  0.249989  0.491211  1
  Co  Co21  1  0.061149  0.249258  0.992146  1
  Co  Co22  1  0.937052  0.750784  0.007200  1
  Bi  Bi23  1  0.571144  0.491743  0.826790  1
  Bi  Bi24  1  0.428201  0.507962  0.173436  1
  Bi  Bi25  1  0.070589  0.507622  0.674087  1
  Bi  Bi26  1  0.429027  0.992152  0.173308  1
  Bi  Bi27  1  0.930999  0.492404  0.326269  1
  Bi  Bi28  1  0.570334  0.008177  0.826949  1
  Bi  Bi29  1  0.930849  0.007650  0.326117  1
  Bi  Bi30  1  0.070750  0.992295  0.674269  1
  Ru  Ru31  1  0.568544  0.750010  0.510130  1
