# generated using pymatgen
data_Er2Lu6In3Rh
_symmetry_space_group_name_H-M   'P 1'
_cell_length_a   10.23925200
_cell_length_b   10.24392427
_cell_length_c   6.93324106
_cell_angle_alpha   89.99128328
_cell_angle_beta   90.00000000
_cell_angle_gamma   119.98491343
_symmetry_Int_Tables_number   1
_chemical_formula_structural   Er2Lu6In3Rh
_chemical_formula_sum   'Er4 Lu12 In6 Rh2'
_cell_volume   629.89406781
_cell_formula_units_Z   2
loop_
 _symmetry_equiv_pos_site_id
 _symmetry_equiv_pos_as_xyz
  1  'x, y, z'
loop_
 _atom_site_type_symbol
 _atom_site_label
 _atom_site_symmetry_multiplicity
 _atom_site_fract_x
 _atom_site_fract_y
 _atom_site_fract_z
 _atom_site_occupancy
  Er  Er0  1  0.531887  0.063773  0.523810  1
  Er  Er1  1  0.936595  0.468292  0.524073  1
  Er  Er2  1  0.531697  0.468292  0.524073  1
  Er  Er3  1  0.467837  0.935674  0.024042  1
  Lu  Lu4  1  0.065348  0.532664  0.024283  1
  Lu  Lu5  1  0.467315  0.532664  0.024283  1
  Lu  Lu6  1  0.176746  0.353492  0.729692  1
  Lu  Lu7  1  0.646484  0.822872  0.728848  1
  Lu  Lu8  1  0.176387  0.822872  0.728848  1
  Lu  Lu9  1  0.823085  0.646170  0.226982  1
  Lu  Lu10  1  0.353348  0.177210  0.227474  1
  Lu  Lu11  1  0.823862  0.177210  0.227474  1
  Lu  Lu12  1  0.666957  0.333911  0.905296  1
  Lu  Lu13  1  0.333003  0.666007  0.404884  1
  Lu  Lu14  1  0.999998  0.999996  0.507973  1
  Lu  Lu15  1  0.999976  0.999951  0.008319  1
  In  In16  1  0.837482  0.674964  0.770828  1
  In  In17  1  0.325253  0.162513  0.770337  1
  In  In18  1  0.837260  0.162513  0.770337  1
  In  In19  1  0.162975  0.325951  0.270321  1
  In  In20  1  0.674618  0.837075  0.270565  1
  In  In21  1  0.162456  0.837075  0.270565  1
  Rh  Rh22  1  0.666626  0.333251  0.295749  1
  Rh  Rh23  1  0.332804  0.665610  0.796623  1
