# generated using pymatgen
data_Pm2AlGa5
_symmetry_space_group_name_H-M   'P 1'
_cell_length_a   6.43122500
_cell_length_b   6.42031536
_cell_length_c   4.60920000
_cell_angle_alpha   90.00000000
_cell_angle_beta   90.00000000
_cell_angle_gamma   120.05623142
_symmetry_Int_Tables_number   1
_chemical_formula_structural   Pm2AlGa5
_chemical_formula_sum   'Pm2 Al1 Ga5'
_cell_volume   164.72514114
_cell_formula_units_Z   1
loop_
 _symmetry_equiv_pos_site_id
 _symmetry_equiv_pos_as_xyz
  1  'x, y, z'
loop_
 _atom_site_type_symbol
 _atom_site_label
 _atom_site_symmetry_multiplicity
 _atom_site_fract_x
 _atom_site_fract_y
 _atom_site_fract_z
 _atom_site_occupancy
  Pm  Pm0  1  0.334258  0.668518  0.750000  1
  Pm  Pm1  1  0.666675  0.333349  0.250000  1
  Al  Al2  1  0.140863  0.281725  0.250000  1
  Ga  Ga3  1  0.709412  0.854269  0.250000  1
  Ga  Ga4  1  0.144857  0.854269  0.250000  1
  Ga  Ga5  1  0.855507  0.711015  0.750000  1
  Ga  Ga6  1  0.290217  0.148428  0.750000  1
  Ga  Ga7  1  0.858211  0.148428  0.750000  1
