# generated using pymatgen
data_Ho3Tm5Sc12(SiGe)8
_symmetry_space_group_name_H-M   'P 1'
_cell_length_a   7.14365633
_cell_length_b   7.38147218
_cell_length_c   13.99932471
_cell_angle_alpha   90.01405028
_cell_angle_beta   90.14020992
_cell_angle_gamma   89.91313276
_symmetry_Int_Tables_number   1
_chemical_formula_structural   Ho3Tm5Sc12(SiGe)8
_chemical_formula_sum   'Ho3 Tm5 Sc12 Si8 Ge8'
_cell_volume   738.19111777
_cell_formula_units_Z   1
loop_
 _symmetry_equiv_pos_site_id
 _symmetry_equiv_pos_as_xyz
  1  'x, y, z'
loop_
 _atom_site_type_symbol
 _atom_site_label
 _atom_site_symmetry_multiplicity
 _atom_site_fract_x
 _atom_site_fract_y
 _atom_site_fract_z
 _atom_site_occupancy
  Ho  Ho0  1  0.002952  0.176860  0.401517  1
  Ho  Ho1  1  0.503403  0.322627  0.401485  1
  Ho  Ho2  1  0.496911  0.677605  0.598787  1
  Tm  Tm3  1  0.001885  0.177946  0.098149  1
  Tm  Tm4  1  0.998179  0.822169  0.901829  1
  Tm  Tm5  1  0.498365  0.678136  0.901351  1
  Tm  Tm6  1  0.997074  0.822730  0.599280  1
  Tm  Tm7  1  0.501749  0.321961  0.098169  1
  Sc  Sc8  1  0.173159  0.501145  0.750993  1
  Sc  Sc9  1  0.826675  0.499138  0.249013  1
  Sc  Sc10  1  0.326545  0.000830  0.249047  1
  Sc  Sc11  1  0.673463  0.998753  0.750847  1
  Sc  Sc12  1  0.341463  0.172322  0.626491  1
  Sc  Sc13  1  0.658350  0.827455  0.373632  1
  Sc  Sc14  1  0.157885  0.672878  0.373439  1
  Sc  Sc15  1  0.656452  0.828069  0.125399  1
  Sc  Sc16  1  0.842037  0.327195  0.626948  1
  Sc  Sc17  1  0.343421  0.171918  0.874213  1
  Sc  Sc18  1  0.843704  0.328134  0.874016  1
  Sc  Sc19  1  0.156528  0.671789  0.125533  1
  Si  Si20  1  0.044536  0.115692  0.750303  1
  Si  Si21  1  0.955017  0.884081  0.249546  1
  Si  Si22  1  0.455310  0.616013  0.249685  1
  Si  Si23  1  0.544250  0.383533  0.750227  1
  Si  Si24  1  0.295507  0.870409  0.750486  1
  Si  Si25  1  0.704248  0.129361  0.249189  1
  Si  Si26  1  0.204461  0.370508  0.249256  1
  Si  Si27  1  0.796438  0.630027  0.750488  1
  Ge  Ge28  1  0.174181  0.461533  0.540980  1
  Ge  Ge29  1  0.825324  0.540056  0.460030  1
  Ge  Ge30  1  0.323941  0.959882  0.459883  1
  Ge  Ge31  1  0.820350  0.539187  0.040314  1
  Ge  Ge32  1  0.676731  0.039096  0.540864  1
  Ge  Ge33  1  0.179582  0.460887  0.959125  1
  Ge  Ge34  1  0.679666  0.039497  0.959158  1
  Ge  Ge35  1  0.320258  0.960575  0.040327  1
