# generated using pymatgen
data_HoEr2CrB7
_symmetry_space_group_name_H-M   'P 1'
_cell_length_a   8.02641366
_cell_length_b   8.02641417
_cell_length_c   9.31095600
_cell_angle_alpha   90.00000000
_cell_angle_beta   90.00000000
_cell_angle_gamma   155.41013999
_symmetry_Int_Tables_number   1
_chemical_formula_structural   HoEr2CrB7
_chemical_formula_sum   'Ho2 Er4 Cr2 B14'
_cell_volume   249.60646815
_cell_formula_units_Z   2
loop_
 _symmetry_equiv_pos_site_id
 _symmetry_equiv_pos_as_xyz
  1  'x, y, z'
loop_
 _atom_site_type_symbol
 _atom_site_label
 _atom_site_symmetry_multiplicity
 _atom_site_fract_x
 _atom_site_fract_y
 _atom_site_fract_z
 _atom_site_occupancy
  Ho  Ho0  1  0.758230  0.241770  0.250000  1
  Ho  Ho1  1  0.241770  0.758230  0.750000  1
  Er  Er2  1  0.104686  0.895314  0.059231  1
  Er  Er3  1  0.895314  0.104686  0.940769  1
  Er  Er4  1  0.104686  0.895314  0.440769  1
  Er  Er5  1  0.895314  0.104686  0.559231  1
  Cr  Cr6  1  0.052699  0.947301  0.750000  1
  Cr  Cr7  1  0.947301  0.052699  0.250000  1
  B  B8  1  0.727182  0.272818  0.531534  1
  B  B9  1  0.272818  0.727182  0.468466  1
  B  B10  1  0.272818  0.727182  0.031534  1
  B  B11  1  0.727182  0.272818  0.968466  1
  B  B12  1  0.520927  0.479073  0.903841  1
  B  B13  1  0.479073  0.520927  0.096159  1
  B  B14  1  0.479073  0.520927  0.403841  1
  B  B15  1  0.520927  0.479073  0.596159  1
  B  B16  1  0.457880  0.542120  0.750000  1
  B  B17  1  0.542120  0.457880  0.250000  1
  B  B18  1  0.631044  0.368956  0.651290  1
  B  B19  1  0.368956  0.631044  0.348710  1
  B  B20  1  0.368956  0.631044  0.151290  1
  B  B21  1  0.631044  0.368956  0.848710  1
