# generated using pymatgen
data_La3Pr3Pu2O14
_symmetry_space_group_name_H-M   'P 1'
_cell_length_a   6.81675627
_cell_length_b   6.85429112
_cell_length_c   8.04263200
_cell_angle_alpha   106.90554364
_cell_angle_beta   89.89128788
_cell_angle_gamma   98.29078083
_symmetry_Int_Tables_number   1
_chemical_formula_structural   La3Pr3Pu2O14
_chemical_formula_sum   'La3 Pr3 Pu2 O14'
_cell_volume   355.46903726
_cell_formula_units_Z   1
loop_
 _symmetry_equiv_pos_site_id
 _symmetry_equiv_pos_as_xyz
  1  'x, y, z'
loop_
 _atom_site_type_symbol
 _atom_site_label
 _atom_site_symmetry_multiplicity
 _atom_site_fract_x
 _atom_site_fract_y
 _atom_site_fract_z
 _atom_site_occupancy
  La  La0  1  0.729916  0.467001  0.120923  1
  La  La1  1  0.743964  0.483473  0.613366  1
  La  La2  1  0.255366  0.516820  0.388087  1
  Pr  Pr3  1  0.458019  0.003130  0.253133  1
  Pr  Pr4  1  0.542085  0.997160  0.747227  1
  Pr  Pr5  1  0.269231  0.536661  0.879498  1
  Pu  Pu6  1  0.000324  0.000819  0.500479  1
  Pu  Pu7  1  0.000857  0.999458  0.999216  1
  O  O8  1  0.437414  0.642283  0.166312  1
  O  O9  1  0.558490  0.357810  0.834543  1
  O  O10  1  0.293016  0.923449  0.952663  1
  O  O11  1  0.708880  0.072875  0.047246  1
  O  O12  1  0.287947  0.929748  0.514417  1
  O  O13  1  0.712262  0.071123  0.486148  1
  O  O14  1  0.547665  0.363429  0.345361  1
  O  O15  1  0.451813  0.637068  0.654976  1
  O  O16  1  0.929426  0.688021  0.962055  1
  O  O17  1  0.073601  0.308746  0.032831  1
  O  O18  1  0.066629  0.345051  0.616682  1
  O  O19  1  0.933146  0.655553  0.385054  1
  O  O20  1  0.884507  0.918058  0.725513  1
  O  O21  1  0.115443  0.082264  0.274269  1
