# generated using pymatgen
data_Er6Al24ZnRu7
_symmetry_space_group_name_H-M   'P 1'
_cell_length_a   8.80725385
_cell_length_b   8.80725327
_cell_length_c   9.50272362
_cell_angle_alpha   89.96428502
_cell_angle_beta   90.03571357
_cell_angle_gamma   119.93481094
_symmetry_Int_Tables_number   1
_chemical_formula_structural   Er6Al24ZnRu7
_chemical_formula_sum   'Er6 Al24 Zn1 Ru7'
_cell_volume   638.77002091
_cell_formula_units_Z   1
loop_
 _symmetry_equiv_pos_site_id
 _symmetry_equiv_pos_as_xyz
  1  'x, y, z'
loop_
 _atom_site_type_symbol
 _atom_site_label
 _atom_site_symmetry_multiplicity
 _atom_site_fract_x
 _atom_site_fract_y
 _atom_site_fract_z
 _atom_site_occupancy
  Er  Er0  1  0.192603  0.387152  0.247964  1
  Er  Er1  1  0.807397  0.612848  0.752036  1
  Er  Er2  1  0.612848  0.807397  0.247964  1
  Er  Er3  1  0.387152  0.192603  0.752036  1
  Er  Er4  1  0.194709  0.805291  0.252102  1
  Er  Er5  1  0.805291  0.194709  0.747898  1
  Al  Al6  1  0.329420  0.670580  0.021179  1
  Al  Al7  1  0.670580  0.329420  0.978821  1
  Al  Al8  1  0.666491  0.333509  0.516661  1
  Al  Al9  1  0.333509  0.666491  0.483339  1
  Al  Al10  1  0.162039  0.324015  0.577161  1
  Al  Al11  1  0.837961  0.675985  0.422839  1
  Al  Al12  1  0.675985  0.837961  0.577161  1
  Al  Al13  1  0.848849  0.678034  0.081749  1
  Al  Al14  1  0.324015  0.162039  0.422839  1
  Al  Al15  1  0.151151  0.321966  0.918251  1
  Al  Al16  1  0.162456  0.837544  0.578107  1
  Al  Al17  1  0.321966  0.151151  0.081749  1
  Al  Al18  1  0.837544  0.162456  0.421893  1
  Al  Al19  1  0.678034  0.848849  0.918251  1
  Al  Al20  1  0.837414  0.162586  0.078900  1
  Al  Al21  1  0.162586  0.837414  0.921100  1
  Al  Al22  1  0.560871  0.121037  0.248622  1
  Al  Al23  1  0.439129  0.878963  0.751378  1
  Al  Al24  1  0.878963  0.439129  0.248622  1
  Al  Al25  1  0.121037  0.560871  0.751378  1
  Al  Al26  1  0.563045  0.436955  0.254338  1
  Al  Al27  1  0.436955  0.563045  0.745662  1
  Al  Al28  1  0.999116  0.000884  0.250384  1
  Al  Al29  1  0.000884  0.999116  0.749616  1
  Zn  Zn30  1  0.500000  0.500000  0.000000  1
  Ru  Ru31  1  0.500000  0.000000  0.000000  1
  Ru  Ru32  1  0.000000  0.500000  0.000000  1
  Ru  Ru33  1  0.500000  0.000000  0.500000  1
  Ru  Ru34  1  0.000000  0.500000  0.500000  1
  Ru  Ru35  1  0.500000  0.500000  0.500000  1
  Ru  Ru36  1  0.000000  0.000000  0.000000  1
  Ru  Ru37  1  0.000000  0.000000  0.500000  1
