# generated using pymatgen
data_Er10Ga3TcBi2
_symmetry_space_group_name_H-M   'P 1'
_cell_length_a   8.66546037
_cell_length_b   8.77767135
_cell_length_c   7.93991066
_cell_angle_alpha   62.20423767
_cell_angle_beta   63.64628543
_cell_angle_gamma   54.14946337
_symmetry_Int_Tables_number   1
_chemical_formula_structural   Er10Ga3TcBi2
_chemical_formula_sum   'Er10 Ga3 Tc1 Bi2'
_cell_volume   420.56655251
_cell_formula_units_Z   1
loop_
 _symmetry_equiv_pos_site_id
 _symmetry_equiv_pos_as_xyz
  1  'x, y, z'
loop_
 _atom_site_type_symbol
 _atom_site_label
 _atom_site_symmetry_multiplicity
 _atom_site_fract_x
 _atom_site_fract_y
 _atom_site_fract_z
 _atom_site_occupancy
  Er  Er0  1  0.795705  0.482513  0.517487  1
  Er  Er1  1  0.458705  0.807154  0.192846  1
  Er  Er2  1  0.298563  0.982646  0.716400  1
  Er  Er3  1  0.997610  0.283600  0.017354  1
  Er  Er4  1  0.192846  0.541295  0.458705  1
  Er  Er5  1  0.517487  0.204295  0.795705  1
  Er  Er6  1  0.716400  0.002390  0.298563  1
  Er  Er7  1  0.017354  0.701437  0.997610  1
  Er  Er8  1  0.494381  0.505619  0.002490  1
  Er  Er9  1  0.002490  0.997510  0.494381  1
  Ga  Ga10  1  0.866086  0.133914  0.866086  1
  Ga  Ga11  1  0.642702  0.357298  0.361834  1
  Ga  Ga12  1  0.361834  0.638166  0.642702  1
  Tc  Tc13  1  0.124657  0.875343  0.124657  1
  Bi  Bi14  1  0.756589  0.743411  0.756589  1
  Bi  Bi15  1  0.256589  0.243411  0.256589  1
