# generated using pymatgen
data_Tb2Be2GaRh5
_symmetry_space_group_name_H-M   'P 1'
_cell_length_a   9.63666400
_cell_length_b   9.63666400
_cell_length_c   3.24896000
_cell_angle_alpha   90.00000000
_cell_angle_beta   90.00000000
_cell_angle_gamma   90.00000000
_symmetry_Int_Tables_number   1
_chemical_formula_structural   Tb2Be2GaRh5
_chemical_formula_sum   'Tb4 Be4 Ga2 Rh10'
_cell_volume   301.71562250
_cell_formula_units_Z   2
loop_
 _symmetry_equiv_pos_site_id
 _symmetry_equiv_pos_as_xyz
  1  'x, y, z'
loop_
 _atom_site_type_symbol
 _atom_site_label
 _atom_site_symmetry_multiplicity
 _atom_site_fract_x
 _atom_site_fract_y
 _atom_site_fract_z
 _atom_site_occupancy
  Tb  Tb0  1  0.823435  0.323435  0.000000  1
  Tb  Tb1  1  0.323435  0.176565  0.000000  1
  Tb  Tb2  1  0.676565  0.823435  0.000000  1
  Tb  Tb3  1  0.176565  0.676565  0.000000  1
  Be  Be4  1  0.621923  0.121923  0.000000  1
  Be  Be5  1  0.121923  0.378077  0.000000  1
  Be  Be6  1  0.878077  0.621923  0.000000  1
  Be  Be7  1  0.378077  0.878077  0.000000  1
  Ga  Ga8  1  0.000000  0.000000  0.000000  1
  Ga  Ga9  1  0.500000  0.500000  0.000000  1
  Rh  Rh10  1  0.066776  0.211537  0.500000  1
  Rh  Rh11  1  0.211537  0.933224  0.500000  1
  Rh  Rh12  1  0.788463  0.066776  0.500000  1
  Rh  Rh13  1  0.933224  0.788463  0.500000  1
  Rh  Rh14  1  0.433224  0.711537  0.500000  1
  Rh  Rh15  1  0.566776  0.288463  0.500000  1
  Rh  Rh16  1  0.711537  0.566776  0.500000  1
  Rh  Rh17  1  0.288463  0.433224  0.500000  1
  Rh  Rh18  1  0.500000  0.000000  0.500000  1
  Rh  Rh19  1  0.000000  0.500000  0.500000  1
