# generated using pymatgen
data_Cs4Pm4TeS7
_symmetry_space_group_name_H-M   'P 1'
_cell_length_a   8.50821186
_cell_length_b   8.51680466
_cell_length_c   7.34446200
_cell_angle_alpha   90.05695401
_cell_angle_beta   98.19701871
_cell_angle_gamma   75.50981884
_symmetry_Int_Tables_number   1
_chemical_formula_structural   Cs4Pm4TeS7
_chemical_formula_sum   'Cs4 Pm4 Te1 S7'
_cell_volume   509.67284002
_cell_formula_units_Z   1
loop_
 _symmetry_equiv_pos_site_id
 _symmetry_equiv_pos_as_xyz
  1  'x, y, z'
loop_
 _atom_site_type_symbol
 _atom_site_label
 _atom_site_symmetry_multiplicity
 _atom_site_fract_x
 _atom_site_fract_y
 _atom_site_fract_z
 _atom_site_occupancy
  Cs  Cs0  1  0.989816  0.550376  0.010042  1
  Cs  Cs1  1  0.994653  0.281473  0.471085  1
  Cs  Cs2  1  0.009940  0.779012  0.506066  1
  Cs  Cs3  1  0.988294  0.019171  0.010448  1
  Pm  Pm4  1  0.499495  0.655989  0.245965  1
  Pm  Pm5  1  0.506441  0.154551  0.265919  1
  Pm  Pm6  1  0.508369  0.894980  0.745950  1
  Pm  Pm7  1  0.511149  0.412522  0.745856  1
  Te  Te8  1  0.283297  0.210924  0.880880  1
  S  S9  1  0.681790  0.359398  0.111244  1
  S  S10  1  0.321090  0.947651  0.388561  1
  S  S11  1  0.689942  0.107796  0.621105  1
  S  S12  1  0.321866  0.700445  0.883955  1
  S  S13  1  0.679720  0.862749  0.116417  1
  S  S14  1  0.321296  0.454048  0.388345  1
  S  S15  1  0.692840  0.608911  0.608160  1
