# generated using pymatgen
data_Tm17Lu3(SnPb)8
_symmetry_space_group_name_H-M   'P 1'
_cell_length_a   8.06014300
_cell_length_b   8.12677754
_cell_length_c   15.43274200
_cell_angle_alpha   90.00000000
_cell_angle_beta   90.00000000
_cell_angle_gamma   89.97918767
_symmetry_Int_Tables_number   1
_chemical_formula_structural   Tm17Lu3(SnPb)8
_chemical_formula_sum   'Tm17 Lu3 Sn8 Pb8'
_cell_volume   1010.89066386
_cell_formula_units_Z   1
loop_
 _symmetry_equiv_pos_site_id
 _symmetry_equiv_pos_as_xyz
  1  'x, y, z'
loop_
 _atom_site_type_symbol
 _atom_site_label
 _atom_site_symmetry_multiplicity
 _atom_site_fract_x
 _atom_site_fract_y
 _atom_site_fract_z
 _atom_site_occupancy
  Tm  Tm0  1  0.378515  0.839702  0.876531  1
  Tm  Tm1  1  0.878494  0.660324  0.623392  1
  Tm  Tm2  1  0.621722  0.160470  0.376680  1
  Tm  Tm3  1  0.121326  0.339745  0.123316  1
  Tm  Tm4  1  0.621722  0.160470  0.123320  1
  Tm  Tm5  1  0.121326  0.339745  0.376684  1
  Tm  Tm6  1  0.378515  0.839702  0.623469  1
  Tm  Tm7  1  0.878494  0.660324  0.876608  1
  Tm  Tm8  1  0.535822  0.323766  0.897239  1
  Tm  Tm9  1  0.035855  0.176205  0.602812  1
  Tm  Tm10  1  0.464335  0.676131  0.397307  1
  Tm  Tm11  1  0.964088  0.823652  0.102702  1
  Tm  Tm12  1  0.464335  0.676131  0.102693  1
  Tm  Tm13  1  0.964088  0.823652  0.397298  1
  Tm  Tm14  1  0.535822  0.323766  0.602761  1
  Tm  Tm15  1  0.035855  0.176205  0.897188  1
  Tm  Tm16  1  0.290908  0.004085  0.250000  1
  Lu  Lu17  1  0.209091  0.504158  0.750000  1
  Lu  Lu18  1  0.709195  0.995748  0.750000  1
  Lu  Lu19  1  0.790786  0.495845  0.250000  1
  Sn  Sn20  1  0.573479  0.622956  0.750000  1
  Sn  Sn21  1  0.073417  0.876931  0.750000  1
  Sn  Sn22  1  0.426524  0.377451  0.250000  1
  Sn  Sn23  1  0.925978  0.123106  0.250000  1
  Sn  Sn24  1  0.344875  0.150555  0.750000  1
  Sn  Sn25  1  0.844799  0.349526  0.750000  1
  Sn  Sn26  1  0.655397  0.849520  0.250000  1
  Sn  Sn27  1  0.155078  0.649913  0.250000  1
  Pb  Pb28  1  0.281866  0.033206  0.041395  1
  Pb  Pb29  1  0.781866  0.466789  0.458419  1
  Pb  Pb30  1  0.718127  0.966808  0.541583  1
  Pb  Pb31  1  0.218219  0.533305  0.958402  1
  Pb  Pb32  1  0.718127  0.966808  0.958417  1
  Pb  Pb33  1  0.218219  0.533305  0.541598  1
  Pb  Pb34  1  0.281866  0.033206  0.458605  1
  Pb  Pb35  1  0.781866  0.466789  0.041581  1
