# generated using pymatgen
data_Ho3In3CuHgPd
_symmetry_space_group_name_H-M   'P 1'
_cell_length_a   7.77304900
_cell_length_b   7.77304724
_cell_length_c   3.84668700
_cell_angle_alpha   90.00000000
_cell_angle_beta   90.00000000
_cell_angle_gamma   120.00002026
_symmetry_Int_Tables_number   1
_chemical_formula_structural   Ho3In3CuHgPd
_chemical_formula_sum   'Ho3 In3 Cu1 Hg1 Pd1'
_cell_volume   201.27975971
_cell_formula_units_Z   1
loop_
 _symmetry_equiv_pos_site_id
 _symmetry_equiv_pos_as_xyz
  1  'x, y, z'
loop_
 _atom_site_type_symbol
 _atom_site_label
 _atom_site_symmetry_multiplicity
 _atom_site_fract_x
 _atom_site_fract_y
 _atom_site_fract_z
 _atom_site_occupancy
  Ho  Ho0  1  0.018935  0.606424  0.500000  1
  Ho  Ho1  1  0.393576  0.412512  0.500000  1
  Ho  Ho2  1  0.587488  0.981065  0.500000  1
  In  In3  1  0.748955  0.751921  0.000000  1
  In  In4  1  0.002967  0.251045  0.000000  1
  In  In5  1  0.248079  0.997033  0.000000  1
  Cu  Cu6  1  0.000000  0.000000  0.500000  1
  Hg  Hg7  1  0.666667  0.333333  0.000000  1
  Pd  Pd8  1  0.333333  0.666667  0.000000  1
