# generated using pymatgen
data_Hf9NbRe3B
_symmetry_space_group_name_H-M   'P 1'
_cell_length_a   8.53662900
_cell_length_b   8.53662962
_cell_length_c   8.53122200
_cell_angle_alpha   90.00000000
_cell_angle_beta   90.00000000
_cell_angle_gamma   120.00000149
_symmetry_Int_Tables_number   1
_chemical_formula_structural   Hf9NbRe3B
_chemical_formula_sum   'Hf18 Nb2 Re6 B2'
_cell_volume   538.41198030
_cell_formula_units_Z   2
loop_
 _symmetry_equiv_pos_site_id
 _symmetry_equiv_pos_as_xyz
  1  'x, y, z'
loop_
 _atom_site_type_symbol
 _atom_site_label
 _atom_site_symmetry_multiplicity
 _atom_site_fract_x
 _atom_site_fract_y
 _atom_site_fract_z
 _atom_site_occupancy
  Hf  Hf0  1  0.202859  0.797141  0.444078  1
  Hf  Hf1  1  0.202859  0.405718  0.444078  1
  Hf  Hf2  1  0.594282  0.797141  0.444078  1
  Hf  Hf3  1  0.797141  0.202859  0.555922  1
  Hf  Hf4  1  0.797141  0.594282  0.555922  1
  Hf  Hf5  1  0.405718  0.202859  0.555922  1
  Hf  Hf6  1  0.797141  0.202859  0.944078  1
  Hf  Hf7  1  0.797141  0.594282  0.944078  1
  Hf  Hf8  1  0.405718  0.202859  0.944078  1
  Hf  Hf9  1  0.202859  0.797141  0.055922  1
  Hf  Hf10  1  0.202859  0.405718  0.055922  1
  Hf  Hf11  1  0.594282  0.797141  0.055922  1
  Hf  Hf12  1  0.540110  0.459890  0.250000  1
  Hf  Hf13  1  0.540110  0.080220  0.250000  1
  Hf  Hf14  1  0.919780  0.459890  0.250000  1
  Hf  Hf15  1  0.459890  0.540110  0.750000  1
  Hf  Hf16  1  0.459890  0.919780  0.750000  1
  Hf  Hf17  1  0.080220  0.540110  0.750000  1
  Nb  Nb18  1  0.000000  0.000000  0.500000  1
  Nb  Nb19  1  0.000000  0.000000  0.000000  1
  Re  Re20  1  0.886385  0.113615  0.250000  1
  Re  Re21  1  0.886385  0.772772  0.250000  1
  Re  Re22  1  0.227228  0.113615  0.250000  1
  Re  Re23  1  0.113615  0.886385  0.750000  1
  Re  Re24  1  0.113615  0.227228  0.750000  1
  Re  Re25  1  0.772772  0.886385  0.750000  1
  B  B26  1  0.333333  0.666667  0.250000  1
  B  B27  1  0.666667  0.333333  0.750000  1
