# generated using pymatgen
data_NaLu2Ga9Pd2
_symmetry_space_group_name_H-M   'P 1'
_cell_length_a   8.11907162
_cell_length_b   8.11907156
_cell_length_c   8.11907246
_cell_angle_alpha   149.31201519
_cell_angle_beta   107.45023593
_cell_angle_gamma   80.80259000
_symmetry_Int_Tables_number   1
_chemical_formula_structural   NaLu2Ga9Pd2
_chemical_formula_sum   'Na1 Lu2 Ga9 Pd2'
_cell_volume   255.23882363
_cell_formula_units_Z   1
loop_
 _symmetry_equiv_pos_site_id
 _symmetry_equiv_pos_as_xyz
  1  'x, y, z'
loop_
 _atom_site_type_symbol
 _atom_site_label
 _atom_site_symmetry_multiplicity
 _atom_site_fract_x
 _atom_site_fract_y
 _atom_site_fract_z
 _atom_site_occupancy
  Na  Na0  1  0.500000  0.500000  0.000000  1
  Lu  Lu1  1  0.203751  0.203751  0.000000  1
  Lu  Lu2  1  0.796249  0.796249  0.000000  1
  Ga  Ga3  1  0.642152  0.361578  0.280574  1
  Ga  Ga4  1  0.357848  0.638422  0.719426  1
  Ga  Ga5  1  0.081004  0.361578  0.719426  1
  Ga  Ga6  1  0.918996  0.638422  0.280574  1
  Ga  Ga7  1  0.521593  0.155851  0.365741  1
  Ga  Ga8  1  0.478407  0.844149  0.634259  1
  Ga  Ga9  1  0.790110  0.155851  0.634259  1
  Ga  Ga10  1  0.209890  0.844149  0.365741  1
  Ga  Ga11  1  0.000000  0.500000  0.500000  1
  Pd  Pd12  1  0.173586  0.000000  0.173586  1
  Pd  Pd13  1  0.826414  0.000000  0.826414  1
