# generated using pymatgen
data_YTcN2
_symmetry_space_group_name_H-M   'P 1'
_cell_length_a   3.13113000
_cell_length_b   5.62845900
_cell_length_c   10.71084700
_cell_angle_alpha   90.00000000
_cell_angle_beta   90.00000000
_cell_angle_gamma   90.00000000
_symmetry_Int_Tables_number   1
_chemical_formula_structural   YTcN2
_chemical_formula_sum   'Y4 Tc4 N8'
_cell_volume   188.76193549
_cell_formula_units_Z   4
loop_
 _symmetry_equiv_pos_site_id
 _symmetry_equiv_pos_as_xyz
  1  'x, y, z'
loop_
 _atom_site_type_symbol
 _atom_site_label
 _atom_site_symmetry_multiplicity
 _atom_site_fract_x
 _atom_site_fract_y
 _atom_site_fract_z
 _atom_site_occupancy
  Y  Y0  1  0.250000  0.078366  0.852139  1
  Y  Y1  1  0.250000  0.578366  0.647861  1
  Y  Y2  1  0.750000  0.921634  0.147861  1
  Y  Y3  1  0.750000  0.421634  0.352139  1
  Tc  Tc4  1  0.250000  0.436266  0.097062  1
  Tc  Tc5  1  0.250000  0.936266  0.402938  1
  Tc  Tc6  1  0.750000  0.563734  0.902938  1
  Tc  Tc7  1  0.750000  0.063734  0.597062  1
  N  N8  1  0.250000  0.169018  0.244832  1
  N  N9  1  0.250000  0.669018  0.255168  1
  N  N10  1  0.750000  0.830982  0.755168  1
  N  N11  1  0.750000  0.330982  0.744832  1
  N  N12  1  0.250000  0.749368  0.997112  1
  N  N13  1  0.250000  0.249368  0.502888  1
  N  N14  1  0.750000  0.250632  0.002888  1
  N  N15  1  0.750000  0.750632  0.497112  1
