# generated using pymatgen
data_Th4Ge4Ir3Pt
_symmetry_space_group_name_H-M   'P 1'
_cell_length_a   4.45770600
_cell_length_b   7.28811633
_cell_length_c   7.73273580
_cell_angle_alpha   89.86845590
_cell_angle_beta   90.00000000
_cell_angle_gamma   90.00000000
_symmetry_Int_Tables_number   1
_chemical_formula_structural   Th4Ge4Ir3Pt
_chemical_formula_sum   'Th4 Ge4 Ir3 Pt1'
_cell_volume   251.22262306
_cell_formula_units_Z   1
loop_
 _symmetry_equiv_pos_site_id
 _symmetry_equiv_pos_as_xyz
  1  'x, y, z'
loop_
 _atom_site_type_symbol
 _atom_site_label
 _atom_site_symmetry_multiplicity
 _atom_site_fract_x
 _atom_site_fract_y
 _atom_site_fract_z
 _atom_site_occupancy
  Th  Th0  1  0.250000  0.486182  0.704809  1
  Th  Th1  1  0.750000  0.503433  0.295013  1
  Th  Th2  1  0.250000  0.994637  0.800346  1
  Th  Th3  1  0.750000  0.007997  0.202565  1
  Ge  Ge4  1  0.250000  0.315538  0.084495  1
  Ge  Ge5  1  0.750000  0.679064  0.917346  1
  Ge  Ge6  1  0.250000  0.812641  0.412301  1
  Ge  Ge7  1  0.750000  0.187703  0.585029  1
  Ir  Ir8  1  0.250000  0.217934  0.414596  1
  Ir  Ir9  1  0.750000  0.282242  0.914753  1
  Ir  Ir10  1  0.250000  0.721404  0.083309  1
  Pt  Pt11  1  0.750000  0.791223  0.585441  1
