# generated using pymatgen
data_CePrBrN2
_symmetry_space_group_name_H-M   'P 1'
_cell_length_a   4.00495700
_cell_length_b   4.00495595
_cell_length_c   7.57279800
_cell_angle_alpha   90.00000000
_cell_angle_beta   90.00000000
_cell_angle_gamma   120.00001695
_symmetry_Int_Tables_number   1
_chemical_formula_structural   CePrBrN2
_chemical_formula_sum   'Ce1 Pr1 Br1 N2'
_cell_volume   105.19195608
_cell_formula_units_Z   1
loop_
 _symmetry_equiv_pos_site_id
 _symmetry_equiv_pos_as_xyz
  1  'x, y, z'
loop_
 _atom_site_type_symbol
 _atom_site_label
 _atom_site_symmetry_multiplicity
 _atom_site_fract_x
 _atom_site_fract_y
 _atom_site_fract_z
 _atom_site_occupancy
  Ce  Ce0  1  0.333333  0.666667  0.326058  1
  Pr  Pr1  1  0.666667  0.333333  0.693154  1
  Br  Br2  1  0.000000  0.000000  0.002819  1
  N  N3  1  0.666667  0.333333  0.366072  1
  N  N4  1  0.333333  0.666667  0.611897  1
