# generated using pymatgen
data_Er3Mn6Cr(CoP3)2
_symmetry_space_group_name_H-M   'P 1'
_cell_length_a   3.63698700
_cell_length_b   10.81044800
_cell_length_c   12.45613200
_cell_angle_alpha   90.00000000
_cell_angle_beta   90.00000000
_cell_angle_gamma   90.00000000
_symmetry_Int_Tables_number   1
_chemical_formula_structural   Er3Mn6Cr(CoP3)2
_chemical_formula_sum   'Er6 Mn12 Cr2 Co4 P12'
_cell_volume   489.74345722
_cell_formula_units_Z   2
loop_
 _symmetry_equiv_pos_site_id
 _symmetry_equiv_pos_as_xyz
  1  'x, y, z'
loop_
 _atom_site_type_symbol
 _atom_site_label
 _atom_site_symmetry_multiplicity
 _atom_site_fract_x
 _atom_site_fract_y
 _atom_site_fract_z
 _atom_site_occupancy
  Er  Er0  1  0.750000  0.250000  0.467490  1
  Er  Er1  1  0.250000  0.750000  0.532510  1
  Er  Er2  1  0.250000  0.927135  0.796023  1
  Er  Er3  1  0.250000  0.572865  0.796023  1
  Er  Er4  1  0.750000  0.072865  0.203977  1
  Er  Er5  1  0.750000  0.427135  0.203977  1
  Mn  Mn6  1  0.250000  0.420590  0.004419  1
  Mn  Mn7  1  0.250000  0.079410  0.004419  1
  Mn  Mn8  1  0.750000  0.579410  0.995581  1
  Mn  Mn9  1  0.750000  0.920590  0.995581  1
  Mn  Mn10  1  0.250000  0.452259  0.567391  1
  Mn  Mn11  1  0.250000  0.047741  0.567391  1
  Mn  Mn12  1  0.750000  0.547741  0.432609  1
  Mn  Mn13  1  0.750000  0.952259  0.432609  1
  Mn  Mn14  1  0.250000  0.869157  0.296962  1
  Mn  Mn15  1  0.250000  0.630843  0.296962  1
  Mn  Mn16  1  0.750000  0.130843  0.703038  1
  Mn  Mn17  1  0.750000  0.369157  0.703038  1
  Cr  Cr18  1  0.250000  0.250000  0.840919  1
  Cr  Cr19  1  0.750000  0.750000  0.159081  1
  Co  Co20  1  0.250000  0.250000  0.292626  1
  Co  Co21  1  0.750000  0.750000  0.707374  1
  Co  Co22  1  0.750000  0.250000  0.007713  1
  Co  Co23  1  0.250000  0.750000  0.992287  1
  P  P24  1  0.250000  0.250000  0.115027  1
  P  P25  1  0.750000  0.750000  0.884973  1
  P  P26  1  0.250000  0.250000  0.643524  1
  P  P27  1  0.750000  0.750000  0.356476  1
  P  P28  1  0.250000  0.431687  0.379733  1
  P  P29  1  0.250000  0.068313  0.379733  1
  P  P30  1  0.750000  0.568313  0.620267  1
  P  P31  1  0.750000  0.931687  0.620267  1
  P  P32  1  0.250000  0.902075  0.113275  1
  P  P33  1  0.250000  0.597925  0.113275  1
  P  P34  1  0.750000  0.097925  0.886725  1
  P  P35  1  0.750000  0.402075  0.886725  1
