# generated using pymatgen
data_Gd11(OsBr5)3
_symmetry_space_group_name_H-M   'P 1'
_cell_length_a   12.84467300
_cell_length_b   12.84466798
_cell_length_c   12.83941600
_cell_angle_alpha   90.00000000
_cell_angle_beta   90.00000000
_cell_angle_gamma   120.00041727
_symmetry_Int_Tables_number   1
_chemical_formula_structural   Gd11(OsBr5)3
_chemical_formula_sum   'Gd22 Os6 Br30'
_cell_volume   1834.50969424
_cell_formula_units_Z   2
loop_
 _symmetry_equiv_pos_site_id
 _symmetry_equiv_pos_as_xyz
  1  'x, y, z'
loop_
 _atom_site_type_symbol
 _atom_site_label
 _atom_site_symmetry_multiplicity
 _atom_site_fract_x
 _atom_site_fract_y
 _atom_site_fract_z
 _atom_site_occupancy
  Gd  Gd0  1  0.667101  0.331684  0.080516  1
  Gd  Gd1  1  0.959915  0.619665  0.107762  1
  Gd  Gd2  1  0.661608  0.039957  0.108556  1
  Gd  Gd3  1  0.378415  0.338353  0.107222  1
  Gd  Gd4  1  0.405410  0.074806  0.250000  1
  Gd  Gd5  1  0.926077  0.328606  0.250000  1
  Gd  Gd6  1  0.672548  0.590217  0.250000  1
  Gd  Gd7  1  0.661608  0.039957  0.391444  1
  Gd  Gd8  1  0.378415  0.338353  0.392778  1
  Gd  Gd9  1  0.959915  0.619665  0.392239  1
  Gd  Gd10  1  0.667101  0.331684  0.419483  1
  Gd  Gd11  1  0.332899  0.668315  0.580516  1
  Gd  Gd12  1  0.040085  0.380335  0.607762  1
  Gd  Gd13  1  0.621585  0.661647  0.607223  1
  Gd  Gd14  1  0.338392  0.960043  0.608557  1
  Gd  Gd15  1  0.327452  0.409783  0.750000  1
  Gd  Gd16  1  0.073923  0.671394  0.750000  1
  Gd  Gd17  1  0.594591  0.925194  0.750000  1
  Gd  Gd18  1  0.621585  0.661647  0.892777  1
  Gd  Gd19  1  0.338392  0.960043  0.891443  1
  Gd  Gd20  1  0.040085  0.380335  0.892239  1
  Gd  Gd21  1  0.332899  0.668315  0.919483  1
  Os  Os22  1  0.663102  0.195998  0.250000  1
  Os  Os23  1  0.533753  0.337045  0.250000  1
  Os  Os24  1  0.805198  0.462001  0.250000  1
  Os  Os25  1  0.194803  0.537999  0.750000  1
  Os  Os26  1  0.466247  0.662955  0.750000  1
  Os  Os27  1  0.336898  0.804002  0.750000  1
  Br  Br28  1  0.275190  0.084232  0.067410  1
  Br  Br29  1  0.809027  0.723269  0.067492  1
  Br  Br30  1  0.915777  0.190198  0.065610  1
  Br  Br31  1  0.131051  0.526431  0.089744  1
  Br  Br32  1  0.473360  0.602666  0.089504  1
  Br  Br33  1  0.396172  0.870038  0.090070  1
  Br  Br34  1  0.194137  0.310677  0.250000  1
  Br  Br35  1  0.116250  0.804987  0.250000  1
  Br  Br36  1  0.688799  0.882412  0.250000  1
  Br  Br37  1  0.396172  0.870038  0.409930  1
  Br  Br38  1  0.131051  0.526431  0.410255  1
  Br  Br39  1  0.473360  0.602666  0.410496  1
  Br  Br40  1  0.915777  0.190198  0.434390  1
  Br  Br41  1  0.809027  0.723269  0.432508  1
  Br  Br42  1  0.275190  0.084232  0.432590  1
  Br  Br43  1  0.724809  0.915768  0.567409  1
  Br  Br44  1  0.190973  0.276731  0.567492  1
  Br  Br45  1  0.084223  0.809802  0.565610  1
  Br  Br46  1  0.526641  0.397334  0.589504  1
  Br  Br47  1  0.868949  0.473569  0.589744  1
  Br  Br48  1  0.603828  0.129962  0.590069  1
  Br  Br49  1  0.311200  0.117588  0.750000  1
  Br  Br50  1  0.883751  0.195013  0.750000  1
  Br  Br51  1  0.805864  0.689323  0.750000  1
  Br  Br52  1  0.603828  0.129962  0.909931  1
  Br  Br53  1  0.526641  0.397334  0.910495  1
  Br  Br54  1  0.868949  0.473569  0.910255  1
  Br  Br55  1  0.084223  0.809802  0.934390  1
  Br  Br56  1  0.190973  0.276731  0.932508  1
  Br  Br57  1  0.724809  0.915768  0.932590  1
