# generated using pymatgen
data_Zr4In2S
_symmetry_space_group_name_H-M   'P 1'
_cell_length_a   9.48610396
_cell_length_b   9.48610351
_cell_length_c   9.48610300
_cell_angle_alpha   59.99999828
_cell_angle_beta   59.99999986
_cell_angle_gamma   60.00000034
_symmetry_Int_Tables_number   1
_chemical_formula_structural   Zr4In2S
_chemical_formula_sum   'Zr16 In8 S4'
_cell_volume   603.59908385
_cell_formula_units_Z   4
loop_
 _symmetry_equiv_pos_site_id
 _symmetry_equiv_pos_as_xyz
  1  'x, y, z'
loop_
 _atom_site_type_symbol
 _atom_site_label
 _atom_site_symmetry_multiplicity
 _atom_site_fract_x
 _atom_site_fract_y
 _atom_site_fract_z
 _atom_site_occupancy
  Zr  Zr0  1  0.125000  0.625000  0.625000  1
  Zr  Zr1  1  0.625000  0.125000  0.625000  1
  Zr  Zr2  1  0.625000  0.625000  0.125000  1
  Zr  Zr3  1  0.625000  0.625000  0.625000  1
  Zr  Zr4  1  0.795065  0.795065  0.204935  1
  Zr  Zr5  1  0.204935  0.204935  0.795065  1
  Zr  Zr6  1  0.795065  0.204935  0.795065  1
  Zr  Zr7  1  0.204935  0.795065  0.204935  1
  Zr  Zr8  1  0.204935  0.795065  0.795065  1
  Zr  Zr9  1  0.795065  0.204935  0.204935  1
  Zr  Zr10  1  0.454935  0.454935  0.045065  1
  Zr  Zr11  1  0.045065  0.045065  0.454935  1
  Zr  Zr12  1  0.454935  0.045065  0.454935  1
  Zr  Zr13  1  0.045065  0.454935  0.045065  1
  Zr  Zr14  1  0.045065  0.454935  0.454935  1
  Zr  Zr15  1  0.454935  0.045065  0.045065  1
  In  In16  1  0.784138  0.405287  0.405287  1
  In  In17  1  0.405287  0.784138  0.405287  1
  In  In18  1  0.405287  0.405287  0.784138  1
  In  In19  1  0.405287  0.405287  0.405287  1
  In  In20  1  0.465862  0.844713  0.844713  1
  In  In21  1  0.844713  0.465862  0.844713  1
  In  In22  1  0.844713  0.844713  0.465862  1
  In  In23  1  0.844713  0.844713  0.844713  1
  S  S24  1  0.625000  0.125000  0.125000  1
  S  S25  1  0.125000  0.625000  0.125000  1
  S  S26  1  0.125000  0.125000  0.625000  1
  S  S27  1  0.125000  0.125000  0.125000  1
