# generated using pymatgen
data_Y3ErCo17(P4Ru)3
_symmetry_space_group_name_H-M   'P 1'
_cell_length_a   3.68271400
_cell_length_b   10.36497971
_cell_length_c   11.76416031
_cell_angle_alpha   89.95309137
_cell_angle_beta   90.00000000
_cell_angle_gamma   90.00000000
_symmetry_Int_Tables_number   1
_chemical_formula_structural   Y3ErCo17(P4Ru)3
_chemical_formula_sum   'Y3 Er1 Co17 P12 Ru3'
_cell_volume   449.05262305
_cell_formula_units_Z   1
loop_
 _symmetry_equiv_pos_site_id
 _symmetry_equiv_pos_as_xyz
  1  'x, y, z'
loop_
 _atom_site_type_symbol
 _atom_site_label
 _atom_site_symmetry_multiplicity
 _atom_site_fract_x
 _atom_site_fract_y
 _atom_site_fract_z
 _atom_site_occupancy
  Y  Y0  1  0.750000  0.082972  0.797839  1
  Y  Y1  1  0.750000  0.414382  0.296038  1
  Y  Y2  1  0.250000  0.585739  0.703888  1
  Er  Er3  1  0.250000  0.913598  0.204227  1
  Co  Co4  1  0.250000  0.717344  0.992399  1
  Co  Co5  1  0.250000  0.091051  0.990633  1
  Co  Co6  1  0.750000  0.906169  0.012850  1
  Co  Co7  1  0.750000  0.591682  0.510566  1
  Co  Co8  1  0.250000  0.408863  0.489361  1
  Co  Co9  1  0.250000  0.278878  0.677195  1
  Co  Co10  1  0.750000  0.721058  0.322604  1
  Co  Co11  1  0.750000  0.778389  0.823790  1
  Co  Co12  1  0.250000  0.221609  0.176774  1
  Co  Co13  1  0.250000  0.616661  0.199111  1
  Co  Co14  1  0.750000  0.386711  0.798617  1
  Co  Co15  1  0.750000  0.112370  0.296880  1
  Co  Co16  1  0.250000  0.886190  0.702285  1
  Co  Co17  1  0.250000  0.034627  0.429781  1
  Co  Co18  1  0.750000  0.965086  0.568474  1
  Co  Co19  1  0.750000  0.535972  0.068237  1
  Co  Co20  1  0.250000  0.467443  0.931425  1
  P  P21  1  0.250000  0.079723  0.611952  1
  P  P22  1  0.750000  0.919416  0.386886  1
  P  P23  1  0.750000  0.582240  0.888594  1
  P  P24  1  0.250000  0.421062  0.112284  1
  P  P25  1  0.250000  0.228617  0.367206  1
  P  P26  1  0.750000  0.771801  0.633194  1
  P  P27  1  0.750000  0.730343  0.130383  1
  P  P28  1  0.250000  0.271904  0.867589  1
  P  P29  1  0.250000  0.897672  0.892972  1
  P  P30  1  0.750000  0.094478  0.109543  1
  P  P31  1  0.750000  0.403954  0.609971  1
  P  P32  1  0.250000  0.596992  0.388791  1
  Ru  Ru33  1  0.250000  0.784089  0.491155  1
  Ru  Ru34  1  0.750000  0.216415  0.507824  1
  Ru  Ru35  1  0.750000  0.284507  0.008684  1
