# generated using pymatgen
data_Tm4In(Ge2Os)2
_symmetry_space_group_name_H-M   'P 1'
_cell_length_a   8.09768641
_cell_length_b   8.09768680
_cell_length_c   6.92486398
_cell_angle_alpha   73.82948556
_cell_angle_beta   106.17051642
_cell_angle_gamma   149.27322595
_symmetry_Int_Tables_number   1
_chemical_formula_structural   Tm4In(Ge2Os)2
_chemical_formula_sum   'Tm4 In1 Ge4 Os2'
_cell_volume   222.12285400
_cell_formula_units_Z   1
loop_
 _symmetry_equiv_pos_site_id
 _symmetry_equiv_pos_as_xyz
  1  'x, y, z'
loop_
 _atom_site_type_symbol
 _atom_site_label
 _atom_site_symmetry_multiplicity
 _atom_site_fract_x
 _atom_site_fract_y
 _atom_site_fract_z
 _atom_site_occupancy
  Tm  Tm0  1  0.411181  0.588818  0.607908  1
  Tm  Tm1  1  0.588817  0.411181  0.392090  1
  Tm  Tm2  1  0.345942  0.654057  0.067703  1
  Tm  Tm3  1  0.654057  0.345941  0.932296  1
  In  In4  1  0.000000  0.000000  0.000000  1
  Ge  Ge5  1  0.064659  0.935339  0.661044  1
  Ge  Ge6  1  0.935340  0.064659  0.338957  1
  Ge  Ge7  1  0.199730  0.800269  0.257906  1
  Ge  Ge8  1  0.800268  0.199730  0.742095  1
  Os  Os9  1  0.220802  0.779196  0.634615  1
  Os  Os10  1  0.779197  0.220802  0.365386  1
