# generated using pymatgen
data_SmTm4(Tl2Pt)2
_symmetry_space_group_name_H-M   'P 1'
_cell_length_a   3.58652900
_cell_length_b   8.14386400
_cell_length_c   18.23300100
_cell_angle_alpha   90.00000000
_cell_angle_beta   90.00000000
_cell_angle_gamma   90.00000000
_symmetry_Int_Tables_number   1
_chemical_formula_structural   SmTm4(Tl2Pt)2
_chemical_formula_sum   'Sm2 Tm8 Tl8 Pt4'
_cell_volume   532.55322018
_cell_formula_units_Z   2
loop_
 _symmetry_equiv_pos_site_id
 _symmetry_equiv_pos_as_xyz
  1  'x, y, z'
loop_
 _atom_site_type_symbol
 _atom_site_label
 _atom_site_symmetry_multiplicity
 _atom_site_fract_x
 _atom_site_fract_y
 _atom_site_fract_z
 _atom_site_occupancy
  Sm  Sm0  1  0.000000  0.000000  0.000000  1
  Sm  Sm1  1  0.000000  0.500000  0.500000  1
  Tm  Tm2  1  0.000000  0.118641  0.413011  1
  Tm  Tm3  1  0.000000  0.881359  0.586989  1
  Tm  Tm4  1  0.000000  0.381359  0.913011  1
  Tm  Tm5  1  0.000000  0.618641  0.086989  1
  Tm  Tm6  1  0.000000  0.243599  0.220555  1
  Tm  Tm7  1  0.000000  0.756401  0.779445  1
  Tm  Tm8  1  0.000000  0.256401  0.720555  1
  Tm  Tm9  1  0.000000  0.743599  0.279445  1
  Tl  Tl10  1  0.500000  0.422400  0.351133  1
  Tl  Tl11  1  0.500000  0.577600  0.648867  1
  Tl  Tl12  1  0.500000  0.077600  0.851133  1
  Tl  Tl13  1  0.500000  0.922400  0.148867  1
  Tl  Tl14  1  0.500000  0.298239  0.065842  1
  Tl  Tl15  1  0.500000  0.701761  0.934158  1
  Tl  Tl16  1  0.500000  0.201761  0.565842  1
  Tl  Tl17  1  0.500000  0.798239  0.434158  1
  Pt  Pt18  1  0.500000  0.026915  0.303778  1
  Pt  Pt19  1  0.500000  0.973085  0.696222  1
  Pt  Pt20  1  0.500000  0.473085  0.803778  1
  Pt  Pt21  1  0.500000  0.526915  0.196222  1
