# generated using pymatgen
data_FeOsCl8
_symmetry_space_group_name_H-M   'P 1'
_cell_length_a   9.93650389
_cell_length_b   9.93650370
_cell_length_c   8.70629100
_cell_angle_alpha   90.00000000
_cell_angle_beta   90.00000000
_cell_angle_gamma   128.34315979
_symmetry_Int_Tables_number   1
_chemical_formula_structural   FeOsCl8
_chemical_formula_sum   'Fe2 Os2 Cl16'
_cell_volume   674.19843266
_cell_formula_units_Z   2
loop_
 _symmetry_equiv_pos_site_id
 _symmetry_equiv_pos_as_xyz
  1  'x, y, z'
loop_
 _atom_site_type_symbol
 _atom_site_label
 _atom_site_symmetry_multiplicity
 _atom_site_fract_x
 _atom_site_fract_y
 _atom_site_fract_z
 _atom_site_occupancy
  Fe  Fe0  1  0.314108  0.685892  0.750000  1
  Fe  Fe1  1  0.685892  0.314108  0.250000  1
  Os  Os2  1  0.879010  0.120990  0.250000  1
  Os  Os3  1  0.120990  0.879010  0.750000  1
  Cl  Cl4  1  0.379764  0.620236  0.543873  1
  Cl  Cl5  1  0.620236  0.379764  0.456127  1
  Cl  Cl6  1  0.416284  0.968120  0.750000  1
  Cl  Cl7  1  0.968120  0.416284  0.250000  1
  Cl  Cl8  1  0.583716  0.031880  0.250000  1
  Cl  Cl9  1  0.031880  0.583716  0.750000  1
  Cl  Cl10  1  0.232801  0.156130  0.750000  1
  Cl  Cl11  1  0.156130  0.232801  0.250000  1
  Cl  Cl12  1  0.767199  0.843870  0.250000  1
  Cl  Cl13  1  0.843870  0.767199  0.750000  1
  Cl  Cl14  1  0.129257  0.870743  0.487917  1
  Cl  Cl15  1  0.870743  0.129257  0.512083  1
  Cl  Cl16  1  0.870743  0.129257  0.987917  1
  Cl  Cl17  1  0.129257  0.870743  0.012083  1
  Cl  Cl18  1  0.379764  0.620236  0.956127  1
  Cl  Cl19  1  0.620236  0.379764  0.043873  1
