# generated using pymatgen
data_Na3PtO4
_symmetry_space_group_name_H-M   'P 1'
_cell_length_a   6.55615300
_cell_length_b   5.54736577
_cell_length_c   5.73268561
_cell_angle_alpha   70.36562421
_cell_angle_beta   90.00000000
_cell_angle_gamma   90.00000000
_symmetry_Int_Tables_number   1
_chemical_formula_structural   Na3PtO4
_chemical_formula_sum   'Na6 Pt2 O8'
_cell_volume   196.37153108
_cell_formula_units_Z   2
loop_
 _symmetry_equiv_pos_site_id
 _symmetry_equiv_pos_as_xyz
  1  'x, y, z'
loop_
 _atom_site_type_symbol
 _atom_site_label
 _atom_site_symmetry_multiplicity
 _atom_site_fract_x
 _atom_site_fract_y
 _atom_site_fract_z
 _atom_site_occupancy
  Na  Na0  1  0.617238  0.250000  0.000000  1
  Na  Na1  1  0.615339  0.750000  0.500000  1
  Na  Na2  1  0.880531  0.250000  0.500000  1
  Na  Na3  1  0.119469  0.750000  0.500000  1
  Na  Na4  1  0.382762  0.750000  0.000000  1
  Na  Na5  1  0.384661  0.250000  0.500000  1
  Pt  Pt6  1  0.121048  0.250000  0.000000  1
  Pt  Pt7  1  0.878952  0.750000  0.000000  1
  O  O8  1  0.332218  0.035450  0.223937  1
  O  O9  1  0.332218  0.464550  0.776063  1
  O  O10  1  0.667782  0.964550  0.776063  1
  O  O11  1  0.667782  0.535450  0.223937  1
  O  O12  1  0.103532  0.499103  0.198144  1
  O  O13  1  0.103532  0.000897  0.801856  1
  O  O14  1  0.896468  0.999103  0.198144  1
  O  O15  1  0.896468  0.500897  0.801856  1
