# generated using pymatgen
data_Tb3Al3CoSiGe
_symmetry_space_group_name_H-M   'P 1'
_cell_length_a   6.92813000
_cell_length_b   6.92812900
_cell_length_c   4.17727400
_cell_angle_alpha   90.00000000
_cell_angle_beta   90.00000000
_cell_angle_gamma   119.99999524
_symmetry_Int_Tables_number   1
_chemical_formula_structural   Tb3Al3CoSiGe
_chemical_formula_sum   'Tb3 Al3 Co1 Si1 Ge1'
_cell_volume   173.64233170
_cell_formula_units_Z   1
loop_
 _symmetry_equiv_pos_site_id
 _symmetry_equiv_pos_as_xyz
  1  'x, y, z'
loop_
 _atom_site_type_symbol
 _atom_site_label
 _atom_site_symmetry_multiplicity
 _atom_site_fract_x
 _atom_site_fract_y
 _atom_site_fract_z
 _atom_site_occupancy
  Tb  Tb0  1  0.404142  0.002183  0.000000  1
  Tb  Tb1  1  0.997817  0.401960  0.000000  1
  Tb  Tb2  1  0.598040  0.595858  0.000000  1
  Al  Al3  1  0.773063  0.002364  0.500000  1
  Al  Al4  1  0.229302  0.226937  0.500000  1
  Al  Al5  1  0.997636  0.770699  0.500000  1
  Co  Co6  1  0.000000  0.000000  0.000000  1
  Si  Si7  1  0.666666  0.333333  0.500000  1
  Ge  Ge8  1  0.333333  0.666666  0.500000  1
