# generated using pymatgen
data_CeSmSc3Si7Pt9
_symmetry_space_group_name_H-M   'P 1'
_cell_length_a   10.05815500
_cell_length_b   10.05815547
_cell_length_c   4.01797500
_cell_angle_alpha   90.00000000
_cell_angle_beta   90.00000000
_cell_angle_gamma   120.00000174
_symmetry_Int_Tables_number   1
_chemical_formula_structural   CeSmSc3Si7Pt9
_chemical_formula_sum   'Ce1 Sm1 Sc3 Si7 Pt9'
_cell_volume   352.02582307
_cell_formula_units_Z   1
loop_
 _symmetry_equiv_pos_site_id
 _symmetry_equiv_pos_as_xyz
  1  'x, y, z'
loop_
 _atom_site_type_symbol
 _atom_site_label
 _atom_site_symmetry_multiplicity
 _atom_site_fract_x
 _atom_site_fract_y
 _atom_site_fract_z
 _atom_site_occupancy
  Ce  Ce0  1  0.000000  0.000000  0.000000  1
  Sm  Sm1  1  0.333333  0.666667  0.500000  1
  Sc  Sc2  1  0.893127  0.453056  0.500000  1
  Sc  Sc3  1  0.559928  0.106873  0.500000  1
  Sc  Sc4  1  0.546944  0.440072  0.500000  1
  Si  Si5  1  0.248157  0.197657  0.500000  1
  Si  Si6  1  0.802343  0.050503  0.500000  1
  Si  Si7  1  0.949497  0.751843  0.500000  1
  Si  Si8  1  0.557528  0.646846  0.000000  1
  Si  Si9  1  0.353154  0.910681  0.000000  1
  Si  Si10  1  0.089319  0.442472  0.000000  1
  Si  Si11  1  0.666667  0.333333  0.000000  1
  Pt  Pt12  1  0.221092  0.936666  0.500000  1
  Pt  Pt13  1  0.063334  0.284426  0.500000  1
  Pt  Pt14  1  0.715574  0.778908  0.500000  1
  Pt  Pt15  1  0.313116  0.410436  0.000000  1
  Pt  Pt16  1  0.589564  0.902680  0.000000  1
  Pt  Pt17  1  0.097320  0.686884  0.000000  1
  Pt  Pt18  1  0.383546  0.171229  0.000000  1
  Pt  Pt19  1  0.828771  0.212317  0.000000  1
  Pt  Pt20  1  0.787683  0.616454  0.000000  1
