# generated using pymatgen
data_Nd3Y5(CdPt)2
_symmetry_space_group_name_H-M   'P 1'
_cell_length_a   9.82324996
_cell_length_b   9.82324996
_cell_length_c   9.82325000
_cell_angle_alpha   59.99999988
_cell_angle_beta   59.99999986
_cell_angle_gamma   59.99999992
_symmetry_Int_Tables_number   1
_chemical_formula_structural   Nd3Y5(CdPt)2
_chemical_formula_sum   'Nd6 Y10 Cd4 Pt4'
_cell_volume   670.27124506
_cell_formula_units_Z   2
loop_
 _symmetry_equiv_pos_site_id
 _symmetry_equiv_pos_as_xyz
  1  'x, y, z'
loop_
 _atom_site_type_symbol
 _atom_site_label
 _atom_site_symmetry_multiplicity
 _atom_site_fract_x
 _atom_site_fract_y
 _atom_site_fract_z
 _atom_site_occupancy
  Nd  Nd0  1  0.937695  0.562305  0.562305  1
  Nd  Nd1  1  0.562305  0.937695  0.937695  1
  Nd  Nd2  1  0.562305  0.937695  0.562305  1
  Nd  Nd3  1  0.937695  0.562305  0.937695  1
  Nd  Nd4  1  0.562305  0.562305  0.937695  1
  Nd  Nd5  1  0.937695  0.937695  0.562305  1
  Y  Y6  1  0.350923  0.350923  0.350923  1
  Y  Y7  1  0.350923  0.350923  0.947230  1
  Y  Y8  1  0.350923  0.947230  0.350923  1
  Y  Y9  1  0.947230  0.350923  0.350923  1
  Y  Y10  1  0.810694  0.189306  0.189306  1
  Y  Y11  1  0.189306  0.810694  0.810694  1
  Y  Y12  1  0.189306  0.810694  0.189306  1
  Y  Y13  1  0.810694  0.189306  0.810694  1
  Y  Y14  1  0.189306  0.189306  0.810694  1
  Y  Y15  1  0.810694  0.810694  0.189306  1
  Cd  Cd16  1  0.579869  0.579869  0.579869  1
  Cd  Cd17  1  0.579869  0.579869  0.260393  1
  Cd  Cd18  1  0.579869  0.260393  0.579869  1
  Cd  Cd19  1  0.260393  0.579869  0.579869  1
  Pt  Pt20  1  0.142728  0.142728  0.142728  1
  Pt  Pt21  1  0.142728  0.142728  0.571817  1
  Pt  Pt22  1  0.142728  0.571817  0.142728  1
  Pt  Pt23  1  0.571817  0.142728  0.142728  1
