# generated using pymatgen
data_Tb3GeS2
_symmetry_space_group_name_H-M   'P 1'
_cell_length_a   6.97728693
_cell_length_b   6.97728615
_cell_length_c   6.97728603
_cell_angle_alpha   146.31670216
_cell_angle_beta   131.97653051
_cell_angle_gamma   59.93765915
_symmetry_Int_Tables_number   1
_chemical_formula_structural   Tb3GeS2
_chemical_formula_sum   'Tb3 Ge1 S2'
_cell_volume   138.76805275
_cell_formula_units_Z   1
loop_
 _symmetry_equiv_pos_site_id
 _symmetry_equiv_pos_as_xyz
  1  'x, y, z'
loop_
 _atom_site_type_symbol
 _atom_site_label
 _atom_site_symmetry_multiplicity
 _atom_site_fract_x
 _atom_site_fract_y
 _atom_site_fract_z
 _atom_site_occupancy
  Tb  Tb0  1  0.833402  0.333402  0.500000  1
  Tb  Tb1  1  0.500000  0.000000  0.500000  1
  Tb  Tb2  1  0.166598  0.666598  0.500000  1
  Ge  Ge3  1  0.000000  0.000000  0.000000  1
  S  S4  1  0.666423  0.666423  0.000000  1
  S  S5  1  0.333577  0.333577  0.000000  1
