# generated using pymatgen
data_Tb7Y13(Ga2Pb)4
_symmetry_space_group_name_H-M   'P 1'
_cell_length_a   7.91376602
_cell_length_b   7.91288202
_cell_length_c   13.97353502
_cell_angle_alpha   90.00417638
_cell_angle_beta   90.00498344
_cell_angle_gamma   90.00619771
_symmetry_Int_Tables_number   1
_chemical_formula_structural   Tb7Y13(Ga2Pb)4
_chemical_formula_sum   'Tb7 Y13 Ga8 Pb4'
_cell_volume   875.03248936
_cell_formula_units_Z   1
loop_
 _symmetry_equiv_pos_site_id
 _symmetry_equiv_pos_as_xyz
  1  'x, y, z'
loop_
 _atom_site_type_symbol
 _atom_site_label
 _atom_site_symmetry_multiplicity
 _atom_site_fract_x
 _atom_site_fract_y
 _atom_site_fract_z
 _atom_site_occupancy
  Tb  Tb0  1  0.838842  0.837454  0.892142  1
  Tb  Tb1  1  0.163116  0.161605  0.607782  1
  Tb  Tb2  1  0.839147  0.162306  0.392311  1
  Tb  Tb3  1  0.160939  0.837726  0.392175  1
  Tb  Tb4  1  0.337687  0.338880  0.392337  1
  Tb  Tb5  1  0.837218  0.161360  0.107663  1
  Tb  Tb6  1  0.337609  0.661103  0.892090  1
  Y  Y7  1  0.162638  0.838720  0.107668  1
  Y  Y8  1  0.499919  0.000081  0.751986  1
  Y  Y9  1  0.999871  0.499972  0.248339  1
  Y  Y10  1  0.338720  0.662762  0.607734  1
  Y  Y11  1  0.661397  0.662775  0.107778  1
  Y  Y12  1  0.661385  0.337286  0.607871  1
  Y  Y13  1  0.999947  0.500081  0.748249  1
  Y  Y14  1  0.837334  0.838625  0.607899  1
  Y  Y15  1  0.662380  0.339076  0.892117  1
  Y  Y16  1  0.160805  0.162216  0.892172  1
  Y  Y17  1  0.499854  0.999985  0.252086  1
  Y  Y18  1  0.662232  0.660683  0.392074  1
  Y  Y19  1  0.338903  0.337458  0.107754  1
  Ga  Ga20  1  0.632054  0.368078  0.249866  1
  Ga  Ga21  1  0.367938  0.632270  0.250015  1
  Ga  Ga22  1  0.132009  0.131981  0.250103  1
  Ga  Ga23  1  0.367936  0.367760  0.749684  1
  Ga  Ga24  1  0.132052  0.867818  0.750115  1
  Ga  Ga25  1  0.867845  0.867726  0.249812  1
  Ga  Ga26  1  0.632236  0.632106  0.750089  1
  Ga  Ga27  1  0.867713  0.132262  0.749955  1
  Pb  Pb28  1  0.000463  0.499608  0.000037  1
  Pb  Pb29  1  0.499773  0.000276  0.999952  1
  Pb  Pb30  1  0.500578  0.999432  0.500080  1
  Pb  Pb31  1  0.999457  0.500529  0.500065  1
