# generated using pymatgen
data_Ba6Li13In11
_symmetry_space_group_name_H-M   'P 1'
_cell_length_a   10.48280548
_cell_length_b   10.48617992
_cell_length_c   8.46359688
_cell_angle_alpha   89.53489520
_cell_angle_beta   90.00277153
_cell_angle_gamma   119.99054673
_symmetry_Int_Tables_number   1
_chemical_formula_structural   Ba6Li13In11
_chemical_formula_sum   'Ba6 Li13 In11'
_cell_volume   805.75467240
_cell_formula_units_Z   1
loop_
 _symmetry_equiv_pos_site_id
 _symmetry_equiv_pos_as_xyz
  1  'x, y, z'
loop_
 _atom_site_type_symbol
 _atom_site_label
 _atom_site_symmetry_multiplicity
 _atom_site_fract_x
 _atom_site_fract_y
 _atom_site_fract_z
 _atom_site_occupancy
  Ba  Ba0  1  0.477824  0.955660  0.253141  1
  Ba  Ba1  1  0.519737  0.039492  0.749002  1
  Ba  Ba2  1  0.035092  0.519436  0.256415  1
  Ba  Ba3  1  0.484345  0.519467  0.256407  1
  Ba  Ba4  1  0.519259  0.480214  0.751081  1
  Ba  Ba5  1  0.960959  0.480231  0.751062  1
  Li  Li6  1  0.156014  0.312020  0.923325  1
  Li  Li7  1  0.106208  0.212455  0.248313  1
  Li  Li8  1  0.899366  0.798717  0.749753  1
  Li  Li9  1  0.799411  0.900859  0.251975  1
  Li  Li10  1  0.101454  0.900877  0.251987  1
  Li  Li11  1  0.892219  0.098341  0.745674  1
  Li  Li12  1  0.206105  0.098332  0.745674  1
  Li  Li13  1  0.000158  0.000352  0.999572  1
  Li  Li14  1  0.001879  0.003774  0.502806  1
  Li  Li15  1  0.329637  0.659272  0.568557  1
  Li  Li16  1  0.665281  0.330568  0.069000  1
  Li  Li17  1  0.665647  0.331328  0.434016  1
  Li  Li18  1  0.340284  0.680586  0.926211  1
  In  In19  1  0.162364  0.324739  0.566685  1
  In  In20  1  0.834000  0.667980  0.059133  1
  In  In21  1  0.666611  0.833909  0.560774  1
  In  In22  1  0.167316  0.833936  0.560785  1
  In  In23  1  0.844011  0.170019  0.059538  1
  In  In24  1  0.326006  0.170021  0.059552  1
  In  In25  1  0.834494  0.668857  0.443712  1
  In  In26  1  0.831817  0.165252  0.437627  1
  In  In27  1  0.333434  0.165277  0.437637  1
  In  In28  1  0.675048  0.839015  0.940223  1
  In  In29  1  0.163921  0.839017  0.940364  1
