# generated using pymatgen
data_SmTh(CoC2)2
_symmetry_space_group_name_H-M   'P 1'
_cell_length_a   3.76046543
_cell_length_b   3.78135223
_cell_length_c   7.43108938
_cell_angle_alpha   81.92624695
_cell_angle_beta   82.02622353
_cell_angle_gamma   90.11464149
_symmetry_Int_Tables_number   1
_chemical_formula_structural   SmTh(CoC2)2
_chemical_formula_sum   'Sm1 Th1 Co2 C4'
_cell_volume   103.58370762
_cell_formula_units_Z   1
loop_
 _symmetry_equiv_pos_site_id
 _symmetry_equiv_pos_as_xyz
  1  'x, y, z'
loop_
 _atom_site_type_symbol
 _atom_site_label
 _atom_site_symmetry_multiplicity
 _atom_site_fract_x
 _atom_site_fract_y
 _atom_site_fract_z
 _atom_site_occupancy
  Sm  Sm0  1  0.486312  0.629607  0.806559  1
  Th  Th1  1  0.627295  0.487311  0.304636  1
  Co  Co2  1  0.071642  0.928670  0.502095  1
  Co  Co3  1  0.931641  0.070868  0.000436  1
  C  C4  1  0.413046  0.049224  0.077159  1
  C  C5  1  0.047203  0.411339  0.582817  1
  C  C6  1  0.150760  0.999686  0.233495  1
  C  C7  1  0.000101  0.151296  0.734803  1
