# generated using pymatgen
data_SmGd3(NCl3)2
_symmetry_space_group_name_H-M   'P 1'
_cell_length_a   6.18180500
_cell_length_b   6.78814385
_cell_length_c   13.19831444
_cell_angle_alpha   89.87812053
_cell_angle_beta   90.00000000
_cell_angle_gamma   90.00000000
_symmetry_Int_Tables_number   1
_chemical_formula_structural   SmGd3(NCl3)2
_chemical_formula_sum   'Sm2 Gd6 N4 Cl12'
_cell_volume   553.83937305
_cell_formula_units_Z   2
loop_
 _symmetry_equiv_pos_site_id
 _symmetry_equiv_pos_as_xyz
  1  'x, y, z'
loop_
 _atom_site_type_symbol
 _atom_site_label
 _atom_site_symmetry_multiplicity
 _atom_site_fract_x
 _atom_site_fract_y
 _atom_site_fract_z
 _atom_site_occupancy
  Sm  Sm0  1  0.993381  0.324428  0.408035  1
  Sm  Sm1  1  0.493381  0.175572  0.091965  1
  Gd  Gd2  1  0.507934  0.329649  0.592591  1
  Gd  Gd3  1  0.007934  0.170351  0.907409  1
  Gd  Gd4  1  0.007433  0.671134  0.591912  1
  Gd  Gd5  1  0.507433  0.828866  0.908088  1
  Gd  Gd6  1  0.492432  0.672698  0.408929  1
  Gd  Gd7  1  0.992432  0.827302  0.091071  1
  N  N8  1  0.748655  0.511199  0.501027  1
  N  N9  1  0.248655  0.988801  0.998973  1
  N  N10  1  0.251416  0.491848  0.501056  1
  N  N11  1  0.751416  0.008152  0.998944  1
  Cl  Cl12  1  0.109605  0.133380  0.219369  1
  Cl  Cl13  1  0.609605  0.366620  0.280631  1
  Cl  Cl14  1  0.388816  0.134983  0.779718  1
  Cl  Cl15  1  0.888816  0.365017  0.720282  1
  Cl  Cl16  1  0.750199  0.502267  0.999890  1
  Cl  Cl17  1  0.250199  0.997733  0.500110  1
  Cl  Cl18  1  0.249026  0.497782  0.999457  1
  Cl  Cl19  1  0.749026  0.002218  0.500543  1
  Cl  Cl20  1  0.112349  0.635505  0.278945  1
  Cl  Cl21  1  0.612349  0.864495  0.221055  1
  Cl  Cl22  1  0.388753  0.634981  0.720869  1
  Cl  Cl23  1  0.888753  0.865019  0.779131  1
