# generated using pymatgen
data_YZn3P6N13
_symmetry_space_group_name_H-M   'P 1'
_cell_length_a   7.08669398
_cell_length_b   7.17903246
_cell_length_c   7.08669432
_cell_angle_alpha   109.73537965
_cell_angle_beta   109.20575946
_cell_angle_gamma   109.73538842
_symmetry_Int_Tables_number   1
_chemical_formula_structural   YZn3P6N13
_chemical_formula_sum   'Y1 Zn3 P6 N13'
_cell_volume   276.63377952
_cell_formula_units_Z   1
loop_
 _symmetry_equiv_pos_site_id
 _symmetry_equiv_pos_as_xyz
  1  'x, y, z'
loop_
 _atom_site_type_symbol
 _atom_site_label
 _atom_site_symmetry_multiplicity
 _atom_site_fract_x
 _atom_site_fract_y
 _atom_site_fract_z
 _atom_site_occupancy
  Y  Y0  1  0.000000  0.718475  0.000000  1
  Zn  Zn1  1  0.713267  0.014745  0.000000  1
  Zn  Zn2  1  0.000000  0.014745  0.713267  1
  Zn  Zn3  1  0.286733  0.301479  0.286733  1
  P  P4  1  0.494149  0.240764  0.746816  1
  P  P5  1  0.505851  0.746616  0.252667  1
  P  P6  1  0.747333  0.493949  0.253184  1
  P  P7  1  0.252667  0.746616  0.505851  1
  P  P8  1  0.746816  0.240764  0.494149  1
  P  P9  1  0.253184  0.493949  0.747333  1
  N  N10  1  0.000000  0.729511  0.449240  1
  N  N11  1  0.284065  0.546205  0.548689  1
  N  N12  1  0.721737  0.443217  0.000000  1
  N  N13  1  0.278263  0.721481  0.278263  1
  N  N14  1  0.451311  0.997516  0.735377  1
  N  N15  1  0.715935  0.262139  0.264623  1
  N  N16  1  0.550760  0.280271  0.550760  1
  N  N17  1  0.735377  0.997516  0.451311  1
  N  N18  1  0.264623  0.262139  0.715935  1
  N  N19  1  0.449240  0.729511  0.000000  1
  N  N20  1  0.548689  0.546205  0.284065  1
  N  N21  1  0.000000  0.443217  0.721737  1
  N  N22  1  0.000000  0.028970  0.000000  1
