# generated using pymatgen
data_Sc4Al15(SiRh2)3
_symmetry_space_group_name_H-M   'P 1'
_cell_length_a   7.44260251
_cell_length_b   7.42310459
_cell_length_c   9.19698199
_cell_angle_alpha   89.99323516
_cell_angle_beta   89.93793869
_cell_angle_gamma   119.61514957
_symmetry_Int_Tables_number   1
_chemical_formula_structural   Sc4Al15(SiRh2)3
_chemical_formula_sum   'Sc4 Al15 Si3 Rh6'
_cell_volume   441.73027285
_cell_formula_units_Z   1
loop_
 _symmetry_equiv_pos_site_id
 _symmetry_equiv_pos_as_xyz
  1  'x, y, z'
loop_
 _atom_site_type_symbol
 _atom_site_label
 _atom_site_symmetry_multiplicity
 _atom_site_fract_x
 _atom_site_fract_y
 _atom_site_fract_z
 _atom_site_occupancy
  Sc  Sc0  1  0.993270  0.668763  0.247863  1
  Sc  Sc1  1  0.005060  0.323715  0.753967  1
  Sc  Sc2  1  0.682568  0.001930  0.247304  1
  Sc  Sc3  1  0.324019  0.005605  0.749393  1
  Al  Al4  1  0.000627  0.668522  0.919605  1
  Al  Al5  1  0.001565  0.664178  0.578045  1
  Al  Al6  1  0.335816  0.997128  0.421947  1
  Al  Al7  1  0.999233  0.336132  0.426511  1
  Al  Al8  1  0.663644  0.001717  0.577879  1
  Al  Al9  1  0.659139  0.997341  0.919992  1
  Al  Al10  1  0.335095  0.996995  0.078188  1
  Al  Al11  1  0.333205  0.332389  0.563358  1
  Al  Al12  1  0.667713  0.668509  0.436915  1
  Al  Al13  1  0.667293  0.668381  0.063964  1
  Al  Al14  1  0.336270  0.332502  0.937503  1
  Al  Al15  1  0.333297  0.552286  0.250100  1
  Al  Al16  1  0.666255  0.444690  0.750410  1
  Al  Al17  1  0.550486  0.335001  0.250463  1
  Al  Al18  1  0.444568  0.663161  0.749229  1
  Si  Si19  1  0.128381  0.125364  0.250586  1
  Si  Si20  1  0.874181  0.876142  0.749641  1
  Si  Si21  1  0.000356  0.338072  0.075513  1
  Rh  Rh22  1  0.680328  0.328613  0.002690  1
  Rh  Rh23  1  0.319616  0.664372  0.999645  1
  Rh  Rh24  1  0.327582  0.671646  0.499484  1
  Rh  Rh25  1  0.672200  0.328144  0.498922  1
  Rh  Rh26  1  0.998457  0.008347  0.001682  1
  Rh  Rh27  1  0.999776  0.000354  0.499201  1
