# generated using pymatgen
data_TmLu15Mg2(InNi2)2
_symmetry_space_group_name_H-M   'P 1'
_cell_length_a   9.39013259
_cell_length_b   9.39013301
_cell_length_c   9.36263600
_cell_angle_alpha   60.09681275
_cell_angle_beta   60.09681128
_cell_angle_gamma   60.32382131
_symmetry_Int_Tables_number   1
_chemical_formula_structural   TmLu15Mg2(InNi2)2
_chemical_formula_sum   'Tm1 Lu15 Mg2 In2 Ni4'
_cell_volume   586.02382096
_cell_formula_units_Z   1
loop_
 _symmetry_equiv_pos_site_id
 _symmetry_equiv_pos_as_xyz
  1  'x, y, z'
loop_
 _atom_site_type_symbol
 _atom_site_label
 _atom_site_symmetry_multiplicity
 _atom_site_fract_x
 _atom_site_fract_y
 _atom_site_fract_z
 _atom_site_occupancy
  Tm  Tm0  1  0.185883  0.185883  0.814117  1
  Lu  Lu1  1  0.595776  0.595776  0.594992  1
  Lu  Lu2  1  0.595776  0.595776  0.213456  1
  Lu  Lu3  1  0.600426  0.207640  0.595968  1
  Lu  Lu4  1  0.207640  0.600426  0.595968  1
  Lu  Lu5  1  0.061759  0.436614  0.438255  1
  Lu  Lu6  1  0.436614  0.061759  0.063373  1
  Lu  Lu7  1  0.436614  0.061759  0.438255  1
  Lu  Lu8  1  0.061759  0.436614  0.063373  1
  Lu  Lu9  1  0.434566  0.434566  0.065434  1
  Lu  Lu10  1  0.060728  0.060728  0.439272  1
  Lu  Lu11  1  0.186106  0.814435  0.813552  1
  Lu  Lu12  1  0.814435  0.186106  0.185906  1
  Lu  Lu13  1  0.814435  0.186106  0.813552  1
  Lu  Lu14  1  0.186106  0.814435  0.185906  1
  Lu  Lu15  1  0.814268  0.814268  0.185732  1
  Mg  Mg16  1  0.829944  0.514470  0.827792  1
  Mg  Mg17  1  0.514470  0.829944  0.827792  1
  In  In18  1  0.832088  0.832088  0.833928  1
  In  In19  1  0.832088  0.832088  0.501895  1
  Ni  Ni20  1  0.391692  0.391692  0.393353  1
  Ni  Ni21  1  0.391692  0.391692  0.823264  1
  Ni  Ni22  1  0.390092  0.825042  0.392433  1
  Ni  Ni23  1  0.825042  0.390092  0.392433  1
