# generated using pymatgen
data_Tb5Pr3(CdPt)2
_symmetry_space_group_name_H-M   'P 1'
_cell_length_a   9.85904798
_cell_length_b   9.85904801
_cell_length_c   9.85904700
_cell_angle_alpha   60.00000004
_cell_angle_beta   59.99999993
_cell_angle_gamma   60.00000006
_symmetry_Int_Tables_number   1
_chemical_formula_structural   Tb5Pr3(CdPt)2
_chemical_formula_sum   'Tb10 Pr6 Cd4 Pt4'
_cell_volume   677.62574982
_cell_formula_units_Z   2
loop_
 _symmetry_equiv_pos_site_id
 _symmetry_equiv_pos_as_xyz
  1  'x, y, z'
loop_
 _atom_site_type_symbol
 _atom_site_label
 _atom_site_symmetry_multiplicity
 _atom_site_fract_x
 _atom_site_fract_y
 _atom_site_fract_z
 _atom_site_occupancy
  Tb  Tb0  1  0.350102  0.350102  0.350102  1
  Tb  Tb1  1  0.350102  0.350102  0.949695  1
  Tb  Tb2  1  0.350102  0.949695  0.350102  1
  Tb  Tb3  1  0.949695  0.350102  0.350102  1
  Tb  Tb4  1  0.810877  0.189123  0.189123  1
  Tb  Tb5  1  0.189123  0.810877  0.810877  1
  Tb  Tb6  1  0.189123  0.810877  0.189123  1
  Tb  Tb7  1  0.810877  0.189123  0.810877  1
  Tb  Tb8  1  0.189123  0.189123  0.810877  1
  Tb  Tb9  1  0.810877  0.810877  0.189123  1
  Pr  Pr10  1  0.938345  0.561655  0.561655  1
  Pr  Pr11  1  0.561655  0.938345  0.938345  1
  Pr  Pr12  1  0.561655  0.938345  0.561655  1
  Pr  Pr13  1  0.938345  0.561655  0.938345  1
  Pr  Pr14  1  0.561655  0.561655  0.938345  1
  Pr  Pr15  1  0.938345  0.938345  0.561655  1
  Cd  Cd16  1  0.579617  0.579617  0.579617  1
  Cd  Cd17  1  0.579617  0.579617  0.261149  1
  Cd  Cd18  1  0.579617  0.261149  0.579617  1
  Cd  Cd19  1  0.261149  0.579617  0.579617  1
  Pt  Pt20  1  0.143004  0.143004  0.143004  1
  Pt  Pt21  1  0.143004  0.143004  0.570987  1
  Pt  Pt22  1  0.143004  0.570987  0.143004  1
  Pt  Pt23  1  0.570987  0.143004  0.143004  1
