# generated using pymatgen
data_Dy4Al18Cu3Os2Rh
_symmetry_space_group_name_H-M   'P 1'
_cell_length_a   7.53912621
_cell_length_b   7.53912790
_cell_length_c   9.42725793
_cell_angle_alpha   89.95234310
_cell_angle_beta   89.95233625
_cell_angle_gamma   119.11573620
_symmetry_Int_Tables_number   1
_chemical_formula_structural   Dy4Al18Cu3Os2Rh
_chemical_formula_sum   'Dy4 Al18 Cu3 Os2 Rh1'
_cell_volume   468.12167760
_cell_formula_units_Z   1
loop_
 _symmetry_equiv_pos_site_id
 _symmetry_equiv_pos_as_xyz
  1  'x, y, z'
loop_
 _atom_site_type_symbol
 _atom_site_label
 _atom_site_symmetry_multiplicity
 _atom_site_fract_x
 _atom_site_fract_y
 _atom_site_fract_z
 _atom_site_occupancy
  Dy  Dy0  1  0.995885  0.674278  0.750237  1
  Dy  Dy1  1  0.007643  0.328236  0.250456  1
  Dy  Dy2  1  0.671764  0.992357  0.749544  1
  Dy  Dy3  1  0.325722  0.004115  0.249763  1
  Al  Al4  1  0.130234  0.131346  0.750239  1
  Al  Al5  1  0.868654  0.869766  0.249761  1
  Al  Al6  1  0.999717  0.334152  0.576769  1
  Al  Al7  1  0.999295  0.666378  0.422575  1
  Al  Al8  1  0.997540  0.663165  0.074875  1
  Al  Al9  1  0.336835  0.002460  0.925125  1
  Al  Al10  1  0.995285  0.331517  0.925207  1
  Al  Al11  1  0.668483  0.004715  0.074793  1
  Al  Al12  1  0.665848  0.000283  0.423231  1
  Al  Al13  1  0.333622  0.000705  0.577425  1
  Al  Al14  1  0.331621  0.329212  0.047735  1
  Al  Al15  1  0.670788  0.668379  0.952265  1
  Al  Al16  1  0.668528  0.668776  0.552986  1
  Al  Al17  1  0.331224  0.331472  0.447014  1
  Al  Al18  1  0.343476  0.552009  0.751068  1
  Al  Al19  1  0.655553  0.445739  0.247995  1
  Al  Al20  1  0.554261  0.344447  0.752005  1
  Al  Al21  1  0.447991  0.656524  0.248932  1
  Cu  Cu22  1  0.671318  0.328682  0.500000  1
  Cu  Cu23  1  0.328120  0.671880  0.500000  1
  Cu  Cu24  1  0.328292  0.671708  0.000000  1
  Os  Os25  1  0.999841  0.000159  0.500000  1
  Os  Os26  1  0.001079  0.998921  0.000000  1
  Rh  Rh27  1  0.671377  0.328623  0.000000  1
