# generated using pymatgen
data_Lu3Ga3GeIr2
_symmetry_space_group_name_H-M   'P 1'
_cell_length_a   7.09403500
_cell_length_b   7.09403430
_cell_length_c   3.91948100
_cell_angle_alpha   90.00000000
_cell_angle_beta   90.00000000
_cell_angle_gamma   120.00000670
_symmetry_Int_Tables_number   1
_chemical_formula_structural   Lu3Ga3GeIr2
_chemical_formula_sum   'Lu3 Ga3 Ge1 Ir2'
_cell_volume   170.82277646
_cell_formula_units_Z   1
loop_
 _symmetry_equiv_pos_site_id
 _symmetry_equiv_pos_as_xyz
  1  'x, y, z'
loop_
 _atom_site_type_symbol
 _atom_site_label
 _atom_site_symmetry_multiplicity
 _atom_site_fract_x
 _atom_site_fract_y
 _atom_site_fract_z
 _atom_site_occupancy
  Lu  Lu0  1  0.992846  0.405793  0.500000  1
  Lu  Lu1  1  0.594207  0.587054  0.500000  1
  Lu  Lu2  1  0.412946  0.007154  0.500000  1
  Ga  Ga3  1  0.984015  0.742841  0.000000  1
  Ga  Ga4  1  0.257159  0.241175  0.000000  1
  Ga  Ga5  1  0.758825  0.015985  0.000000  1
  Ge  Ge6  1  0.333333  0.666667  0.000000  1
  Ir  Ir7  1  0.666667  0.333333  0.000000  1
  Ir  Ir8  1  0.000000  0.000000  0.500000  1
