# generated using pymatgen
data_Dy2YTm5In3Co
_symmetry_space_group_name_H-M   'P 1'
_cell_length_a   10.23535246
_cell_length_b   10.23535282
_cell_length_c   7.01773897
_cell_angle_alpha   90.00392258
_cell_angle_beta   89.99607546
_cell_angle_gamma   120.03669062
_symmetry_Int_Tables_number   1
_chemical_formula_structural   Dy2YTm5In3Co
_chemical_formula_sum   'Dy4 Y2 Tm10 In6 Co2'
_cell_volume   636.46243405
_cell_formula_units_Z   2
loop_
 _symmetry_equiv_pos_site_id
 _symmetry_equiv_pos_as_xyz
  1  'x, y, z'
loop_
 _atom_site_type_symbol
 _atom_site_label
 _atom_site_symmetry_multiplicity
 _atom_site_fract_x
 _atom_site_fract_y
 _atom_site_fract_z
 _atom_site_occupancy
  Dy  Dy0  1  0.464858  0.535142  0.484069  1
  Dy  Dy1  1  0.069715  0.534834  0.483263  1
  Dy  Dy2  1  0.465166  0.930285  0.483263  1
  Dy  Dy3  1  0.535481  0.464519  0.983349  1
  Y  Y4  1  0.999974  0.000026  0.495149  1
  Y  Y5  1  0.000018  0.999982  0.994817  1
  Tm  Tm6  1  0.928022  0.464037  0.982206  1
  Tm  Tm7  1  0.535963  0.071978  0.982206  1
  Tm  Tm8  1  0.820818  0.179182  0.275815  1
  Tm  Tm9  1  0.358610  0.178735  0.277064  1
  Tm  Tm10  1  0.821265  0.641390  0.277064  1
  Tm  Tm11  1  0.179350  0.820650  0.779161  1
  Tm  Tm12  1  0.641659  0.821588  0.778907  1
  Tm  Tm13  1  0.178412  0.358341  0.778907  1
  Tm  Tm14  1  0.332924  0.667076  0.090179  1
  Tm  Tm15  1  0.667015  0.332985  0.590360  1
  In  In16  1  0.163213  0.836787  0.231741  1
  In  In17  1  0.673456  0.836304  0.232153  1
  In  In18  1  0.163696  0.326544  0.232153  1
  In  In19  1  0.836162  0.163838  0.731949  1
  In  In20  1  0.326656  0.163044  0.731575  1
  In  In21  1  0.836956  0.673344  0.731575  1
  Co  Co22  1  0.333257  0.666743  0.709554  1
  Co  Co23  1  0.667357  0.332643  0.208070  1
