# generated using pymatgen
data_Y9Ho7(C2Cl3)4
_symmetry_space_group_name_H-M   'P 1'
_cell_length_a   3.64366700
_cell_length_b   10.47522005
_cell_length_c   19.58522800
_cell_angle_alpha   90.00541495
_cell_angle_beta   90.00000000
_cell_angle_gamma   90.00000000
_symmetry_Int_Tables_number   1
_chemical_formula_structural   Y9Ho7(C2Cl3)4
_chemical_formula_sum   'Y9 Ho7 C8 Cl12'
_cell_volume   747.53316241
_cell_formula_units_Z   1
loop_
 _symmetry_equiv_pos_site_id
 _symmetry_equiv_pos_as_xyz
  1  'x, y, z'
loop_
 _atom_site_type_symbol
 _atom_site_label
 _atom_site_symmetry_multiplicity
 _atom_site_fract_x
 _atom_site_fract_y
 _atom_site_fract_z
 _atom_site_occupancy
  Y  Y0  1  0.250000  0.138577  0.572705  1
  Y  Y1  1  0.250000  0.638606  0.927392  1
  Y  Y2  1  0.750000  0.860898  0.427482  1
  Y  Y3  1  0.750000  0.361323  0.072535  1
  Y  Y4  1  0.250000  0.637665  0.755613  1
  Y  Y5  1  0.250000  0.137792  0.744436  1
  Y  Y6  1  0.750000  0.362084  0.244277  1
  Y  Y7  1  0.750000  0.862432  0.255603  1
  Y  Y8  1  0.250000  0.100632  0.332181  1
  Ho  Ho9  1  0.250000  0.599841  0.168461  1
  Ho  Ho10  1  0.750000  0.900076  0.668462  1
  Ho  Ho11  1  0.750000  0.400037  0.831549  1
  Ho  Ho12  1  0.250000  0.124782  0.164203  1
  Ho  Ho13  1  0.250000  0.625201  0.335584  1
  Ho  Ho14  1  0.750000  0.874889  0.835627  1
  Ho  Ho15  1  0.750000  0.375007  0.664384  1
  C  C16  1  0.250000  0.862576  0.348059  1
  C  C17  1  0.250000  0.364274  0.151940  1
  C  C18  1  0.750000  0.135904  0.652076  1
  C  C19  1  0.750000  0.636020  0.847921  1
  C  C20  1  0.250000  0.388054  0.749739  1
  C  C21  1  0.250000  0.888187  0.750237  1
  C  C22  1  0.750000  0.611630  0.250151  1
  C  C23  1  0.750000  0.112256  0.248944  1
  Cl  Cl24  1  0.250000  0.376852  0.951760  1
  Cl  Cl25  1  0.250000  0.876736  0.548232  1
  Cl  Cl26  1  0.750000  0.623194  0.048093  1
  Cl  Cl27  1  0.750000  0.123177  0.452397  1
  Cl  Cl28  1  0.250000  0.889041  0.944862  1
  Cl  Cl29  1  0.250000  0.389003  0.555171  1
  Cl  Cl30  1  0.750000  0.111160  0.054804  1
  Cl  Cl31  1  0.750000  0.611022  0.445064  1
  Cl  Cl32  1  0.250000  0.361555  0.355049  1
  Cl  Cl33  1  0.250000  0.860198  0.144989  1
  Cl  Cl34  1  0.750000  0.639633  0.645113  1
  Cl  Cl35  1  0.750000  0.139683  0.854904  1
