# generated using pymatgen
data_Tb12InSi4Au
_symmetry_space_group_name_H-M   'P 1'
_cell_length_a   8.53472632
_cell_length_b   8.53473616
_cell_length_c   8.53472628
_cell_angle_alpha   112.20190475
_cell_angle_beta   110.98730689
_cell_angle_gamma   105.30555512
_symmetry_Int_Tables_number   1
_chemical_formula_structural   Tb12InSi4Au
_chemical_formula_sum   'Tb12 In1 Si4 Au1'
_cell_volume   476.63518865
_cell_formula_units_Z   1
loop_
 _symmetry_equiv_pos_site_id
 _symmetry_equiv_pos_as_xyz
  1  'x, y, z'
loop_
 _atom_site_type_symbol
 _atom_site_label
 _atom_site_symmetry_multiplicity
 _atom_site_fract_x
 _atom_site_fract_y
 _atom_site_fract_z
 _atom_site_occupancy
  Tb  Tb0  1  0.434122  0.234715  0.199406  1
  Tb  Tb1  1  0.565878  0.765285  0.800594  1
  Tb  Tb2  1  0.035308  0.234715  0.800593  1
  Tb  Tb3  1  0.964692  0.765285  0.199407  1
  Tb  Tb4  1  0.182024  0.271889  0.453917  1
  Tb  Tb5  1  0.817976  0.728111  0.546083  1
  Tb  Tb6  1  0.182026  0.728111  0.910135  1
  Tb  Tb7  1  0.817974  0.271889  0.089865  1
  Tb  Tb8  1  0.321287  0.618394  0.297107  1
  Tb  Tb9  1  0.678713  0.381606  0.702893  1
  Tb  Tb10  1  0.321293  0.024188  0.702894  1
  Tb  Tb11  1  0.678707  0.975812  0.297106  1
  In  In12  1  0.500000  0.500000  0.000000  1
  Si  Si13  1  0.366842  0.000000  0.366842  1
  Si  Si14  1  0.633158  0.000000  0.633158  1
  Si  Si15  1  0.116120  0.616120  0.500000  1
  Si  Si16  1  0.883880  0.383880  0.500000  1
  Au  Au17  1  0.000000  0.000000  0.000000  1
