# generated using pymatgen
data_NdYSi4(Ni8Rh)2
_symmetry_space_group_name_H-M   'P 1'
_cell_length_a   7.65217306
_cell_length_b   7.65298018
_cell_length_c   7.65217413
_cell_angle_alpha   99.50030697
_cell_angle_beta   99.46441565
_cell_angle_gamma   132.09980851
_symmetry_Int_Tables_number   1
_chemical_formula_structural   NdYSi4(Ni8Rh)2
_chemical_formula_sum   'Nd1 Y1 Si4 Ni16 Rh2'
_cell_volume   303.88726706
_cell_formula_units_Z   1
loop_
 _symmetry_equiv_pos_site_id
 _symmetry_equiv_pos_as_xyz
  1  'x, y, z'
loop_
 _atom_site_type_symbol
 _atom_site_label
 _atom_site_symmetry_multiplicity
 _atom_site_fract_x
 _atom_site_fract_y
 _atom_site_fract_z
 _atom_site_occupancy
  Nd  Nd0  1  0.750004  0.249955  0.499950  1
  Y  Y1  1  0.499940  0.499981  0.000041  1
  Si  Si2  1  0.624913  0.874670  0.750256  1
  Si  Si3  1  0.125350  0.375101  0.249751  1
  Si  Si4  1  0.125377  0.875628  0.750251  1
  Si  Si5  1  0.124414  0.874670  0.249757  1
  Ni  Ni6  1  0.686914  0.017918  0.081786  1
  Ni  Ni7  1  0.686925  0.605178  0.668947  1
  Ni  Ni8  1  0.269736  0.437260  0.582740  1
  Ni  Ni9  1  0.269782  0.687005  0.832528  1
  Ni  Ni10  1  0.936131  0.017918  0.331004  1
  Ni  Ni11  1  0.936231  0.605178  0.918254  1
  Ni  Ni12  1  0.854518  0.437260  0.167524  1
  Ni  Ni13  1  0.854477  0.687005  0.417225  1
  Ni  Ni14  1  0.562711  0.730258  0.417208  1
  Ni  Ni15  1  0.562704  0.145446  0.832469  1
  Ni  Ni16  1  0.982078  0.313107  0.918242  1
  Ni  Ni17  1  0.982002  0.063802  0.668941  1
  Ni  Ni18  1  0.313051  0.730258  0.167547  1
  Ni  Ni19  1  0.312976  0.145446  0.582741  1
  Ni  Ni20  1  0.394866  0.313107  0.331028  1
  Ni  Ni21  1  0.394861  0.063802  0.081798  1
  Rh  Rh22  1  0.250027  0.749998  0.499971  1
  Rh  Rh23  1  0.000013  0.000049  0.000037  1
