# generated using pymatgen
data_Li6CeErUN6
_symmetry_space_group_name_H-M   'P 1'
_cell_length_a   6.07680800
_cell_length_b   6.07680978
_cell_length_c   5.47518200
_cell_angle_alpha   90.00000000
_cell_angle_beta   90.00000000
_cell_angle_gamma   120.00001210
_symmetry_Int_Tables_number   1
_chemical_formula_structural   Li6CeErUN6
_chemical_formula_sum   'Li6 Ce1 Er1 U1 N6'
_cell_volume   175.09764116
_cell_formula_units_Z   1
loop_
 _symmetry_equiv_pos_site_id
 _symmetry_equiv_pos_as_xyz
  1  'x, y, z'
loop_
 _atom_site_type_symbol
 _atom_site_label
 _atom_site_symmetry_multiplicity
 _atom_site_fract_x
 _atom_site_fract_y
 _atom_site_fract_z
 _atom_site_occupancy
  Li  Li0  1  0.978445  0.649612  0.604712  1
  Li  Li1  1  0.350388  0.328832  0.604712  1
  Li  Li2  1  0.671168  0.021555  0.604712  1
  Li  Li3  1  0.007007  0.335847  0.393141  1
  Li  Li4  1  0.664153  0.671159  0.393141  1
  Li  Li5  1  0.328841  0.992993  0.393141  1
  Ce  Ce6  1  0.333333  0.666667  0.992967  1
  Er  Er7  1  0.000000  0.000000  0.998198  1
  U  U8  1  0.666667  0.333333  0.006840  1
  N  N9  1  0.982377  0.649797  0.226118  1
  N  N10  1  0.350203  0.332580  0.226118  1
  N  N11  1  0.667420  0.017623  0.226118  1
  N  N12  1  0.978563  0.332740  0.776693  1
  N  N13  1  0.667260  0.645822  0.776693  1
  N  N14  1  0.354178  0.021437  0.776693  1
