# generated using pymatgen
data_TbNd3Sb10
_symmetry_space_group_name_H-M   'P 1'
_cell_length_a   4.25674900
_cell_length_b   13.50382171
_cell_length_c   15.15539057
_cell_angle_alpha   78.02410346
_cell_angle_beta   90.00000000
_cell_angle_gamma   90.00000000
_symmetry_Int_Tables_number   1
_chemical_formula_structural   TbNd3Sb10
_chemical_formula_sum   'Tb2 Nd6 Sb20'
_cell_volume   852.20692565
_cell_formula_units_Z   2
loop_
 _symmetry_equiv_pos_site_id
 _symmetry_equiv_pos_as_xyz
  1  'x, y, z'
loop_
 _atom_site_type_symbol
 _atom_site_label
 _atom_site_symmetry_multiplicity
 _atom_site_fract_x
 _atom_site_fract_y
 _atom_site_fract_z
 _atom_site_occupancy
  Tb  Tb0  1  0.250000  0.395451  0.773113  1
  Tb  Tb1  1  0.750000  0.604549  0.226887  1
  Nd  Nd2  1  0.750000  0.336009  0.142446  1
  Nd  Nd3  1  0.250000  0.949974  0.360904  1
  Nd  Nd4  1  0.250000  0.663991  0.857554  1
  Nd  Nd5  1  0.250000  0.667920  0.576718  1
  Nd  Nd6  1  0.750000  0.050026  0.639096  1
  Nd  Nd7  1  0.750000  0.332080  0.423282  1
  Sb  Sb8  1  0.750000  0.850415  0.820783  1
  Sb  Sb9  1  0.250000  0.861523  0.675852  1
  Sb  Sb10  1  0.250000  0.142286  0.477637  1
  Sb  Sb11  1  0.750000  0.284785  0.935089  1
  Sb  Sb12  1  0.250000  0.146590  0.781376  1
  Sb  Sb13  1  0.750000  0.573891  0.441271  1
  Sb  Sb14  1  0.750000  0.138477  0.324148  1
  Sb  Sb15  1  0.250000  0.707129  0.350783  1
  Sb  Sb16  1  0.750000  0.292871  0.649217  1
  Sb  Sb17  1  0.750000  0.853410  0.218624  1
  Sb  Sb18  1  0.250000  0.421169  0.973215  1
  Sb  Sb19  1  0.250000  0.426109  0.558729  1
  Sb  Sb20  1  0.750000  0.572372  0.736378  1
  Sb  Sb21  1  0.250000  0.427628  0.263622  1
  Sb  Sb22  1  0.750000  0.857714  0.522363  1
  Sb  Sb23  1  0.750000  0.030278  0.891673  1
  Sb  Sb24  1  0.250000  0.715215  0.064911  1
  Sb  Sb25  1  0.250000  0.969722  0.108327  1
  Sb  Sb26  1  0.250000  0.149585  0.179217  1
  Sb  Sb27  1  0.750000  0.578831  0.026785  1
