# generated using pymatgen
data_Tm4Tl3Co2
_symmetry_space_group_name_H-M   'P 1'
_cell_length_a   3.66617100
_cell_length_b   7.30570351
_cell_length_c   7.88970400
_cell_angle_alpha   71.22079820
_cell_angle_beta   90.00000000
_cell_angle_gamma   90.00000000
_symmetry_Int_Tables_number   1
_chemical_formula_structural   Tm4Tl3Co2
_chemical_formula_sum   'Tm4 Tl3 Co2'
_cell_volume   200.06826522
_cell_formula_units_Z   1
loop_
 _symmetry_equiv_pos_site_id
 _symmetry_equiv_pos_as_xyz
  1  'x, y, z'
loop_
 _atom_site_type_symbol
 _atom_site_label
 _atom_site_symmetry_multiplicity
 _atom_site_fract_x
 _atom_site_fract_y
 _atom_site_fract_z
 _atom_site_occupancy
  Tm  Tm0  1  0.500000  0.602481  0.182926  1
  Tm  Tm1  1  0.500000  0.094948  0.274682  1
  Tm  Tm2  1  0.500000  0.397519  0.817074  1
  Tm  Tm3  1  0.500000  0.905052  0.725318  1
  Tl  Tl4  1  0.000000  0.714016  0.502059  1
  Tl  Tl5  1  0.000000  0.000000  0.000000  1
  Tl  Tl6  1  0.000000  0.285984  0.497941  1
  Co  Co7  1  0.000000  0.650320  0.897292  1
  Co  Co8  1  0.000000  0.349680  0.102708  1
