# generated using pymatgen
data_Sc4Ga2B4(IrRh)5
_symmetry_space_group_name_H-M   'P 1'
_cell_length_a   9.41644521
_cell_length_b   9.37184221
_cell_length_c   3.07772900
_cell_angle_alpha   90.00000000
_cell_angle_beta   90.00000000
_cell_angle_gamma   89.97587787
_symmetry_Int_Tables_number   1
_chemical_formula_structural   Sc4Ga2B4(IrRh)5
_chemical_formula_sum   'Sc4 Ga2 B4 Ir5 Rh5'
_cell_volume   271.60783250
_cell_formula_units_Z   1
loop_
 _symmetry_equiv_pos_site_id
 _symmetry_equiv_pos_as_xyz
  1  'x, y, z'
loop_
 _atom_site_type_symbol
 _atom_site_label
 _atom_site_symmetry_multiplicity
 _atom_site_fract_x
 _atom_site_fract_y
 _atom_site_fract_z
 _atom_site_occupancy
  Sc  Sc0  1  0.323656  0.824229  0.000000  1
  Sc  Sc1  1  0.675701  0.175609  0.000000  1
  Sc  Sc2  1  0.823995  0.675578  0.000000  1
  Sc  Sc3  1  0.175507  0.324259  0.000000  1
  Ga  Ga4  1  0.000118  0.999869  0.000000  1
  Ga  Ga5  1  0.498621  0.500498  0.000000  1
  B  B6  1  0.124434  0.623990  0.000000  1
  B  B7  1  0.874760  0.376170  0.000000  1
  B  B8  1  0.625442  0.875997  0.000000  1
  B  B9  1  0.375045  0.123930  0.000000  1
  Ir  Ir10  1  0.217141  0.071475  0.500001  1
  Ir  Ir11  1  0.783013  0.928916  0.500001  1
  Ir  Ir12  1  0.717251  0.428609  0.500001  1
  Ir  Ir13  1  0.001099  0.500193  0.500001  1
  Ir  Ir14  1  0.499719  0.999491  0.500001  1
  Rh  Rh15  1  0.283413  0.571715  0.500001  1
  Rh  Rh16  1  0.429629  0.284362  0.500001  1
  Rh  Rh17  1  0.570348  0.715366  0.500001  1
  Rh  Rh18  1  0.071190  0.783913  0.500001  1
  Rh  Rh19  1  0.929916  0.215830  0.500001  1
