# generated using pymatgen
data_TbY3Al18Co5Pt
_symmetry_space_group_name_H-M   'P 1'
_cell_length_a   7.42007551
_cell_length_b   7.42024578
_cell_length_c   9.34675426
_cell_angle_alpha   89.84908272
_cell_angle_beta   89.85078281
_cell_angle_gamma   119.16923795
_symmetry_Int_Tables_number   1
_chemical_formula_structural   TbY3Al18Co5Pt
_chemical_formula_sum   'Tb1 Y3 Al18 Co5 Pt1'
_cell_volume   449.35268266
_cell_formula_units_Z   1
loop_
 _symmetry_equiv_pos_site_id
 _symmetry_equiv_pos_as_xyz
  1  'x, y, z'
loop_
 _atom_site_type_symbol
 _atom_site_label
 _atom_site_symmetry_multiplicity
 _atom_site_fract_x
 _atom_site_fract_y
 _atom_site_fract_z
 _atom_site_occupancy
  Tb  Tb0  1  0.994671  0.675090  0.251275  1
  Y  Y1  1  0.005367  0.324809  0.748714  1
  Y  Y2  1  0.675123  0.994688  0.251273  1
  Y  Y3  1  0.324863  0.005421  0.748732  1
  Al  Al4  1  0.132469  0.132479  0.258444  1
  Al  Al5  1  0.867615  0.867685  0.741550  1
  Al  Al6  1  0.332359  0.332358  0.541784  1
  Al  Al7  1  0.659867  0.659935  0.046730  1
  Al  Al8  1  0.340076  0.340078  0.953245  1
  Al  Al9  1  0.667549  0.667645  0.458273  1
  Al  Al10  1  0.340056  0.555922  0.251277  1
  Al  Al11  1  0.660051  0.444002  0.748763  1
  Al  Al12  1  0.555821  0.339856  0.251232  1
  Al  Al13  1  0.443993  0.660120  0.748722  1
  Al  Al14  1  0.999951  0.344202  0.074155  1
  Al  Al15  1  0.002656  0.663874  0.570764  1
  Al  Al16  1  0.336255  0.997433  0.429359  1
  Al  Al17  1  0.655681  0.000031  0.925804  1
  Al  Al18  1  0.999975  0.655643  0.925753  1
  Al  Al19  1  0.997335  0.335991  0.429378  1
  Al  Al20  1  0.663869  0.002662  0.570668  1
  Al  Al21  1  0.344445  0.000081  0.074187  1
  Co  Co22  1  0.000019  0.000024  0.500033  1
  Co  Co23  1  0.670866  0.329079  0.999906  1
  Co  Co24  1  0.328941  0.670983  0.500042  1
  Co  Co25  1  0.329084  0.670870  0.999941  1
  Co  Co26  1  0.671017  0.328990  0.500069  1
  Pt  Pt27  1  0.000025  0.000047  0.999927  1
