# generated using pymatgen
data_Er9LuPt18
_symmetry_space_group_name_H-M   'P 1'
_cell_length_a   9.71455166
_cell_length_b   9.71455166
_cell_length_c   5.75020100
_cell_angle_alpha   90.00000000
_cell_angle_beta   90.00000000
_cell_angle_gamma   89.95786516
_symmetry_Int_Tables_number   1
_chemical_formula_structural   Er9LuPt18
_chemical_formula_sum   'Er9 Lu1 Pt18'
_cell_volume   542.66077701
_cell_formula_units_Z   1
loop_
 _symmetry_equiv_pos_site_id
 _symmetry_equiv_pos_as_xyz
  1  'x, y, z'
loop_
 _atom_site_type_symbol
 _atom_site_label
 _atom_site_symmetry_multiplicity
 _atom_site_fract_x
 _atom_site_fract_y
 _atom_site_fract_z
 _atom_site_occupancy
  Er  Er0  1  0.452135  0.810039  0.000000  1
  Er  Er1  1  0.547865  0.189961  0.000000  1
  Er  Er2  1  0.189961  0.547865  0.000000  1
  Er  Er3  1  0.810039  0.452135  0.000000  1
  Er  Er4  1  0.500000  0.500000  0.500000  1
  Er  Er5  1  0.309945  0.047834  0.500000  1
  Er  Er6  1  0.690055  0.952166  0.500000  1
  Er  Er7  1  0.952166  0.690055  0.500000  1
  Er  Er8  1  0.047834  0.309945  0.500000  1
  Lu  Lu9  1  0.000000  0.000000  0.000000  1
  Pt  Pt10  1  0.190779  0.809221  0.250560  1
  Pt  Pt11  1  0.809221  0.190779  0.749440  1
  Pt  Pt12  1  0.809221  0.190779  0.250560  1
  Pt  Pt13  1  0.190779  0.809221  0.749440  1
  Pt  Pt14  1  0.440519  0.781720  0.500000  1
  Pt  Pt15  1  0.559481  0.218280  0.500000  1
  Pt  Pt16  1  0.218280  0.559481  0.500000  1
  Pt  Pt17  1  0.781720  0.440519  0.500000  1
  Pt  Pt18  1  0.308855  0.308855  0.249127  1
  Pt  Pt19  1  0.691145  0.691145  0.750873  1
  Pt  Pt20  1  0.691145  0.691145  0.249127  1
  Pt  Pt21  1  0.308855  0.308855  0.750873  1
  Pt  Pt22  1  0.280925  0.059252  0.000000  1
  Pt  Pt23  1  0.719075  0.940748  0.000000  1
  Pt  Pt24  1  0.940748  0.719075  0.000000  1
  Pt  Pt25  1  0.059252  0.280925  0.000000  1
  Pt  Pt26  1  0.000000  0.000000  0.500000  1
  Pt  Pt27  1  0.500000  0.500000  0.000000  1
