# generated using pymatgen
data_La3(SiRh)2
_symmetry_space_group_name_H-M   'P 1'
_cell_length_a   5.81469400
_cell_length_b   8.18350900
_cell_length_c   13.36925900
_cell_angle_alpha   90.00000000
_cell_angle_beta   90.00000000
_cell_angle_gamma   90.00000000
_symmetry_Int_Tables_number   1
_chemical_formula_structural   La3(SiRh)2
_chemical_formula_sum   'La12 Si8 Rh8'
_cell_volume   636.17085092
_cell_formula_units_Z   4
loop_
 _symmetry_equiv_pos_site_id
 _symmetry_equiv_pos_as_xyz
  1  'x, y, z'
loop_
 _atom_site_type_symbol
 _atom_site_label
 _atom_site_symmetry_multiplicity
 _atom_site_fract_x
 _atom_site_fract_y
 _atom_site_fract_z
 _atom_site_occupancy
  La  La0  1  0.650405  0.246588  0.250000  1
  La  La1  1  0.349595  0.753412  0.750000  1
  La  La2  1  0.349595  0.746588  0.250000  1
  La  La3  1  0.650405  0.253412  0.750000  1
  La  La4  1  0.148378  0.394313  0.099299  1
  La  La5  1  0.851622  0.605687  0.900701  1
  La  La6  1  0.851622  0.605687  0.599299  1
  La  La7  1  0.851622  0.894313  0.400701  1
  La  La8  1  0.148378  0.394313  0.400701  1
  La  La9  1  0.148378  0.105687  0.599299  1
  La  La10  1  0.148378  0.105687  0.900701  1
  La  La11  1  0.851622  0.894313  0.099299  1
  Si  Si12  1  0.160840  0.101596  0.250000  1
  Si  Si13  1  0.839160  0.898404  0.750000  1
  Si  Si14  1  0.839160  0.601596  0.250000  1
  Si  Si15  1  0.160840  0.398404  0.750000  1
  Si  Si16  1  0.627925  0.250000  0.000000  1
  Si  Si17  1  0.372075  0.750000  0.000000  1
  Si  Si18  1  0.372075  0.750000  0.500000  1
  Si  Si19  1  0.627925  0.250000  0.500000  1
  Rh  Rh20  1  0.378552  0.037550  0.090941  1
  Rh  Rh21  1  0.621448  0.962450  0.909059  1
  Rh  Rh22  1  0.621448  0.962450  0.590941  1
  Rh  Rh23  1  0.621448  0.537550  0.409059  1
  Rh  Rh24  1  0.378552  0.037550  0.409059  1
  Rh  Rh25  1  0.378552  0.462450  0.590941  1
  Rh  Rh26  1  0.378552  0.462450  0.909059  1
  Rh  Rh27  1  0.621448  0.537550  0.090941  1
