# generated using pymatgen
data_Cs2Pr10Ru2Br17
_symmetry_space_group_name_H-M   'P 1'
_cell_length_a   9.64350391
_cell_length_b   11.29205771
_cell_length_c   11.29231154
_cell_angle_alpha   107.70946873
_cell_angle_beta   93.63675887
_cell_angle_gamma   93.64085079
_symmetry_Int_Tables_number   1
_chemical_formula_structural   Cs2Pr10Ru2Br17
_chemical_formula_sum   'Cs2 Pr10 Ru2 Br17'
_cell_volume   1164.60252992
_cell_formula_units_Z   1
loop_
 _symmetry_equiv_pos_site_id
 _symmetry_equiv_pos_as_xyz
  1  'x, y, z'
loop_
 _atom_site_type_symbol
 _atom_site_label
 _atom_site_symmetry_multiplicity
 _atom_site_fract_x
 _atom_site_fract_y
 _atom_site_fract_z
 _atom_site_occupancy
  Cs  Cs0  1  0.999082  0.820596  0.178293  1
  Cs  Cs1  1  0.999081  0.178294  0.820596  1
  Pr  Pr2  1  0.436394  0.162791  0.162781  1
  Pr  Pr3  1  0.574519  0.509133  0.204799  1
  Pr  Pr4  1  0.830873  0.289505  0.289521  1
  Pr  Pr5  1  0.307890  0.437524  0.437525  1
  Pr  Pr6  1  0.425385  0.803036  0.486134  1
  Pr  Pr7  1  0.574452  0.204777  0.509112  1
  Pr  Pr8  1  0.690626  0.569298  0.569281  1
  Pr  Pr9  1  0.174841  0.708270  0.708298  1
  Pr  Pr10  1  0.425425  0.486146  0.803051  1
  Pr  Pr11  1  0.561706  0.834090  0.834072  1
  Ru  Ru12  1  0.570892  0.358113  0.358117  1
  Ru  Ru13  1  0.430344  0.642194  0.642198  1
  Br  Br14  1  0.580113  0.684942  0.021893  1
  Br  Br15  1  0.712273  0.066954  0.066949  1
  Br  Br16  1  0.856567  0.449734  0.120733  1
  Br  Br17  1  0.132400  0.206231  0.206188  1
  Br  Br18  1  0.284337  0.604490  0.254994  1
  Br  Br19  1  0.419924  0.980599  0.311235  1
  Br  Br20  1  0.715459  0.745662  0.396361  1
  Br  Br21  1  0.856526  0.120721  0.449743  1
  Br  Br22  1  0.999672  0.500299  0.500389  1
  Br  Br23  1  0.143152  0.879585  0.548332  1
  Br  Br24  1  0.284298  0.255003  0.604511  1
  Br  Br25  1  0.580068  0.021887  0.684908  1
  Br  Br26  1  0.715447  0.396353  0.745624  1
  Br  Br27  1  0.867772  0.793087  0.792983  1
  Br  Br28  1  0.143181  0.548300  0.879626  1
  Br  Br29  1  0.287383  0.931088  0.931108  1
  Br  Br30  1  0.419920  0.311296  0.980649  1
