# generated using pymatgen
data_Dy3Er4LuIn3Co
_symmetry_space_group_name_H-M   'P 1'
_cell_length_a   10.28670212
_cell_length_b   10.28670244
_cell_length_c   6.96945300
_cell_angle_alpha   90.00326457
_cell_angle_beta   89.99673429
_cell_angle_gamma   120.01748421
_symmetry_Int_Tables_number   1
_chemical_formula_structural   Dy3Er4LuIn3Co
_chemical_formula_sum   'Dy6 Er8 Lu2 In6 Co2'
_cell_volume   638.56501903
_cell_formula_units_Z   2
loop_
 _symmetry_equiv_pos_site_id
 _symmetry_equiv_pos_as_xyz
  1  'x, y, z'
loop_
 _atom_site_type_symbol
 _atom_site_label
 _atom_site_symmetry_multiplicity
 _atom_site_fract_x
 _atom_site_fract_y
 _atom_site_fract_z
 _atom_site_occupancy
  Dy  Dy0  1  0.534084  0.069057  0.790528  1
  Dy  Dy1  1  0.930943  0.465916  0.790528  1
  Dy  Dy2  1  0.534562  0.465438  0.790125  1
  Dy  Dy3  1  0.465325  0.931265  0.291455  1
  Dy  Dy4  1  0.068735  0.534675  0.291455  1
  Dy  Dy5  1  0.465866  0.534134  0.291613  1
  Er  Er6  1  0.821868  0.178132  0.499159  1
  Er  Er7  1  0.178218  0.356511  0.999084  1
  Er  Er8  1  0.643489  0.821782  0.999084  1
  Er  Er9  1  0.178214  0.821786  0.998899  1
  Er  Er10  1  0.666403  0.333597  0.184151  1
  Er  Er11  1  0.333331  0.666669  0.682775  1
  Er  Er12  1  0.000246  0.999754  0.778535  1
  Er  Er13  1  0.000153  0.999847  0.280286  1
  Lu  Lu14  1  0.821640  0.643136  0.498965  1
  Lu  Lu15  1  0.356864  0.178360  0.498965  1
  In  In16  1  0.837115  0.674333  0.040340  1
  In  In17  1  0.325667  0.162885  0.040340  1
  In  In18  1  0.837046  0.162954  0.038932  1
  In  In19  1  0.163434  0.324861  0.538693  1
  In  In20  1  0.675139  0.836566  0.538693  1
  In  In21  1  0.162127  0.837873  0.538835  1
  Co  Co22  1  0.666225  0.333775  0.567060  1
  Co  Co23  1  0.333307  0.666693  0.067397  1
