# generated using pymatgen
data_Ho2U3Co19P12
_symmetry_space_group_name_H-M   'P 1'
_cell_length_a   11.97939400
_cell_length_b   11.97939491
_cell_length_c   3.67502300
_cell_angle_alpha   90.00000000
_cell_angle_beta   90.00000000
_cell_angle_gamma   120.00000301
_symmetry_Int_Tables_number   1
_chemical_formula_structural   Ho2U3Co19P12
_chemical_formula_sum   'Ho2 U3 Co19 P12'
_cell_volume   456.73091718
_cell_formula_units_Z   1
loop_
 _symmetry_equiv_pos_site_id
 _symmetry_equiv_pos_as_xyz
  1  'x, y, z'
loop_
 _atom_site_type_symbol
 _atom_site_label
 _atom_site_symmetry_multiplicity
 _atom_site_fract_x
 _atom_site_fract_y
 _atom_site_fract_z
 _atom_site_occupancy
  Ho  Ho0  1  0.666667  0.333333  0.000000  1
  Ho  Ho1  1  0.333333  0.666667  0.000000  1
  U  U2  1  0.814998  0.814998  0.500000  1
  U  U3  1  0.185002  0.000000  0.500000  1
  U  U4  1  0.000000  0.185002  0.500000  1
  Co  Co5  1  0.875268  0.358507  0.500000  1
  Co  Co6  1  0.641493  0.516762  0.500000  1
  Co  Co7  1  0.483238  0.124732  0.500000  1
  Co  Co8  1  0.358507  0.875268  0.500000  1
  Co  Co9  1  0.516762  0.641493  0.500000  1
  Co  Co10  1  0.124732  0.483238  0.500000  1
  Co  Co11  1  0.446882  0.446882  0.000000  1
  Co  Co12  1  0.553118  0.000000  0.000000  1
  Co  Co13  1  0.000000  0.553118  0.000000  1
  Co  Co14  1  0.802090  0.179465  0.000000  1
  Co  Co15  1  0.820535  0.622624  0.000000  1
  Co  Co16  1  0.377376  0.197910  0.000000  1
  Co  Co17  1  0.179465  0.802090  0.000000  1
  Co  Co18  1  0.622624  0.820535  0.000000  1
  Co  Co19  1  0.197910  0.377376  0.000000  1
  Co  Co20  1  0.286462  0.286462  0.500000  1
  Co  Co21  1  0.713538  0.000000  0.500000  1
  Co  Co22  1  0.000000  0.713538  0.500000  1
  Co  Co23  1  0.000000  0.000000  0.000000  1
  P  P24  1  0.685832  0.167028  0.500000  1
  P  P25  1  0.832972  0.518804  0.500000  1
  P  P26  1  0.481196  0.314168  0.500000  1
  P  P27  1  0.167028  0.685832  0.500000  1
  P  P28  1  0.518804  0.832972  0.500000  1
  P  P29  1  0.314168  0.481196  0.500000  1
  P  P30  1  0.183604  0.183604  0.000000  1
  P  P31  1  0.816396  0.000000  0.000000  1
  P  P32  1  0.000000  0.816396  0.000000  1
  P  P33  1  0.632199  0.632199  0.000000  1
  P  P34  1  0.367801  0.000000  0.000000  1
  P  P35  1  0.000000  0.367801  0.000000  1
