# generated using pymatgen
data_Cs2CrFeS4
_symmetry_space_group_name_H-M   'P 1'
_cell_length_a   7.33508517
_cell_length_b   7.33508527
_cell_length_c   5.37946947
_cell_angle_alpha   79.56984928
_cell_angle_beta   79.56984280
_cell_angle_gamma   117.66677642
_symmetry_Int_Tables_number   1
_chemical_formula_structural   Cs2CrFeS4
_chemical_formula_sum   'Cs2 Cr1 Fe1 S4'
_cell_volume   240.14564127
_cell_formula_units_Z   1
loop_
 _symmetry_equiv_pos_site_id
 _symmetry_equiv_pos_as_xyz
  1  'x, y, z'
loop_
 _atom_site_type_symbol
 _atom_site_label
 _atom_site_symmetry_multiplicity
 _atom_site_fract_x
 _atom_site_fract_y
 _atom_site_fract_z
 _atom_site_occupancy
  Cs  Cs0  1  0.147289  0.852711  0.000000  1
  Cs  Cs1  1  0.852965  0.147035  0.500000  1
  Cr  Cr2  1  0.498673  0.501327  0.500000  1
  Fe  Fe3  1  0.501359  0.498641  0.000000  1
  S  S4  1  0.226935  0.422486  0.831379  1
  S  S5  1  0.577514  0.773065  0.168621  1
  S  S6  1  0.773196  0.577930  0.652109  1
  S  S7  1  0.422070  0.226804  0.347891  1
