# generated using pymatgen
data_Y4Ho4MoOs3C8
_symmetry_space_group_name_H-M   'P 1'
_cell_length_a   5.10938300
_cell_length_b   6.54467308
_cell_length_c   9.81032986
_cell_angle_alpha   89.62256289
_cell_angle_beta   90.00000000
_cell_angle_gamma   90.00000000
_symmetry_Int_Tables_number   1
_chemical_formula_structural   Y4Ho4MoOs3C8
_chemical_formula_sum   'Y4 Ho4 Mo1 Os3 C8'
_cell_volume   328.04286993
_cell_formula_units_Z   1
loop_
 _symmetry_equiv_pos_site_id
 _symmetry_equiv_pos_as_xyz
  1  'x, y, z'
loop_
 _atom_site_type_symbol
 _atom_site_label
 _atom_site_symmetry_multiplicity
 _atom_site_fract_x
 _atom_site_fract_y
 _atom_site_fract_z
 _atom_site_occupancy
  Y  Y0  1  0.250000  0.531164  0.214215  1
  Y  Y1  1  0.750000  0.468246  0.781140  1
  Y  Y2  1  0.750000  0.971727  0.716236  1
  Y  Y3  1  0.250000  0.029497  0.285277  1
  Ho  Ho4  1  0.250000  0.679915  0.554710  1
  Ho  Ho5  1  0.750000  0.321217  0.444573  1
  Ho  Ho6  1  0.750000  0.823112  0.055834  1
  Ho  Ho7  1  0.250000  0.180889  0.944349  1
  Mo  Mo8  1  0.250000  0.723157  0.866959  1
  Os  Os9  1  0.750000  0.276741  0.135901  1
  Os  Os10  1  0.750000  0.775081  0.363846  1
  Os  Os11  1  0.250000  0.225253  0.632976  1
  C  C12  1  0.250000  0.454233  0.758730  1
  C  C13  1  0.750000  0.540520  0.242159  1
  C  C14  1  0.750000  0.041554  0.259249  1
  C  C15  1  0.250000  0.960439  0.739354  1
  C  C16  1  0.250000  0.825749  0.055405  1
  C  C17  1  0.750000  0.173985  0.951237  1
  C  C18  1  0.750000  0.672669  0.549861  1
  C  C19  1  0.250000  0.324850  0.447989  1
