# generated using pymatgen
data_KRb3SnBr6
_symmetry_space_group_name_H-M   'P 1'
_cell_length_a   9.45893002
_cell_length_b   9.45893103
_cell_length_c   9.45893100
_cell_angle_alpha   90.81759645
_cell_angle_beta   90.81759653
_cell_angle_gamma   90.81759711
_symmetry_Int_Tables_number   1
_chemical_formula_structural   KRb3SnBr6
_chemical_formula_sum   'K2 Rb6 Sn2 Br12'
_cell_volume   846.04250921
_cell_formula_units_Z   2
loop_
 _symmetry_equiv_pos_site_id
 _symmetry_equiv_pos_as_xyz
  1  'x, y, z'
loop_
 _atom_site_type_symbol
 _atom_site_label
 _atom_site_symmetry_multiplicity
 _atom_site_fract_x
 _atom_site_fract_y
 _atom_site_fract_z
 _atom_site_occupancy
  K  K0  1  0.250000  0.250000  0.250000  1
  K  K1  1  0.750000  0.750000  0.750000  1
  Rb  Rb2  1  0.370890  0.129110  0.750000  1
  Rb  Rb3  1  0.129110  0.750000  0.370890  1
  Rb  Rb4  1  0.750000  0.370890  0.129110  1
  Rb  Rb5  1  0.629110  0.870890  0.250000  1
  Rb  Rb6  1  0.250000  0.629110  0.870890  1
  Rb  Rb7  1  0.870890  0.250000  0.629110  1
  Sn  Sn8  1  0.000000  0.000000  0.000000  1
  Sn  Sn9  1  0.500000  0.500000  0.500000  1
  Br  Br10  1  0.946764  0.078310  0.302370  1
  Br  Br11  1  0.078310  0.302370  0.946764  1
  Br  Br12  1  0.302370  0.946764  0.078310  1
  Br  Br13  1  0.578310  0.446764  0.802370  1
  Br  Br14  1  0.802370  0.578310  0.446764  1
  Br  Br15  1  0.446764  0.802370  0.578310  1
  Br  Br16  1  0.197630  0.421690  0.553236  1
  Br  Br17  1  0.421690  0.553236  0.197630  1
  Br  Br18  1  0.553236  0.197630  0.421690  1
  Br  Br19  1  0.921690  0.697630  0.053236  1
  Br  Br20  1  0.053236  0.921690  0.697630  1
  Br  Br21  1  0.697630  0.053236  0.921690  1
