# generated using pymatgen
data_TmZr3(Al3Ir)6
_symmetry_space_group_name_H-M   'P 1'
_cell_length_a   7.48766502
_cell_length_b   7.48078741
_cell_length_c   9.30277800
_cell_angle_alpha   90.00000000
_cell_angle_beta   90.00000000
_cell_angle_gamma   119.80228686
_symmetry_Int_Tables_number   1
_chemical_formula_structural   TmZr3(Al3Ir)6
_chemical_formula_sum   'Tm1 Zr3 Al18 Ir6'
_cell_volume   452.16693982
_cell_formula_units_Z   1
loop_
 _symmetry_equiv_pos_site_id
 _symmetry_equiv_pos_as_xyz
  1  'x, y, z'
loop_
 _atom_site_type_symbol
 _atom_site_label
 _atom_site_symmetry_multiplicity
 _atom_site_fract_x
 _atom_site_fract_y
 _atom_site_fract_z
 _atom_site_occupancy
  Tm  Tm0  1  0.329287  0.005450  0.750000  1
  Zr  Zr1  1  0.994599  0.671510  0.250000  1
  Zr  Zr2  1  0.005531  0.329615  0.750000  1
  Zr  Zr3  1  0.671177  0.994464  0.250000  1
  Al  Al4  1  0.123216  0.124165  0.250000  1
  Al  Al5  1  0.872710  0.875554  0.750000  1
  Al  Al6  1  0.997856  0.334450  0.076604  1
  Al  Al7  1  0.000111  0.663276  0.925036  1
  Al  Al8  1  0.000111  0.663276  0.574964  1
  Al  Al9  1  0.334746  0.998416  0.420798  1
  Al  Al10  1  0.997856  0.334450  0.423396  1
  Al  Al11  1  0.667578  0.001969  0.575019  1
  Al  Al12  1  0.667578  0.001969  0.924981  1
  Al  Al13  1  0.334746  0.998416  0.079202  1
  Al  Al14  1  0.331436  0.333354  0.556876  1
  Al  Al15  1  0.668121  0.668046  0.440637  1
  Al  Al16  1  0.668121  0.668046  0.059363  1
  Al  Al17  1  0.331436  0.333354  0.943124  1
  Al  Al18  1  0.338442  0.552259  0.250000  1
  Al  Al19  1  0.665277  0.451733  0.750000  1
  Al  Al20  1  0.553173  0.339306  0.250000  1
  Al  Al21  1  0.447314  0.657519  0.750000  1
  Ir  Ir22  1  0.672188  0.327556  0.000851  1
  Ir  Ir23  1  0.328095  0.673253  0.001179  1
  Ir  Ir24  1  0.328095  0.673253  0.498821  1
  Ir  Ir25  1  0.672188  0.327556  0.499149  1
  Ir  Ir26  1  0.999505  0.998889  0.001030  1
  Ir  Ir27  1  0.999505  0.998889  0.498970  1
