# generated using pymatgen
data_Tb2VFe2P6Rh7
_symmetry_space_group_name_H-M   'P 1'
_cell_length_a   3.85436400
_cell_length_b   10.71093400
_cell_length_c   12.46818700
_cell_angle_alpha   90.00000000
_cell_angle_beta   90.00000000
_cell_angle_gamma   90.00000000
_symmetry_Int_Tables_number   1
_chemical_formula_structural   Tb2VFe2P6Rh7
_chemical_formula_sum   'Tb4 V2 Fe4 P12 Rh14'
_cell_volume   514.73461745
_cell_formula_units_Z   2
loop_
 _symmetry_equiv_pos_site_id
 _symmetry_equiv_pos_as_xyz
  1  'x, y, z'
loop_
 _atom_site_type_symbol
 _atom_site_label
 _atom_site_symmetry_multiplicity
 _atom_site_fract_x
 _atom_site_fract_y
 _atom_site_fract_z
 _atom_site_occupancy
  Tb  Tb0  1  0.250000  0.584910  0.709386  1
  Tb  Tb1  1  0.250000  0.915090  0.209386  1
  Tb  Tb2  1  0.750000  0.422865  0.292461  1
  Tb  Tb3  1  0.750000  0.077135  0.792461  1
  V  V4  1  0.250000  0.701637  0.986648  1
  V  V5  1  0.250000  0.798363  0.486648  1
  Fe  Fe6  1  0.250000  0.460341  0.935864  1
  Fe  Fe7  1  0.250000  0.039659  0.435864  1
  Fe  Fe8  1  0.750000  0.534313  0.063222  1
  Fe  Fe9  1  0.750000  0.965687  0.563222  1
  P  P10  1  0.250000  0.429525  0.107768  1
  P  P11  1  0.250000  0.070475  0.607768  1
  P  P12  1  0.750000  0.573281  0.893709  1
  P  P13  1  0.750000  0.926719  0.393709  1
  P  P14  1  0.250000  0.267712  0.868710  1
  P  P15  1  0.250000  0.232288  0.368710  1
  P  P16  1  0.750000  0.726661  0.129004  1
  P  P17  1  0.750000  0.773339  0.629004  1
  P  P18  1  0.250000  0.603637  0.390752  1
  P  P19  1  0.250000  0.896363  0.890752  1
  P  P20  1  0.750000  0.401453  0.610396  1
  P  P21  1  0.750000  0.098547  0.110396  1
  Rh  Rh22  1  0.750000  0.287738  0.011288  1
  Rh  Rh23  1  0.750000  0.212262  0.511288  1
  Rh  Rh24  1  0.250000  0.407187  0.484326  1
  Rh  Rh25  1  0.250000  0.092813  0.984326  1
  Rh  Rh26  1  0.750000  0.596747  0.517859  1
  Rh  Rh27  1  0.750000  0.903253  0.017859  1
  Rh  Rh28  1  0.250000  0.231832  0.176967  1
  Rh  Rh29  1  0.250000  0.268168  0.676967  1
  Rh  Rh30  1  0.750000  0.770579  0.824379  1
  Rh  Rh31  1  0.750000  0.729421  0.324379  1
  Rh  Rh32  1  0.250000  0.881502  0.697935  1
  Rh  Rh33  1  0.250000  0.618498  0.197935  1
  Rh  Rh34  1  0.750000  0.115124  0.299327  1
  Rh  Rh35  1  0.750000  0.384876  0.799327  1
