# generated using pymatgen
data_TbHo3Hf3O12
_symmetry_space_group_name_H-M   'P 1'
_cell_length_a   6.32157058
_cell_length_b   6.36621555
_cell_length_c   6.57516583
_cell_angle_alpha   99.94437037
_cell_angle_beta   98.15543359
_cell_angle_gamma   99.77132633
_symmetry_Int_Tables_number   1
_chemical_formula_structural   TbHo3Hf3O12
_chemical_formula_sum   'Tb1 Ho3 Hf3 O12'
_cell_volume   252.83247120
_cell_formula_units_Z   1
loop_
 _symmetry_equiv_pos_site_id
 _symmetry_equiv_pos_as_xyz
  1  'x, y, z'
loop_
 _atom_site_type_symbol
 _atom_site_label
 _atom_site_symmetry_multiplicity
 _atom_site_fract_x
 _atom_site_fract_y
 _atom_site_fract_z
 _atom_site_occupancy
  Tb  Tb0  1  0.386224  0.699052  0.866507  1
  Ho  Ho1  1  0.696368  0.865166  0.389673  1
  Ho  Ho2  1  0.614181  0.300417  0.134011  1
  Ho  Ho3  1  0.304129  0.134870  0.610182  1
  Hf  Hf4  1  0.000181  0.000718  0.000338  1
  Hf  Hf5  1  0.848436  0.396934  0.667887  1
  Hf  Hf6  1  0.150923  0.602382  0.331291  1
  O  O7  1  0.018901  0.678968  0.879860  1
  O  O8  1  0.687422  0.934927  0.061122  1
  O  O9  1  0.919827  0.087628  0.698410  1
  O  O10  1  0.978793  0.321730  0.119647  1
  O  O11  1  0.313683  0.068405  0.941022  1
  O  O12  1  0.080343  0.912153  0.301200  1
  O  O13  1  0.591129  0.189999  0.435386  1
  O  O14  1  0.169175  0.427491  0.571642  1
  O  O15  1  0.413541  0.581250  0.182163  1
  O  O16  1  0.408718  0.811089  0.562686  1
  O  O17  1  0.830293  0.571825  0.427264  1
  O  O18  1  0.587735  0.414994  0.819711  1
