# generated using pymatgen
data_Ho4TmCo16(P4W)3
_symmetry_space_group_name_H-M   'P 1'
_cell_length_a   12.04711017
_cell_length_b   12.04711148
_cell_length_c   3.69523200
_cell_angle_alpha   90.00000000
_cell_angle_beta   90.00000000
_cell_angle_gamma   119.98138474
_symmetry_Int_Tables_number   1
_chemical_formula_structural   Ho4TmCo16(P4W)3
_chemical_formula_sum   'Ho4 Tm1 Co16 P12 W3'
_cell_volume   464.53622623
_cell_formula_units_Z   1
loop_
 _symmetry_equiv_pos_site_id
 _symmetry_equiv_pos_as_xyz
  1  'x, y, z'
loop_
 _atom_site_type_symbol
 _atom_site_label
 _atom_site_symmetry_multiplicity
 _atom_site_fract_x
 _atom_site_fract_y
 _atom_site_fract_z
 _atom_site_occupancy
  Ho  Ho0  1  0.666701  0.333326  0.000000  1
  Ho  Ho1  1  0.333326  0.666701  0.000000  1
  Ho  Ho2  1  0.184820  0.999986  0.500000  1
  Ho  Ho3  1  0.999986  0.184820  0.500000  1
  Tm  Tm4  1  0.815046  0.815046  0.500000  1
  Co  Co5  1  0.872834  0.355461  0.500000  1
  Co  Co6  1  0.644665  0.517637  0.500000  1
  Co  Co7  1  0.482913  0.127199  0.500000  1
  Co  Co8  1  0.355461  0.872834  0.500000  1
  Co  Co9  1  0.517637  0.644665  0.500000  1
  Co  Co10  1  0.127199  0.482913  0.500000  1
  Co  Co11  1  0.801471  0.176391  0.000000  1
  Co  Co12  1  0.823032  0.625385  0.000000  1
  Co  Co13  1  0.375311  0.198594  0.000000  1
  Co  Co14  1  0.176391  0.801471  0.000000  1
  Co  Co15  1  0.625385  0.823032  0.000000  1
  Co  Co16  1  0.198594  0.375311  0.000000  1
  Co  Co17  1  0.281185  0.281185  0.500000  1
  Co  Co18  1  0.718969  0.999415  0.500000  1
  Co  Co19  1  0.999415  0.718969  0.500000  1
  Co  Co20  1  0.999711  0.999711  0.000000  1
  P  P21  1  0.686121  0.165746  0.500000  1
  P  P22  1  0.833872  0.519984  0.500000  1
  P  P23  1  0.480114  0.314127  0.500000  1
  P  P24  1  0.165746  0.686121  0.500000  1
  P  P25  1  0.519984  0.833872  0.500000  1
  P  P26  1  0.314127  0.480114  0.500000  1
  P  P27  1  0.177663  0.177663  0.000000  1
  P  P28  1  0.822240  0.999206  0.000000  1
  P  P29  1  0.999206  0.822240  0.000000  1
  P  P30  1  0.641402  0.641402  0.000000  1
  P  P31  1  0.359301  0.000011  0.000000  1
  P  P32  1  0.000011  0.359301  0.000000  1
  W  W33  1  0.446804  0.446804  0.000000  1
  W  W34  1  0.553741  0.999621  0.000000  1
  W  W35  1  0.999621  0.553741  0.000000  1
