# generated using pymatgen
data_Tm3Lu5(Re3Si4)4
_symmetry_space_group_name_H-M   'P 1'
_cell_length_a   6.73449306
_cell_length_b   6.73386613
_cell_length_c   12.66829033
_cell_angle_alpha   90.02188627
_cell_angle_beta   89.98577532
_cell_angle_gamma   89.99414772
_symmetry_Int_Tables_number   1
_chemical_formula_structural   Tm3Lu5(Re3Si4)4
_chemical_formula_sum   'Tm3 Lu5 Re12 Si16'
_cell_volume   574.49644909
_cell_formula_units_Z   1
loop_
 _symmetry_equiv_pos_site_id
 _symmetry_equiv_pos_as_xyz
  1  'x, y, z'
loop_
 _atom_site_type_symbol
 _atom_site_label
 _atom_site_symmetry_multiplicity
 _atom_site_fract_x
 _atom_site_fract_y
 _atom_site_fract_z
 _atom_site_occupancy
  Tm  Tm0  1  0.006946  0.661060  0.030670  1
  Tm  Tm1  1  0.992941  0.339041  0.530771  1
  Tm  Tm2  1  0.339047  0.992924  0.469268  1
  Lu  Lu3  1  0.160489  0.492828  0.780667  1
  Lu  Lu4  1  0.839493  0.507148  0.280413  1
  Lu  Lu5  1  0.492911  0.160493  0.219379  1
  Lu  Lu6  1  0.507215  0.839505  0.719649  1
  Lu  Lu7  1  0.660318  0.007196  0.969399  1
  Re  Re8  1  0.666909  0.666918  0.500001  1
  Re  Re9  1  0.166978  0.833204  0.249898  1
  Re  Re10  1  0.333460  0.332644  0.999917  1
  Re  Re11  1  0.021373  0.813099  0.631665  1
  Re  Re12  1  0.978213  0.186682  0.131305  1
  Re  Re13  1  0.812839  0.021417  0.368328  1
  Re  Re14  1  0.313757  0.479562  0.381124  1
  Re  Re15  1  0.686156  0.521038  0.881179  1
  Re  Re16  1  0.479837  0.313775  0.619049  1
  Re  Re17  1  0.520840  0.686677  0.118441  1
  Re  Re18  1  0.187270  0.978408  0.868374  1
  Re  Re19  1  0.832961  0.166723  0.750542  1
  Si  Si20  1  0.022029  0.725761  0.437744  1
  Si  Si21  1  0.615678  0.306122  0.433052  1
  Si  Si22  1  0.384436  0.694264  0.933003  1
  Si  Si23  1  0.194695  0.115826  0.683655  1
  Si  Si24  1  0.306173  0.615704  0.567002  1
  Si  Si25  1  0.693720  0.383849  0.066711  1
  Si  Si26  1  0.805267  0.884274  0.183319  1
  Si  Si27  1  0.115745  0.194547  0.316306  1
  Si  Si28  1  0.977347  0.273774  0.937754  1
  Si  Si29  1  0.725700  0.022001  0.562267  1
  Si  Si30  1  0.225649  0.477075  0.188004  1
  Si  Si31  1  0.774649  0.523036  0.688220  1
  Si  Si32  1  0.477242  0.225059  0.812326  1
  Si  Si33  1  0.522893  0.774487  0.311742  1
  Si  Si34  1  0.274937  0.977912  0.062085  1
  Si  Si35  1  0.883888  0.805970  0.816772  1
