# generated using pymatgen
data_Tb3YMnAl18Pd5
_symmetry_space_group_name_H-M   'P 1'
_cell_length_a   7.61560231
_cell_length_b   7.61577115
_cell_length_c   9.51016566
_cell_angle_alpha   89.97248934
_cell_angle_beta   89.97295759
_cell_angle_gamma   119.56754950
_symmetry_Int_Tables_number   1
_chemical_formula_structural   Tb3YMnAl18Pd5
_chemical_formula_sum   'Tb3 Y1 Mn1 Al18 Pd5'
_cell_volume   479.74750211
_cell_formula_units_Z   1
loop_
 _symmetry_equiv_pos_site_id
 _symmetry_equiv_pos_as_xyz
  1  'x, y, z'
loop_
 _atom_site_type_symbol
 _atom_site_label
 _atom_site_symmetry_multiplicity
 _atom_site_fract_x
 _atom_site_fract_y
 _atom_site_fract_z
 _atom_site_occupancy
  Tb  Tb0  1  0.994987  0.669815  0.248482  1
  Tb  Tb1  1  0.005043  0.330151  0.751501  1
  Tb  Tb2  1  0.669800  0.994963  0.248505  1
  Y  Y3  1  0.330146  0.005025  0.751557  1
  Mn  Mn4  1  0.000005  0.000015  0.999992  1
  Al  Al5  1  0.124477  0.124459  0.241530  1
  Al  Al6  1  0.875599  0.875599  0.758459  1
  Al  Al7  1  0.999312  0.323784  0.071514  1
  Al  Al8  1  0.000773  0.676306  0.928455  1
  Al  Al9  1  0.998089  0.664815  0.577855  1
  Al  Al10  1  0.335217  0.001922  0.422131  1
  Al  Al11  1  0.001943  0.335232  0.422141  1
  Al  Al12  1  0.664734  0.998048  0.577863  1
  Al  Al13  1  0.676168  0.000695  0.928480  1
  Al  Al14  1  0.323778  0.999294  0.071476  1
  Al  Al15  1  0.334249  0.334229  0.557349  1
  Al  Al16  1  0.665750  0.665750  0.442669  1
  Al  Al17  1  0.676541  0.676540  0.051505  1
  Al  Al18  1  0.323454  0.323384  0.948463  1
  Al  Al19  1  0.340065  0.545718  0.248370  1
  Al  Al20  1  0.659968  0.454280  0.751625  1
  Al  Al21  1  0.545712  0.340052  0.248376  1
  Al  Al22  1  0.454266  0.659924  0.751622  1
  Pd  Pd23  1  0.671963  0.327946  0.999953  1
  Pd  Pd24  1  0.327996  0.672049  0.999958  1
  Pd  Pd25  1  0.327846  0.672209  0.500052  1
  Pd  Pd26  1  0.672081  0.327787  0.500063  1
  Pd  Pd27  1  0.000040  0.000009  0.500053  1
