# generated using pymatgen
data_Eu3YAl18(PdPt)3
_symmetry_space_group_name_H-M   'P 1'
_cell_length_a   7.67718511
_cell_length_b   7.67896139
_cell_length_c   9.56890023
_cell_angle_alpha   89.97872763
_cell_angle_beta   90.00220994
_cell_angle_gamma   119.59611271
_symmetry_Int_Tables_number   1
_chemical_formula_structural   Eu3YAl18(PdPt)3
_chemical_formula_sum   'Eu3 Y1 Al18 Pd3 Pt3'
_cell_volume   490.51272449
_cell_formula_units_Z   1
loop_
 _symmetry_equiv_pos_site_id
 _symmetry_equiv_pos_as_xyz
  1  'x, y, z'
loop_
 _atom_site_type_symbol
 _atom_site_label
 _atom_site_symmetry_multiplicity
 _atom_site_fract_x
 _atom_site_fract_y
 _atom_site_fract_z
 _atom_site_occupancy
  Eu  Eu0  1  0.995272  0.668731  0.249933  1
  Eu  Eu1  1  0.004506  0.331670  0.749673  1
  Eu  Eu2  1  0.670286  0.996344  0.250021  1
  Y  Y3  1  0.330276  0.003342  0.750060  1
  Al  Al4  1  0.131509  0.130770  0.249881  1
  Al  Al5  1  0.871463  0.869984  0.750183  1
  Al  Al6  1  0.000902  0.334778  0.074963  1
  Al  Al7  1  0.998913  0.665281  0.923644  1
  Al  Al8  1  0.999270  0.665795  0.576596  1
  Al  Al9  1  0.334427  0.000423  0.424757  1
  Al  Al10  1  0.001459  0.334686  0.424592  1
  Al  Al11  1  0.665148  0.999135  0.576965  1
  Al  Al12  1  0.665338  0.999812  0.923307  1
  Al  Al13  1  0.334631  0.000353  0.075145  1
  Al  Al14  1  0.333037  0.332498  0.557649  1
  Al  Al15  1  0.666464  0.666420  0.445705  1
  Al  Al16  1  0.666282  0.666572  0.054014  1
  Al  Al17  1  0.332646  0.332498  0.942767  1
  Al  Al18  1  0.341018  0.546540  0.249938  1
  Al  Al19  1  0.657794  0.452948  0.749799  1
  Al  Al20  1  0.544668  0.340293  0.250132  1
  Al  Al21  1  0.455747  0.661931  0.750084  1
  Pd  Pd22  1  0.669017  0.327608  0.501774  1
  Pd  Pd23  1  0.001741  0.000462  0.998078  1
  Pd  Pd24  1  0.001921  0.000321  0.501963  1
  Pt  Pt25  1  0.668946  0.327578  0.998596  1
  Pt  Pt26  1  0.328498  0.671762  0.998029  1
  Pt  Pt27  1  0.328825  0.671463  0.501753  1
