# generated using pymatgen
data_Yb2B(Pd2Pt)2
_symmetry_space_group_name_H-M   'P 1'
_cell_length_a   5.89485102
_cell_length_b   5.89485051
_cell_length_c   5.85989900
_cell_angle_alpha   60.19593638
_cell_angle_beta   60.19593922
_cell_angle_gamma   59.39832654
_symmetry_Int_Tables_number   1
_chemical_formula_structural   Yb2B(Pd2Pt)2
_chemical_formula_sum   'Yb2 B1 Pd4 Pt2'
_cell_volume   143.73925427
_cell_formula_units_Z   1
loop_
 _symmetry_equiv_pos_site_id
 _symmetry_equiv_pos_as_xyz
  1  'x, y, z'
loop_
 _atom_site_type_symbol
 _atom_site_label
 _atom_site_symmetry_multiplicity
 _atom_site_fract_x
 _atom_site_fract_y
 _atom_site_fract_z
 _atom_site_occupancy
  Yb  Yb0  1  0.249752  0.249752  0.249360  1
  Yb  Yb1  1  0.750248  0.750248  0.748864  1
  B  B2  1  0.000000  0.000000  0.005962  1
  Pd  Pd3  1  0.743377  0.743377  0.255038  1
  Pd  Pd4  1  0.256623  0.256623  0.741791  1
  Pd  Pd5  1  0.745363  0.254637  0.743725  1
  Pd  Pd6  1  0.254637  0.745363  0.743725  1
  Pt  Pt7  1  0.741704  0.258296  0.255767  1
  Pt  Pt8  1  0.258296  0.741704  0.255767  1
