# generated using pymatgen
data_PrDy4(TcB3)2
_symmetry_space_group_name_H-M   'P 1'
_cell_length_a   5.52520965
_cell_length_b   5.52521186
_cell_length_c   8.68397744
_cell_angle_alpha   71.45032411
_cell_angle_beta   71.45031448
_cell_angle_gamma   59.99998940
_symmetry_Int_Tables_number   1
_chemical_formula_structural   PrDy4(TcB3)2
_chemical_formula_sum   'Pr1 Dy4 Tc2 B6'
_cell_volume   213.53555410
_cell_formula_units_Z   1
loop_
 _symmetry_equiv_pos_site_id
 _symmetry_equiv_pos_as_xyz
  1  'x, y, z'
loop_
 _atom_site_type_symbol
 _atom_site_label
 _atom_site_symmetry_multiplicity
 _atom_site_fract_x
 _atom_site_fract_y
 _atom_site_fract_z
 _atom_site_occupancy
  Pr  Pr0  1  0.000000  0.000000  0.000000  1
  Dy  Dy1  1  0.245861  0.245861  0.262416  1
  Dy  Dy2  1  0.754139  0.754139  0.737584  1
  Dy  Dy3  1  0.420753  0.420753  0.737742  1
  Dy  Dy4  1  0.579247  0.579247  0.262258  1
  Tc  Tc5  1  0.112316  0.112316  0.663051  1
  Tc  Tc6  1  0.887684  0.887684  0.336949  1
  B  B7  1  0.170448  0.829552  0.500000  1
  B  B8  1  0.829552  0.500000  0.500000  1
  B  B9  1  0.500000  0.170448  0.500000  1
  B  B10  1  0.170448  0.500000  0.500000  1
  B  B11  1  0.500000  0.829552  0.500000  1
  B  B12  1  0.829552  0.170448  0.500000  1
