# generated using pymatgen
data_Ca4La2NbSbO12
_symmetry_space_group_name_H-M   'P 1'
_cell_length_a   5.95554632
_cell_length_b   5.70570280
_cell_length_c   10.04615952
_cell_angle_alpha   55.47514249
_cell_angle_beta   89.42921296
_cell_angle_gamma   89.72159054
_symmetry_Int_Tables_number   1
_chemical_formula_structural   Ca4La2NbSbO12
_chemical_formula_sum   'Ca4 La2 Nb1 Sb1 O12'
_cell_volume   281.23750287
_cell_formula_units_Z   1
loop_
 _symmetry_equiv_pos_site_id
 _symmetry_equiv_pos_as_xyz
  1  'x, y, z'
loop_
 _atom_site_type_symbol
 _atom_site_label
 _atom_site_symmetry_multiplicity
 _atom_site_fract_x
 _atom_site_fract_y
 _atom_site_fract_z
 _atom_site_occupancy
  Ca  Ca0  1  0.549969  0.273396  0.741638  1
  Ca  Ca1  1  0.450031  0.726604  0.258362  1
  Ca  Ca2  1  0.500000  0.500000  0.000000  1
  Ca  Ca3  1  0.000000  0.500000  0.500000  1
  La  La4  1  0.055992  0.731241  0.754406  1
  La  La5  1  0.944008  0.268759  0.245594  1
  Nb  Nb6  1  0.000000  0.000000  0.000000  1
  Sb  Sb7  1  0.500000  0.000000  0.500000  1
  O  O8  1  0.449730  0.892709  0.728530  1
  O  O9  1  0.550270  0.107291  0.271470  1
  O  O10  1  0.940095  0.117948  0.770529  1
  O  O11  1  0.059905  0.882052  0.229471  1
  O  O12  1  0.784334  0.760774  0.566188  1
  O  O13  1  0.215666  0.239226  0.433812  1
  O  O14  1  0.277035  0.252678  0.923307  1
  O  O15  1  0.722965  0.747322  0.076693  1
  O  O16  1  0.316013  0.659936  0.559246  1
  O  O17  1  0.683987  0.340064  0.440754  1
  O  O18  1  0.825379  0.340957  0.955970  1
  O  O19  1  0.174621  0.659043  0.044030  1
