# generated using pymatgen
data_K(SmB8)3
_symmetry_space_group_name_H-M   'P 1'
_cell_length_a   7.13182098
_cell_length_b   7.13182122
_cell_length_c   5.90072100
_cell_angle_alpha   90.00000000
_cell_angle_beta   90.00000000
_cell_angle_gamma   109.01255407
_symmetry_Int_Tables_number   1
_chemical_formula_structural   K(SmB8)3
_chemical_formula_sum   'K1 Sm3 B24'
_cell_volume   283.75482139
_cell_formula_units_Z   1
loop_
 _symmetry_equiv_pos_site_id
 _symmetry_equiv_pos_as_xyz
  1  'x, y, z'
loop_
 _atom_site_type_symbol
 _atom_site_label
 _atom_site_symmetry_multiplicity
 _atom_site_fract_x
 _atom_site_fract_y
 _atom_site_fract_z
 _atom_site_occupancy
  K  K0  1  0.000000  0.000000  0.000000  1
  Sm  Sm1  1  0.750807  0.249193  0.500000  1
  Sm  Sm2  1  0.500000  0.500000  0.000000  1
  Sm  Sm3  1  0.249193  0.750807  0.500000  1
  B  B4  1  0.175963  0.326159  0.649577  1
  B  B5  1  0.923436  0.574953  0.147923  1
  B  B6  1  0.673841  0.824037  0.649577  1
  B  B7  1  0.425047  0.076564  0.147923  1
  B  B8  1  0.175963  0.326159  0.350423  1
  B  B9  1  0.923436  0.574953  0.852077  1
  B  B10  1  0.673841  0.824037  0.350423  1
  B  B11  1  0.425047  0.076564  0.852077  1
  B  B12  1  0.400441  0.400441  0.500000  1
  B  B13  1  0.148478  0.651109  0.000000  1
  B  B14  1  0.898967  0.898967  0.500000  1
  B  B15  1  0.651109  0.148478  0.000000  1
  B  B16  1  0.326159  0.175963  0.649577  1
  B  B17  1  0.076564  0.425047  0.147923  1
  B  B18  1  0.824037  0.673841  0.649577  1
  B  B19  1  0.574953  0.923436  0.147923  1
  B  B20  1  0.101033  0.101033  0.500000  1
  B  B21  1  0.851522  0.348891  0.000000  1
  B  B22  1  0.599559  0.599559  0.500000  1
  B  B23  1  0.348891  0.851522  0.000000  1
  B  B24  1  0.326159  0.175963  0.350423  1
  B  B25  1  0.076564  0.425047  0.852077  1
  B  B26  1  0.824037  0.673841  0.350423  1
  B  B27  1  0.574953  0.923436  0.852077  1
