# generated using pymatgen
data_Nb2B6RuRh
_symmetry_space_group_name_H-M   'P 1'
_cell_length_a   9.38349400
_cell_length_b   9.38349479
_cell_length_c   3.10309500
_cell_angle_alpha   90.00000000
_cell_angle_beta   90.00000000
_cell_angle_gamma   159.41633030
_symmetry_Int_Tables_number   1
_chemical_formula_structural   Nb2B6RuRh
_chemical_formula_sum   'Nb2 B6 Ru1 Rh1'
_cell_volume   96.05988404
_cell_formula_units_Z   1
loop_
 _symmetry_equiv_pos_site_id
 _symmetry_equiv_pos_as_xyz
  1  'x, y, z'
loop_
 _atom_site_type_symbol
 _atom_site_label
 _atom_site_symmetry_multiplicity
 _atom_site_fract_x
 _atom_site_fract_y
 _atom_site_fract_z
 _atom_site_occupancy
  Nb  Nb0  1  0.073828  0.926171  0.250001  1
  Nb  Nb1  1  0.926383  0.073616  0.749999  1
  B  B2  1  0.677889  0.322110  0.250001  1
  B  B3  1  0.475490  0.524510  0.250001  1
  B  B4  1  0.375321  0.624678  0.250001  1
  B  B5  1  0.624220  0.375779  0.749999  1
  B  B6  1  0.524548  0.475452  0.749999  1
  B  B7  1  0.322415  0.677584  0.749999  1
  Ru  Ru8  1  0.797637  0.202363  0.250001  1
  Rh  Rh9  1  0.202265  0.797735  0.749999  1
