# generated using pymatgen
data_KNdTa6Cl18
_symmetry_space_group_name_H-M   'P 1'
_cell_length_a   10.25064435
_cell_length_b   10.25064353
_cell_length_c   10.25064285
_cell_angle_alpha   55.53775185
_cell_angle_beta   55.53775059
_cell_angle_gamma   55.53775331
_symmetry_Int_Tables_number   1
_chemical_formula_structural   KNdTa6Cl18
_chemical_formula_sum   'K1 Nd1 Ta6 Cl18'
_cell_volume   682.72500696
_cell_formula_units_Z   1
loop_
 _symmetry_equiv_pos_site_id
 _symmetry_equiv_pos_as_xyz
  1  'x, y, z'
loop_
 _atom_site_type_symbol
 _atom_site_label
 _atom_site_symmetry_multiplicity
 _atom_site_fract_x
 _atom_site_fract_y
 _atom_site_fract_z
 _atom_site_occupancy
  K  K0  1  0.221476  0.221476  0.221476  1
  Nd  Nd1  1  0.498780  0.498780  0.498780  1
  Ta  Ta2  1  0.803203  0.145698  0.914970  1
  Ta  Ta3  1  0.914970  0.803203  0.145698  1
  Ta  Ta4  1  0.145698  0.914970  0.803203  1
  Ta  Ta5  1  0.197540  0.854569  0.084314  1
  Ta  Ta6  1  0.084314  0.197540  0.854569  1
  Ta  Ta7  1  0.854569  0.084314  0.197540  1
  Cl  Cl8  1  0.863016  0.409983  0.729235  1
  Cl  Cl9  1  0.729235  0.863016  0.409983  1
  Cl  Cl10  1  0.409983  0.729235  0.863016  1
  Cl  Cl11  1  0.137000  0.588859  0.271592  1
  Cl  Cl12  1  0.271592  0.137000  0.588859  1
  Cl  Cl13  1  0.588859  0.271592  0.137000  1
  Cl  Cl14  1  0.537734  0.334123  0.811516  1
  Cl  Cl15  1  0.811516  0.537734  0.334123  1
  Cl  Cl16  1  0.334123  0.811516  0.537734  1
  Cl  Cl17  1  0.455897  0.666850  0.194065  1
  Cl  Cl18  1  0.194065  0.455897  0.666850  1
  Cl  Cl19  1  0.666850  0.194065  0.455897  1
  Cl  Cl20  1  0.663082  0.938027  0.072631  1
  Cl  Cl21  1  0.072631  0.663082  0.938027  1
  Cl  Cl22  1  0.938027  0.072631  0.663082  1
  Cl  Cl23  1  0.336984  0.062156  0.927838  1
  Cl  Cl24  1  0.927838  0.336984  0.062156  1
  Cl  Cl25  1  0.062156  0.927838  0.336984  1
