# generated using pymatgen
data_Th2MgSi2SnIr4
_symmetry_space_group_name_H-M   'P 1'
_cell_length_a   4.11387300
_cell_length_b   4.11363000
_cell_length_c   11.31083700
_cell_angle_alpha   90.00000000
_cell_angle_beta   90.00000000
_cell_angle_gamma   90.00000000
_symmetry_Int_Tables_number   1
_chemical_formula_structural   Th2MgSi2SnIr4
_chemical_formula_sum   'Th2 Mg1 Si2 Sn1 Ir4'
_cell_volume   191.41274472
_cell_formula_units_Z   1
loop_
 _symmetry_equiv_pos_site_id
 _symmetry_equiv_pos_as_xyz
  1  'x, y, z'
loop_
 _atom_site_type_symbol
 _atom_site_label
 _atom_site_symmetry_multiplicity
 _atom_site_fract_x
 _atom_site_fract_y
 _atom_site_fract_z
 _atom_site_occupancy
  Th  Th0  1  0.000000  0.500000  0.236045  1
  Th  Th1  1  0.500000  0.000000  0.763943  1
  Mg  Mg2  1  0.000000  0.000000  0.499999  1
  Si  Si3  1  0.000000  0.500000  0.885169  1
  Si  Si4  1  0.500000  0.000000  0.114834  1
  Sn  Sn5  1  0.500000  0.500000  0.500004  1
  Ir  Ir6  1  0.000000  0.000000  0.000002  1
  Ir  Ir7  1  0.500000  0.500000  0.999996  1
  Ir  Ir8  1  0.000000  0.500000  0.675148  1
  Ir  Ir9  1  0.500000  0.000000  0.324862  1
