# generated using pymatgen
data_Dy4Er5Tm3Co5Hg
_symmetry_space_group_name_H-M   'P 1'
_cell_length_a   8.16877578
_cell_length_b   8.17147736
_cell_length_c   8.17147620
_cell_angle_alpha   110.73710889
_cell_angle_beta   110.27178376
_cell_angle_gamma   107.43714265
_symmetry_Int_Tables_number   1
_chemical_formula_structural   Dy4Er5Tm3Co5Hg
_chemical_formula_sum   'Dy4 Er5 Tm3 Co5 Hg1'
_cell_volume   419.41930114
_cell_formula_units_Z   1
loop_
 _symmetry_equiv_pos_site_id
 _symmetry_equiv_pos_as_xyz
  1  'x, y, z'
loop_
 _atom_site_type_symbol
 _atom_site_label
 _atom_site_symmetry_multiplicity
 _atom_site_fract_x
 _atom_site_fract_y
 _atom_site_fract_z
 _atom_site_occupancy
  Dy  Dy0  1  0.289370  0.186442  0.475352  1
  Dy  Dy1  1  0.710672  0.813992  0.524988  1
  Dy  Dy2  1  0.289370  0.814018  0.102929  1
  Dy  Dy3  1  0.710672  0.185684  0.896680  1
  Er  Er4  1  0.989621  0.684523  0.305101  1
  Er  Er5  1  0.213172  0.404716  0.191861  1
  Er  Er6  1  0.786911  0.595088  0.807812  1
  Er  Er7  1  0.213172  0.021309  0.808456  1
  Er  Er8  1  0.786911  0.979100  0.191823  1
  Tm  Tm9  1  0.621068  0.315557  0.305511  1
  Tm  Tm10  1  0.378929  0.684111  0.694818  1
  Tm  Tm11  1  0.010292  0.315726  0.694564  1
  Co  Co12  1  0.000061  0.376571  0.376903  1
  Co  Co13  1  0.000061  0.623157  0.623488  1
  Co  Co14  1  0.385881  0.885764  0.500117  1
  Co  Co15  1  0.614368  0.114488  0.499879  1
  Co  Co16  1  0.000008  0.999932  0.000076  1
  Hg  Hg17  1  0.499464  0.499822  0.999641  1
