# generated using pymatgen
data_Sr2(TlPb)3
_symmetry_space_group_name_H-M   'P 1'
_cell_length_a   5.03633800
_cell_length_b   5.03123000
_cell_length_c   9.93912300
_cell_angle_alpha   90.00000000
_cell_angle_beta   90.00000000
_cell_angle_gamma   90.00000000
_symmetry_Int_Tables_number   1
_chemical_formula_structural   Sr2(TlPb)3
_chemical_formula_sum   'Sr2 Tl3 Pb3'
_cell_volume   251.84718759
_cell_formula_units_Z   1
loop_
 _symmetry_equiv_pos_site_id
 _symmetry_equiv_pos_as_xyz
  1  'x, y, z'
loop_
 _atom_site_type_symbol
 _atom_site_label
 _atom_site_symmetry_multiplicity
 _atom_site_fract_x
 _atom_site_fract_y
 _atom_site_fract_z
 _atom_site_occupancy
  Sr  Sr0  1  0.000000  0.000000  0.751717  1
  Sr  Sr1  1  0.000000  0.000000  0.248283  1
  Tl  Tl2  1  0.500000  0.000000  0.500000  1
  Tl  Tl3  1  0.000000  0.500000  0.000000  1
  Tl  Tl4  1  0.000000  0.500000  0.500000  1
  Pb  Pb5  1  0.500000  0.500000  0.749839  1
  Pb  Pb6  1  0.500000  0.500000  0.250161  1
  Pb  Pb7  1  0.500000  0.000000  0.000000  1
