# generated using pymatgen
data_Dy15Y5(Bi2Os)4
_symmetry_space_group_name_H-M   'P 1'
_cell_length_a   7.96989832
_cell_length_b   9.04327100
_cell_length_c   12.53423350
_cell_angle_alpha   90.00000000
_cell_angle_beta   90.03250546
_cell_angle_gamma   90.00000000
_symmetry_Int_Tables_number   1
_chemical_formula_structural   Dy15Y5(Bi2Os)4
_chemical_formula_sum   'Dy15 Y5 Bi8 Os4'
_cell_volume   903.39157796
_cell_formula_units_Z   1
loop_
 _symmetry_equiv_pos_site_id
 _symmetry_equiv_pos_as_xyz
  1  'x, y, z'
loop_
 _atom_site_type_symbol
 _atom_site_label
 _atom_site_symmetry_multiplicity
 _atom_site_fract_x
 _atom_site_fract_y
 _atom_site_fract_z
 _atom_site_occupancy
  Dy  Dy0  1  0.625158  0.250000  0.307635  1
  Dy  Dy1  1  0.874841  0.250000  0.807570  1
  Dy  Dy2  1  0.125197  0.750000  0.192416  1
  Dy  Dy3  1  0.942687  0.750000  0.504371  1
  Dy  Dy4  1  0.057367  0.250000  0.495581  1
  Dy  Dy5  1  0.442650  0.250000  0.995692  1
  Dy  Dy6  1  0.557223  0.750000  0.004361  1
  Dy  Dy7  1  0.674510  0.041930  0.563860  1
  Dy  Dy8  1  0.325552  0.958147  0.436040  1
  Dy  Dy9  1  0.174454  0.958101  0.936161  1
  Dy  Dy10  1  0.325552  0.541853  0.436040  1
  Dy  Dy11  1  0.825520  0.041876  0.063899  1
  Dy  Dy12  1  0.674510  0.458070  0.563860  1
  Dy  Dy13  1  0.825520  0.458124  0.063899  1
  Dy  Dy14  1  0.174454  0.541899  0.936161  1
  Y  Y15  1  0.841043  0.750000  0.791366  1
  Y  Y16  1  0.159129  0.250000  0.208689  1
  Y  Y17  1  0.340921  0.250000  0.708622  1
  Y  Y18  1  0.659099  0.750000  0.291349  1
  Y  Y19  1  0.374248  0.750000  0.692910  1
  Bi  Bi20  1  0.568145  0.493302  0.827931  1
  Bi  Bi21  1  0.431828  0.506618  0.172054  1
  Bi  Bi22  1  0.068099  0.506599  0.672106  1
  Bi  Bi23  1  0.431828  0.993382  0.172054  1
  Bi  Bi24  1  0.931861  0.493334  0.327930  1
  Bi  Bi25  1  0.568145  0.006698  0.827931  1
  Bi  Bi26  1  0.931861  0.006666  0.327930  1
  Bi  Bi27  1  0.068099  0.993401  0.672106  1
  Os  Os28  1  0.575819  0.750000  0.510690  1
  Os  Os29  1  0.424683  0.250000  0.488794  1
  Os  Os30  1  0.075290  0.250000  0.988767  1
  Os  Os31  1  0.924706  0.750000  0.011222  1
