# generated using pymatgen
data_Pr2ErSi4(PPd10)2
_symmetry_space_group_name_H-M   'P 1'
_cell_length_a   8.74543759
_cell_length_b   8.74728779
_cell_length_c   8.74728820
_cell_angle_alpha   59.98601570
_cell_angle_beta   60.00699446
_cell_angle_gamma   60.00700097
_symmetry_Int_Tables_number   1
_chemical_formula_structural   Pr2ErSi4(PPd10)2
_chemical_formula_sum   'Pr2 Er1 Si4 P2 Pd20'
_cell_volume   473.16585305
_cell_formula_units_Z   1
loop_
 _symmetry_equiv_pos_site_id
 _symmetry_equiv_pos_as_xyz
  1  'x, y, z'
loop_
 _atom_site_type_symbol
 _atom_site_label
 _atom_site_symmetry_multiplicity
 _atom_site_fract_x
 _atom_site_fract_y
 _atom_site_fract_z
 _atom_site_occupancy
  Pr  Pr0  1  0.250000  0.250000  0.250000  1
  Pr  Pr1  1  0.750000  0.750000  0.750000  1
  Er  Er2  1  0.000000  0.000000  0.000000  1
  Si  Si3  1  0.265091  0.734909  0.265091  1
  Si  Si4  1  0.734909  0.265091  0.734909  1
  Si  Si5  1  0.265091  0.265091  0.734909  1
  Si  Si6  1  0.734909  0.734909  0.265091  1
  P  P7  1  0.735266  0.264734  0.264734  1
  P  P8  1  0.264734  0.735266  0.735266  1
  Pd  Pd9  1  0.346362  0.000000  0.000000  1
  Pd  Pd10  1  0.653638  0.000000  0.000000  1
  Pd  Pd11  1  0.000000  0.346362  0.653638  1
  Pd  Pd12  1  0.000000  0.653638  0.346362  1
  Pd  Pd13  1  0.998497  0.344963  0.001503  1
  Pd  Pd14  1  0.655037  0.001503  0.344963  1
  Pd  Pd15  1  0.001503  0.655037  0.998497  1
  Pd  Pd16  1  0.344963  0.998497  0.655037  1
  Pd  Pd17  1  0.998497  0.001503  0.344963  1
  Pd  Pd18  1  0.001503  0.998497  0.655037  1
  Pd  Pd19  1  0.655037  0.344963  0.001503  1
  Pd  Pd20  1  0.344963  0.655037  0.998497  1
  Pd  Pd21  1  0.387227  0.385274  0.385274  1
  Pd  Pd22  1  0.612773  0.614726  0.614726  1
  Pd  Pd23  1  0.385274  0.387227  0.842226  1
  Pd  Pd24  1  0.385274  0.842226  0.387227  1
  Pd  Pd25  1  0.614726  0.612773  0.157774  1
  Pd  Pd26  1  0.614726  0.157774  0.612773  1
  Pd  Pd27  1  0.842226  0.385274  0.385274  1
  Pd  Pd28  1  0.157774  0.614726  0.614726  1
