# generated using pymatgen
data_Sr2Zn2CuAs3
_symmetry_space_group_name_H-M   'P 1'
_cell_length_a   4.28566200
_cell_length_b   4.28566186
_cell_length_c   23.22112200
_cell_angle_alpha   90.00000000
_cell_angle_beta   90.00000000
_cell_angle_gamma   120.00000110
_symmetry_Int_Tables_number   1
_chemical_formula_structural   Sr2Zn2CuAs3
_chemical_formula_sum   'Sr4 Zn4 Cu2 As6'
_cell_volume   369.35981604
_cell_formula_units_Z   2
loop_
 _symmetry_equiv_pos_site_id
 _symmetry_equiv_pos_as_xyz
  1  'x, y, z'
loop_
 _atom_site_type_symbol
 _atom_site_label
 _atom_site_symmetry_multiplicity
 _atom_site_fract_x
 _atom_site_fract_y
 _atom_site_fract_z
 _atom_site_occupancy
  Sr  Sr0  1  0.000000  0.000000  0.656513  1
  Sr  Sr1  1  0.000000  0.000000  0.343487  1
  Sr  Sr2  1  0.000000  0.000000  0.156513  1
  Sr  Sr3  1  0.000000  0.000000  0.843487  1
  Zn  Zn4  1  0.333333  0.666667  0.958760  1
  Zn  Zn5  1  0.666667  0.333333  0.458760  1
  Zn  Zn6  1  0.666667  0.333333  0.041240  1
  Zn  Zn7  1  0.333333  0.666667  0.541240  1
  Cu  Cu8  1  0.666667  0.333333  0.750000  1
  Cu  Cu9  1  0.333333  0.666667  0.250000  1
  As  As10  1  0.666667  0.333333  0.571684  1
  As  As11  1  0.333333  0.666667  0.428316  1
  As  As12  1  0.333333  0.666667  0.750000  1
  As  As13  1  0.666667  0.333333  0.928316  1
  As  As14  1  0.333333  0.666667  0.071684  1
  As  As15  1  0.666667  0.333333  0.250000  1
