# generated using pymatgen
data_Nb12Ga7ReN4
_symmetry_space_group_name_H-M   'P 1'
_cell_length_a   7.06502108
_cell_length_b   7.06502136
_cell_length_c   7.06502039
_cell_angle_alpha   89.65222207
_cell_angle_beta   90.34778324
_cell_angle_gamma   90.34778380
_symmetry_Int_Tables_number   1
_chemical_formula_structural   Nb12Ga7ReN4
_chemical_formula_sum   'Nb12 Ga7 Re1 N4'
_cell_volume   352.62772473
_cell_formula_units_Z   1
loop_
 _symmetry_equiv_pos_site_id
 _symmetry_equiv_pos_as_xyz
  1  'x, y, z'
loop_
 _atom_site_type_symbol
 _atom_site_label
 _atom_site_symmetry_multiplicity
 _atom_site_fract_x
 _atom_site_fract_y
 _atom_site_fract_z
 _atom_site_occupancy
  Nb  Nb0  1  0.797411  0.957499  0.374454  1
  Nb  Nb1  1  0.703664  0.043177  0.874468  1
  Nb  Nb2  1  0.208565  0.458636  0.123862  1
  Nb  Nb3  1  0.291407  0.547536  0.623050  1
  Nb  Nb4  1  0.956823  0.374468  0.796336  1
  Nb  Nb5  1  0.042501  0.874454  0.702589  1
  Nb  Nb6  1  0.452464  0.123050  0.208593  1
  Nb  Nb7  1  0.541364  0.623862  0.291435  1
  Nb  Nb8  1  0.376138  0.791435  0.958636  1
  Nb  Nb9  1  0.876950  0.708593  0.047536  1
  Nb  Nb10  1  0.125546  0.202589  0.457499  1
  Nb  Nb11  1  0.625532  0.296336  0.543177  1
  Ga  Ga12  1  0.319706  0.177024  0.818971  1
  Ga  Ga13  1  0.822976  0.318971  0.180294  1
  Ga  Ga14  1  0.681029  0.680294  0.677024  1
  Ga  Ga15  1  0.569281  0.430719  0.930719  1
  Ga  Ga16  1  0.428589  0.929279  0.565886  1
  Ga  Ga17  1  0.934114  0.571411  0.429279  1
  Ga  Ga18  1  0.070721  0.065886  0.071411  1
  Re  Re19  1  0.177977  0.822023  0.322023  1
  N  N20  1  0.875755  0.124245  0.624245  1
  N  N21  1  0.625841  0.877024  0.127331  1
  N  N22  1  0.122976  0.627331  0.874159  1
  N  N23  1  0.372669  0.374159  0.377024  1
