# generated using pymatgen
data_Y5Er11(ScBi3)4
_symmetry_space_group_name_H-M   'P 1'
_cell_length_a   8.09252716
_cell_length_b   9.38224200
_cell_length_c   11.92777824
_cell_angle_alpha   90.00000000
_cell_angle_beta   89.97707352
_cell_angle_gamma   90.00000000
_symmetry_Int_Tables_number   1
_chemical_formula_structural   Y5Er11(ScBi3)4
_chemical_formula_sum   'Y5 Er11 Sc4 Bi12'
_cell_volume   905.62899327
_cell_formula_units_Z   1
loop_
 _symmetry_equiv_pos_site_id
 _symmetry_equiv_pos_as_xyz
  1  'x, y, z'
loop_
 _atom_site_type_symbol
 _atom_site_label
 _atom_site_symmetry_multiplicity
 _atom_site_fract_x
 _atom_site_fract_y
 _atom_site_fract_z
 _atom_site_occupancy
  Y  Y0  1  0.314421  0.250000  0.220350  1
  Y  Y1  1  0.354533  0.750000  0.215207  1
  Y  Y2  1  0.854582  0.750000  0.284820  1
  Y  Y3  1  0.645423  0.250000  0.784513  1
  Y  Y4  1  0.145048  0.250000  0.715299  1
  Er  Er5  1  0.185931  0.750000  0.720034  1
  Er  Er6  1  0.685946  0.750000  0.780156  1
  Er  Er7  1  0.814168  0.250000  0.279973  1
  Er  Er8  1  0.303848  0.435176  0.941333  1
  Er  Er9  1  0.803614  0.064744  0.558489  1
  Er  Er10  1  0.696242  0.934957  0.058450  1
  Er  Er11  1  0.196488  0.564918  0.441664  1
  Er  Er12  1  0.696242  0.565043  0.058450  1
  Er  Er13  1  0.196488  0.935082  0.441664  1
  Er  Er14  1  0.303848  0.064824  0.941333  1
  Er  Er15  1  0.803614  0.435256  0.558489  1
  Sc  Sc16  1  0.024939  0.750000  0.987500  1
  Sc  Sc17  1  0.525094  0.750000  0.512508  1
  Sc  Sc18  1  0.974564  0.250000  0.011804  1
  Sc  Sc19  1  0.475008  0.250000  0.488208  1
  Bi  Bi20  1  0.434014  0.002941  0.668702  1
  Bi  Bi21  1  0.934054  0.497052  0.831137  1
  Bi  Bi22  1  0.566622  0.503370  0.331743  1
  Bi  Bi23  1  0.065280  0.996391  0.168432  1
  Bi  Bi24  1  0.566622  0.996630  0.331743  1
  Bi  Bi25  1  0.065280  0.503609  0.168432  1
  Bi  Bi26  1  0.434014  0.497059  0.668702  1
  Bi  Bi27  1  0.934054  0.002948  0.831137  1
  Bi  Bi28  1  0.403678  0.750000  0.956379  1
  Bi  Bi29  1  0.903875  0.750000  0.543705  1
  Bi  Bi30  1  0.596860  0.250000  0.042881  1
  Bi  Bi31  1  0.095608  0.250000  0.456765  1
