# generated using pymatgen
data_Tl2CdAg(Pt2O7)2
_symmetry_space_group_name_H-M   'P 1'
_cell_length_a   7.23113772
_cell_length_b   7.25047631
_cell_length_c   7.25047566
_cell_angle_alpha   60.51337541
_cell_angle_beta   60.38816543
_cell_angle_gamma   60.38816929
_symmetry_Int_Tables_number   1
_chemical_formula_structural   Tl2CdAg(Pt2O7)2
_chemical_formula_sum   'Tl2 Cd1 Ag1 Pt4 O14'
_cell_volume   271.40906822
_cell_formula_units_Z   1
loop_
 _symmetry_equiv_pos_site_id
 _symmetry_equiv_pos_as_xyz
  1  'x, y, z'
loop_
 _atom_site_type_symbol
 _atom_site_label
 _atom_site_symmetry_multiplicity
 _atom_site_fract_x
 _atom_site_fract_y
 _atom_site_fract_z
 _atom_site_occupancy
  Tl  Tl0  1  0.625000  0.625000  0.125000  1
  Tl  Tl1  1  0.625000  0.125000  0.625000  1
  Cd  Cd2  1  0.125000  0.625000  0.625000  1
  Ag  Ag3  1  0.625000  0.625000  0.625000  1
  Pt  Pt4  1  0.125000  0.125000  0.125000  1
  Pt  Pt5  1  0.625000  0.125000  0.125000  1
  Pt  Pt6  1  0.125000  0.625000  0.125000  1
  Pt  Pt7  1  0.125000  0.125000  0.625000  1
  O  O8  1  0.050054  0.453359  0.453359  1
  O  O9  1  0.792812  0.793856  0.204406  1
  O  O10  1  0.790059  0.210440  0.210440  1
  O  O11  1  0.457188  0.045594  0.456144  1
  O  O12  1  0.039719  0.458361  0.041682  1
  O  O13  1  0.743486  0.741161  0.741161  1
  O  O14  1  0.039719  0.041682  0.458361  1
  O  O15  1  0.210281  0.791639  0.208318  1
  O  O16  1  0.210281  0.208318  0.791639  1
  O  O17  1  0.506514  0.508839  0.508839  1
  O  O18  1  0.792812  0.204406  0.793856  1
  O  O19  1  0.459941  0.039560  0.039560  1
  O  O20  1  0.457188  0.456144  0.045594  1
  O  O21  1  0.199946  0.796641  0.796641  1
