# generated using pymatgen
data_K3LiPdO4
_symmetry_space_group_name_H-M   'P 1'
_cell_length_a   7.27608462
_cell_length_b   7.27608499
_cell_length_c   5.94546205
_cell_angle_alpha   79.55157479
_cell_angle_beta   79.55157466
_cell_angle_gamma   84.12191332
_symmetry_Int_Tables_number   1
_chemical_formula_structural   K3LiPdO4
_chemical_formula_sum   'K6 Li2 Pd2 O8'
_cell_volume   303.62168921
_cell_formula_units_Z   2
loop_
 _symmetry_equiv_pos_site_id
 _symmetry_equiv_pos_as_xyz
  1  'x, y, z'
loop_
 _atom_site_type_symbol
 _atom_site_label
 _atom_site_symmetry_multiplicity
 _atom_site_fract_x
 _atom_site_fract_y
 _atom_site_fract_z
 _atom_site_occupancy
  K  K0  1  0.065767  0.243636  0.025843  1
  K  K1  1  0.595152  0.404848  0.250000  1
  K  K2  1  0.243636  0.065767  0.525843  1
  K  K3  1  0.756364  0.934233  0.474157  1
  K  K4  1  0.934233  0.756364  0.974157  1
  K  K5  1  0.404848  0.595152  0.750000  1
  Li  Li6  1  0.732136  0.267864  0.750000  1
  Li  Li7  1  0.267864  0.732136  0.250000  1
  Pd  Pd8  1  0.500000  0.000000  0.000000  1
  Pd  Pd9  1  0.000000  0.500000  0.500000  1
  O  O10  1  0.208893  0.479721  0.239497  1
  O  O11  1  0.911082  0.260266  0.469475  1
  O  O12  1  0.479721  0.208893  0.739497  1
  O  O13  1  0.260266  0.911082  0.969475  1
  O  O14  1  0.088918  0.739734  0.530525  1
  O  O15  1  0.739734  0.088918  0.030525  1
  O  O16  1  0.520279  0.791107  0.260503  1
  O  O17  1  0.791107  0.520279  0.760503  1
