# generated using pymatgen
data_Hf5NbRh10
_symmetry_space_group_name_H-M   'P 1'
_cell_length_a   4.28799000
_cell_length_b   5.60682648
_cell_length_c   10.92717535
_cell_angle_alpha   89.37880854
_cell_angle_beta   90.00000000
_cell_angle_gamma   90.00000000
_symmetry_Int_Tables_number   1
_chemical_formula_structural   Hf5NbRh10
_chemical_formula_sum   'Hf5 Nb1 Rh10'
_cell_volume   262.69588349
_cell_formula_units_Z   1
loop_
 _symmetry_equiv_pos_site_id
 _symmetry_equiv_pos_as_xyz
  1  'x, y, z'
loop_
 _atom_site_type_symbol
 _atom_site_label
 _atom_site_symmetry_multiplicity
 _atom_site_fract_x
 _atom_site_fract_y
 _atom_site_fract_z
 _atom_site_occupancy
  Hf  Hf0  1  0.500000  0.156498  0.645210  1
  Hf  Hf1  1  0.500000  0.843502  0.354790  1
  Hf  Hf2  1  0.500000  0.659255  0.854049  1
  Hf  Hf3  1  0.500000  0.340745  0.145951  1
  Hf  Hf4  1  0.000000  0.000000  0.000000  1
  Nb  Nb5  1  0.000000  0.500000  0.500000  1
  Rh  Rh6  1  0.500000  0.183898  0.891686  1
  Rh  Rh7  1  0.500000  0.816102  0.108314  1
  Rh  Rh8  1  0.500000  0.679214  0.603425  1
  Rh  Rh9  1  0.500000  0.320786  0.396575  1
  Rh  Rh10  1  0.000000  0.402362  0.738168  1
  Rh  Rh11  1  0.000000  0.597638  0.261832  1
  Rh  Rh12  1  0.000000  0.000000  0.500000  1
  Rh  Rh13  1  0.000000  0.500000  0.000000  1
  Rh  Rh14  1  0.000000  0.098695  0.242502  1
  Rh  Rh15  1  0.000000  0.901305  0.757498  1
