# generated using pymatgen
data_Ho3Zn3Ge2Ir
_symmetry_space_group_name_H-M   'P 1'
_cell_length_a   6.93588000
_cell_length_b   6.93587926
_cell_length_c   4.24955200
_cell_angle_alpha   90.00000000
_cell_angle_beta   90.00000000
_cell_angle_gamma   119.99999399
_symmetry_Int_Tables_number   1
_chemical_formula_structural   Ho3Zn3Ge2Ir
_chemical_formula_sum   'Ho3 Zn3 Ge2 Ir1'
_cell_volume   177.04224205
_cell_formula_units_Z   1
loop_
 _symmetry_equiv_pos_site_id
 _symmetry_equiv_pos_as_xyz
  1  'x, y, z'
loop_
 _atom_site_type_symbol
 _atom_site_label
 _atom_site_symmetry_multiplicity
 _atom_site_fract_x
 _atom_site_fract_y
 _atom_site_fract_z
 _atom_site_occupancy
  Ho  Ho0  1  0.408052  0.000000  0.000000  1
  Ho  Ho1  1  0.000000  0.408052  0.000000  1
  Ho  Ho2  1  0.591948  0.591948  0.000000  1
  Zn  Zn3  1  0.765660  0.000000  0.500000  1
  Zn  Zn4  1  0.234341  0.234341  0.500000  1
  Zn  Zn5  1  0.000000  0.765659  0.500000  1
  Ge  Ge6  1  0.666666  0.333333  0.500000  1
  Ge  Ge7  1  0.333333  0.666667  0.500000  1
  Ir  Ir8  1  0.000000  0.000000  0.000000  1
