# generated using pymatgen
data_Tm20Si4BiSb7
_symmetry_space_group_name_H-M   'P 1'
_cell_length_a   7.87565334
_cell_length_b   8.96878208
_cell_length_c   11.73377860
_cell_angle_alpha   90.01567403
_cell_angle_beta   90.03326180
_cell_angle_gamma   89.99848835
_symmetry_Int_Tables_number   1
_chemical_formula_structural   Tm20Si4BiSb7
_chemical_formula_sum   'Tm20 Si4 Bi1 Sb7'
_cell_volume   828.81549797
_cell_formula_units_Z   1
loop_
 _symmetry_equiv_pos_site_id
 _symmetry_equiv_pos_as_xyz
  1  'x, y, z'
loop_
 _atom_site_type_symbol
 _atom_site_label
 _atom_site_symmetry_multiplicity
 _atom_site_fract_x
 _atom_site_fract_y
 _atom_site_fract_z
 _atom_site_occupancy
  Tm  Tm0  1  0.681634  0.946989  0.433796  1
  Tm  Tm1  1  0.817637  0.552265  0.936065  1
  Tm  Tm2  1  0.318080  0.447297  0.564359  1
  Tm  Tm3  1  0.182729  0.052433  0.064698  1
  Tm  Tm4  1  0.319474  0.053508  0.563688  1
  Tm  Tm5  1  0.182721  0.447565  0.064420  1
  Tm  Tm6  1  0.681992  0.552699  0.435159  1
  Tm  Tm7  1  0.815848  0.947008  0.938707  1
  Tm  Tm8  1  0.332716  0.750320  0.284136  1
  Tm  Tm9  1  0.169245  0.746417  0.785917  1
  Tm  Tm10  1  0.664471  0.253370  0.715121  1
  Tm  Tm11  1  0.832852  0.249754  0.214973  1
  Tm  Tm12  1  0.039308  0.747508  0.496132  1
  Tm  Tm13  1  0.461823  0.750461  0.998096  1
  Tm  Tm14  1  0.962207  0.252504  0.500716  1
  Tm  Tm15  1  0.538163  0.249835  0.002533  1
  Tm  Tm16  1  0.860358  0.749800  0.206687  1
  Tm  Tm17  1  0.636136  0.747167  0.707215  1
  Tm  Tm18  1  0.142157  0.253128  0.794584  1
  Tm  Tm19  1  0.360387  0.249898  0.293315  1
  Si  Si20  1  0.087449  0.749960  0.021614  1
  Si  Si21  1  0.412614  0.750086  0.520744  1
  Si  Si22  1  0.912936  0.249746  0.978522  1
  Si  Si23  1  0.588055  0.250017  0.478287  1
  Bi  Bi24  1  0.931189  0.988846  0.674756  1
  Sb  Sb25  1  0.567514  0.989075  0.173517  1
  Sb  Sb26  1  0.931900  0.511345  0.673539  1
  Sb  Sb27  1  0.432455  0.489140  0.827385  1
  Sb  Sb28  1  0.067858  0.011131  0.326576  1
  Sb  Sb29  1  0.432444  0.011068  0.826052  1
  Sb  Sb30  1  0.068037  0.488708  0.325103  1
  Sb  Sb31  1  0.567610  0.510952  0.173586  1
