# generated using pymatgen
data_Be4NbOs
_symmetry_space_group_name_H-M   'P 1'
_cell_length_a   4.46140109
_cell_length_b   4.46140087
_cell_length_c   4.46140100
_cell_angle_alpha   60.00000646
_cell_angle_beta   60.00000811
_cell_angle_gamma   60.00001232
_symmetry_Int_Tables_number   1
_chemical_formula_structural   Be4NbOs
_chemical_formula_sum   'Be4 Nb1 Os1'
_cell_volume   62.79121229
_cell_formula_units_Z   1
loop_
 _symmetry_equiv_pos_site_id
 _symmetry_equiv_pos_as_xyz
  1  'x, y, z'
loop_
 _atom_site_type_symbol
 _atom_site_label
 _atom_site_symmetry_multiplicity
 _atom_site_fract_x
 _atom_site_fract_y
 _atom_site_fract_z
 _atom_site_occupancy
  Be  Be0  1  0.124615  0.124615  0.124615  1
  Be  Be1  1  0.626155  0.124615  0.124615  1
  Be  Be2  1  0.124615  0.626155  0.124615  1
  Be  Be3  1  0.124615  0.124615  0.626155  1
  Nb  Nb4  1  0.750000  0.750000  0.750000  1
  Os  Os5  1  0.500000  0.500000  0.500000  1
