# generated using pymatgen
data_Lu8Ti11Si16Hg
_symmetry_space_group_name_H-M   'P 1'
_cell_length_a   7.01278254
_cell_length_b   7.01278256
_cell_length_c   12.79696417
_cell_angle_alpha   90.11195821
_cell_angle_beta   89.88803958
_cell_angle_gamma   89.69674512
_symmetry_Int_Tables_number   1
_chemical_formula_structural   Lu8Ti11Si16Hg
_chemical_formula_sum   'Lu8 Ti11 Si16 Hg1'
_cell_volume   629.33219408
_cell_formula_units_Z   1
loop_
 _symmetry_equiv_pos_site_id
 _symmetry_equiv_pos_as_xyz
  1  'x, y, z'
loop_
 _atom_site_type_symbol
 _atom_site_label
 _atom_site_symmetry_multiplicity
 _atom_site_fract_x
 _atom_site_fract_y
 _atom_site_fract_z
 _atom_site_occupancy
  Lu  Lu0  1  0.341090  0.001755  0.467050  1
  Lu  Lu1  1  0.498457  0.839374  0.716215  1
  Lu  Lu2  1  0.501355  0.157116  0.215526  1
  Lu  Lu3  1  0.839374  0.498457  0.283785  1
  Lu  Lu4  1  0.157116  0.501355  0.784474  1
  Lu  Lu5  1  0.657700  0.000110  0.968506  1
  Lu  Lu6  1  0.001755  0.341090  0.532950  1
  Lu  Lu7  1  0.000110  0.657700  0.031494  1
  Ti  Ti8  1  0.173255  0.826848  0.250654  1
  Ti  Ti9  1  0.826848  0.173255  0.749346  1
  Ti  Ti10  1  0.672532  0.672532  0.500000  1
  Ti  Ti11  1  0.147237  0.007704  0.876987  1
  Ti  Ti12  1  0.496518  0.649991  0.123787  1
  Ti  Ti13  1  0.506117  0.351560  0.624531  1
  Ti  Ti14  1  0.649991  0.496518  0.876213  1
  Ti  Ti15  1  0.351560  0.506117  0.375469  1
  Ti  Ti16  1  0.849866  0.992431  0.374735  1
  Ti  Ti17  1  0.007704  0.147237  0.123013  1
  Ti  Ti18  1  0.992431  0.849866  0.625265  1
  Si  Si19  1  0.202394  0.133310  0.682846  1
  Si  Si20  1  0.373282  0.724919  0.925862  1
  Si  Si21  1  0.632898  0.293862  0.431610  1
  Si  Si22  1  0.724919  0.373282  0.074138  1
  Si  Si23  1  0.293862  0.632898  0.568390  1
  Si  Si24  1  0.797842  0.865652  0.182107  1
  Si  Si25  1  0.133310  0.202394  0.317154  1
  Si  Si26  1  0.865652  0.797842  0.817893  1
  Si  Si27  1  0.287480  0.933690  0.067523  1
  Si  Si28  1  0.546006  0.793005  0.315007  1
  Si  Si29  1  0.458777  0.202991  0.805958  1
  Si  Si30  1  0.793005  0.546006  0.684993  1
  Si  Si31  1  0.202991  0.458777  0.194042  1
  Si  Si32  1  0.707495  0.047162  0.564248  1
  Si  Si33  1  0.933690  0.287480  0.932477  1
  Si  Si34  1  0.047162  0.707495  0.435752  1
  Hg  Hg35  1  0.328219  0.328219  0.000000  1
