# generated using pymatgen
data_U8Ta7Nb4Si16Os
_symmetry_space_group_name_H-M   'P 1'
_cell_length_a   7.00267513
_cell_length_b   7.01152160
_cell_length_c   12.94881113
_cell_angle_alpha   89.90983488
_cell_angle_beta   90.01103666
_cell_angle_gamma   90.03097699
_symmetry_Int_Tables_number   1
_chemical_formula_structural   U8Ta7Nb4Si16Os
_chemical_formula_sum   'U8 Ta7 Nb4 Si16 Os1'
_cell_volume   635.77806894
_cell_formula_units_Z   1
loop_
 _symmetry_equiv_pos_site_id
 _symmetry_equiv_pos_as_xyz
  1  'x, y, z'
loop_
 _atom_site_type_symbol
 _atom_site_label
 _atom_site_symmetry_multiplicity
 _atom_site_fract_x
 _atom_site_fract_y
 _atom_site_fract_z
 _atom_site_occupancy
  U  U0  1  0.997186  0.334306  0.221645  1
  U  U1  1  0.008031  0.671261  0.717334  1
  U  U2  1  0.166488  0.497512  0.469142  1
  U  U3  1  0.503472  0.831361  0.033464  1
  U  U4  1  0.829653  0.506620  0.969374  1
  U  U5  1  0.495641  0.165530  0.528593  1
  U  U6  1  0.328661  0.993451  0.779823  1
  U  U7  1  0.669834  0.003296  0.279265  1
  Ta  Ta8  1  0.167446  0.166686  0.000946  1
  Ta  Ta9  1  0.831021  0.833130  0.499760  1
  Ta  Ta10  1  0.329166  0.666273  0.249924  1
  Ta  Ta11  1  0.668098  0.331578  0.749649  1
  Ta  Ta12  1  0.843391  0.001596  0.873893  1
  Ta  Ta13  1  0.496197  0.658839  0.623543  1
  Ta  Ta14  1  0.344145  0.499276  0.876014  1
  Nb  Nb15  1  0.495567  0.338358  0.125299  1
  Nb  Nb16  1  0.658572  0.498450  0.375699  1
  Nb  Nb17  1  0.998978  0.158237  0.627252  1
  Nb  Nb18  1  0.996095  0.839762  0.122537  1
  Si  Si19  1  0.291996  0.035057  0.188491  1
  Si  Si20  1  0.702061  0.960171  0.683927  1
  Si  Si21  1  0.459681  0.796301  0.432834  1
  Si  Si22  1  0.202796  0.537781  0.064977  1
  Si  Si23  1  0.538768  0.201007  0.934696  1
  Si  Si24  1  0.794749  0.461129  0.565487  1
  Si  Si25  1  0.040002  0.299181  0.816290  1
  Si  Si26  1  0.965639  0.716002  0.315999  1
  Si  Si27  1  0.370958  0.290884  0.317221  1
  Si  Si28  1  0.629205  0.707081  0.815604  1
  Si  Si29  1  0.203718  0.872573  0.562333  1
  Si  Si30  1  0.129162  0.793201  0.933742  1
  Si  Si31  1  0.793805  0.130502  0.066659  1
  Si  Si32  1  0.879231  0.199744  0.433597  1
  Si  Si33  1  0.294864  0.370024  0.683294  1
  Si  Si34  1  0.705268  0.624804  0.184626  1
  Os  Os35  1  0.170451  0.009035  0.377064  1
