# generated using pymatgen
data_Sr4Zn9Ni11
_symmetry_space_group_name_H-M   'P 1'
_cell_length_a   5.04677400
_cell_length_b   6.36303224
_cell_length_c   12.51711148
_cell_angle_alpha   89.89831477
_cell_angle_beta   90.00000000
_cell_angle_gamma   90.00000000
_symmetry_Int_Tables_number   1
_chemical_formula_structural   Sr4Zn9Ni11
_chemical_formula_sum   'Sr4 Zn9 Ni11'
_cell_volume   401.95868510
_cell_formula_units_Z   1
loop_
 _symmetry_equiv_pos_site_id
 _symmetry_equiv_pos_as_xyz
  1  'x, y, z'
loop_
 _atom_site_type_symbol
 _atom_site_label
 _atom_site_symmetry_multiplicity
 _atom_site_fract_x
 _atom_site_fract_y
 _atom_site_fract_z
 _atom_site_occupancy
  Sr  Sr0  1  0.250000  0.628333  0.912847  1
  Sr  Sr1  1  0.250000  0.861063  0.409403  1
  Sr  Sr2  1  0.750000  0.362790  0.093229  1
  Sr  Sr3  1  0.750000  0.141206  0.580103  1
  Zn  Zn4  1  0.750000  0.849528  0.779159  1
  Zn  Zn5  1  0.250000  0.955390  0.711447  1
  Zn  Zn6  1  0.250000  0.550490  0.215304  1
  Zn  Zn7  1  0.750000  0.051616  0.285955  1
  Zn  Zn8  1  0.750000  0.435850  0.778706  1
  Zn  Zn9  1  0.250000  0.413398  0.520878  1
  Zn  Zn10  1  0.250000  0.082779  0.021800  1
  Zn  Zn11  1  0.750000  0.590716  0.479100  1
  Zn  Zn12  1  0.750000  0.920166  0.984768  1
  Ni  Ni13  1  0.250000  0.344831  0.718309  1
  Ni  Ni14  1  0.250000  0.153149  0.220430  1
  Ni  Ni15  1  0.750000  0.654619  0.281585  1
  Ni  Ni16  1  0.002545  0.148003  0.856461  1
  Ni  Ni17  1  0.498366  0.354252  0.354588  1
  Ni  Ni18  1  0.501377  0.852268  0.147391  1
  Ni  Ni19  1  0.001687  0.647516  0.645048  1
  Ni  Ni20  1  0.998623  0.852268  0.147391  1
  Ni  Ni21  1  0.498313  0.647516  0.645048  1
  Ni  Ni22  1  0.497455  0.148003  0.856461  1
  Ni  Ni23  1  0.001634  0.354252  0.354588  1
