# generated using pymatgen
data_Ho4Bi3Sb
_symmetry_space_group_name_H-M   'P 1'
_cell_length_a   7.68069945
_cell_length_b   7.68069924
_cell_length_c   7.68069927
_cell_angle_alpha   131.83042157
_cell_angle_beta   131.83041774
_cell_angle_gamma   70.49699022
_symmetry_Int_Tables_number   1
_chemical_formula_structural   Ho4Bi3Sb
_chemical_formula_sum   'Ho4 Bi3 Sb1'
_cell_volume   246.49591787
_cell_formula_units_Z   1
loop_
 _symmetry_equiv_pos_site_id
 _symmetry_equiv_pos_as_xyz
  1  'x, y, z'
loop_
 _atom_site_type_symbol
 _atom_site_label
 _atom_site_symmetry_multiplicity
 _atom_site_fract_x
 _atom_site_fract_y
 _atom_site_fract_z
 _atom_site_occupancy
  Ho  Ho0  1  0.245701  0.245701  0.000000  1
  Ho  Ho1  1  0.754299  0.754299  0.000000  1
  Ho  Ho2  1  0.500000  0.000000  0.500000  1
  Ho  Ho3  1  0.000000  0.500000  0.500000  1
  Bi  Bi4  1  0.500000  0.500000  0.000000  1
  Bi  Bi5  1  0.750000  0.250000  0.500000  1
  Bi  Bi6  1  0.250000  0.750000  0.500000  1
  Sb  Sb7  1  0.000000  0.000000  0.000000  1
