# generated using pymatgen
data_YTm2Fe8Os
_symmetry_space_group_name_H-M   'P 1'
_cell_length_a   5.08434101
_cell_length_b   5.08434179
_cell_length_c   8.71407355
_cell_angle_alpha   73.03835123
_cell_angle_beta   73.03834987
_cell_angle_gamma   60.00000129
_symmetry_Int_Tables_number   1
_chemical_formula_structural   YTm2Fe8Os
_chemical_formula_sum   'Y1 Tm2 Fe8 Os1'
_cell_volume   183.68192435
_cell_formula_units_Z   1
loop_
 _symmetry_equiv_pos_site_id
 _symmetry_equiv_pos_as_xyz
  1  'x, y, z'
loop_
 _atom_site_type_symbol
 _atom_site_label
 _atom_site_symmetry_multiplicity
 _atom_site_fract_x
 _atom_site_fract_y
 _atom_site_fract_z
 _atom_site_occupancy
  Y  Y0  1  0.000000  0.000000  0.000000  1
  Tm  Tm1  1  0.141804  0.141804  0.574588  1
  Tm  Tm2  1  0.858196  0.858196  0.425412  1
  Fe  Fe3  1  0.077196  0.582770  0.757263  1
  Fe  Fe4  1  0.582770  0.582770  0.757263  1
  Fe  Fe5  1  0.582770  0.077196  0.757263  1
  Fe  Fe6  1  0.922804  0.417230  0.242737  1
  Fe  Fe7  1  0.417230  0.417230  0.242737  1
  Fe  Fe8  1  0.417230  0.922804  0.242737  1
  Fe  Fe9  1  0.333068  0.333068  0.000794  1
  Fe  Fe10  1  0.666932  0.666932  0.999206  1
  Os  Os11  1  0.500000  0.500000  0.500000  1
