# generated using pymatgen
data_AcVO4
_symmetry_space_group_name_H-M   'P 1'
_cell_length_a   7.54155800
_cell_length_b   6.95193000
_cell_length_c   8.69914613
_cell_angle_alpha   53.97077374
_cell_angle_beta   90.00000000
_cell_angle_gamma   90.00000000
_symmetry_Int_Tables_number   1
_chemical_formula_structural   AcVO4
_chemical_formula_sum   'Ac4 V4 O16'
_cell_volume   368.84143084
_cell_formula_units_Z   4
loop_
 _symmetry_equiv_pos_site_id
 _symmetry_equiv_pos_as_xyz
  1  'x, y, z'
loop_
 _atom_site_type_symbol
 _atom_site_label
 _atom_site_symmetry_multiplicity
 _atom_site_fract_x
 _atom_site_fract_y
 _atom_site_fract_z
 _atom_site_occupancy
  Ac  Ac0  1  0.655749  0.178174  0.221168  1
  Ac  Ac1  1  0.155749  0.821826  0.278832  1
  Ac  Ac2  1  0.344251  0.821826  0.778832  1
  Ac  Ac3  1  0.844251  0.178174  0.721168  1
  V  V4  1  0.663610  0.687901  0.198165  1
  V  V5  1  0.163610  0.312099  0.301835  1
  V  V6  1  0.336390  0.312099  0.801835  1
  V  V7  1  0.836390  0.687901  0.698165  1
  O  O8  1  0.717331  0.396298  0.381311  1
  O  O9  1  0.217331  0.603702  0.118689  1
  O  O10  1  0.282669  0.603702  0.618689  1
  O  O11  1  0.782669  0.396298  0.881311  1
  O  O12  1  0.604078  0.656444  0.021606  1
  O  O13  1  0.104078  0.343556  0.478394  1
  O  O14  1  0.395922  0.343556  0.978394  1
  O  O15  1  0.895922  0.656444  0.521606  1
  O  O16  1  0.000270  0.819434  0.750813  1
  O  O17  1  0.500270  0.180566  0.749187  1
  O  O18  1  0.999730  0.180566  0.249187  1
  O  O19  1  0.499730  0.819434  0.250813  1
  O  O20  1  0.658544  0.886755  0.614452  1
  O  O21  1  0.158544  0.113245  0.885548  1
  O  O22  1  0.341456  0.113245  0.385548  1
  O  O23  1  0.841456  0.886755  0.114452  1
