# generated using pymatgen
data_Ac3(AgSn)4
_symmetry_space_group_name_H-M   'P 1'
_cell_length_a   9.24138174
_cell_length_b   9.24138140
_cell_length_c   9.24138142
_cell_angle_alpha   149.10595308
_cell_angle_beta   131.49265727
_cell_angle_gamma   58.62465383
_symmetry_Int_Tables_number   1
_chemical_formula_structural   Ac3(AgSn)4
_chemical_formula_sum   'Ac3 Ag4 Sn4'
_cell_volume   301.17845083
_cell_formula_units_Z   1
loop_
 _symmetry_equiv_pos_site_id
 _symmetry_equiv_pos_as_xyz
  1  'x, y, z'
loop_
 _atom_site_type_symbol
 _atom_site_label
 _atom_site_symmetry_multiplicity
 _atom_site_fract_x
 _atom_site_fract_y
 _atom_site_fract_z
 _atom_site_occupancy
  Ac  Ac0  1  0.500000  0.000000  0.500000  1
  Ac  Ac1  1  0.132659  0.132659  0.000000  1
  Ac  Ac2  1  0.867341  0.867341  0.000000  1
  Ag  Ag3  1  0.523520  0.331552  0.191967  1
  Ag  Ag4  1  0.476480  0.668448  0.808033  1
  Ag  Ag5  1  0.860415  0.668448  0.191967  1
  Ag  Ag6  1  0.139585  0.331552  0.808033  1
  Sn  Sn7  1  0.715555  0.215555  0.500000  1
  Sn  Sn8  1  0.284445  0.784445  0.500000  1
  Sn  Sn9  1  0.190943  0.500000  0.690943  1
  Sn  Sn10  1  0.809057  0.500000  0.309057  1
