# generated using pymatgen
data_CaErU6(ReB6)4
_symmetry_space_group_name_H-M   'P 1'
_cell_length_a   3.63725400
_cell_length_b   9.29109835
_cell_length_c   11.39350950
_cell_angle_alpha   89.91510889
_cell_angle_beta   90.00000000
_cell_angle_gamma   90.00000000
_symmetry_Int_Tables_number   1
_chemical_formula_structural   CaErU6(ReB6)4
_chemical_formula_sum   'Ca1 Er1 U6 Re4 B24'
_cell_volume   385.03280196
_cell_formula_units_Z   1
loop_
 _symmetry_equiv_pos_site_id
 _symmetry_equiv_pos_as_xyz
  1  'x, y, z'
loop_
 _atom_site_type_symbol
 _atom_site_label
 _atom_site_symmetry_multiplicity
 _atom_site_fract_x
 _atom_site_fract_y
 _atom_site_fract_z
 _atom_site_occupancy
  Ca  Ca0  1  0.000000  0.662997  0.591765  1
  Er  Er1  1  0.000000  0.336456  0.408159  1
  U  U2  1  0.000000  0.835916  0.092853  1
  U  U3  1  0.000000  0.164194  0.906963  1
  U  U4  1  0.000000  0.955651  0.396889  1
  U  U5  1  0.000000  0.043266  0.603503  1
  U  U6  1  0.000000  0.457330  0.103355  1
  U  U7  1  0.000000  0.542970  0.895727  1
  Re  Re8  1  0.000000  0.646761  0.315200  1
  Re  Re9  1  0.000000  0.351219  0.684093  1
  Re  Re10  1  0.000000  0.143450  0.177855  1
  Re  Re11  1  0.000000  0.857812  0.823383  1
  B  B12  1  0.500000  0.551315  0.430567  1
  B  B13  1  0.500000  0.447749  0.569091  1
  B  B14  1  0.500000  0.049913  0.067746  1
  B  B15  1  0.500000  0.950628  0.932754  1
  B  B16  1  0.500000  0.742352  0.422717  1
  B  B17  1  0.500000  0.257663  0.576358  1
  B  B18  1  0.500000  0.242993  0.076413  1
  B  B19  1  0.500000  0.757498  0.923820  1
  B  B20  1  0.500000  0.803030  0.273549  1
  B  B21  1  0.500000  0.196376  0.726158  1
  B  B22  1  0.500000  0.302120  0.225528  1
  B  B23  1  0.500000  0.698970  0.775373  1
  B  B24  1  0.500000  0.644447  0.187788  1
  B  B25  1  0.500000  0.354859  0.811902  1
  B  B26  1  0.500000  0.144779  0.311636  1
  B  B27  1  0.500000  0.856581  0.689121  1
  B  B28  1  0.500000  0.986902  0.219311  1
  B  B29  1  0.500000  0.013153  0.781140  1
  B  B30  1  0.500000  0.487322  0.281141  1
  B  B31  1  0.500000  0.511027  0.719004  1
  B  B32  1  0.500000  0.643202  0.039232  1
  B  B33  1  0.500000  0.356646  0.960526  1
  B  B34  1  0.500000  0.140916  0.460659  1
  B  B35  1  0.500000  0.861538  0.538721  1
