# generated using pymatgen
data_Dy4HfSc5Ga8
_symmetry_space_group_name_H-M   'P 1'
_cell_length_a   7.25500642
_cell_length_b   7.50833200
_cell_length_c   14.46261382
_cell_angle_alpha   89.99786161
_cell_angle_beta   90.07159242
_cell_angle_gamma   90.00131242
_symmetry_Int_Tables_number   1
_chemical_formula_structural   Dy4HfSc5Ga8
_chemical_formula_sum   'Dy8 Hf2 Sc10 Ga16'
_cell_volume   787.82130156
_cell_formula_units_Z   2
loop_
 _symmetry_equiv_pos_site_id
 _symmetry_equiv_pos_as_xyz
  1  'x, y, z'
loop_
 _atom_site_type_symbol
 _atom_site_label
 _atom_site_symmetry_multiplicity
 _atom_site_fract_x
 _atom_site_fract_y
 _atom_site_fract_z
 _atom_site_occupancy
  Dy  Dy0  1  0.011562  0.177700  0.095481  1
  Dy  Dy1  1  0.988438  0.822300  0.904519  1
  Dy  Dy2  1  0.488631  0.677073  0.904711  1
  Dy  Dy3  1  0.988369  0.822821  0.595063  1
  Dy  Dy4  1  0.511369  0.322927  0.095289  1
  Dy  Dy5  1  0.011631  0.177179  0.404937  1
  Dy  Dy6  1  0.511205  0.323620  0.404289  1
  Dy  Dy7  1  0.488795  0.676380  0.595711  1
  Hf  Hf8  1  0.330167  0.174658  0.624451  1
  Hf  Hf9  1  0.669833  0.825342  0.375549  1
  Sc  Sc10  1  0.162227  0.502947  0.750140  1
  Sc  Sc11  1  0.837773  0.497053  0.249860  1
  Sc  Sc12  1  0.338056  0.003153  0.249920  1
  Sc  Sc13  1  0.661944  0.996847  0.750080  1
  Sc  Sc14  1  0.170800  0.674491  0.376537  1
  Sc  Sc15  1  0.669986  0.825925  0.123936  1
  Sc  Sc16  1  0.829200  0.325509  0.623463  1
  Sc  Sc17  1  0.330014  0.174075  0.876064  1
  Sc  Sc18  1  0.829634  0.326298  0.876580  1
  Sc  Sc19  1  0.170366  0.673702  0.123420  1
  Ga  Ga20  1  0.033223  0.118587  0.749018  1
  Ga  Ga21  1  0.966777  0.881413  0.250982  1
  Ga  Ga22  1  0.469039  0.619026  0.250802  1
  Ga  Ga23  1  0.530961  0.380974  0.749198  1
  Ga  Ga24  1  0.285405  0.874470  0.748943  1
  Ga  Ga25  1  0.714595  0.125530  0.251057  1
  Ga  Ga26  1  0.215208  0.372592  0.250329  1
  Ga  Ga27  1  0.784792  0.627408  0.749671  1
  Ga  Ga28  1  0.160803  0.462949  0.540679  1
  Ga  Ga29  1  0.839197  0.537051  0.459321  1
  Ga  Ga30  1  0.342075  0.964650  0.460466  1
  Ga  Ga31  1  0.839863  0.535181  0.040170  1
  Ga  Ga32  1  0.657925  0.035350  0.539534  1
  Ga  Ga33  1  0.160137  0.464819  0.959830  1
  Ga  Ga34  1  0.659299  0.035728  0.959679  1
  Ga  Ga35  1  0.340701  0.964272  0.040321  1
