# generated using pymatgen
data_Ce3Ho(InRu)4
_symmetry_space_group_name_H-M   'P 1'
_cell_length_a   6.32275776
_cell_length_b   6.32275798
_cell_length_c   9.91210395
_cell_angle_alpha   77.04496255
_cell_angle_beta   77.04495950
_cell_angle_gamma   45.23510817
_symmetry_Int_Tables_number   1
_chemical_formula_structural   Ce3Ho(InRu)4
_chemical_formula_sum   'Ce3 Ho1 In4 Ru4'
_cell_volume   272.92130861
_cell_formula_units_Z   1
loop_
 _symmetry_equiv_pos_site_id
 _symmetry_equiv_pos_as_xyz
  1  'x, y, z'
loop_
 _atom_site_type_symbol
 _atom_site_label
 _atom_site_symmetry_multiplicity
 _atom_site_fract_x
 _atom_site_fract_y
 _atom_site_fract_z
 _atom_site_occupancy
  Ce  Ce0  1  0.860789  0.860789  0.417322  1
  Ce  Ce1  1  0.866575  0.866575  0.915835  1
  Ce  Ce2  1  0.140831  0.140831  0.086880  1
  Ho  Ho3  1  0.119922  0.119922  0.594116  1
  In  In4  1  0.429794  0.429794  0.151547  1
  In  In5  1  0.414182  0.414182  0.653103  1
  In  In6  1  0.579190  0.579190  0.847803  1
  In  In7  1  0.583238  0.583238  0.363190  1
  Ru  Ru8  1  0.810129  0.810129  0.161104  1
  Ru  Ru9  1  0.197786  0.197786  0.302518  1
  Ru  Ru10  1  0.194461  0.194461  0.842397  1
  Ru  Ru11  1  0.803102  0.803102  0.664183  1
