# generated using pymatgen
data_Er2Sb2Br2O5
_symmetry_space_group_name_H-M   'P 1'
_cell_length_a   6.78094604
_cell_length_b   6.99032670
_cell_length_c   10.27196300
_cell_angle_alpha   110.15472960
_cell_angle_beta   96.23425472
_cell_angle_gamma   99.58591175
_symmetry_Int_Tables_number   1
_chemical_formula_structural   Er2Sb2Br2O5
_chemical_formula_sum   'Er4 Sb4 Br4 O10'
_cell_volume   443.40016368
_cell_formula_units_Z   2
loop_
 _symmetry_equiv_pos_site_id
 _symmetry_equiv_pos_as_xyz
  1  'x, y, z'
loop_
 _atom_site_type_symbol
 _atom_site_label
 _atom_site_symmetry_multiplicity
 _atom_site_fract_x
 _atom_site_fract_y
 _atom_site_fract_z
 _atom_site_occupancy
  Er  Er0  1  0.391618  0.756037  0.538963  1
  Er  Er1  1  0.608382  0.243963  0.461037  1
  Er  Er2  1  0.856273  0.751020  0.375443  1
  Er  Er3  1  0.143727  0.248980  0.624557  1
  Sb  Sb4  1  0.898489  0.785131  0.713878  1
  Sb  Sb5  1  0.101511  0.214869  0.286122  1
  Sb  Sb6  1  0.680723  0.259116  0.793464  1
  Sb  Sb7  1  0.319277  0.740884  0.206536  1
  Br  Br8  1  0.353129  0.673651  0.801367  1
  Br  Br9  1  0.646871  0.326349  0.198633  1
  Br  Br10  1  0.874739  0.761630  0.090025  1
  Br  Br11  1  0.125261  0.238370  0.909975  1
  O  O12  1  0.844386  0.340714  0.664118  1
  O  O13  1  0.155614  0.659286  0.335882  1
  O  O14  1  0.554133  0.840121  0.376345  1
  O  O15  1  0.445867  0.159879  0.623655  1
  O  O16  1  0.686804  0.955676  0.703776  1
  O  O17  1  0.313196  0.044324  0.296224  1
  O  O18  1  0.713724  0.597175  0.523479  1
  O  O19  1  0.286276  0.402825  0.476521  1
  O  O20  1  0.067935  0.890677  0.589130  1
  O  O21  1  0.932065  0.109323  0.410870  1
