# generated using pymatgen
data_Zr6AlAsN2
_symmetry_space_group_name_H-M   'P 1'
_cell_length_a   5.95316917
_cell_length_b   5.95317050
_cell_length_c   8.77801100
_cell_angle_alpha   90.00000000
_cell_angle_beta   90.00000000
_cell_angle_gamma   146.23895864
_symmetry_Int_Tables_number   1
_chemical_formula_structural   Zr6AlAsN2
_chemical_formula_sum   'Zr6 Al1 As1 N2'
_cell_volume   172.88482021
_cell_formula_units_Z   1
loop_
 _symmetry_equiv_pos_site_id
 _symmetry_equiv_pos_as_xyz
  1  'x, y, z'
loop_
 _atom_site_type_symbol
 _atom_site_label
 _atom_site_symmetry_multiplicity
 _atom_site_fract_x
 _atom_site_fract_y
 _atom_site_fract_z
 _atom_site_occupancy
  Zr  Zr0  1  0.951603  0.048397  0.750000  1
  Zr  Zr1  1  0.059190  0.940810  0.250000  1
  Zr  Zr2  1  0.626914  0.373086  0.545520  1
  Zr  Zr3  1  0.369615  0.630385  0.445420  1
  Zr  Zr4  1  0.369615  0.630385  0.054580  1
  Zr  Zr5  1  0.626914  0.373086  0.954480  1
  Al  Al6  1  0.252127  0.747873  0.750000  1
  As  As7  1  0.746293  0.253707  0.250000  1
  N  N8  1  0.998864  0.001136  0.495865  1
  N  N9  1  0.998864  0.001136  0.004135  1
