# generated using pymatgen
data_Th3NiRu2Pb3
_symmetry_space_group_name_H-M   'P 1'
_cell_length_a   7.71807100
_cell_length_b   7.71807077
_cell_length_c   4.05369900
_cell_angle_alpha   90.00000000
_cell_angle_beta   90.00000000
_cell_angle_gamma   120.00000527
_symmetry_Int_Tables_number   1
_chemical_formula_structural   Th3NiRu2Pb3
_chemical_formula_sum   'Th3 Ni1 Ru2 Pb3'
_cell_volume   209.12195597
_cell_formula_units_Z   1
loop_
 _symmetry_equiv_pos_site_id
 _symmetry_equiv_pos_as_xyz
  1  'x, y, z'
loop_
 _atom_site_type_symbol
 _atom_site_label
 _atom_site_symmetry_multiplicity
 _atom_site_fract_x
 _atom_site_fract_y
 _atom_site_fract_z
 _atom_site_occupancy
  Th  Th0  1  0.000000  0.415597  0.500000  1
  Th  Th1  1  0.584403  0.584403  0.500000  1
  Th  Th2  1  0.415597  0.000000  0.500000  1
  Ni  Ni3  1  0.000000  0.000000  0.500000  1
  Ru  Ru4  1  0.333333  0.666667  0.000000  1
  Ru  Ru5  1  0.666667  0.333333  0.000000  1
  Pb  Pb6  1  0.000000  0.750958  0.000000  1
  Pb  Pb7  1  0.249042  0.249042  0.000000  1
  Pb  Pb8  1  0.750958  0.000000  0.000000  1
