# generated using pymatgen
data_Na3LiMn2F12
_symmetry_space_group_name_H-M   'P 1'
_cell_length_a   5.17685900
_cell_length_b   5.17685900
_cell_length_c   18.00083800
_cell_angle_alpha   90.00000000
_cell_angle_beta   90.00000000
_cell_angle_gamma   90.00000000
_symmetry_Int_Tables_number   1
_chemical_formula_structural   Na3LiMn2F12
_chemical_formula_sum   'Na6 Li2 Mn4 F24'
_cell_volume   482.42010220
_cell_formula_units_Z   2
loop_
 _symmetry_equiv_pos_site_id
 _symmetry_equiv_pos_as_xyz
  1  'x, y, z'
loop_
 _atom_site_type_symbol
 _atom_site_label
 _atom_site_symmetry_multiplicity
 _atom_site_fract_x
 _atom_site_fract_y
 _atom_site_fract_z
 _atom_site_occupancy
  Na  Na0  1  0.000000  0.500000  0.308856  1
  Na  Na1  1  0.500000  0.000000  0.691144  1
  Na  Na2  1  0.500000  0.000000  0.191144  1
  Na  Na3  1  0.000000  0.500000  0.808856  1
  Na  Na4  1  0.000000  0.000000  0.500000  1
  Na  Na5  1  0.500000  0.500000  0.000000  1
  Li  Li6  1  0.000000  0.000000  0.000000  1
  Li  Li7  1  0.500000  0.500000  0.500000  1
  Mn  Mn8  1  0.000000  0.500000  0.123078  1
  Mn  Mn9  1  0.500000  0.000000  0.876922  1
  Mn  Mn10  1  0.500000  0.000000  0.376922  1
  Mn  Mn11  1  0.000000  0.500000  0.623078  1
  F  F12  1  0.211381  0.206949  0.382313  1
  F  F13  1  0.788619  0.793051  0.382313  1
  F  F14  1  0.206949  0.788619  0.617687  1
  F  F15  1  0.288619  0.706949  0.117687  1
  F  F16  1  0.793051  0.211381  0.617687  1
  F  F17  1  0.711381  0.293051  0.117687  1
  F  F18  1  0.293051  0.288619  0.882313  1
  F  F19  1  0.706949  0.711381  0.882313  1
  F  F20  1  0.143958  0.299502  0.196001  1
  F  F21  1  0.856042  0.700498  0.196001  1
  F  F22  1  0.299502  0.856042  0.803999  1
  F  F23  1  0.356042  0.799502  0.303999  1
  F  F24  1  0.700498  0.143958  0.803999  1
  F  F25  1  0.643958  0.200498  0.303999  1
  F  F26  1  0.200498  0.356042  0.696001  1
  F  F27  1  0.799502  0.643958  0.696001  1
  F  F28  1  0.148093  0.289678  0.050157  1
  F  F29  1  0.851907  0.710322  0.050157  1
  F  F30  1  0.289678  0.851907  0.949843  1
  F  F31  1  0.351907  0.789678  0.449843  1
  F  F32  1  0.710322  0.148093  0.949843  1
  F  F33  1  0.648093  0.210322  0.449843  1
  F  F34  1  0.210322  0.351907  0.550157  1
  F  F35  1  0.789678  0.648093  0.550157  1
