# generated using pymatgen
data_Er8In2NiRu
_symmetry_space_group_name_H-M   'P 1'
_cell_length_a   9.53340239
_cell_length_b   9.52321509
_cell_length_c   9.52352183
_cell_angle_alpha   60.19552319
_cell_angle_beta   59.98707888
_cell_angle_gamma   59.98793165
_symmetry_Int_Tables_number   1
_chemical_formula_structural   Er8In2NiRu
_chemical_formula_sum   'Er16 In4 Ni2 Ru2'
_cell_volume   612.16634210
_cell_formula_units_Z   2
loop_
 _symmetry_equiv_pos_site_id
 _symmetry_equiv_pos_as_xyz
  1  'x, y, z'
loop_
 _atom_site_type_symbol
 _atom_site_label
 _atom_site_symmetry_multiplicity
 _atom_site_fract_x
 _atom_site_fract_y
 _atom_site_fract_z
 _atom_site_occupancy
  Er  Er0  1  0.060056  0.059120  0.436100  1
  Er  Er1  1  0.649154  0.047354  0.650700  1
  Er  Er2  1  0.189343  0.809729  0.190020  1
  Er  Er3  1  0.442571  0.059806  0.435496  1
  Er  Er4  1  0.189346  0.190018  0.809735  1
  Er  Er5  1  0.649982  0.654273  0.654258  1
  Er  Er6  1  0.046813  0.651109  0.651118  1
  Er  Er7  1  0.436855  0.062683  0.062672  1
  Er  Er8  1  0.649153  0.650704  0.047349  1
  Er  Er9  1  0.190049  0.811358  0.811350  1
  Er  Er10  1  0.812444  0.190760  0.808056  1
  Er  Er11  1  0.811457  0.189427  0.189434  1
  Er  Er12  1  0.812448  0.808067  0.190754  1
  Er  Er13  1  0.059043  0.440738  0.440737  1
  Er  Er14  1  0.442574  0.435497  0.059807  1
  Er  Er15  1  0.060078  0.436104  0.059108  1
  In  In16  1  0.749808  0.416546  0.416482  1
  In  In17  1  0.417506  0.417471  0.747964  1
  In  In18  1  0.417445  0.747950  0.417457  1
  In  In19  1  0.416570  0.416886  0.416979  1
  Ni  Ni20  1  0.857068  0.859594  0.859605  1
  Ni  Ni21  1  0.424030  0.859914  0.859917  1
  Ru  Ru22  1  0.858112  0.859507  0.425392  1
  Ru  Ru23  1  0.858098  0.425384  0.859510  1
