# generated using pymatgen
data_Dy8Lu4InCo4Ni
_symmetry_space_group_name_H-M   'P 1'
_cell_length_a   8.22635672
_cell_length_b   8.22635477
_cell_length_c   8.22635624
_cell_angle_alpha   110.85956554
_cell_angle_beta   110.64577218
_cell_angle_gamma   106.93772498
_symmetry_Int_Tables_number   1
_chemical_formula_structural   Dy8Lu4InCo4Ni
_chemical_formula_sum   'Dy8 Lu4 In1 Co4 Ni1'
_cell_volume   427.92258021
_cell_formula_units_Z   1
loop_
 _symmetry_equiv_pos_site_id
 _symmetry_equiv_pos_as_xyz
  1  'x, y, z'
loop_
 _atom_site_type_symbol
 _atom_site_label
 _atom_site_symmetry_multiplicity
 _atom_site_fract_x
 _atom_site_fract_y
 _atom_site_fract_z
 _atom_site_occupancy
  Dy  Dy0  1  0.409804  0.214401  0.195404  1
  Dy  Dy1  1  0.590196  0.785599  0.804596  1
  Dy  Dy2  1  0.018997  0.214401  0.804596  1
  Dy  Dy3  1  0.981003  0.785599  0.195404  1
  Dy  Dy4  1  0.185551  0.290194  0.475746  1
  Dy  Dy5  1  0.814449  0.709806  0.524254  1
  Dy  Dy6  1  0.185551  0.709806  0.895358  1
  Dy  Dy7  1  0.814449  0.290194  0.104642  1
  Lu  Lu8  1  0.317289  0.624586  0.307295  1
  Lu  Lu9  1  0.682711  0.375414  0.692705  1
  Lu  Lu10  1  0.317289  0.009993  0.692705  1
  Lu  Lu11  1  0.682711  0.990007  0.307295  1
  In  In12  1  0.500000  0.500000  0.000000  1
  Co  Co13  1  0.377673  0.000000  0.377673  1
  Co  Co14  1  0.622327  0.000000  0.622327  1
  Co  Co15  1  0.113697  0.613697  0.500000  1
  Co  Co16  1  0.886303  0.386303  0.500000  1
  Ni  Ni17  1  0.000000  0.000000  0.000000  1
