# generated using pymatgen
data_Ho3Ag3PtPb2
_symmetry_space_group_name_H-M   'P 1'
_cell_length_a   8.25993800
_cell_length_b   8.25993961
_cell_length_c   3.52815600
_cell_angle_alpha   90.00000000
_cell_angle_beta   90.00000000
_cell_angle_gamma   119.99999355
_symmetry_Int_Tables_number   1
_chemical_formula_structural   Ho3Ag3PtPb2
_chemical_formula_sum   'Ho3 Ag3 Pt1 Pb2'
_cell_volume   208.46449549
_cell_formula_units_Z   1
loop_
 _symmetry_equiv_pos_site_id
 _symmetry_equiv_pos_as_xyz
  1  'x, y, z'
loop_
 _atom_site_type_symbol
 _atom_site_label
 _atom_site_symmetry_multiplicity
 _atom_site_fract_x
 _atom_site_fract_y
 _atom_site_fract_z
 _atom_site_occupancy
  Ho  Ho0  1  0.587039  0.955777  0.500000  1
  Ho  Ho1  1  0.368737  0.412961  0.500000  1
  Ho  Ho2  1  0.044223  0.631263  0.500000  1
  Ag  Ag3  1  0.704130  0.704351  0.000000  1
  Ag  Ag4  1  0.000222  0.295870  0.000000  1
  Ag  Ag5  1  0.295649  0.999778  0.000000  1
  Pt  Pt6  1  0.333333  0.666667  0.000000  1
  Pb  Pb7  1  0.000000  0.000000  0.500000  1
  Pb  Pb8  1  0.666667  0.333333  0.000000  1
