# generated using pymatgen
data_Er2Al6CdNi2Hg
_symmetry_space_group_name_H-M   'P 1'
_cell_length_a   8.07783777
_cell_length_b   8.07783682
_cell_length_c   6.65516618
_cell_angle_alpha   90.25071805
_cell_angle_beta   89.74928190
_cell_angle_gamma   150.83878164
_symmetry_Int_Tables_number   1
_chemical_formula_structural   Er2Al6CdNi2Hg
_chemical_formula_sum   'Er2 Al6 Cd1 Ni2 Hg1'
_cell_volume   211.59878933
_cell_formula_units_Z   1
loop_
 _symmetry_equiv_pos_site_id
 _symmetry_equiv_pos_as_xyz
  1  'x, y, z'
loop_
 _atom_site_type_symbol
 _atom_site_label
 _atom_site_symmetry_multiplicity
 _atom_site_fract_x
 _atom_site_fract_y
 _atom_site_fract_z
 _atom_site_occupancy
  Er  Er0  1  0.125395  0.874605  0.751456  1
  Er  Er1  1  0.874605  0.125395  0.248544  1
  Al  Al2  1  0.922341  0.077659  0.747265  1
  Al  Al3  1  0.690344  0.309656  0.446946  1
  Al  Al4  1  0.077659  0.922341  0.252735  1
  Al  Al5  1  0.309878  0.690122  0.946896  1
  Al  Al6  1  0.690122  0.309878  0.053104  1
  Al  Al7  1  0.309656  0.690344  0.553054  1
  Cd  Cd8  1  0.500000  0.500000  0.000000  1
  Ni  Ni9  1  0.226104  0.773896  0.251528  1
  Ni  Ni10  1  0.773896  0.226104  0.748472  1
  Hg  Hg11  1  0.500000  0.500000  0.500000  1
