# generated using pymatgen
data_LuVNi4P3
_symmetry_space_group_name_H-M   'P 1'
_cell_length_a   3.64426200
_cell_length_b   10.44011400
_cell_length_c   12.00014700
_cell_angle_alpha   90.00000000
_cell_angle_beta   90.00000000
_cell_angle_gamma   90.00000000
_symmetry_Int_Tables_number   1
_chemical_formula_structural   LuVNi4P3
_chemical_formula_sum   'Lu4 V4 Ni16 P12'
_cell_volume   456.56372155
_cell_formula_units_Z   4
loop_
 _symmetry_equiv_pos_site_id
 _symmetry_equiv_pos_as_xyz
  1  'x, y, z'
loop_
 _atom_site_type_symbol
 _atom_site_label
 _atom_site_symmetry_multiplicity
 _atom_site_fract_x
 _atom_site_fract_y
 _atom_site_fract_z
 _atom_site_occupancy
  Lu  Lu0  1  0.250000  0.581414  0.706114  1
  Lu  Lu1  1  0.250000  0.918586  0.206114  1
  Lu  Lu2  1  0.750000  0.418586  0.293886  1
  Lu  Lu3  1  0.750000  0.081414  0.793886  1
  V  V4  1  0.250000  0.706433  0.988088  1
  V  V5  1  0.250000  0.793567  0.488088  1
  V  V6  1  0.750000  0.293567  0.011912  1
  V  V7  1  0.750000  0.206433  0.511912  1
  Ni  Ni8  1  0.250000  0.408446  0.486571  1
  Ni  Ni9  1  0.250000  0.091554  0.986571  1
  Ni  Ni10  1  0.750000  0.591554  0.513429  1
  Ni  Ni11  1  0.750000  0.908446  0.013429  1
  Ni  Ni12  1  0.250000  0.220763  0.176966  1
  Ni  Ni13  1  0.250000  0.279237  0.676966  1
  Ni  Ni14  1  0.750000  0.779237  0.823034  1
  Ni  Ni15  1  0.750000  0.720763  0.323034  1
  Ni  Ni16  1  0.250000  0.881233  0.701597  1
  Ni  Ni17  1  0.250000  0.618767  0.201597  1
  Ni  Ni18  1  0.750000  0.118767  0.298403  1
  Ni  Ni19  1  0.750000  0.381233  0.798403  1
  Ni  Ni20  1  0.250000  0.466240  0.931149  1
  Ni  Ni21  1  0.250000  0.033760  0.431149  1
  Ni  Ni22  1  0.750000  0.533760  0.068851  1
  Ni  Ni23  1  0.750000  0.966240  0.568851  1
  P  P24  1  0.250000  0.419020  0.114811  1
  P  P25  1  0.250000  0.080980  0.614811  1
  P  P26  1  0.750000  0.580980  0.885189  1
  P  P27  1  0.750000  0.919020  0.385189  1
  P  P28  1  0.250000  0.265100  0.868703  1
  P  P29  1  0.250000  0.234900  0.368703  1
  P  P30  1  0.750000  0.734900  0.131297  1
  P  P31  1  0.750000  0.765100  0.631297  1
  P  P32  1  0.250000  0.600011  0.390594  1
  P  P33  1  0.250000  0.899989  0.890594  1
  P  P34  1  0.750000  0.399989  0.609406  1
  P  P35  1  0.750000  0.100011  0.109406  1
