# generated using pymatgen
data_Ce2AlRh5
_symmetry_space_group_name_H-M   'P 1'
_cell_length_a   4.17773000
_cell_length_b   5.75297700
_cell_length_c   11.31397900
_cell_angle_alpha   90.00000000
_cell_angle_beta   90.00000000
_cell_angle_gamma   90.00000000
_symmetry_Int_Tables_number   1
_chemical_formula_structural   Ce2AlRh5
_chemical_formula_sum   'Ce4 Al2 Rh10'
_cell_volume   271.92452267
_cell_formula_units_Z   2
loop_
 _symmetry_equiv_pos_site_id
 _symmetry_equiv_pos_as_xyz
  1  'x, y, z'
loop_
 _atom_site_type_symbol
 _atom_site_label
 _atom_site_symmetry_multiplicity
 _atom_site_fract_x
 _atom_site_fract_y
 _atom_site_fract_z
 _atom_site_occupancy
  Ce  Ce0  1  0.500000  0.325174  0.140945  1
  Ce  Ce1  1  0.500000  0.674826  0.859055  1
  Ce  Ce2  1  0.500000  0.825174  0.359055  1
  Ce  Ce3  1  0.500000  0.174826  0.640945  1
  Al  Al4  1  0.000000  0.000000  0.000000  1
  Al  Al5  1  0.000000  0.500000  0.500000  1
  Rh  Rh6  1  0.000000  0.000000  0.500000  1
  Rh  Rh7  1  0.000000  0.500000  0.000000  1
  Rh  Rh8  1  0.000000  0.072162  0.240706  1
  Rh  Rh9  1  0.000000  0.927838  0.759294  1
  Rh  Rh10  1  0.000000  0.572162  0.259294  1
  Rh  Rh11  1  0.000000  0.427838  0.740706  1
  Rh  Rh12  1  0.500000  0.317529  0.394969  1
  Rh  Rh13  1  0.500000  0.682471  0.605031  1
  Rh  Rh14  1  0.500000  0.817529  0.105031  1
  Rh  Rh15  1  0.500000  0.182471  0.894969  1
