# generated using pymatgen
data_Y7ErSc12Si7Ge9
_symmetry_space_group_name_H-M   'P 1'
_cell_length_a   7.18298431
_cell_length_b   7.42689158
_cell_length_c   14.07854833
_cell_angle_alpha   89.99354958
_cell_angle_beta   89.97597204
_cell_angle_gamma   90.22656050
_symmetry_Int_Tables_number   1
_chemical_formula_structural   Y7ErSc12Si7Ge9
_chemical_formula_sum   'Y7 Er1 Sc12 Si7 Ge9'
_cell_volume   751.04583401
_cell_formula_units_Z   1
loop_
 _symmetry_equiv_pos_site_id
 _symmetry_equiv_pos_as_xyz
  1  'x, y, z'
loop_
 _atom_site_type_symbol
 _atom_site_label
 _atom_site_symmetry_multiplicity
 _atom_site_fract_x
 _atom_site_fract_y
 _atom_site_fract_z
 _atom_site_occupancy
  Y  Y0  1  0.003076  0.177001  0.098684  1
  Y  Y1  1  0.997748  0.821268  0.901408  1
  Y  Y2  1  0.497554  0.676109  0.902000  1
  Y  Y3  1  0.997628  0.820946  0.598165  1
  Y  Y4  1  0.502623  0.323315  0.098752  1
  Y  Y5  1  0.003335  0.177206  0.401593  1
  Y  Y6  1  0.502196  0.323526  0.401555  1
  Er  Er7  1  0.497599  0.676476  0.598511  1
  Sc  Sc8  1  0.173171  0.502496  0.749714  1
  Sc  Sc9  1  0.827488  0.499928  0.250121  1
  Sc  Sc10  1  0.327737  0.999981  0.250087  1
  Sc  Sc11  1  0.669680  0.998774  0.749752  1
  Sc  Sc12  1  0.343747  0.172666  0.626537  1
  Sc  Sc13  1  0.657677  0.827073  0.373435  1
  Sc  Sc14  1  0.157965  0.672000  0.373921  1
  Sc  Sc15  1  0.658057  0.827484  0.126832  1
  Sc  Sc16  1  0.838916  0.330622  0.624444  1
  Sc  Sc17  1  0.343761  0.172517  0.873234  1
  Sc  Sc18  1  0.838835  0.330361  0.875095  1
  Sc  Sc19  1  0.158175  0.672317  0.126316  1
  Si  Si20  1  0.956345  0.882015  0.250195  1
  Si  Si21  1  0.455063  0.617964  0.250076  1
  Si  Si22  1  0.544295  0.382137  0.749648  1
  Si  Si23  1  0.300034  0.867765  0.749417  1
  Si  Si24  1  0.704598  0.127591  0.250168  1
  Si  Si25  1  0.204228  0.372869  0.250095  1
  Si  Si26  1  0.795585  0.627857  0.749512  1
  Ge  Ge27  1  0.040005  0.121947  0.749820  1
  Ge  Ge28  1  0.177766  0.459791  0.541148  1
  Ge  Ge29  1  0.823316  0.540722  0.458643  1
  Ge  Ge30  1  0.325792  0.959508  0.459776  1
  Ge  Ge31  1  0.824791  0.540710  0.041506  1
  Ge  Ge32  1  0.674730  0.038651  0.540617  1
  Ge  Ge33  1  0.175538  0.458827  0.959195  1
  Ge  Ge34  1  0.675261  0.039446  0.959598  1
  Ge  Ge35  1  0.325686  0.960132  0.040431  1
