# generated using pymatgen
data_Ho3Mg3(Ni7B2)2
_symmetry_space_group_name_H-M   'P 1'
_cell_length_a   4.95526269
_cell_length_b   4.95526282
_cell_length_c   14.04224227
_cell_angle_alpha   90.08535239
_cell_angle_beta   89.91464705
_cell_angle_gamma   119.85764013
_symmetry_Int_Tables_number   1
_chemical_formula_structural   Ho3Mg3(Ni7B2)2
_chemical_formula_sum   'Ho3 Mg3 Ni14 B4'
_cell_volume   299.03432439
_cell_formula_units_Z   1
loop_
 _symmetry_equiv_pos_site_id
 _symmetry_equiv_pos_as_xyz
  1  'x, y, z'
loop_
 _atom_site_type_symbol
 _atom_site_label
 _atom_site_symmetry_multiplicity
 _atom_site_fract_x
 _atom_site_fract_y
 _atom_site_fract_z
 _atom_site_occupancy
  Ho  Ho0  1  0.666840  0.333160  0.468467  1
  Ho  Ho1  1  0.666793  0.333207  0.241401  1
  Ho  Ho2  1  0.333189  0.666811  0.752525  1
  Mg  Mg3  1  0.666492  0.333508  0.024089  1
  Mg  Mg4  1  0.333421  0.666579  0.974162  1
  Mg  Mg5  1  0.333451  0.666549  0.535852  1
  Ni  Ni6  1  0.834287  0.668301  0.648502  1
  Ni  Ni7  1  0.833861  0.166139  0.648182  1
  Ni  Ni8  1  0.331699  0.165713  0.648502  1
  Ni  Ni9  1  0.167344  0.333430  0.352070  1
  Ni  Ni10  1  0.166999  0.833001  0.352392  1
  Ni  Ni11  1  0.666570  0.832656  0.352070  1
  Ni  Ni12  1  0.166244  0.332868  0.143695  1
  Ni  Ni13  1  0.166518  0.833482  0.143468  1
  Ni  Ni14  1  0.667132  0.833756  0.143695  1
  Ni  Ni15  1  0.833453  0.668149  0.855681  1
  Ni  Ni16  1  0.833934  0.166066  0.855723  1
  Ni  Ni17  1  0.331851  0.166547  0.855681  1
  Ni  Ni18  1  0.000102  0.999898  0.501577  1
  Ni  Ni19  1  0.999983  0.000017  0.999752  1
  B  B20  1  0.666399  0.333601  0.751674  1
  B  B21  1  0.333487  0.666513  0.248515  1
  B  B22  1  0.999764  0.000236  0.753258  1
  B  B23  1  0.000190  0.999810  0.249069  1
