# generated using pymatgen
data_Li3HoAs6Ir7
_symmetry_space_group_name_H-M   'P 1'
_cell_length_a   6.95165721
_cell_length_b   7.09510172
_cell_length_c   7.09510080
_cell_angle_alpha   109.87712702
_cell_angle_beta   109.06218534
_cell_angle_gamma   109.06219213
_symmetry_Int_Tables_number   1
_chemical_formula_structural   Li3HoAs6Ir7
_chemical_formula_sum   'Li3 Ho1 As6 Ir7'
_cell_volume   270.73921671
_cell_formula_units_Z   1
loop_
 _symmetry_equiv_pos_site_id
 _symmetry_equiv_pos_as_xyz
  1  'x, y, z'
loop_
 _atom_site_type_symbol
 _atom_site_label
 _atom_site_symmetry_multiplicity
 _atom_site_fract_x
 _atom_site_fract_y
 _atom_site_fract_z
 _atom_site_occupancy
  Li  Li0  1  0.000000  0.000000  0.500000  1
  Li  Li1  1  0.000000  0.500000  0.000000  1
  Li  Li2  1  0.500000  0.500000  0.500000  1
  Ho  Ho3  1  0.500000  0.000000  0.000000  1
  As  As4  1  0.694559  0.680218  0.000000  1
  As  As5  1  0.305441  0.319782  0.000000  1
  As  As6  1  0.985660  0.680218  0.680218  1
  As  As7  1  0.014340  0.319782  0.319782  1
  As  As8  1  0.694559  0.000000  0.680218  1
  As  As9  1  0.305441  0.000000  0.319782  1
  Ir  Ir10  1  0.000000  0.000000  0.000000  1
  Ir  Ir11  1  0.247698  0.495395  0.747698  1
  Ir  Ir12  1  0.752302  0.252302  0.504605  1
  Ir  Ir13  1  0.500000  0.252302  0.747698  1
  Ir  Ir14  1  0.500000  0.747698  0.252302  1
  Ir  Ir15  1  0.752302  0.504605  0.252302  1
  Ir  Ir16  1  0.247698  0.747698  0.495395  1
