# generated using pymatgen
data_Tb4CrTc3H20
_symmetry_space_group_name_H-M   'P 1'
_cell_length_a   4.44668264
_cell_length_b   4.52442158
_cell_length_c   11.44595000
_cell_angle_alpha   89.39812271
_cell_angle_beta   89.57101364
_cell_angle_gamma   90.18952139
_symmetry_Int_Tables_number   1
_chemical_formula_structural   Tb4CrTc3H20
_chemical_formula_sum   'Tb4 Cr1 Tc3 H20'
_cell_volume   230.25677505
_cell_formula_units_Z   1
loop_
 _symmetry_equiv_pos_site_id
 _symmetry_equiv_pos_as_xyz
  1  'x, y, z'
loop_
 _atom_site_type_symbol
 _atom_site_label
 _atom_site_symmetry_multiplicity
 _atom_site_fract_x
 _atom_site_fract_y
 _atom_site_fract_z
 _atom_site_occupancy
  Tb  Tb0  1  0.758900  0.749740  0.854300  1
  Tb  Tb1  1  0.250224  0.742925  0.143750  1
  Tb  Tb2  1  0.758509  0.257659  0.353974  1
  Tb  Tb3  1  0.257448  0.239755  0.648207  1
  Cr  Cr4  1  0.762457  0.770216  0.579141  1
  Tc  Tc5  1  0.256701  0.206836  0.911433  1
  Tc  Tc6  1  0.759425  0.284421  0.087770  1
  Tc  Tc7  1  0.220989  0.730104  0.419692  1
  H  H8  1  0.524502  0.008995  0.002620  1
  H  H9  1  0.024656  0.488661  0.994473  1
  H  H10  1  0.010166  0.008333  0.500936  1
  H  H11  1  0.508728  0.525048  0.501107  1
  H  H12  1  0.265032  0.903945  0.824190  1
  H  H13  1  0.744315  0.587129  0.174922  1
  H  H14  1  0.386920  0.945604  0.314602  1
  H  H15  1  0.017525  0.696367  0.683240  1
  H  H16  1  0.493144  0.181915  0.187770  1
  H  H17  1  0.978435  0.287976  0.813028  1
  H  H18  1  0.743657  0.062666  0.666364  1
  H  H19  1  0.293152  0.454496  0.322177  1
  H  H20  1  0.528834  0.301772  0.811901  1
  H  H21  1  0.036587  0.206238  0.186874  1
  H  H22  1  0.929477  0.765178  0.323011  1
  H  H23  1  0.533882  0.641988  0.684513  1
  H  H24  1  0.988236  0.004010  0.003201  1
  H  H25  1  0.490078  0.481986  0.997103  1
  H  H26  1  0.493106  0.978062  0.501273  1
  H  H27  1  0.984916  0.487968  0.508429  1
