# generated using pymatgen
data_ScNb(NiH3)2
_symmetry_space_group_name_H-M   'P 1'
_cell_length_a   5.41246103
_cell_length_b   5.41246058
_cell_length_c   4.25215900
_cell_angle_alpha   90.00000000
_cell_angle_beta   90.00000000
_cell_angle_gamma   142.74361189
_symmetry_Int_Tables_number   1
_chemical_formula_structural   ScNb(NiH3)2
_chemical_formula_sum   'Sc1 Nb1 Ni2 H6'
_cell_volume   75.41001972
_cell_formula_units_Z   1
loop_
 _symmetry_equiv_pos_site_id
 _symmetry_equiv_pos_as_xyz
  1  'x, y, z'
loop_
 _atom_site_type_symbol
 _atom_site_label
 _atom_site_symmetry_multiplicity
 _atom_site_fract_x
 _atom_site_fract_y
 _atom_site_fract_z
 _atom_site_occupancy
  Sc  Sc0  1  0.139297  0.860703  0.250000  1
  Nb  Nb1  1  0.860759  0.139241  0.750000  1
  Ni  Ni2  1  0.568445  0.431555  0.750000  1
  Ni  Ni3  1  0.427550  0.572450  0.250000  1
  H  H4  1  0.060666  0.939334  0.750000  1
  H  H5  1  0.922285  0.077715  0.250000  1
  H  H6  1  0.693617  0.306383  0.508991  1
  H  H7  1  0.316882  0.683118  0.523673  1
  H  H8  1  0.693617  0.306383  0.991009  1
  H  H9  1  0.316882  0.683118  0.976327  1
