# generated using pymatgen
data_Tb20Cd6FeNi
_symmetry_space_group_name_H-M   'P 1'
_cell_length_a   9.58176100
_cell_length_b   9.58176124
_cell_length_c   9.89747000
_cell_angle_alpha   90.00000000
_cell_angle_beta   90.00000000
_cell_angle_gamma   119.99999573
_symmetry_Int_Tables_number   1
_chemical_formula_structural   Tb20Cd6FeNi
_chemical_formula_sum   'Tb20 Cd6 Fe1 Ni1'
_cell_volume   786.94707051
_cell_formula_units_Z   1
loop_
 _symmetry_equiv_pos_site_id
 _symmetry_equiv_pos_as_xyz
  1  'x, y, z'
loop_
 _atom_site_type_symbol
 _atom_site_label
 _atom_site_symmetry_multiplicity
 _atom_site_fract_x
 _atom_site_fract_y
 _atom_site_fract_z
 _atom_site_occupancy
  Tb  Tb0  1  0.000000  0.000000  0.499868  1
  Tb  Tb1  1  0.000000  0.000000  0.000132  1
  Tb  Tb2  1  0.541988  0.458012  0.250000  1
  Tb  Tb3  1  0.541988  0.083976  0.250000  1
  Tb  Tb4  1  0.916024  0.458012  0.250000  1
  Tb  Tb5  1  0.456357  0.543643  0.750000  1
  Tb  Tb6  1  0.456357  0.912714  0.750000  1
  Tb  Tb7  1  0.087286  0.543643  0.750000  1
  Tb  Tb8  1  0.211929  0.788071  0.435995  1
  Tb  Tb9  1  0.211929  0.423859  0.435995  1
  Tb  Tb10  1  0.576141  0.788071  0.435995  1
  Tb  Tb11  1  0.788871  0.211129  0.562712  1
  Tb  Tb12  1  0.788871  0.577742  0.562712  1
  Tb  Tb13  1  0.422258  0.211129  0.562712  1
  Tb  Tb14  1  0.788871  0.211129  0.937288  1
  Tb  Tb15  1  0.788871  0.577742  0.937288  1
  Tb  Tb16  1  0.422258  0.211129  0.937288  1
  Tb  Tb17  1  0.211929  0.788071  0.064005  1
  Tb  Tb18  1  0.211929  0.423859  0.064005  1
  Tb  Tb19  1  0.576141  0.788071  0.064005  1
  Cd  Cd20  1  0.885819  0.114181  0.250000  1
  Cd  Cd21  1  0.885819  0.771638  0.250000  1
  Cd  Cd22  1  0.228362  0.114181  0.250000  1
  Cd  Cd23  1  0.114039  0.885961  0.750000  1
  Cd  Cd24  1  0.114039  0.228078  0.750000  1
  Cd  Cd25  1  0.771922  0.885961  0.750000  1
  Fe  Fe26  1  0.333333  0.666667  0.250000  1
  Ni  Ni27  1  0.666667  0.333333  0.750000  1
