# generated using pymatgen
data_Li2Sm(P3Pd10)2
_symmetry_space_group_name_H-M   'P 1'
_cell_length_a   8.61897499
_cell_length_b   8.61897563
_cell_length_c   8.61897500
_cell_angle_alpha   59.99999857
_cell_angle_beta   59.99999611
_cell_angle_gamma   59.99999765
_symmetry_Int_Tables_number   1
_chemical_formula_structural   Li2Sm(P3Pd10)2
_chemical_formula_sum   'Li2 Sm1 P6 Pd20'
_cell_volume   452.74313212
_cell_formula_units_Z   1
loop_
 _symmetry_equiv_pos_site_id
 _symmetry_equiv_pos_as_xyz
  1  'x, y, z'
loop_
 _atom_site_type_symbol
 _atom_site_label
 _atom_site_symmetry_multiplicity
 _atom_site_fract_x
 _atom_site_fract_y
 _atom_site_fract_z
 _atom_site_occupancy
  Li  Li0  1  0.250000  0.250000  0.250000  1
  Li  Li1  1  0.000000  0.000000  0.000000  1
  Sm  Sm2  1  0.750000  0.750000  0.750000  1
  P  P3  1  0.738182  0.261818  0.261818  1
  P  P4  1  0.261818  0.738182  0.738182  1
  P  P5  1  0.261818  0.738182  0.261818  1
  P  P6  1  0.738182  0.261818  0.738182  1
  P  P7  1  0.261818  0.261818  0.738182  1
  P  P8  1  0.738182  0.738182  0.261818  1
  Pd  Pd9  1  0.382556  0.382556  0.382556  1
  Pd  Pd10  1  0.613272  0.613272  0.613272  1
  Pd  Pd11  1  0.382556  0.382556  0.852331  1
  Pd  Pd12  1  0.382556  0.852331  0.382556  1
  Pd  Pd13  1  0.613272  0.613272  0.160186  1
  Pd  Pd14  1  0.613272  0.160186  0.613272  1
  Pd  Pd15  1  0.852331  0.382556  0.382556  1
  Pd  Pd16  1  0.160186  0.613272  0.613272  1
  Pd  Pd17  1  0.344769  0.999218  0.999218  1
  Pd  Pd18  1  0.656796  0.999218  0.999218  1
  Pd  Pd19  1  0.999218  0.344769  0.656796  1
  Pd  Pd20  1  0.999218  0.656796  0.344769  1
  Pd  Pd21  1  0.999218  0.344769  0.999218  1
  Pd  Pd22  1  0.656796  0.999218  0.344769  1
  Pd  Pd23  1  0.999218  0.656796  0.999218  1
  Pd  Pd24  1  0.344769  0.999218  0.656796  1
  Pd  Pd25  1  0.999218  0.999218  0.344769  1
  Pd  Pd26  1  0.999218  0.999218  0.656796  1
  Pd  Pd27  1  0.656796  0.344769  0.999218  1
  Pd  Pd28  1  0.344769  0.656796  0.999218  1
