# generated using pymatgen
data_Ho7Er(Si4Mo3)4
_symmetry_space_group_name_H-M   'P 1'
_cell_length_a   6.75873802
_cell_length_b   6.94344261
_cell_length_c   12.92201636
_cell_angle_alpha   89.99601067
_cell_angle_beta   89.99759035
_cell_angle_gamma   89.98433898
_symmetry_Int_Tables_number   1
_chemical_formula_structural   Ho7Er(Si4Mo3)4
_chemical_formula_sum   'Ho7 Er1 Si16 Mo12'
_cell_volume   606.41611278
_cell_formula_units_Z   1
loop_
 _symmetry_equiv_pos_site_id
 _symmetry_equiv_pos_as_xyz
  1  'x, y, z'
loop_
 _atom_site_type_symbol
 _atom_site_label
 _atom_site_symmetry_multiplicity
 _atom_site_fract_x
 _atom_site_fract_y
 _atom_site_fract_z
 _atom_site_occupancy
  Ho  Ho0  1  0.497133  0.332719  0.093969  1
  Ho  Ho1  1  0.997166  0.167271  0.406065  1
  Ho  Ho2  1  0.502892  0.667180  0.593976  1
  Ho  Ho3  1  0.002653  0.832623  0.906369  1
  Ho  Ho4  1  0.502718  0.667488  0.906331  1
  Ho  Ho5  1  0.002785  0.832741  0.593981  1
  Ho  Ho6  1  0.497070  0.332702  0.405668  1
  Er  Er7  1  0.996657  0.167343  0.093954  1
  Si  Si8  1  0.659021  0.041631  0.547312  1
  Si  Si9  1  0.159211  0.458116  0.952969  1
  Si  Si10  1  0.339948  0.959070  0.047495  1
  Si  Si11  1  0.840889  0.541647  0.452506  1
  Si  Si12  1  0.340980  0.958347  0.452423  1
  Si  Si13  1  0.841145  0.540870  0.047534  1
  Si  Si14  1  0.659281  0.041572  0.953026  1
  Si  Si15  1  0.159132  0.458467  0.547305  1
  Si  Si16  1  0.534866  0.366347  0.750243  1
  Si  Si17  1  0.034789  0.133473  0.750078  1
  Si  Si18  1  0.465381  0.633802  0.249740  1
  Si  Si19  1  0.965507  0.867008  0.249709  1
  Si  Si20  1  0.802482  0.629529  0.750241  1
  Si  Si21  1  0.302328  0.870196  0.750120  1
  Si  Si22  1  0.197170  0.369824  0.249637  1
  Si  Si23  1  0.698035  0.129859  0.249715  1
  Mo  Mo24  1  0.830485  0.334633  0.625194  1
  Mo  Mo25  1  0.330281  0.165232  0.875095  1
  Mo  Mo26  1  0.169572  0.665425  0.125100  1
  Mo  Mo27  1  0.669712  0.834854  0.374584  1
  Mo  Mo28  1  0.169507  0.665306  0.374558  1
  Mo  Mo29  1  0.669872  0.834911  0.124898  1
  Mo  Mo30  1  0.830718  0.334267  0.875163  1
  Mo  Mo31  1  0.330524  0.165283  0.625135  1
  Mo  Mo32  1  0.666025  0.998736  0.750199  1
  Mo  Mo33  1  0.166078  0.501166  0.750175  1
  Mo  Mo34  1  0.333966  0.001698  0.249729  1
  Mo  Mo35  1  0.834022  0.498666  0.249808  1
