# generated using pymatgen
data_Ho12Co4CuBi
_symmetry_space_group_name_H-M   'P 1'
_cell_length_a   8.30550908
_cell_length_b   8.30501775
_cell_length_c   8.30550930
_cell_angle_alpha   111.20743884
_cell_angle_beta   110.09824287
_cell_angle_gamma   107.13728155
_symmetry_Int_Tables_number   1
_chemical_formula_structural   Ho12Co4CuBi
_chemical_formula_sum   'Ho12 Co4 Cu1 Bi1'
_cell_volume   440.41047782
_cell_formula_units_Z   1
loop_
 _symmetry_equiv_pos_site_id
 _symmetry_equiv_pos_as_xyz
  1  'x, y, z'
loop_
 _atom_site_type_symbol
 _atom_site_label
 _atom_site_symmetry_multiplicity
 _atom_site_fract_x
 _atom_site_fract_y
 _atom_site_fract_z
 _atom_site_occupancy
  Ho  Ho0  1  0.816799  0.711212  0.528008  1
  Ho  Ho1  1  0.183201  0.288788  0.471992  1
  Ho  Ho2  1  0.183205  0.711212  0.894414  1
  Ho  Ho3  1  0.816795  0.288788  0.105586  1
  Ho  Ho4  1  0.687127  0.378944  0.691818  1
  Ho  Ho5  1  0.312873  0.621056  0.308182  1
  Ho  Ho6  1  0.687126  0.995313  0.308188  1
  Ho  Ho7  1  0.312874  0.004687  0.691812  1
  Ho  Ho8  1  0.586878  0.788153  0.798727  1
  Ho  Ho9  1  0.413122  0.211847  0.201273  1
  Ho  Ho10  1  0.989425  0.788153  0.201275  1
  Ho  Ho11  1  0.010575  0.211847  0.798725  1
  Co  Co12  1  0.623490  0.000000  0.623490  1
  Co  Co13  1  0.376510  0.000000  0.376510  1
  Co  Co14  1  0.112544  0.612533  0.499991  1
  Co  Co15  1  0.887456  0.387467  0.500009  1
  Cu  Cu16  1  0.000000  0.000000  0.000000  1
  Bi  Bi17  1  0.500000  0.500000  0.000000  1
