# generated using pymatgen
data_YAg6NO11
_symmetry_space_group_name_H-M   'P 1'
_cell_length_a   7.09238452
_cell_length_b   7.09238452
_cell_length_c   7.09238420
_cell_angle_alpha   61.79094714
_cell_angle_beta   61.79094668
_cell_angle_gamma   61.79094207
_symmetry_Int_Tables_number   1
_chemical_formula_structural   YAg6NO11
_chemical_formula_sum   'Y1 Ag6 N1 O11'
_cell_volume   262.38862859
_cell_formula_units_Z   1
loop_
 _symmetry_equiv_pos_site_id
 _symmetry_equiv_pos_as_xyz
  1  'x, y, z'
loop_
 _atom_site_type_symbol
 _atom_site_label
 _atom_site_symmetry_multiplicity
 _atom_site_fract_x
 _atom_site_fract_y
 _atom_site_fract_z
 _atom_site_occupancy
  Y  Y0  1  0.999044  0.999044  0.999044  1
  Ag  Ag1  1  0.498131  0.001046  0.001046  1
  Ag  Ag2  1  0.500255  0.500255  0.000271  1
  Ag  Ag3  1  0.500255  0.000271  0.500255  1
  Ag  Ag4  1  0.001046  0.001046  0.498131  1
  Ag  Ag5  1  0.000271  0.500255  0.500255  1
  Ag  Ag6  1  0.001046  0.498131  0.001046  1
  N  N7  1  0.500110  0.500110  0.500110  1
  O  O8  1  0.586994  0.142942  0.142942  1
  O  O9  1  0.142942  0.586994  0.142942  1
  O  O10  1  0.137958  0.137958  0.137958  1
  O  O11  1  0.142942  0.142942  0.586994  1
  O  O12  1  0.600333  0.600333  0.299589  1
  O  O13  1  0.600333  0.299589  0.600333  1
  O  O14  1  0.299589  0.600333  0.600333  1
  O  O15  1  0.858087  0.858087  0.411093  1
  O  O16  1  0.858087  0.411093  0.858087  1
  O  O17  1  0.861484  0.861484  0.861484  1
  O  O18  1  0.411093  0.858087  0.858087  1
