# generated using pymatgen
data_PmNdCuSi3
_symmetry_space_group_name_H-M   'P 1'
_cell_length_a   5.86726433
_cell_length_b   5.86707804
_cell_length_c   5.86707883
_cell_angle_alpha   139.58644820
_cell_angle_beta   106.32431360
_cell_angle_gamma   87.56612387
_symmetry_Int_Tables_number   1
_chemical_formula_structural   PmNdCuSi3
_chemical_formula_sum   'Pm1 Nd1 Cu1 Si3'
_cell_volume   120.78595832
_cell_formula_units_Z   1
loop_
 _symmetry_equiv_pos_site_id
 _symmetry_equiv_pos_as_xyz
  1  'x, y, z'
loop_
 _atom_site_type_symbol
 _atom_site_label
 _atom_site_symmetry_multiplicity
 _atom_site_fract_x
 _atom_site_fract_y
 _atom_site_fract_z
 _atom_site_occupancy
  Pm  Pm0  1  0.003206  0.002718  0.000487  1
  Nd  Nd1  1  0.497677  0.497200  0.000477  1
  Cu  Cu2  1  0.580994  0.250547  0.330449  1
  Si  Si3  1  0.087141  0.749479  0.337660  1
  Si  Si4  1  0.905751  0.250541  0.655210  1
  Si  Si5  1  0.425229  0.749513  0.675716  1
