# generated using pymatgen
data_La4Pr5NdSi8
_symmetry_space_group_name_H-M   'P 1'
_cell_length_a   7.96806601
_cell_length_b   7.96803000
_cell_length_c   15.44900902
_cell_angle_alpha   90.00000000
_cell_angle_beta   89.99424949
_cell_angle_gamma   90.00000000
_symmetry_Int_Tables_number   1
_chemical_formula_structural   La4Pr5NdSi8
_chemical_formula_sum   'La8 Pr10 Nd2 Si16'
_cell_volume   980.85431812
_cell_formula_units_Z   2
loop_
 _symmetry_equiv_pos_site_id
 _symmetry_equiv_pos_as_xyz
  1  'x, y, z'
loop_
 _atom_site_type_symbol
 _atom_site_label
 _atom_site_symmetry_multiplicity
 _atom_site_fract_x
 _atom_site_fract_y
 _atom_site_fract_z
 _atom_site_occupancy
  La  La0  1  0.987031  0.621702  0.052528  1
  La  La1  1  0.012953  0.378317  0.552505  1
  La  La2  1  0.621703  0.986998  0.947481  1
  La  La3  1  0.121688  0.512942  0.802526  1
  La  La4  1  0.878297  0.486998  0.302519  1
  La  La5  1  0.512969  0.121702  0.197472  1
  La  La6  1  0.487047  0.878317  0.697495  1
  La  La7  1  0.378312  0.012942  0.447474  1
  Pr  Pr8  1  0.373664  0.480634  0.373413  1
  Pr  Pr9  1  0.873657  0.019361  0.376519  1
  Pr  Pr10  1  0.980670  0.126354  0.123455  1
  Pr  Pr11  1  0.019386  0.873671  0.623442  1
  Pr  Pr12  1  0.626343  0.519361  0.873481  1
  Pr  Pr13  1  0.480614  0.373671  0.626558  1
  Pr  Pr14  1  0.519330  0.626354  0.126545  1
  Pr  Pr15  1  0.126336  0.980634  0.876587  1
  Pr  Pr16  1  0.691994  0.691996  0.500008  1
  Pr  Pr17  1  0.808006  0.191996  0.749992  1
  Nd  Nd18  1  0.191879  0.808123  0.250004  1
  Nd  Nd19  1  0.308121  0.308123  0.999996  1
  Si  Si20  1  0.079940  0.713072  0.439598  1
  Si  Si21  1  0.920494  0.287038  0.939873  1
  Si  Si22  1  0.712978  0.079818  0.560176  1
  Si  Si23  1  0.213054  0.420369  0.189644  1
  Si  Si24  1  0.787022  0.579818  0.689824  1
  Si  Si25  1  0.420060  0.213073  0.810402  1
  Si  Si26  1  0.579506  0.787038  0.310127  1
  Si  Si27  1  0.286947  0.920369  0.060356  1
  Si  Si28  1  0.830308  0.805749  0.796020  1
  Si  Si29  1  0.169740  0.193912  0.295956  1
  Si  Si30  1  0.806064  0.830256  0.204029  1
  Si  Si31  1  0.305773  0.669689  0.546006  1
  Si  Si32  1  0.693936  0.330256  0.045971  1
  Si  Si33  1  0.669692  0.305749  0.453980  1
  Si  Si34  1  0.330260  0.693912  0.954044  1
  Si  Si35  1  0.194227  0.169689  0.703994  1
