# generated using pymatgen
data_Tb8Ti8Nb3Si16Ag
_symmetry_space_group_name_H-M   'P 1'
_cell_length_a   7.10038828
_cell_length_b   7.10038850
_cell_length_c   12.96916818
_cell_angle_alpha   90.08848295
_cell_angle_beta   89.91151698
_cell_angle_gamma   89.59951705
_symmetry_Int_Tables_number   1
_chemical_formula_structural   Tb8Ti8Nb3Si16Ag
_chemical_formula_sum   'Tb8 Ti8 Nb3 Si16 Ag1'
_cell_volume   653.82975356
_cell_formula_units_Z   1
loop_
 _symmetry_equiv_pos_site_id
 _symmetry_equiv_pos_as_xyz
  1  'x, y, z'
loop_
 _atom_site_type_symbol
 _atom_site_label
 _atom_site_symmetry_multiplicity
 _atom_site_fract_x
 _atom_site_fract_y
 _atom_site_fract_z
 _atom_site_occupancy
  Tb  Tb0  1  0.341278  0.001259  0.467131  1
  Tb  Tb1  1  0.497779  0.840370  0.716955  1
  Tb  Tb2  1  0.501140  0.158327  0.215123  1
  Tb  Tb3  1  0.840370  0.497779  0.283045  1
  Tb  Tb4  1  0.158327  0.501140  0.784877  1
  Tb  Tb5  1  0.656712  0.001122  0.968024  1
  Tb  Tb6  1  0.001259  0.341278  0.532869  1
  Tb  Tb7  1  0.001122  0.656712  0.031976  1
  Ti  Ti8  1  0.148428  0.008813  0.876670  1
  Ti  Ti9  1  0.493673  0.652339  0.124678  1
  Ti  Ti10  1  0.509673  0.349729  0.625379  1
  Ti  Ti11  1  0.652339  0.493673  0.875322  1
  Ti  Ti12  1  0.349729  0.509673  0.374621  1
  Ti  Ti13  1  0.847586  0.990252  0.374257  1
  Ti  Ti14  1  0.008813  0.148428  0.123330  1
  Ti  Ti15  1  0.990252  0.847586  0.625743  1
  Nb  Nb16  1  0.173730  0.825996  0.249749  1
  Nb  Nb17  1  0.825996  0.173730  0.750251  1
  Nb  Nb18  1  0.673102  0.673102  0.500000  1
  Si  Si19  1  0.201992  0.130609  0.684710  1
  Si  Si20  1  0.374126  0.717731  0.930279  1
  Si  Si21  1  0.629818  0.294918  0.433784  1
  Si  Si22  1  0.717731  0.374126  0.069721  1
  Si  Si23  1  0.294918  0.629818  0.566216  1
  Si  Si24  1  0.797752  0.868674  0.183194  1
  Si  Si25  1  0.130609  0.201992  0.315290  1
  Si  Si26  1  0.868674  0.797752  0.816806  1
  Si  Si27  1  0.287048  0.939580  0.064430  1
  Si  Si28  1  0.547314  0.791733  0.313474  1
  Si  Si29  1  0.453569  0.208325  0.809114  1
  Si  Si30  1  0.791733  0.547314  0.686526  1
  Si  Si31  1  0.208325  0.453569  0.190886  1
  Si  Si32  1  0.709354  0.047432  0.563287  1
  Si  Si33  1  0.939580  0.287048  0.935570  1
  Si  Si34  1  0.047432  0.709354  0.436713  1
  Ag  Ag35  1  0.328717  0.328717  0.000000  1
