# generated using pymatgen
data_Zr10SiAg(BiPb2)2
_symmetry_space_group_name_H-M   'P 1'
_cell_length_a   8.85985409
_cell_length_b   8.86207742
_cell_length_c   5.98811000
_cell_angle_alpha   90.00318033
_cell_angle_beta   89.99841073
_cell_angle_gamma   120.00830570
_symmetry_Int_Tables_number   1
_chemical_formula_structural   Zr10SiAg(BiPb2)2
_chemical_formula_sum   'Zr10 Si1 Ag1 Bi2 Pb4'
_cell_volume   407.14223507
_cell_formula_units_Z   1
loop_
 _symmetry_equiv_pos_site_id
 _symmetry_equiv_pos_as_xyz
  1  'x, y, z'
loop_
 _atom_site_type_symbol
 _atom_site_label
 _atom_site_symmetry_multiplicity
 _atom_site_fract_x
 _atom_site_fract_y
 _atom_site_fract_z
 _atom_site_occupancy
  Zr  Zr0  1  0.666465  0.333215  0.501465  1
  Zr  Zr1  1  0.333535  0.666751  0.501465  1
  Zr  Zr2  1  0.333705  0.667067  0.998087  1
  Zr  Zr3  1  0.666295  0.333361  0.998087  1
  Zr  Zr4  1  0.734638  0.733477  0.228912  1
  Zr  Zr5  1  0.265362  0.998839  0.228912  1
  Zr  Zr6  1  0.000000  0.266224  0.228625  1
  Zr  Zr7  1  0.266869  0.267144  0.771208  1
  Zr  Zr8  1  0.733131  0.000275  0.771208  1
  Zr  Zr9  1  0.000000  0.733002  0.771739  1
  Si  Si10  1  0.000000  0.999919  0.998482  1
  Ag  Ag11  1  0.000000  0.999416  0.502094  1
  Bi  Bi12  1  0.387646  0.387523  0.258557  1
  Bi  Bi13  1  0.612354  0.999877  0.258557  1
  Pb  Pb14  1  0.000000  0.613123  0.259592  1
  Pb  Pb15  1  0.614551  0.614395  0.741550  1
  Pb  Pb16  1  0.385449  0.999843  0.741550  1
  Pb  Pb17  1  0.000000  0.386549  0.739909  1
