# generated using pymatgen
data_Sm7Dy(Si3Ni)4
_symmetry_space_group_name_H-M   'P 1'
_cell_length_a   7.99936201
_cell_length_b   8.00070099
_cell_length_c   8.30494200
_cell_angle_alpha   90.00000000
_cell_angle_beta   90.00000000
_cell_angle_gamma   120.00553322
_symmetry_Int_Tables_number   1
_chemical_formula_structural   Sm7Dy(Si3Ni)4
_chemical_formula_sum   'Sm7 Dy1 Si12 Ni4'
_cell_volume   460.28456212
_cell_formula_units_Z   1
loop_
 _symmetry_equiv_pos_site_id
 _symmetry_equiv_pos_as_xyz
  1  'x, y, z'
loop_
 _atom_site_type_symbol
 _atom_site_label
 _atom_site_symmetry_multiplicity
 _atom_site_fract_x
 _atom_site_fract_y
 _atom_site_fract_z
 _atom_site_occupancy
  Sm  Sm0  1  0.999973  0.999987  0.250000  1
  Sm  Sm1  1  0.999966  0.999983  0.750000  1
  Sm  Sm2  1  0.500276  0.499515  0.250000  1
  Sm  Sm3  1  0.500276  0.000762  0.250000  1
  Sm  Sm4  1  0.999061  0.499530  0.250000  1
  Sm  Sm5  1  0.499368  0.500452  0.750000  1
  Sm  Sm6  1  0.499368  0.998915  0.750000  1
  Dy  Dy7  1  0.000450  0.500224  0.750000  1
  Si  Si8  1  0.170353  0.828056  0.500881  1
  Si  Si9  1  0.170353  0.342299  0.500881  1
  Si  Si10  1  0.658354  0.829178  0.499634  1
  Si  Si11  1  0.829564  0.171809  0.501786  1
  Si  Si12  1  0.829564  0.657755  0.501786  1
  Si  Si13  1  0.341775  0.170887  0.500668  1
  Si  Si14  1  0.829564  0.171809  0.998214  1
  Si  Si15  1  0.829564  0.657755  0.998214  1
  Si  Si16  1  0.341775  0.170887  0.999332  1
  Si  Si17  1  0.170353  0.828056  0.999119  1
  Si  Si18  1  0.170353  0.342299  0.999119  1
  Si  Si19  1  0.658354  0.829178  0.000366  1
  Ni  Ni20  1  0.333237  0.666619  0.499743  1
  Ni  Ni21  1  0.667431  0.333714  0.505593  1
  Ni  Ni22  1  0.667431  0.333714  0.994407  1
  Ni  Ni23  1  0.333237  0.666619  0.000257  1
