# generated using pymatgen
data_Sm8SbPd24
_symmetry_space_group_name_H-M   'P 1'
_cell_length_a   8.48870300
_cell_length_b   8.48870300
_cell_length_c   8.48870300
_cell_angle_alpha   90.00000000
_cell_angle_beta   90.00000000
_cell_angle_gamma   90.00000000
_symmetry_Int_Tables_number   1
_chemical_formula_structural   Sm8SbPd24
_chemical_formula_sum   'Sm8 Sb1 Pd24'
_cell_volume   611.67962817
_cell_formula_units_Z   1
loop_
 _symmetry_equiv_pos_site_id
 _symmetry_equiv_pos_as_xyz
  1  'x, y, z'
loop_
 _atom_site_type_symbol
 _atom_site_label
 _atom_site_symmetry_multiplicity
 _atom_site_fract_x
 _atom_site_fract_y
 _atom_site_fract_z
 _atom_site_occupancy
  Sm  Sm0  1  0.253638  0.253638  0.253638  1
  Sm  Sm1  1  0.746362  0.253638  0.253638  1
  Sm  Sm2  1  0.253638  0.746362  0.253638  1
  Sm  Sm3  1  0.746362  0.746362  0.253638  1
  Sm  Sm4  1  0.253638  0.253638  0.746362  1
  Sm  Sm5  1  0.746362  0.253638  0.746362  1
  Sm  Sm6  1  0.253638  0.746362  0.746362  1
  Sm  Sm7  1  0.746362  0.746362  0.746362  1
  Sb  Sb8  1  0.000000  0.000000  0.000000  1
  Pd  Pd9  1  0.306768  0.000000  0.000000  1
  Pd  Pd10  1  0.693232  0.000000  0.000000  1
  Pd  Pd11  1  0.499999  0.264884  0.000000  1
  Pd  Pd12  1  0.000000  0.306768  0.000000  1
  Pd  Pd13  1  0.264884  0.499999  0.000000  1
  Pd  Pd14  1  0.735116  0.499999  0.000000  1
  Pd  Pd15  1  0.000000  0.693232  0.000000  1
  Pd  Pd16  1  0.499999  0.735116  0.000000  1
  Pd  Pd17  1  0.499999  0.499999  0.254714  1
  Pd  Pd18  1  0.499999  0.000000  0.264884  1
  Pd  Pd19  1  0.000000  0.499999  0.264884  1
  Pd  Pd20  1  0.000000  0.000000  0.306768  1
  Pd  Pd21  1  0.264884  0.000000  0.499999  1
  Pd  Pd22  1  0.735116  0.000000  0.499999  1
  Pd  Pd23  1  0.499999  0.254714  0.499999  1
  Pd  Pd24  1  0.000000  0.264884  0.499999  1
  Pd  Pd25  1  0.254714  0.499999  0.499999  1
  Pd  Pd26  1  0.745286  0.499999  0.499999  1
  Pd  Pd27  1  0.000000  0.735116  0.499999  1
  Pd  Pd28  1  0.499999  0.745286  0.499999  1
  Pd  Pd29  1  0.000000  0.000000  0.693232  1
  Pd  Pd30  1  0.499999  0.000000  0.735116  1
  Pd  Pd31  1  0.000000  0.499999  0.735116  1
  Pd  Pd32  1  0.499999  0.499999  0.745286  1
