# generated using pymatgen
data_Ho4AlInGa4
_symmetry_space_group_name_H-M   'P 1'
_cell_length_a   7.08477900
_cell_length_b   7.08477900
_cell_length_c   4.43745100
_cell_angle_alpha   90.00000000
_cell_angle_beta   90.00000000
_cell_angle_gamma   90.00000000
_symmetry_Int_Tables_number   1
_chemical_formula_structural   Ho4AlInGa4
_chemical_formula_sum   'Ho4 Al1 In1 Ga4'
_cell_volume   222.73383030
_cell_formula_units_Z   1
loop_
 _symmetry_equiv_pos_site_id
 _symmetry_equiv_pos_as_xyz
  1  'x, y, z'
loop_
 _atom_site_type_symbol
 _atom_site_label
 _atom_site_symmetry_multiplicity
 _atom_site_fract_x
 _atom_site_fract_y
 _atom_site_fract_z
 _atom_site_occupancy
  Ho  Ho0  1  0.324137  0.829995  0.500000  1
  Ho  Ho1  1  0.829995  0.675863  0.500000  1
  Ho  Ho2  1  0.170005  0.324137  0.500000  1
  Ho  Ho3  1  0.675863  0.170005  0.500000  1
  Al  Al4  1  0.000000  0.000000  0.000000  1
  In  In5  1  0.500000  0.500000  0.000000  1
  Ga  Ga6  1  0.123614  0.633351  0.000000  1
  Ga  Ga7  1  0.633351  0.876386  0.000000  1
  Ga  Ga8  1  0.366649  0.123614  0.000000  1
  Ga  Ga9  1  0.876386  0.366649  0.000000  1
