# generated using pymatgen
data_Ho7ErV4O20
_symmetry_space_group_name_H-M   'P 1'
_cell_length_a   3.70910000
_cell_length_b   10.30922205
_cell_length_c   11.23791806
_cell_angle_alpha   90.01156165
_cell_angle_beta   90.00000000
_cell_angle_gamma   90.00000000
_symmetry_Int_Tables_number   1
_chemical_formula_structural   Ho7ErV4O20
_chemical_formula_sum   'Ho7 Er1 V4 O20'
_cell_volume   429.71477724
_cell_formula_units_Z   1
loop_
 _symmetry_equiv_pos_site_id
 _symmetry_equiv_pos_as_xyz
  1  'x, y, z'
loop_
 _atom_site_type_symbol
 _atom_site_label
 _atom_site_symmetry_multiplicity
 _atom_site_fract_x
 _atom_site_fract_y
 _atom_site_fract_z
 _atom_site_occupancy
  Ho  Ho0  1  0.250000  0.122836  0.272426  1
  Ho  Ho1  1  0.250000  0.136713  0.944477  1
  Ho  Ho2  1  0.750000  0.363204  0.444602  1
  Ho  Ho3  1  0.750000  0.377171  0.772409  1
  Ho  Ho4  1  0.250000  0.622812  0.227589  1
  Ho  Ho5  1  0.250000  0.636894  0.555480  1
  Ho  Ho6  1  0.750000  0.863214  0.055335  1
  Er  Er7  1  0.750000  0.876707  0.727732  1
  V  V8  1  0.250000  0.166479  0.615981  1
  V  V9  1  0.750000  0.333218  0.115910  1
  V  V10  1  0.250000  0.666894  0.883982  1
  V  V11  1  0.750000  0.833238  0.384215  1
  O  O12  1  0.750000  0.004029  0.893862  1
  O  O13  1  0.250000  0.002155  0.651351  1
  O  O14  1  0.250000  0.226254  0.455023  1
  O  O15  1  0.750000  0.246304  0.267412  1
  O  O16  1  0.750000  0.232086  0.613603  1
  O  O17  1  0.250000  0.267902  0.113614  1
  O  O18  1  0.250000  0.253696  0.767423  1
  O  O19  1  0.750000  0.273696  0.955021  1
  O  O20  1  0.750000  0.497628  0.151103  1
  O  O21  1  0.250000  0.495656  0.394331  1
  O  O22  1  0.750000  0.504394  0.605667  1
  O  O23  1  0.250000  0.502462  0.848873  1
  O  O24  1  0.250000  0.726248  0.044946  1
  O  O25  1  0.750000  0.746333  0.232584  1
  O  O26  1  0.750000  0.732280  0.886108  1
  O  O27  1  0.250000  0.767912  0.386430  1
  O  O28  1  0.250000  0.754322  0.732663  1
  O  O29  1  0.750000  0.774012  0.545323  1
  O  O30  1  0.750000  0.997606  0.348878  1
  O  O31  1  0.250000  0.995644  0.105647  1
