# generated using pymatgen
data_Sc2Ti(AlCu2)3
_symmetry_space_group_name_H-M   'P 1'
_cell_length_a   4.35960204
_cell_length_b   6.06200717
_cell_length_c   13.11598546
_cell_angle_alpha   89.99942247
_cell_angle_beta   90.01289232
_cell_angle_gamma   89.99879365
_symmetry_Int_Tables_number   1
_chemical_formula_structural   Sc2Ti(AlCu2)3
_chemical_formula_sum   'Sc4 Ti2 Al6 Cu12'
_cell_volume   346.62845289
_cell_formula_units_Z   2
loop_
 _symmetry_equiv_pos_site_id
 _symmetry_equiv_pos_as_xyz
  1  'x, y, z'
loop_
 _atom_site_type_symbol
 _atom_site_label
 _atom_site_symmetry_multiplicity
 _atom_site_fract_x
 _atom_site_fract_y
 _atom_site_fract_z
 _atom_site_occupancy
  Sc  Sc0  1  0.999891  0.999946  0.331462  1
  Sc  Sc1  1  0.499952  0.499974  0.498720  1
  Sc  Sc2  1  0.000097  0.000034  0.667947  1
  Sc  Sc3  1  0.500214  0.500053  0.835333  1
  Ti  Ti4  1  0.999904  0.000017  0.000957  1
  Ti  Ti5  1  0.499943  0.499990  0.165557  1
  Al  Al6  1  0.999985  0.500005  0.001458  1
  Al  Al7  1  0.499893  0.999992  0.165269  1
  Al  Al8  1  0.999883  0.499974  0.329202  1
  Al  Al9  1  0.499955  0.999989  0.497648  1
  Al  Al10  1  0.000109  0.500029  0.669063  1
  Al  Al11  1  0.500238  0.000039  0.837394  1
  Cu  Cu12  1  0.499747  0.243985  0.004535  1
  Cu  Cu13  1  0.499921  0.756049  0.004541  1
  Cu  Cu14  1  0.999991  0.255480  0.162210  1
  Cu  Cu15  1  0.999919  0.744467  0.162185  1
  Cu  Cu16  1  0.499841  0.255858  0.327645  1
  Cu  Cu17  1  0.499945  0.744022  0.327664  1
  Cu  Cu18  1  0.999919  0.252707  0.499581  1
  Cu  Cu19  1  0.999944  0.747203  0.499601  1
  Cu  Cu20  1  0.500117  0.247458  0.667173  1
  Cu  Cu21  1  0.500081  0.752697  0.667143  1
  Cu  Cu22  1  0.000270  0.244430  0.838866  1
  Cu  Cu23  1  0.000240  0.755607  0.838850  1
