# generated using pymatgen
data_NdAuCl6
_symmetry_space_group_name_H-M   'P 1'
_cell_length_a   7.73474265
_cell_length_b   10.11415076
_cell_length_c   14.41365676
_cell_angle_alpha   103.71041878
_cell_angle_beta   96.47537789
_cell_angle_gamma   111.99949154
_symmetry_Int_Tables_number   1
_chemical_formula_structural   NdAuCl6
_chemical_formula_sum   'Nd4 Au4 Cl24'
_cell_volume   989.93771518
_cell_formula_units_Z   4
loop_
 _symmetry_equiv_pos_site_id
 _symmetry_equiv_pos_as_xyz
  1  'x, y, z'
loop_
 _atom_site_type_symbol
 _atom_site_label
 _atom_site_symmetry_multiplicity
 _atom_site_fract_x
 _atom_site_fract_y
 _atom_site_fract_z
 _atom_site_occupancy
  Nd  Nd0  1  0.580343  0.923985  0.621500  1
  Nd  Nd1  1  0.026745  0.687508  0.128461  1
  Nd  Nd2  1  0.419657  0.076015  0.378500  1
  Nd  Nd3  1  0.973255  0.312492  0.871539  1
  Au  Au4  1  0.294471  0.632818  0.764324  1
  Au  Au5  1  0.500000  0.500000  0.500000  1
  Au  Au6  1  0.705529  0.367182  0.235676  1
  Au  Au7  1  0.000000  0.000000  0.000000  1
  Cl  Cl8  1  0.776190  0.095352  0.969249  1
  Cl  Cl9  1  0.723120  0.154248  0.260923  1
  Cl  Cl10  1  0.276880  0.845752  0.739077  1
  Cl  Cl11  1  0.769241  0.796345  0.028380  1
  Cl  Cl12  1  0.614316  0.190940  0.744417  1
  Cl  Cl13  1  0.311397  0.416665  0.785616  1
  Cl  Cl14  1  0.688603  0.583335  0.214384  1
  Cl  Cl15  1  0.300333  0.623844  0.499074  1
  Cl  Cl16  1  0.230759  0.203655  0.971620  1
  Cl  Cl17  1  0.757739  0.726172  0.523084  1
  Cl  Cl18  1  0.223810  0.904648  0.030751  1
  Cl  Cl19  1  0.728701  0.049752  0.483472  1
  Cl  Cl20  1  0.608886  0.727134  0.746770  1
  Cl  Cl21  1  0.953728  0.058026  0.730200  1
  Cl  Cl22  1  0.242261  0.273828  0.476916  1
  Cl  Cl23  1  0.385684  0.809060  0.255583  1
  Cl  Cl24  1  0.978497  0.540591  0.779356  1
  Cl  Cl25  1  0.760433  0.436507  0.977885  1
  Cl  Cl26  1  0.239567  0.563493  0.022115  1
  Cl  Cl27  1  0.021503  0.459409  0.220644  1
  Cl  Cl28  1  0.391114  0.272866  0.253230  1
  Cl  Cl29  1  0.271299  0.950248  0.516528  1
  Cl  Cl30  1  0.699667  0.376156  0.500926  1
  Cl  Cl31  1  0.046272  0.941974  0.269800  1
