# generated using pymatgen
data_Ac4La2CdSn9
_symmetry_space_group_name_H-M   'P 1'
_cell_length_a   6.83701759
_cell_length_b   6.83701648
_cell_length_c   10.93629249
_cell_angle_alpha   90.07783914
_cell_angle_beta   90.07784115
_cell_angle_gamma   102.99668573
_symmetry_Int_Tables_number   1
_chemical_formula_structural   Ac4La2CdSn9
_chemical_formula_sum   'Ac4 La2 Cd1 Sn9'
_cell_volume   498.11788808
_cell_formula_units_Z   1
loop_
 _symmetry_equiv_pos_site_id
 _symmetry_equiv_pos_as_xyz
  1  'x, y, z'
loop_
 _atom_site_type_symbol
 _atom_site_label
 _atom_site_symmetry_multiplicity
 _atom_site_fract_x
 _atom_site_fract_y
 _atom_site_fract_z
 _atom_site_occupancy
  Ac  Ac0  1  0.202169  0.798465  0.499841  1
  Ac  Ac1  1  0.202759  0.798947  0.999090  1
  Ac  Ac2  1  0.798465  0.202169  0.499841  1
  Ac  Ac3  1  0.798947  0.202759  0.999090  1
  La  La4  1  0.639553  0.639553  0.251000  1
  La  La5  1  0.364222  0.364222  0.749704  1
  Cd  Cd6  1  0.315424  0.315424  0.047528  1
  Sn  Sn7  1  0.029972  0.029972  0.249886  1
  Sn  Sn8  1  0.972198  0.972198  0.751079  1
  Sn  Sn9  1  0.676290  0.676290  0.953177  1
  Sn  Sn10  1  0.320531  0.320531  0.450326  1
  Sn  Sn11  1  0.677145  0.677145  0.551045  1
  Sn  Sn12  1  0.488243  0.079072  0.248281  1
  Sn  Sn13  1  0.923406  0.511604  0.750916  1
  Sn  Sn14  1  0.511604  0.923406  0.750916  1
  Sn  Sn15  1  0.079072  0.488243  0.248281  1
