# generated using pymatgen
data_LuZr5(SnIr)6
_symmetry_space_group_name_H-M   'P 1'
_cell_length_a   7.44819758
_cell_length_b   7.46748450
_cell_length_c   7.36260800
_cell_angle_alpha   90.00000000
_cell_angle_beta   90.00000000
_cell_angle_gamma   120.06659161
_symmetry_Int_Tables_number   1
_chemical_formula_structural   LuZr5(SnIr)6
_chemical_formula_sum   'Lu1 Zr5 Sn6 Ir6'
_cell_volume   354.40187996
_cell_formula_units_Z   1
loop_
 _symmetry_equiv_pos_site_id
 _symmetry_equiv_pos_as_xyz
  1  'x, y, z'
loop_
 _atom_site_type_symbol
 _atom_site_label
 _atom_site_symmetry_multiplicity
 _atom_site_fract_x
 _atom_site_fract_y
 _atom_site_fract_z
 _atom_site_occupancy
  Lu  Lu0  1  0.593778  0.610772  0.750000  1
  Zr  Zr1  1  0.400839  0.013466  0.250000  1
  Zr  Zr2  1  0.613419  0.599492  0.250000  1
  Zr  Zr3  1  0.983819  0.385617  0.250000  1
  Zr  Zr4  1  0.012990  0.401894  0.750000  1
  Zr  Zr5  1  0.388660  0.987084  0.750000  1
  Sn  Sn6  1  0.270985  0.272236  0.495090  1
  Sn  Sn7  1  0.270985  0.272236  0.004910  1
  Sn  Sn8  1  0.730256  0.998162  0.999228  1
  Sn  Sn9  1  0.999466  0.730165  0.501370  1
  Sn  Sn10  1  0.730256  0.998162  0.500772  1
  Sn  Sn11  1  0.999466  0.730165  0.998630  1
  Ir  Ir12  1  0.667737  0.329153  0.523662  1
  Ir  Ir13  1  0.667737  0.329153  0.976338  1
  Ir  Ir14  1  0.330780  0.667610  0.037473  1
  Ir  Ir15  1  0.330780  0.667610  0.462527  1
  Ir  Ir16  1  0.009231  0.008609  0.750000  1
  Ir  Ir17  1  0.998816  0.998412  0.250000  1
