# generated using pymatgen
data_Ba6Ca2YUSe12
_symmetry_space_group_name_H-M   'P 1'
_cell_length_a   8.91836865
_cell_length_b   8.91836622
_cell_length_c   8.91836785
_cell_angle_alpha   91.87536607
_cell_angle_beta   91.87537676
_cell_angle_gamma   91.87537558
_symmetry_Int_Tables_number   1
_chemical_formula_structural   Ba6Ca2YUSe12
_chemical_formula_sum   'Ba6 Ca2 Y1 U1 Se12'
_cell_volume   708.17736214
_cell_formula_units_Z   1
loop_
 _symmetry_equiv_pos_site_id
 _symmetry_equiv_pos_as_xyz
  1  'x, y, z'
loop_
 _atom_site_type_symbol
 _atom_site_label
 _atom_site_symmetry_multiplicity
 _atom_site_fract_x
 _atom_site_fract_y
 _atom_site_fract_z
 _atom_site_occupancy
  Ba  Ba0  1  0.869844  0.622548  0.257522  1
  Ba  Ba1  1  0.257522  0.869844  0.622548  1
  Ba  Ba2  1  0.622548  0.257522  0.869844  1
  Ba  Ba3  1  0.742478  0.130156  0.377452  1
  Ba  Ba4  1  0.377452  0.742478  0.130156  1
  Ba  Ba5  1  0.130156  0.377452  0.742478  1
  Ca  Ca6  1  0.255918  0.255918  0.255918  1
  Ca  Ca7  1  0.744082  0.744082  0.744082  1
  Y  Y8  1  0.500000  0.500000  0.500000  1
  U  U9  1  0.000000  0.000000  0.000000  1
  Se  Se10  1  0.196625  0.549710  0.409053  1
  Se  Se11  1  0.409053  0.196625  0.549710  1
  Se  Se12  1  0.549710  0.409053  0.196625  1
  Se  Se13  1  0.918651  0.045773  0.703846  1
  Se  Se14  1  0.703846  0.918651  0.045773  1
  Se  Se15  1  0.045773  0.703846  0.918651  1
  Se  Se16  1  0.803375  0.450290  0.590947  1
  Se  Se17  1  0.590947  0.803375  0.450290  1
  Se  Se18  1  0.450290  0.590947  0.803375  1
  Se  Se19  1  0.081349  0.954227  0.296154  1
  Se  Se20  1  0.296154  0.081349  0.954227  1
  Se  Se21  1  0.954227  0.296154  0.081349  1
