# generated using pymatgen
data_Cs2NaLuP2
_symmetry_space_group_name_H-M   'P 1'
_cell_length_a   9.59499846
_cell_length_b   9.59499813
_cell_length_c   9.59499883
_cell_angle_alpha   137.31989479
_cell_angle_beta   136.79388463
_cell_angle_gamma   62.35152921
_symmetry_Int_Tables_number   1
_chemical_formula_structural   Cs2NaLuP2
_chemical_formula_sum   'Cs4 Na2 Lu2 P4'
_cell_volume   405.03756852
_cell_formula_units_Z   2
loop_
 _symmetry_equiv_pos_site_id
 _symmetry_equiv_pos_as_xyz
  1  'x, y, z'
loop_
 _atom_site_type_symbol
 _atom_site_label
 _atom_site_symmetry_multiplicity
 _atom_site_fract_x
 _atom_site_fract_y
 _atom_site_fract_z
 _atom_site_occupancy
  Cs  Cs0  1  0.539646  0.320315  0.219331  1
  Cs  Cs1  1  0.460354  0.679685  0.780669  1
  Cs  Cs2  1  0.100985  0.820315  0.280669  1
  Cs  Cs3  1  0.899015  0.179685  0.719331  1
  Na  Na4  1  0.500000  0.250000  0.750000  1
  Na  Na5  1  0.500000  0.750000  0.250000  1
  Lu  Lu6  1  0.000000  0.250000  0.250000  1
  Lu  Lu7  1  0.000000  0.750000  0.750000  1
  P  P8  1  0.301615  0.085909  0.215706  1
  P  P9  1  0.698385  0.914091  0.784294  1
  P  P10  1  0.870204  0.585909  0.284294  1
  P  P11  1  0.129796  0.414091  0.715706  1
