# generated using pymatgen
data_Ba12TiCo3O19
_symmetry_space_group_name_H-M   'P 1'
_cell_length_a   7.91098891
_cell_length_b   7.92870949
_cell_length_c   10.52270300
_cell_angle_alpha   89.92988253
_cell_angle_beta   90.09517447
_cell_angle_gamma   97.20069887
_symmetry_Int_Tables_number   1
_chemical_formula_structural   Ba12TiCo3O19
_chemical_formula_sum   'Ba12 Ti1 Co3 O19'
_cell_volume   654.81856399
_cell_formula_units_Z   1
loop_
 _symmetry_equiv_pos_site_id
 _symmetry_equiv_pos_as_xyz
  1  'x, y, z'
loop_
 _atom_site_type_symbol
 _atom_site_label
 _atom_site_symmetry_multiplicity
 _atom_site_fract_x
 _atom_site_fract_y
 _atom_site_fract_z
 _atom_site_occupancy
  Ba  Ba0  1  0.753786  0.274087  0.497232  1
  Ba  Ba1  1  0.249601  0.719879  0.008106  1
  Ba  Ba2  1  0.748562  0.280342  0.998068  1
  Ba  Ba3  1  0.245339  0.724444  0.497257  1
  Ba  Ba4  1  0.577577  0.578744  0.247200  1
  Ba  Ba5  1  0.064751  0.071995  0.764459  1
  Ba  Ba6  1  0.419363  0.427490  0.754697  1
  Ba  Ba7  1  0.929814  0.929765  0.234410  1
  Ba  Ba8  1  0.747895  0.743825  0.927153  1
  Ba  Ba9  1  0.262114  0.260342  0.425749  1
  Ba  Ba10  1  0.255550  0.251416  0.074263  1
  Ba  Ba11  1  0.740476  0.734746  0.573575  1
  Ti  Ti12  1  0.496108  0.997949  0.741293  1
  Co  Co13  1  0.504916  0.003996  0.258740  1
  Co  Co14  1  0.997424  0.499146  0.743459  1
  Co  Co15  1  0.001705  0.499688  0.255825  1
  O  O16  1  0.275236  0.959339  0.286282  1
  O  O17  1  0.757999  0.468984  0.757954  1
  O  O18  1  0.542811  0.233145  0.241500  1
  O  O19  1  0.031878  0.735792  0.710838  1
  O  O20  1  0.920657  0.633467  0.386946  1
  O  O21  1  0.432522  0.112922  0.880910  1
  O  O22  1  0.895008  0.587126  0.114841  1
  O  O23  1  0.359955  0.060604  0.612607  1
  O  O24  1  0.240937  0.532850  0.243947  1
  O  O25  1  0.727425  0.041803  0.706527  1
  O  O26  1  0.969131  0.262471  0.285386  1
  O  O27  1  0.458546  0.767592  0.763275  1
  O  O28  1  0.576032  0.894524  0.121269  1
  O  O29  1  0.077442  0.366177  0.610869  1
  O  O30  1  0.633719  0.936676  0.387362  1
  O  O31  1  0.103940  0.411368  0.885271  1
  O  O32  1  0.499823  0.501336  0.002412  1
  O  O33  1  0.002687  0.997235  0.000044  1
  O  O34  1  0.499270  0.498737  0.500272  1
