# generated using pymatgen
data_Zr3PN
_symmetry_space_group_name_H-M   'P 1'
_cell_length_a   5.79390071
_cell_length_b   5.79389949
_cell_length_c   8.47639700
_cell_angle_alpha   90.00000000
_cell_angle_beta   90.00000000
_cell_angle_gamma   145.18962959
_symmetry_Int_Tables_number   1
_chemical_formula_structural   Zr3PN
_chemical_formula_sum   'Zr6 P2 N2'
_cell_volume   162.43685374
_cell_formula_units_Z   2
loop_
 _symmetry_equiv_pos_site_id
 _symmetry_equiv_pos_as_xyz
  1  'x, y, z'
loop_
 _atom_site_type_symbol
 _atom_site_label
 _atom_site_symmetry_multiplicity
 _atom_site_fract_x
 _atom_site_fract_y
 _atom_site_fract_z
 _atom_site_occupancy
  Zr  Zr0  1  0.935990  0.064010  0.250000  1
  Zr  Zr1  1  0.064010  0.935990  0.750000  1
  Zr  Zr2  1  0.634681  0.365319  0.442689  1
  Zr  Zr3  1  0.365319  0.634681  0.557311  1
  Zr  Zr4  1  0.634681  0.365319  0.057311  1
  Zr  Zr5  1  0.365319  0.634681  0.942689  1
  P  P6  1  0.254556  0.745444  0.250000  1
  P  P7  1  0.745444  0.254556  0.750000  1
  N  N8  1  0.000000  0.000000  0.500000  1
  N  N9  1  0.000000  0.000000  0.000000  1
