# generated using pymatgen
data_YEr(Ga3Rh)3
_symmetry_space_group_name_H-M   'P 1'
_cell_length_a   7.55705121
_cell_length_b   7.55919234
_cell_length_c   9.54352200
_cell_angle_alpha   90.00000000
_cell_angle_beta   90.00000000
_cell_angle_gamma   119.81625729
_symmetry_Int_Tables_number   1
_chemical_formula_structural   YEr(Ga3Rh)3
_chemical_formula_sum   'Y2 Er2 Ga18 Rh6'
_cell_volume   473.00768853
_cell_formula_units_Z   2
loop_
 _symmetry_equiv_pos_site_id
 _symmetry_equiv_pos_as_xyz
  1  'x, y, z'
loop_
 _atom_site_type_symbol
 _atom_site_label
 _atom_site_symmetry_multiplicity
 _atom_site_fract_x
 _atom_site_fract_y
 _atom_site_fract_z
 _atom_site_occupancy
  Y  Y0  1  0.997080  0.668212  0.250000  1
  Y  Y1  1  0.002920  0.331788  0.750000  1
  Er  Er2  1  0.668164  0.997183  0.250000  1
  Er  Er3  1  0.331836  0.002817  0.750000  1
  Ga  Ga4  1  0.124902  0.125202  0.250000  1
  Ga  Ga5  1  0.875098  0.874798  0.750000  1
  Ga  Ga6  1  0.999790  0.333592  0.079951  1
  Ga  Ga7  1  0.000210  0.666408  0.920049  1
  Ga  Ga8  1  0.000210  0.666408  0.579951  1
  Ga  Ga9  1  0.334567  0.000270  0.420347  1
  Ga  Ga10  1  0.999790  0.333592  0.420049  1
  Ga  Ga11  1  0.665433  0.999730  0.579653  1
  Ga  Ga12  1  0.665433  0.999730  0.920347  1
  Ga  Ga13  1  0.334567  0.000270  0.079653  1
  Ga  Ga14  1  0.333261  0.332833  0.564169  1
  Ga  Ga15  1  0.666739  0.667167  0.435831  1
  Ga  Ga16  1  0.666739  0.667167  0.064169  1
  Ga  Ga17  1  0.333261  0.332833  0.935831  1
  Ga  Ga18  1  0.338693  0.547727  0.250000  1
  Ga  Ga19  1  0.661307  0.452273  0.750000  1
  Ga  Ga20  1  0.547218  0.337853  0.250000  1
  Ga  Ga21  1  0.452782  0.662147  0.750000  1
  Rh  Rh22  1  0.671472  0.328263  0.999980  1
  Rh  Rh23  1  0.328528  0.671737  0.000020  1
  Rh  Rh24  1  0.328528  0.671737  0.499980  1
  Rh  Rh25  1  0.671472  0.328263  0.500020  1
  Rh  Rh26  1  0.000000  0.000000  0.000000  1
  Rh  Rh27  1  0.000000  0.000000  0.500000  1
