# generated using pymatgen
data_La6Nd4Sb9Te
_symmetry_space_group_name_H-M   'P 1'
_cell_length_a   7.93359027
_cell_length_b   9.20680331
_cell_length_c   10.25153454
_cell_angle_alpha   102.98989740
_cell_angle_beta   97.37733929
_cell_angle_gamma   106.89393488
_symmetry_Int_Tables_number   1
_chemical_formula_structural   La6Nd4Sb9Te
_chemical_formula_sum   'La6 Nd4 Sb9 Te1'
_cell_volume   682.91607186
_cell_formula_units_Z   1
loop_
 _symmetry_equiv_pos_site_id
 _symmetry_equiv_pos_as_xyz
  1  'x, y, z'
loop_
 _atom_site_type_symbol
 _atom_site_label
 _atom_site_symmetry_multiplicity
 _atom_site_fract_x
 _atom_site_fract_y
 _atom_site_fract_z
 _atom_site_occupancy
  La  La0  1  0.901489  0.549796  0.800209  1
  La  La1  1  0.695700  0.151902  0.398955  1
  La  La2  1  0.499839  0.750134  0.000594  1
  La  La3  1  0.696358  0.645530  0.398405  1
  La  La4  1  0.304215  0.354632  0.601958  1
  La  La5  1  0.100195  0.948359  0.194886  1
  Nd  Nd6  1  0.499201  0.249520  0.998885  1
  Nd  Nd7  1  0.305100  0.848249  0.601485  1
  Nd  Nd8  1  0.098641  0.449747  0.199487  1
  Nd  Nd9  1  0.899276  0.052054  0.805391  1
  Sb  Sb10  1  0.799959  0.598034  0.100910  1
  Sb  Sb11  1  0.598836  0.196916  0.701293  1
  Sb  Sb12  1  0.398608  0.799295  0.301459  1
  Sb  Sb13  1  0.801034  0.102262  0.100079  1
  Sb  Sb14  1  0.199474  0.396762  0.900472  1
  Sb  Sb15  1  0.601946  0.703961  0.700041  1
  Sb  Sb16  1  0.396875  0.299226  0.297980  1
  Sb  Sb17  1  0.200242  0.902552  0.896638  1
  Sb  Sb18  1  0.001994  0.501492  0.498877  1
  Te  Te19  1  0.001018  0.999577  0.501996  1
