# generated using pymatgen
data_PaMn3(Pd3Pt)3
_symmetry_space_group_name_H-M   'P 1'
_cell_length_a   6.92986041
_cell_length_b   6.92986127
_cell_length_c   6.91008196
_cell_angle_alpha   109.65454502
_cell_angle_beta   109.65454093
_cell_angle_gamma   109.22164698
_symmetry_Int_Tables_number   1
_chemical_formula_structural   PaMn3(Pd3Pt)3
_chemical_formula_sum   'Pa1 Mn3 Pd9 Pt3'
_cell_volume   255.07922105
_cell_formula_units_Z   1
loop_
 _symmetry_equiv_pos_site_id
 _symmetry_equiv_pos_as_xyz
  1  'x, y, z'
loop_
 _atom_site_type_symbol
 _atom_site_label
 _atom_site_symmetry_multiplicity
 _atom_site_fract_x
 _atom_site_fract_y
 _atom_site_fract_z
 _atom_site_occupancy
  Pa  Pa0  1  0.249912  0.249912  0.499824  1
  Mn  Mn1  1  0.749394  0.749394  0.498786  1
  Mn  Mn2  1  0.251354  0.748761  0.000115  1
  Mn  Mn3  1  0.748761  0.251354  0.000115  1
  Pd  Pd4  1  0.502010  0.250251  0.248184  1
  Pd  Pd5  1  0.502554  0.754683  0.751985  1
  Pd  Pd6  1  0.997303  0.249430  0.751985  1
  Pd  Pd7  1  0.249430  0.997303  0.751985  1
  Pd  Pd8  1  0.997932  0.746175  0.248184  1
  Pd  Pd9  1  0.746175  0.997932  0.248184  1
  Pd  Pd10  1  0.250251  0.502010  0.248184  1
  Pd  Pd11  1  0.754683  0.502554  0.751985  1
  Pd  Pd12  1  0.998187  0.998187  0.996374  1
  Pt  Pt13  1  0.501862  0.998161  0.500023  1
  Pt  Pt14  1  0.998161  0.501862  0.500023  1
  Pt  Pt15  1  0.502032  0.502032  0.004064  1
