# generated using pymatgen
data_Tb4Y6AlBi5
_symmetry_space_group_name_H-M   'P 1'
_cell_length_a   9.14131100
_cell_length_b   9.14131000
_cell_length_c   6.43482000
_cell_angle_alpha   90.00000000
_cell_angle_beta   90.00000000
_cell_angle_gamma   119.81738848
_symmetry_Int_Tables_number   1
_chemical_formula_structural   Tb4Y6AlBi5
_chemical_formula_sum   'Tb4 Y6 Al1 Bi5'
_cell_volume   466.53063817
_cell_formula_units_Z   1
loop_
 _symmetry_equiv_pos_site_id
 _symmetry_equiv_pos_as_xyz
  1  'x, y, z'
loop_
 _atom_site_type_symbol
 _atom_site_label
 _atom_site_symmetry_multiplicity
 _atom_site_fract_x
 _atom_site_fract_y
 _atom_site_fract_z
 _atom_site_occupancy
  Tb  Tb0  1  0.659830  0.335469  0.996916  1
  Tb  Tb1  1  0.335469  0.659830  0.996916  1
  Tb  Tb2  1  0.335469  0.659830  0.503084  1
  Tb  Tb3  1  0.659830  0.335469  0.503084  1
  Y  Y4  1  0.750142  0.750142  0.750000  1
  Y  Y5  1  0.243766  0.012580  0.750000  1
  Y  Y6  1  0.012580  0.243766  0.750000  1
  Y  Y7  1  0.240569  0.240569  0.250000  1
  Y  Y8  1  0.758257  0.000370  0.250000  1
  Y  Y9  1  0.000370  0.758257  0.250000  1
  Al  Al10  1  0.395374  0.395374  0.750000  1
  Bi  Bi11  1  0.611645  0.002558  0.750000  1
  Bi  Bi12  1  0.002558  0.611645  0.750000  1
  Bi  Bi13  1  0.607994  0.607994  0.250000  1
  Bi  Bi14  1  0.390117  0.996031  0.250000  1
  Bi  Bi15  1  0.996031  0.390117  0.250000  1
