# generated using pymatgen
data_Ho2Sc3P12Ru19
_symmetry_space_group_name_H-M   'P 1'
_cell_length_a   12.46051500
_cell_length_b   12.46051565
_cell_length_c   3.95161000
_cell_angle_alpha   90.00000000
_cell_angle_beta   90.00000000
_cell_angle_gamma   120.00000092
_symmetry_Int_Tables_number   1
_chemical_formula_structural   Ho2Sc3P12Ru19
_chemical_formula_sum   'Ho2 Sc3 P12 Ru19'
_cell_volume   531.34513788
_cell_formula_units_Z   1
loop_
 _symmetry_equiv_pos_site_id
 _symmetry_equiv_pos_as_xyz
  1  'x, y, z'
loop_
 _atom_site_type_symbol
 _atom_site_label
 _atom_site_symmetry_multiplicity
 _atom_site_fract_x
 _atom_site_fract_y
 _atom_site_fract_z
 _atom_site_occupancy
  Ho  Ho0  1  0.666667  0.333333  0.000000  1
  Ho  Ho1  1  0.333333  0.666667  0.000000  1
  Sc  Sc2  1  0.000000  0.182646  0.500000  1
  Sc  Sc3  1  0.817354  0.817354  0.500000  1
  Sc  Sc4  1  0.182646  0.000000  0.500000  1
  P  P5  1  0.000000  0.818718  0.000000  1
  P  P6  1  0.181282  0.181282  0.000000  1
  P  P7  1  0.818718  0.000000  0.000000  1
  P  P8  1  0.692938  0.169838  0.500000  1
  P  P9  1  0.830162  0.523100  0.500000  1
  P  P10  1  0.476900  0.307062  0.500000  1
  P  P11  1  0.169838  0.692938  0.500000  1
  P  P12  1  0.523100  0.830162  0.500000  1
  P  P13  1  0.307062  0.476900  0.500000  1
  P  P14  1  0.000000  0.371879  0.000000  1
  P  P15  1  0.628121  0.628121  0.000000  1
  P  P16  1  0.371879  0.000000  0.000000  1
  Ru  Ru17  1  0.000000  0.555336  0.000000  1
  Ru  Ru18  1  0.444664  0.444664  0.000000  1
  Ru  Ru19  1  0.555336  0.000000  0.000000  1
  Ru  Ru20  1  0.000000  0.720813  0.500000  1
  Ru  Ru21  1  0.279187  0.279187  0.500000  1
  Ru  Ru22  1  0.720813  0.000000  0.500000  1
  Ru  Ru23  1  0.811546  0.184509  0.000000  1
  Ru  Ru24  1  0.815491  0.627037  0.000000  1
  Ru  Ru25  1  0.372963  0.188454  0.000000  1
  Ru  Ru26  1  0.184509  0.811546  0.000000  1
  Ru  Ru27  1  0.627037  0.815491  0.000000  1
  Ru  Ru28  1  0.188454  0.372963  0.000000  1
  Ru  Ru29  1  0.873777  0.364816  0.500000  1
  Ru  Ru30  1  0.635184  0.508961  0.500000  1
  Ru  Ru31  1  0.491039  0.126223  0.500000  1
  Ru  Ru32  1  0.364816  0.873777  0.500000  1
  Ru  Ru33  1  0.508961  0.635184  0.500000  1
  Ru  Ru34  1  0.126223  0.491039  0.500000  1
  Ru  Ru35  1  0.000000  0.000000  0.000000  1
