# generated using pymatgen
data_LiYb7(Si4Mo3)4
_symmetry_space_group_name_H-M   'P 1'
_cell_length_a   6.71001326
_cell_length_b   6.88026546
_cell_length_c   13.03329769
_cell_angle_alpha   89.81769148
_cell_angle_beta   89.86134161
_cell_angle_gamma   90.02014808
_symmetry_Int_Tables_number   1
_chemical_formula_structural   LiYb7(Si4Mo3)4
_chemical_formula_sum   'Li1 Yb7 Si16 Mo12'
_cell_volume   601.69913963
_cell_formula_units_Z   1
loop_
 _symmetry_equiv_pos_site_id
 _symmetry_equiv_pos_as_xyz
  1  'x, y, z'
loop_
 _atom_site_type_symbol
 _atom_site_label
 _atom_site_symmetry_multiplicity
 _atom_site_fract_x
 _atom_site_fract_y
 _atom_site_fract_z
 _atom_site_occupancy
  Li  Li0  1  0.980453  0.171137  0.093027  1
  Yb  Yb1  1  0.498285  0.334662  0.090864  1
  Yb  Yb2  1  0.999560  0.165681  0.409145  1
  Yb  Yb3  1  0.503444  0.665648  0.590892  1
  Yb  Yb4  1  0.001069  0.834607  0.913379  1
  Yb  Yb5  1  0.499143  0.665485  0.912457  1
  Yb  Yb6  1  0.002244  0.833425  0.590663  1
  Yb  Yb7  1  0.498167  0.332464  0.405964  1
  Si  Si8  1  0.658301  0.044817  0.544770  1
  Si  Si9  1  0.155471  0.445512  0.959678  1
  Si  Si10  1  0.331009  0.966060  0.046750  1
  Si  Si11  1  0.842213  0.544524  0.454108  1
  Si  Si12  1  0.343632  0.954882  0.454049  1
  Si  Si13  1  0.845645  0.534315  0.047589  1
  Si  Si14  1  0.657954  0.043942  0.957740  1
  Si  Si15  1  0.159207  0.456617  0.544299  1
  Si  Si16  1  0.536004  0.376748  0.750804  1
  Si  Si17  1  0.035218  0.121517  0.750339  1
  Si  Si18  1  0.465319  0.624708  0.249292  1
  Si  Si19  1  0.968520  0.882707  0.245142  1
  Si  Si20  1  0.802054  0.632947  0.751841  1
  Si  Si21  1  0.300181  0.864051  0.751033  1
  Si  Si22  1  0.193259  0.360678  0.244349  1
  Si  Si23  1  0.708478  0.137077  0.245388  1
  Mo  Mo24  1  0.837349  0.330961  0.629116  1
  Mo  Mo25  1  0.337222  0.168458  0.871487  1
  Mo  Mo26  1  0.167020  0.669680  0.128137  1
  Mo  Mo27  1  0.666977  0.834524  0.369567  1
  Mo  Mo28  1  0.163813  0.669377  0.369876  1
  Mo  Mo29  1  0.664123  0.833907  0.126902  1
  Mo  Mo30  1  0.837548  0.328137  0.873002  1
  Mo  Mo31  1  0.337110  0.168480  0.628600  1
  Mo  Mo32  1  0.660429  0.008742  0.750887  1
  Mo  Mo33  1  0.161520  0.489440  0.750509  1
  Mo  Mo34  1  0.341435  0.992743  0.248593  1
  Mo  Mo35  1  0.840621  0.511340  0.249763  1
