# generated using pymatgen
data_ZrScFe12P7
_symmetry_space_group_name_H-M   'P 1'
_cell_length_a   8.86395400
_cell_length_b   8.86395407
_cell_length_c   3.59462900
_cell_angle_alpha   90.00000000
_cell_angle_beta   90.00000000
_cell_angle_gamma   119.99999228
_symmetry_Int_Tables_number   1
_chemical_formula_structural   ZrScFe12P7
_chemical_formula_sum   'Zr1 Sc1 Fe12 P7'
_cell_volume   244.59058164
_cell_formula_units_Z   1
loop_
 _symmetry_equiv_pos_site_id
 _symmetry_equiv_pos_as_xyz
  1  'x, y, z'
loop_
 _atom_site_type_symbol
 _atom_site_label
 _atom_site_symmetry_multiplicity
 _atom_site_fract_x
 _atom_site_fract_y
 _atom_site_fract_z
 _atom_site_occupancy
  Zr  Zr0  1  0.000000  0.000000  0.000000  1
  Sc  Sc1  1  0.333333  0.666667  0.500000  1
  Fe  Fe2  1  0.095462  0.392099  0.000000  1
  Fe  Fe3  1  0.296638  0.904538  0.000000  1
  Fe  Fe4  1  0.607901  0.703362  0.000000  1
  Fe  Fe5  1  0.824775  0.610504  0.000000  1
  Fe  Fe6  1  0.785729  0.175225  0.000000  1
  Fe  Fe7  1  0.389496  0.214271  0.000000  1
  Fe  Fe8  1  0.051054  0.769650  0.500000  1
  Fe  Fe9  1  0.718599  0.948946  0.500000  1
  Fe  Fe10  1  0.230350  0.281401  0.500000  1
  Fe  Fe11  1  0.883675  0.430477  0.500000  1
  Fe  Fe12  1  0.546802  0.116325  0.500000  1
  Fe  Fe13  1  0.569523  0.453198  0.500000  1
  P  P14  1  0.083046  0.631565  0.000000  1
  P  P15  1  0.548518  0.916954  0.000000  1
  P  P16  1  0.368435  0.451482  0.000000  1
  P  P17  1  0.780739  0.736962  0.500000  1
  P  P18  1  0.956222  0.219261  0.500000  1
  P  P19  1  0.263038  0.043778  0.500000  1
  P  P20  1  0.666667  0.333333  0.000000  1
