# generated using pymatgen
data_Dy3Ho2InSb2
_symmetry_space_group_name_H-M   'P 1'
_cell_length_a   8.96413300
_cell_length_b   8.96364213
_cell_length_c   6.44102000
_cell_angle_alpha   90.00000000
_cell_angle_beta   90.00000000
_cell_angle_gamma   119.99818834
_symmetry_Int_Tables_number   1
_chemical_formula_structural   Dy3Ho2InSb2
_chemical_formula_sum   'Dy6 Ho4 In2 Sb4'
_cell_volume   448.21460939
_cell_formula_units_Z   2
loop_
 _symmetry_equiv_pos_site_id
 _symmetry_equiv_pos_as_xyz
  1  'x, y, z'
loop_
 _atom_site_type_symbol
 _atom_site_label
 _atom_site_symmetry_multiplicity
 _atom_site_fract_x
 _atom_site_fract_y
 _atom_site_fract_z
 _atom_site_occupancy
  Dy  Dy0  1  0.758534  0.998702  0.750000  1
  Dy  Dy1  1  0.758534  0.759832  0.250000  1
  Dy  Dy2  1  0.001942  0.241904  0.250000  1
  Dy  Dy3  1  0.001942  0.760038  0.750000  1
  Dy  Dy4  1  0.240459  0.237196  0.750000  1
  Dy  Dy5  1  0.240459  0.003263  0.250000  1
  Ho  Ho6  1  0.334882  0.667442  0.000000  1
  Ho  Ho7  1  0.663487  0.331743  0.500000  1
  Ho  Ho8  1  0.663487  0.331743  0.000000  1
  Ho  Ho9  1  0.334882  0.667442  0.500000  1
  In  In10  1  0.395003  0.998297  0.750000  1
  In  In11  1  0.395003  0.396707  0.250000  1
  Sb  Sb12  1  0.999369  0.607181  0.250000  1
  Sb  Sb13  1  0.999369  0.392188  0.750000  1
  Sb  Sb14  1  0.606323  0.605992  0.750000  1
  Sb  Sb15  1  0.606323  0.000331  0.250000  1
