# generated using pymatgen
data_La3YbNi14
_symmetry_space_group_name_H-M   'P 1'
_cell_length_a   4.99367122
_cell_length_b   4.99367176
_cell_length_c   12.47353198
_cell_angle_alpha   78.45306216
_cell_angle_beta   78.45306288
_cell_angle_gamma   59.99998978
_symmetry_Int_Tables_number   1
_chemical_formula_structural   La3YbNi14
_chemical_formula_sum   'La3 Yb1 Ni14'
_cell_volume   262.08226221
_cell_formula_units_Z   1
loop_
 _symmetry_equiv_pos_site_id
 _symmetry_equiv_pos_as_xyz
  1  'x, y, z'
loop_
 _atom_site_type_symbol
 _atom_site_label
 _atom_site_symmetry_multiplicity
 _atom_site_fract_x
 _atom_site_fract_y
 _atom_site_fract_z
 _atom_site_occupancy
  La  La0  1  0.948741  0.948741  0.153778  1
  La  La1  1  0.052965  0.052965  0.841103  1
  La  La2  1  0.850875  0.850875  0.447374  1
  Yb  Yb3  1  0.147075  0.147075  0.558777  1
  Ni  Ni4  1  0.499260  0.499260  0.502221  1
  Ni  Ni5  1  0.722291  0.722291  0.833127  1
  Ni  Ni6  1  0.278027  0.278027  0.165921  1
  Ni  Ni7  1  0.611659  0.611659  0.165023  1
  Ni  Ni8  1  0.388187  0.388187  0.835440  1
  Ni  Ni9  1  0.999920  0.500300  0.999480  1
  Ni  Ni10  1  0.500300  0.999920  0.999480  1
  Ni  Ni11  1  0.500300  0.500300  0.999480  1
  Ni  Ni12  1  0.389782  0.389782  0.329956  1
  Ni  Ni13  1  0.890481  0.389782  0.329956  1
  Ni  Ni14  1  0.389782  0.890481  0.329956  1
  Ni  Ni15  1  0.609692  0.609692  0.669643  1
  Ni  Ni16  1  0.110974  0.609692  0.669643  1
  Ni  Ni17  1  0.609692  0.110974  0.669643  1
