# generated using pymatgen
data_HfZrCr3Re
_symmetry_space_group_name_H-M   'P 1'
_cell_length_a   5.09337399
_cell_length_b   5.09337395
_cell_length_c   5.11269496
_cell_angle_alpha   60.12492981
_cell_angle_beta   60.12493660
_cell_angle_gamma   60.00000584
_symmetry_Int_Tables_number   1
_chemical_formula_structural   HfZrCr3Re
_chemical_formula_sum   'Hf1 Zr1 Cr3 Re1'
_cell_volume   93.96444707
_cell_formula_units_Z   1
loop_
 _symmetry_equiv_pos_site_id
 _symmetry_equiv_pos_as_xyz
  1  'x, y, z'
loop_
 _atom_site_type_symbol
 _atom_site_label
 _atom_site_symmetry_multiplicity
 _atom_site_fract_x
 _atom_site_fract_y
 _atom_site_fract_z
 _atom_site_occupancy
  Hf  Hf0  1  0.249298  0.249298  0.252106  1
  Zr  Zr1  1  0.000790  0.000790  0.997629  1
  Cr  Cr2  1  0.624988  0.125078  0.624947  1
  Cr  Cr3  1  0.125078  0.624988  0.624947  1
  Cr  Cr4  1  0.624988  0.624988  0.624947  1
  Re  Re5  1  0.624859  0.624859  0.125424  1
