# generated using pymatgen
data_Y5P12Ir13Ru6
_symmetry_space_group_name_H-M   'P 1'
_cell_length_a   12.62238000
_cell_length_b   12.61556380
_cell_length_c   3.98293300
_cell_angle_alpha   90.00000000
_cell_angle_beta   90.00000000
_cell_angle_gamma   119.71296909
_symmetry_Int_Tables_number   1
_chemical_formula_structural   Y5P12Ir13Ru6
_chemical_formula_sum   'Y5 P12 Ir13 Ru6'
_cell_volume   550.84626739
_cell_formula_units_Z   1
loop_
 _symmetry_equiv_pos_site_id
 _symmetry_equiv_pos_as_xyz
  1  'x, y, z'
loop_
 _atom_site_type_symbol
 _atom_site_label
 _atom_site_symmetry_multiplicity
 _atom_site_fract_x
 _atom_site_fract_y
 _atom_site_fract_z
 _atom_site_occupancy
  Y  Y0  1  0.667985  0.333642  0.000000  1
  Y  Y1  1  0.332798  0.665266  0.000000  1
  Y  Y2  1  0.816690  0.001607  0.500000  1
  Y  Y3  1  0.183073  0.184239  0.500000  1
  Y  Y4  1  0.999372  0.815683  0.500000  1
  P  P5  1  0.643851  0.004480  0.000000  1
  P  P6  1  0.363617  0.363385  0.000000  1
  P  P7  1  0.999433  0.636181  0.000000  1
  P  P8  1  0.688493  0.519861  0.500000  1
  P  P9  1  0.830076  0.308337  0.500000  1
  P  P10  1  0.308861  0.828698  0.500000  1
  P  P11  1  0.519471  0.687018  0.500000  1
  P  P12  1  0.181446  0.000673  0.000000  1
  P  P13  1  0.819362  0.820134  0.000000  1
  P  P14  1  0.997496  0.180992  0.000000  1
  P  P15  1  0.480561  0.170551  0.500000  1
  P  P16  1  0.167996  0.480136  0.500000  1
  Ir  Ir17  1  0.624644  0.807581  0.000000  1
  Ir  Ir18  1  0.182184  0.375707  0.000000  1
  Ir  Ir19  1  0.377332  0.182040  0.000000  1
  Ir  Ir20  1  0.194479  0.817968  0.000000  1
  Ir  Ir21  1  0.804904  0.623749  0.000000  1
  Ir  Ir22  1  0.868490  0.506400  0.500000  1
  Ir  Ir23  1  0.492415  0.363036  0.500000  1
  Ir  Ir24  1  0.636739  0.128760  0.500000  1
  Ir  Ir25  1  0.128716  0.637707  0.500000  1
  Ir  Ir26  1  0.360540  0.491740  0.500000  1
  Ir  Ir27  1  0.504603  0.865535  0.500000  1
  Ir  Ir28  1  0.000376  0.000054  0.000000  1
  Ir  Ir29  1  0.457894  0.997615  0.000000  1
  Ru  Ru30  1  0.713256  0.713624  0.500000  1
  Ru  Ru31  1  0.001616  0.288475  0.500000  1
  Ru  Ru32  1  0.544283  0.546825  0.000000  1
  Ru  Ru33  1  0.000888  0.454452  0.000000  1
  Ru  Ru34  1  0.819378  0.197662  0.000000  1
  Ru  Ru35  1  0.286681  0.000190  0.500000  1
