# generated using pymatgen
data_Nd9Lu(Ga2Sn)2
_symmetry_space_group_name_H-M   'P 1'
_cell_length_a   9.11200099
_cell_length_b   9.11200006
_cell_length_c   9.11200000
_cell_angle_alpha   127.21195928
_cell_angle_beta   127.21196274
_cell_angle_gamma   77.90514442
_symmetry_Int_Tables_number   1
_chemical_formula_structural   Nd9Lu(Ga2Sn)2
_chemical_formula_sum   'Nd9 Lu1 Ga4 Sn2'
_cell_volume   465.07138133
_cell_formula_units_Z   1
loop_
 _symmetry_equiv_pos_site_id
 _symmetry_equiv_pos_as_xyz
  1  'x, y, z'
loop_
 _atom_site_type_symbol
 _atom_site_label
 _atom_site_symmetry_multiplicity
 _atom_site_fract_x
 _atom_site_fract_y
 _atom_site_fract_z
 _atom_site_occupancy
  Nd  Nd0  1  0.000000  0.000000  0.000000  1
  Nd  Nd1  1  0.523894  0.024216  0.837731  1
  Nd  Nd2  1  0.186482  0.686160  0.162269  1
  Nd  Nd3  1  0.024216  0.186482  0.500322  1
  Nd  Nd4  1  0.686160  0.523894  0.499678  1
  Nd  Nd5  1  0.476106  0.975784  0.162269  1
  Nd  Nd6  1  0.813518  0.313840  0.837731  1
  Nd  Nd7  1  0.975784  0.813518  0.499678  1
  Nd  Nd8  1  0.313840  0.476106  0.500322  1
  Lu  Lu9  1  0.500000  0.500000  0.000000  1
  Ga  Ga10  1  0.872185  0.379972  0.252156  1
  Ga  Ga11  1  0.127815  0.620028  0.747844  1
  Ga  Ga12  1  0.379972  0.127815  0.507786  1
  Ga  Ga13  1  0.620028  0.872185  0.492214  1
  Sn  Sn14  1  0.252512  0.252512  0.000000  1
  Sn  Sn15  1  0.747488  0.747488  0.000000  1
