# generated using pymatgen
data_Lu3Ga2SnPt3
_symmetry_space_group_name_H-M   'P 1'
_cell_length_a   7.33955037
_cell_length_b   7.39189438
_cell_length_c   3.81373000
_cell_angle_alpha   90.00000000
_cell_angle_beta   90.00000000
_cell_angle_gamma   120.23618956
_symmetry_Int_Tables_number   1
_chemical_formula_structural   Lu3Ga2SnPt3
_chemical_formula_sum   'Lu3 Ga2 Sn1 Pt3'
_cell_volume   178.75871855
_cell_formula_units_Z   1
loop_
 _symmetry_equiv_pos_site_id
 _symmetry_equiv_pos_as_xyz
  1  'x, y, z'
loop_
 _atom_site_type_symbol
 _atom_site_label
 _atom_site_symmetry_multiplicity
 _atom_site_fract_x
 _atom_site_fract_y
 _atom_site_fract_z
 _atom_site_occupancy
  Lu  Lu0  1  0.410741  0.405269  0.500000  1
  Lu  Lu1  1  0.589259  0.994527  0.500000  1
  Lu  Lu2  1  0.000000  0.605719  0.500000  1
  Ga  Ga3  1  0.738853  0.738676  0.000000  1
  Ga  Ga4  1  0.261147  0.999823  0.000000  1
  Sn  Sn5  1  0.000000  0.258910  0.000000  1
  Pt  Pt6  1  0.661423  0.335018  0.000000  1
  Pt  Pt7  1  0.338577  0.673596  0.000000  1
  Pt  Pt8  1  0.000000  0.988463  0.500000  1
