# generated using pymatgen
data_SrPrGa5GePd2
_symmetry_space_group_name_H-M   'P 1'
_cell_length_a   6.16333090
_cell_length_b   6.16333120
_cell_length_c   5.97505000
_cell_angle_alpha   90.00000000
_cell_angle_beta   90.00000000
_cell_angle_gamma   116.33959509
_symmetry_Int_Tables_number   1
_chemical_formula_structural   SrPrGa5GePd2
_chemical_formula_sum   'Sr1 Pr1 Ga5 Ge1 Pd2'
_cell_volume   203.40789003
_cell_formula_units_Z   1
loop_
 _symmetry_equiv_pos_site_id
 _symmetry_equiv_pos_as_xyz
  1  'x, y, z'
loop_
 _atom_site_type_symbol
 _atom_site_label
 _atom_site_symmetry_multiplicity
 _atom_site_fract_x
 _atom_site_fract_y
 _atom_site_fract_z
 _atom_site_occupancy
  Sr  Sr0  1  0.765585  0.234415  0.250000  1
  Pr  Pr1  1  0.234535  0.765465  0.750000  1
  Ga  Ga2  1  0.338160  0.661840  0.250000  1
  Ga  Ga3  1  0.719936  0.720496  0.998256  1
  Ga  Ga4  1  0.719936  0.720496  0.501744  1
  Ga  Ga5  1  0.279504  0.280064  0.998256  1
  Ga  Ga6  1  0.279504  0.280064  0.501744  1
  Ge  Ge7  1  0.661923  0.338077  0.750000  1
  Pd  Pd8  1  0.902125  0.097875  0.750000  1
  Pd  Pd9  1  0.098793  0.901207  0.250000  1
