# generated using pymatgen
data_Pr2Pa(GaIr)3
_symmetry_space_group_name_H-M   'P 1'
_cell_length_a   7.47309800
_cell_length_b   7.40450219
_cell_length_c   3.90118500
_cell_angle_alpha   90.00000000
_cell_angle_beta   90.00000000
_cell_angle_gamma   120.30692004
_symmetry_Int_Tables_number   1
_chemical_formula_structural   Pr2Pa(GaIr)3
_chemical_formula_sum   'Pr2 Pa1 Ga3 Ir3'
_cell_volume   186.36838422
_cell_formula_units_Z   1
loop_
 _symmetry_equiv_pos_site_id
 _symmetry_equiv_pos_as_xyz
  1  'x, y, z'
loop_
 _atom_site_type_symbol
 _atom_site_label
 _atom_site_symmetry_multiplicity
 _atom_site_fract_x
 _atom_site_fract_y
 _atom_site_fract_z
 _atom_site_occupancy
  Pr  Pr0  1  0.002582  0.590080  0.000000  1
  Pr  Pr1  1  0.412504  0.409920  0.000000  1
  Pa  Pa2  1  0.585744  0.000000  0.000000  1
  Ga  Ga3  1  0.237796  0.000000  0.500000  1
  Ga  Ga4  1  0.998548  0.245237  0.500000  1
  Ga  Ga5  1  0.753311  0.754763  0.500000  1
  Ir  Ir6  1  0.368961  0.708775  0.500000  1
  Ir  Ir7  1  0.660187  0.291225  0.500000  1
  Ir  Ir8  1  0.980368  0.000000  0.000000  1
