# generated using pymatgen
data_Dy3Al2ZnCu3
_symmetry_space_group_name_H-M   'P 1'
_cell_length_a   7.12715296
_cell_length_b   7.17856418
_cell_length_c   3.90487300
_cell_angle_alpha   90.00000000
_cell_angle_beta   90.00000000
_cell_angle_gamma   120.23890533
_symmetry_Int_Tables_number   1
_chemical_formula_structural   Dy3Al2ZnCu3
_chemical_formula_sum   'Dy3 Al2 Zn1 Cu3'
_cell_volume   172.59994929
_cell_formula_units_Z   1
loop_
 _symmetry_equiv_pos_site_id
 _symmetry_equiv_pos_as_xyz
  1  'x, y, z'
loop_
 _atom_site_type_symbol
 _atom_site_label
 _atom_site_symmetry_multiplicity
 _atom_site_fract_x
 _atom_site_fract_y
 _atom_site_fract_z
 _atom_site_occupancy
  Dy  Dy0  1  0.000000  0.419912  0.500000  1
  Dy  Dy1  1  0.590893  0.586416  0.500000  1
  Dy  Dy2  1  0.409107  0.995523  0.500000  1
  Al  Al3  1  0.235582  0.238111  0.000000  1
  Al  Al4  1  0.764418  0.002529  0.000000  1
  Zn  Zn5  1  0.000000  0.758572  0.000000  1
  Cu  Cu6  1  0.340952  0.666572  0.000000  1
  Cu  Cu7  1  0.659048  0.325620  0.000000  1
  Cu  Cu8  1  0.000000  0.006746  0.500000  1
