# generated using pymatgen
data_Li6PrEr5(TeO6)4
_symmetry_space_group_name_H-M   'P 1'
_cell_length_a   10.72391293
_cell_length_b   10.77331461
_cell_length_c   10.74635042
_cell_angle_alpha   109.62718418
_cell_angle_beta   109.44105688
_cell_angle_gamma   109.35425841
_symmetry_Int_Tables_number   1
_chemical_formula_structural   Li6PrEr5(TeO6)4
_chemical_formula_sum   'Li12 Pr2 Er10 Te8 O48'
_cell_volume   955.63582630
_cell_formula_units_Z   2
loop_
 _symmetry_equiv_pos_site_id
 _symmetry_equiv_pos_as_xyz
  1  'x, y, z'
loop_
 _atom_site_type_symbol
 _atom_site_label
 _atom_site_symmetry_multiplicity
 _atom_site_fract_x
 _atom_site_fract_y
 _atom_site_fract_z
 _atom_site_occupancy
  Li  Li0  1  0.750954  0.374988  0.124970  1
  Li  Li1  1  0.874021  0.749983  0.124971  1
  Li  Li2  1  0.124123  0.374690  0.250353  1
  Li  Li3  1  0.626229  0.875664  0.250355  1
  Li  Li4  1  0.250006  0.126753  0.377753  1
  Li  Li5  1  0.627744  0.251000  0.377752  1
  Li  Li6  1  0.750367  0.875728  0.625363  1
  Li  Li7  1  0.374996  0.749639  0.625363  1
  Li  Li8  1  0.374935  0.125215  0.748687  1
  Li  Li9  1  0.873752  0.623473  0.748688  1
  Li  Li10  1  0.249702  0.622503  0.872847  1
  Li  Li11  1  0.123146  0.250343  0.872849  1
  Pr  Pr12  1  0.375564  0.251548  0.124351  1
  Pr  Pr13  1  0.248786  0.872802  0.124350  1
  Er  Er14  1  0.376042  0.626042  0.252084  1
  Er  Er15  1  0.874893  0.124893  0.249788  1
  Er  Er16  1  0.124522  0.748974  0.376208  1
  Er  Er17  1  0.751687  0.627233  0.376209  1
  Er  Er18  1  0.874813  0.249773  0.624885  1
  Er  Er19  1  0.250073  0.375113  0.624886  1
  Er  Er20  1  0.625138  0.375138  0.750277  1
  Er  Er21  1  0.123377  0.873376  0.746753  1
  Er  Er22  1  0.749866  0.124907  0.875005  1
  Er  Er23  1  0.625139  0.750097  0.875005  1
  Te  Te24  1  0.994766  0.998834  0.996297  1
  Te  Te25  1  0.501530  0.997463  0.996297  1
  Te  Te26  1  0.998142  0.495847  0.999714  1
  Te  Te27  1  0.501573  0.503868  0.999715  1
  Te  Te28  1  0.999822  0.000379  0.499821  1
  Te  Te29  1  0.502713  0.503939  0.504251  1
  Te  Te30  1  0.501537  0.000312  0.504251  1
  Te  Te31  1  0.999998  0.499441  0.499821  1
  O  O32  1  0.197199  0.611687  0.024092  1
  O  O33  1  0.326892  0.412404  0.024090  1
  O  O34  1  0.876998  0.906016  0.077265  1
  O  O35  1  0.700267  0.171249  0.077264  1
  O  O36  1  0.622916  0.920291  0.091735  1
  O  O37  1  0.968818  0.171445  0.091736  1
  O  O38  1  0.022987  0.693183  0.122301  1
  O  O39  1  0.599316  0.429118  0.122301  1
  O  O40  1  0.191838  0.080562  0.172318  1
  O  O41  1  0.480481  0.091757  0.172320  1
  O  O42  1  0.121872  0.526893  0.200506  1
  O  O43  1  0.578634  0.673612  0.200507  1
  O  O44  1  0.476372  0.877465  0.306515  1
  O  O45  1  0.330143  0.429049  0.306514  1
  O  O46  1  0.922737  0.800901  0.328333  1
  O  O47  1  0.905594  0.527428  0.328330  1
  O  O48  1  0.586679  0.412887  0.388732  1
  O  O49  1  0.302053  0.975844  0.388731  1
  O  O50  1  0.828188  0.028735  0.406107  1
  O  O51  1  0.077920  0.377372  0.406109  1
  O  O52  1  0.093634  0.122249  0.422490  1
  O  O53  1  0.828855  0.300240  0.422490  1
  O  O54  1  0.595389  0.673348  0.473396  1
  O  O55  1  0.378007  0.800049  0.473395  1
  O  O56  1  0.407194  0.330104  0.528571  1
  O  O57  1  0.621377  0.198466  0.528571  1
  O  O58  1  0.171171  0.698659  0.576303  1
  O  O59  1  0.905131  0.877644  0.576304  1
  O  O60  1  0.923172  0.622331  0.594452  1
  O  O61  1  0.171283  0.972123  0.594453  1
  O  O62  1  0.422063  0.594760  0.623728  1
  O  O63  1  0.701664  0.028967  0.623728  1
  O  O64  1  0.077625  0.199948  0.671347  1
  O  O65  1  0.093722  0.471402  0.671349  1
  O  O66  1  0.530960  0.123617  0.703715  1
  O  O67  1  0.672755  0.580099  0.703715  1
  O  O68  1  0.878147  0.471255  0.800749  1
  O  O69  1  0.422601  0.329495  0.800748  1
  O  O70  1  0.531108  0.906426  0.826240  1
  O  O71  1  0.795132  0.919814  0.826242  1
  O  O72  1  0.969095  0.296870  0.876685  1
  O  O73  1  0.407592  0.579816  0.876686  1
  O  O74  1  0.377781  0.072477  0.900596  1
  O  O75  1  0.022814  0.828117  0.900594  1
  O  O76  1  0.301487  0.824501  0.912912  1
  O  O77  1  0.111425  0.088413  0.912912  1
  O  O78  1  0.798362  0.376194  0.970951  1
  O  O79  1  0.672591  0.594759  0.970953  1
