# generated using pymatgen
data_Ti8Al15Co4Pt3
_symmetry_space_group_name_H-M   'P 1'
_cell_length_a   8.55518913
_cell_length_b   8.55006886
_cell_length_c   8.55518777
_cell_angle_alpha   120.07137122
_cell_angle_beta   119.96055104
_cell_angle_gamma   89.98956181
_symmetry_Int_Tables_number   1
_chemical_formula_structural   Ti8Al15Co4Pt3
_chemical_formula_sum   'Ti8 Al15 Co4 Pt3'
_cell_volume   442.32685123
_cell_formula_units_Z   1
loop_
 _symmetry_equiv_pos_site_id
 _symmetry_equiv_pos_as_xyz
  1  'x, y, z'
loop_
 _atom_site_type_symbol
 _atom_site_label
 _atom_site_symmetry_multiplicity
 _atom_site_fract_x
 _atom_site_fract_y
 _atom_site_fract_z
 _atom_site_occupancy
  Ti  Ti0  1  0.792855  0.289876  0.076053  1
  Ti  Ti1  1  0.213823  0.289876  0.497021  1
  Ti  Ti2  1  0.209605  0.706856  0.497252  1
  Ti  Ti3  1  0.211834  0.714650  0.923834  1
  Ti  Ti4  1  0.790816  0.714650  0.502815  1
  Ti  Ti5  1  0.785691  0.286663  0.500972  1
  Ti  Ti6  1  0.382201  0.118777  0.736577  1
  Ti  Ti7  1  0.375615  0.641220  0.265607  1
  Al  Al8  1  0.997490  0.497209  0.499719  1
  Al  Al9  1  0.158319  0.339672  0.181353  1
  Al  Al10  1  0.152752  0.974207  0.821455  1
  Al  Al11  1  0.150339  0.348625  0.818120  1
  Al  Al12  1  0.530504  0.348625  0.198286  1
  Al  Al13  1  0.842051  0.656566  0.814517  1
  Al  Al14  1  0.849357  0.031061  0.181704  1
  Al  Al15  1  0.847800  0.651448  0.178878  1
  Al  Al16  1  0.472569  0.651448  0.803647  1
  Al  Al17  1  0.376462  0.123399  0.266717  1
  Al  Al18  1  0.856682  0.123399  0.746937  1
  Al  Al19  1  0.617304  0.880532  0.263227  1
  Al  Al20  1  0.623946  0.358670  0.734725  1
  Al  Al21  1  0.625568  0.876002  0.736503  1
  Al  Al22  1  0.139498  0.876002  0.250434  1
  Co  Co23  1  0.497877  0.501949  0.498050  1
  Co  Co24  1  0.003899  0.501949  0.004072  1
  Co  Co25  1  0.000796  0.000380  0.999583  1
  Co  Co26  1  0.495526  0.997880  0.502354  1
  Pt  Pt27  1  0.998839  0.999399  0.499402  1
  Pt  Pt28  1  0.499997  0.999399  0.000560  1
  Pt  Pt29  1  0.499982  0.499605  0.999624  1
