# generated using pymatgen
data_Dy2TmTa3(B2Ru5)2
_symmetry_space_group_name_H-M   'P 1'
_cell_length_a   9.59244481
_cell_length_b   9.59244429
_cell_length_c   3.11632200
_cell_angle_alpha   90.00000000
_cell_angle_beta   90.00000000
_cell_angle_gamma   90.49319522
_symmetry_Int_Tables_number   1
_chemical_formula_structural   Dy2TmTa3(B2Ru5)2
_chemical_formula_sum   'Dy2 Tm1 Ta3 B4 Ru10'
_cell_volume   286.73772194
_cell_formula_units_Z   1
loop_
 _symmetry_equiv_pos_site_id
 _symmetry_equiv_pos_as_xyz
  1  'x, y, z'
loop_
 _atom_site_type_symbol
 _atom_site_label
 _atom_site_symmetry_multiplicity
 _atom_site_fract_x
 _atom_site_fract_y
 _atom_site_fract_z
 _atom_site_occupancy
  Dy  Dy0  1  0.824195  0.675229  0.000000  1
  Dy  Dy1  1  0.175229  0.324195  0.000000  1
  Tm  Tm2  1  0.325631  0.825631  0.000000  1
  Ta  Ta3  1  0.675604  0.175604  0.000000  1
  Ta  Ta4  1  0.498151  0.502744  0.000000  1
  Ta  Ta5  1  0.002744  0.998151  0.000000  1
  B  B6  1  0.622363  0.881016  0.000000  1
  B  B7  1  0.381016  0.122363  0.000000  1
  B  B8  1  0.120014  0.620014  0.000000  1
  B  B9  1  0.876258  0.376258  0.000000  1
  Ru  Ru10  1  0.570026  0.722093  0.500000  1
  Ru  Ru11  1  0.440901  0.279959  0.500000  1
  Ru  Ru12  1  0.070798  0.781158  0.500000  1
  Ru  Ru13  1  0.915623  0.213224  0.500000  1
  Ru  Ru14  1  0.281158  0.570798  0.500000  1
  Ru  Ru15  1  0.713224  0.415623  0.500000  1
  Ru  Ru16  1  0.222093  0.070026  0.500000  1
  Ru  Ru17  1  0.779959  0.940901  0.500000  1
  Ru  Ru18  1  0.508748  0.008748  0.500000  1
  Ru  Ru19  1  0.996264  0.496264  0.500000  1
