# generated using pymatgen
data_Sc10Bi5Os
_symmetry_space_group_name_H-M   'P 1'
_cell_length_a   7.58397100
_cell_length_b   8.99954300
_cell_length_c   11.48020800
_cell_angle_alpha   90.00000000
_cell_angle_beta   90.00000000
_cell_angle_gamma   90.00000000
_symmetry_Int_Tables_number   1
_chemical_formula_structural   Sc10Bi5Os
_chemical_formula_sum   'Sc20 Bi10 Os2'
_cell_volume   783.55029195
_cell_formula_units_Z   2
loop_
 _symmetry_equiv_pos_site_id
 _symmetry_equiv_pos_as_xyz
  1  'x, y, z'
loop_
 _atom_site_type_symbol
 _atom_site_label
 _atom_site_symmetry_multiplicity
 _atom_site_fract_x
 _atom_site_fract_y
 _atom_site_fract_z
 _atom_site_occupancy
  Sc  Sc0  1  0.182053  0.027279  0.935286  1
  Sc  Sc1  1  0.317947  0.027279  0.435286  1
  Sc  Sc2  1  0.317947  0.472721  0.435286  1
  Sc  Sc3  1  0.340264  0.750000  0.708413  1
  Sc  Sc4  1  0.444391  0.750000  0.997781  1
  Sc  Sc5  1  0.160392  0.250000  0.223382  1
  Sc  Sc6  1  0.820148  0.926520  0.061060  1
  Sc  Sc7  1  0.624776  0.750000  0.303538  1
  Sc  Sc8  1  0.055609  0.750000  0.497781  1
  Sc  Sc9  1  0.679852  0.926520  0.561060  1
  Sc  Sc10  1  0.182053  0.472721  0.935286  1
  Sc  Sc11  1  0.339608  0.250000  0.723382  1
  Sc  Sc12  1  0.159736  0.750000  0.208413  1
  Sc  Sc13  1  0.989680  0.250000  0.493383  1
  Sc  Sc14  1  0.679852  0.573480  0.561060  1
  Sc  Sc15  1  0.678679  0.250000  0.270363  1
  Sc  Sc16  1  0.820148  0.573480  0.061060  1
  Sc  Sc17  1  0.510320  0.250000  0.993383  1
  Sc  Sc18  1  0.821321  0.250000  0.770363  1
  Sc  Sc19  1  0.875224  0.750000  0.803538  1
  Bi  Bi20  1  0.066608  0.490071  0.671793  1
  Bi  Bi21  1  0.570386  0.508732  0.826547  1
  Bi  Bi22  1  0.929614  0.991268  0.326547  1
  Bi  Bi23  1  0.433392  0.009929  0.171793  1
  Bi  Bi24  1  0.570386  0.991268  0.826547  1
  Bi  Bi25  1  0.433392  0.490071  0.171793  1
  Bi  Bi26  1  0.066608  0.009929  0.671793  1
  Bi  Bi27  1  0.929614  0.508732  0.326547  1
  Bi  Bi28  1  0.593368  0.250000  0.527682  1
  Bi  Bi29  1  0.906632  0.250000  0.027682  1
  Os  Os30  1  0.418626  0.750000  0.486085  1
  Os  Os31  1  0.081374  0.750000  0.986085  1
