# generated using pymatgen
data_Sm2Y2Er2CoI10
_symmetry_space_group_name_H-M   'P 1'
_cell_length_a   7.73844866
_cell_length_b   9.70232524
_cell_length_c   9.69980896
_cell_angle_alpha   106.75764303
_cell_angle_beta   96.31554383
_cell_angle_gamma   104.96260507
_symmetry_Int_Tables_number   1
_chemical_formula_structural   Sm2Y2Er2CoI10
_chemical_formula_sum   'Sm2 Y2 Er2 Co1 I10'
_cell_volume   660.17228331
_cell_formula_units_Z   1
loop_
 _symmetry_equiv_pos_site_id
 _symmetry_equiv_pos_as_xyz
  1  'x, y, z'
loop_
 _atom_site_type_symbol
 _atom_site_label
 _atom_site_symmetry_multiplicity
 _atom_site_fract_x
 _atom_site_fract_y
 _atom_site_fract_z
 _atom_site_occupancy
  Sm  Sm0  1  0.887738  0.958085  0.229360  1
  Sm  Sm1  1  0.112262  0.041915  0.770640  1
  Y  Y2  1  0.657345  0.877609  0.837421  1
  Y  Y3  1  0.342655  0.122391  0.162579  1
  Er  Er4  1  0.030256  0.721267  0.916960  1
  Er  Er5  1  0.969744  0.278733  0.083040  1
  Co  Co6  1  0.000000  0.000000  0.000000  1
  I  I7  1  0.653321  0.550045  0.729194  1
  I  I8  1  0.346679  0.449955  0.270806  1
  I  I9  1  0.739301  0.912631  0.540712  1
  I  I10  1  0.260699  0.087369  0.459288  1
  I  I11  1  0.084355  0.376240  0.823453  1
  I  I12  1  0.915645  0.623760  0.176547  1
  I  I13  1  0.450618  0.813915  0.091753  1
  I  I14  1  0.549382  0.186085  0.908247  1
  I  I15  1  0.223588  0.740498  0.657667  1
  I  I16  1  0.776412  0.259502  0.342333  1
