# generated using pymatgen
data_Y2LuHf3(GaPt)6
_symmetry_space_group_name_H-M   'P 1'
_cell_length_a   7.27280000
_cell_length_b   7.25966707
_cell_length_c   7.33661700
_cell_angle_alpha   90.00000000
_cell_angle_beta   90.00000000
_cell_angle_gamma   120.05901531
_symmetry_Int_Tables_number   1
_chemical_formula_structural   Y2LuHf3(GaPt)6
_chemical_formula_sum   'Y2 Lu1 Hf3 Ga6 Pt6'
_cell_volume   335.26348574
_cell_formula_units_Z   1
loop_
 _symmetry_equiv_pos_site_id
 _symmetry_equiv_pos_as_xyz
  1  'x, y, z'
loop_
 _atom_site_type_symbol
 _atom_site_label
 _atom_site_symmetry_multiplicity
 _atom_site_fract_x
 _atom_site_fract_y
 _atom_site_fract_z
 _atom_site_occupancy
  Y  Y0  1  0.408513  0.408898  0.750000  1
  Y  Y1  1  0.001261  0.591933  0.750000  1
  Lu  Lu2  1  0.592096  0.999129  0.750000  1
  Hf  Hf3  1  0.390667  0.389700  0.250000  1
  Hf  Hf4  1  0.999175  0.609419  0.250000  1
  Hf  Hf5  1  0.610853  0.000911  0.250000  1
  Ga  Ga6  1  0.263494  0.999502  0.006466  1
  Ga  Ga7  1  0.263494  0.999502  0.493534  1
  Ga  Ga8  1  0.999880  0.263071  0.492183  1
  Ga  Ga9  1  0.999880  0.263071  0.007817  1
  Ga  Ga10  1  0.736284  0.737463  0.007785  1
  Ga  Ga11  1  0.736284  0.737463  0.492215  1
  Pt  Pt12  1  0.666129  0.331362  0.471909  1
  Pt  Pt13  1  0.996108  0.000001  0.750000  1
  Pt  Pt14  1  0.666129  0.331362  0.028091  1
  Pt  Pt15  1  0.334746  0.668607  0.030540  1
  Pt  Pt16  1  0.334746  0.668607  0.469460  1
  Pt  Pt17  1  0.000259  0.999999  0.250000  1
