# generated using pymatgen
data_Pa3Zn3AgIr2
_symmetry_space_group_name_H-M   'P 1'
_cell_length_a   7.36453000
_cell_length_b   7.36452858
_cell_length_c   3.82105000
_cell_angle_alpha   90.00000000
_cell_angle_beta   90.00000000
_cell_angle_gamma   119.99999741
_symmetry_Int_Tables_number   1
_chemical_formula_structural   Pa3Zn3AgIr2
_chemical_formula_sum   'Pa3 Zn3 Ag1 Ir2'
_cell_volume   179.47474749
_cell_formula_units_Z   1
loop_
 _symmetry_equiv_pos_site_id
 _symmetry_equiv_pos_as_xyz
  1  'x, y, z'
loop_
 _atom_site_type_symbol
 _atom_site_label
 _atom_site_symmetry_multiplicity
 _atom_site_fract_x
 _atom_site_fract_y
 _atom_site_fract_z
 _atom_site_occupancy
  Pa  Pa0  1  0.420157  0.420157  0.500000  1
  Pa  Pa1  1  0.579843  0.000000  0.500000  1
  Pa  Pa2  1  0.000000  0.579843  0.500000  1
  Zn  Zn3  1  0.745108  0.745108  0.000000  1
  Zn  Zn4  1  0.254892  0.000000  0.000000  1
  Zn  Zn5  1  0.000000  0.254892  0.000000  1
  Ag  Ag6  1  0.000000  0.000000  0.500000  1
  Ir  Ir7  1  0.666667  0.333333  0.000000  1
  Ir  Ir8  1  0.333333  0.666667  0.000000  1
