# generated using pymatgen
data_Li3Er3InGeSb
_symmetry_space_group_name_H-M   'P 1'
_cell_length_a   7.21543900
_cell_length_b   7.21543834
_cell_length_c   4.39325800
_cell_angle_alpha   90.00000000
_cell_angle_beta   90.00000000
_cell_angle_gamma   119.99999844
_symmetry_Int_Tables_number   1
_chemical_formula_structural   Li3Er3InGeSb
_chemical_formula_sum   'Li3 Er3 In1 Ge1 Sb1'
_cell_volume   198.08100293
_cell_formula_units_Z   1
loop_
 _symmetry_equiv_pos_site_id
 _symmetry_equiv_pos_as_xyz
  1  'x, y, z'
loop_
 _atom_site_type_symbol
 _atom_site_label
 _atom_site_symmetry_multiplicity
 _atom_site_fract_x
 _atom_site_fract_y
 _atom_site_fract_z
 _atom_site_occupancy
  Li  Li0  1  0.247066  0.005748  0.500000  1
  Li  Li1  1  0.758682  0.752934  0.500000  1
  Li  Li2  1  0.994252  0.241318  0.500000  1
  Er  Er3  1  0.984115  0.553974  0.000000  1
  Er  Er4  1  0.569859  0.015885  0.000000  1
  Er  Er5  1  0.446026  0.430141  0.000000  1
  In  In6  1  0.000000  0.000000  0.000000  1
  Ge  Ge7  1  0.666667  0.333333  0.500000  1
  Sb  Sb8  1  0.333333  0.666667  0.500000  1
