# generated using pymatgen
data_HoEr4InBi2
_symmetry_space_group_name_H-M   'P 1'
_cell_length_a   9.02065950
_cell_length_b   9.02831542
_cell_length_c   6.46697000
_cell_angle_alpha   90.00000000
_cell_angle_beta   90.00000000
_cell_angle_gamma   119.66012592
_symmetry_Int_Tables_number   1
_chemical_formula_structural   HoEr4InBi2
_chemical_formula_sum   'Ho2 Er8 In2 Bi4'
_cell_volume   457.67131864
_cell_formula_units_Z   2
loop_
 _symmetry_equiv_pos_site_id
 _symmetry_equiv_pos_as_xyz
  1  'x, y, z'
loop_
 _atom_site_type_symbol
 _atom_site_label
 _atom_site_symmetry_multiplicity
 _atom_site_fract_x
 _atom_site_fract_y
 _atom_site_fract_z
 _atom_site_occupancy
  Ho  Ho0  1  0.762472  0.762498  0.750000  1
  Ho  Ho1  1  0.233991  0.997889  0.750000  1
  Er  Er2  1  0.668901  0.328991  0.003929  1
  Er  Er3  1  0.329115  0.669008  0.004054  1
  Er  Er4  1  0.329115  0.669008  0.495946  1
  Er  Er5  1  0.668901  0.328991  0.496071  1
  Er  Er6  1  0.997813  0.234055  0.750000  1
  Er  Er7  1  0.233704  0.233757  0.250000  1
  Er  Er8  1  0.766550  0.008819  0.250000  1
  Er  Er9  1  0.008902  0.766507  0.250000  1
  In  In10  1  0.396682  0.002069  0.250000  1
  In  In11  1  0.002051  0.396703  0.250000  1
  Bi  Bi12  1  0.393584  0.393745  0.750000  1
  Bi  Bi13  1  0.602242  0.996969  0.750000  1
  Bi  Bi14  1  0.996838  0.601840  0.750000  1
  Bi  Bi15  1  0.609137  0.609150  0.250000  1
