# generated using pymatgen
data_Sc10NiPt3
_symmetry_space_group_name_H-M   'P 1'
_cell_length_a   8.75150800
_cell_length_b   8.75150865
_cell_length_c   8.56724600
_cell_angle_alpha   90.00000000
_cell_angle_beta   90.00000000
_cell_angle_gamma   119.99999754
_symmetry_Int_Tables_number   1
_chemical_formula_structural   Sc10NiPt3
_chemical_formula_sum   'Sc20 Ni2 Pt6'
_cell_volume   568.24771805
_cell_formula_units_Z   2
loop_
 _symmetry_equiv_pos_site_id
 _symmetry_equiv_pos_as_xyz
  1  'x, y, z'
loop_
 _atom_site_type_symbol
 _atom_site_label
 _atom_site_symmetry_multiplicity
 _atom_site_fract_x
 _atom_site_fract_y
 _atom_site_fract_z
 _atom_site_occupancy
  Sc  Sc0  1  0.000000  0.000000  0.500000  1
  Sc  Sc1  1  0.000000  0.000000  0.000000  1
  Sc  Sc2  1  0.542374  0.457626  0.250000  1
  Sc  Sc3  1  0.542374  0.084747  0.250000  1
  Sc  Sc4  1  0.915253  0.457626  0.250000  1
  Sc  Sc5  1  0.457626  0.542374  0.750000  1
  Sc  Sc6  1  0.457626  0.915253  0.750000  1
  Sc  Sc7  1  0.084747  0.542374  0.750000  1
  Sc  Sc8  1  0.204580  0.795420  0.441898  1
  Sc  Sc9  1  0.204580  0.409161  0.441898  1
  Sc  Sc10  1  0.590839  0.795420  0.441898  1
  Sc  Sc11  1  0.795420  0.204580  0.558102  1
  Sc  Sc12  1  0.795420  0.590839  0.558102  1
  Sc  Sc13  1  0.409161  0.204580  0.558102  1
  Sc  Sc14  1  0.795420  0.204580  0.941898  1
  Sc  Sc15  1  0.795420  0.590839  0.941898  1
  Sc  Sc16  1  0.409161  0.204580  0.941898  1
  Sc  Sc17  1  0.204580  0.795420  0.058102  1
  Sc  Sc18  1  0.204580  0.409161  0.058102  1
  Sc  Sc19  1  0.590839  0.795420  0.058102  1
  Ni  Ni20  1  0.333333  0.666667  0.250000  1
  Ni  Ni21  1  0.666667  0.333333  0.750000  1
  Pt  Pt22  1  0.878741  0.121259  0.250000  1
  Pt  Pt23  1  0.878741  0.757484  0.250000  1
  Pt  Pt24  1  0.242516  0.121259  0.250000  1
  Pt  Pt25  1  0.121259  0.878741  0.750000  1
  Pt  Pt26  1  0.121259  0.242516  0.750000  1
  Pt  Pt27  1  0.757484  0.878741  0.750000  1
