# generated using pymatgen
data_Ce4Pr5Dy7(CdIr)4
_symmetry_space_group_name_H-M   'P 1'
_cell_length_a   9.74324056
_cell_length_b   9.76681909
_cell_length_c   9.76681918
_cell_angle_alpha   59.93635638
_cell_angle_beta   60.07983319
_cell_angle_gamma   60.07983226
_symmetry_Int_Tables_number   1
_chemical_formula_structural   Ce4Pr5Dy7(CdIr)4
_chemical_formula_sum   'Ce4 Pr5 Dy7 Cd4 Ir4'
_cell_volume   657.66978410
_cell_formula_units_Z   1
loop_
 _symmetry_equiv_pos_site_id
 _symmetry_equiv_pos_as_xyz
  1  'x, y, z'
loop_
 _atom_site_type_symbol
 _atom_site_label
 _atom_site_symmetry_multiplicity
 _atom_site_fract_x
 _atom_site_fract_y
 _atom_site_fract_z
 _atom_site_occupancy
  Ce  Ce0  1  0.349416  0.347975  0.347975  1
  Ce  Ce1  1  0.346823  0.350758  0.955595  1
  Ce  Ce2  1  0.346823  0.955595  0.350758  1
  Ce  Ce3  1  0.954631  0.347975  0.347975  1
  Pr  Pr4  1  0.557522  0.942478  0.942478  1
  Pr  Pr5  1  0.562549  0.938476  0.558909  1
  Pr  Pr6  1  0.940066  0.558909  0.938476  1
  Pr  Pr7  1  0.562549  0.558909  0.938476  1
  Pr  Pr8  1  0.940066  0.938476  0.558909  1
  Dy  Dy9  1  0.813867  0.186133  0.186133  1
  Dy  Dy10  1  0.185708  0.814292  0.814292  1
  Dy  Dy11  1  0.186259  0.812793  0.187624  1
  Dy  Dy12  1  0.813324  0.187624  0.812793  1
  Dy  Dy13  1  0.186259  0.187624  0.812793  1
  Dy  Dy14  1  0.813324  0.812793  0.187624  1
  Dy  Dy15  1  0.944694  0.555306  0.555306  1
  Cd  Cd16  1  0.582176  0.578666  0.578666  1
  Cd  Cd17  1  0.578926  0.580045  0.262102  1
  Cd  Cd18  1  0.578926  0.262102  0.580045  1
  Cd  Cd19  1  0.260490  0.578666  0.578666  1
  Ir  Ir20  1  0.143663  0.142808  0.142808  1
  Ir  Ir21  1  0.140608  0.147387  0.571398  1
  Ir  Ir22  1  0.140608  0.571398  0.147387  1
  Ir  Ir23  1  0.570721  0.142808  0.142808  1
