# generated using pymatgen
data_YFe3Sb12Os
_symmetry_space_group_name_H-M   'P 1'
_cell_length_a   8.01270961
_cell_length_b   8.01270961
_cell_length_c   7.97639300
_cell_angle_alpha   109.37943626
_cell_angle_beta   109.37943625
_cell_angle_gamma   109.56284887
_symmetry_Int_Tables_number   1
_chemical_formula_structural   YFe3Sb12Os
_chemical_formula_sum   'Y1 Fe3 Sb12 Os1'
_cell_volume   394.67003176
_cell_formula_units_Z   1
loop_
 _symmetry_equiv_pos_site_id
 _symmetry_equiv_pos_as_xyz
  1  'x, y, z'
loop_
 _atom_site_type_symbol
 _atom_site_label
 _atom_site_symmetry_multiplicity
 _atom_site_fract_x
 _atom_site_fract_y
 _atom_site_fract_z
 _atom_site_occupancy
  Y  Y0  1  0.000000  0.000000  0.000000  1
  Fe  Fe1  1  0.500000  0.000000  0.000000  1
  Fe  Fe2  1  0.000000  0.500000  0.000000  1
  Fe  Fe3  1  0.500000  0.500000  0.500000  1
  Sb  Sb4  1  0.165341  0.822816  0.670333  1
  Sb  Sb5  1  0.834659  0.177184  0.329667  1
  Sb  Sb6  1  0.838678  0.506285  0.667926  1
  Sb  Sb7  1  0.161322  0.493715  0.332074  1
  Sb  Sb8  1  0.822816  0.657474  0.152482  1
  Sb  Sb9  1  0.177184  0.342526  0.847518  1
  Sb  Sb10  1  0.506285  0.667606  0.838357  1
  Sb  Sb11  1  0.493715  0.332394  0.161643  1
  Sb  Sb12  1  0.667606  0.161322  0.829250  1
  Sb  Sb13  1  0.332394  0.838678  0.170750  1
  Sb  Sb14  1  0.657474  0.834659  0.504993  1
  Sb  Sb15  1  0.342526  0.165341  0.495007  1
  Os  Os16  1  0.000000  0.000000  0.500000  1
