# generated using pymatgen
data_HoEr3Cd2(Ni7B2)2
_symmetry_space_group_name_H-M   'P 1'
_cell_length_a   5.00425000
_cell_length_b   5.00424946
_cell_length_c   14.23328600
_cell_angle_alpha   90.00000000
_cell_angle_beta   90.00000000
_cell_angle_gamma   120.00000359
_symmetry_Int_Tables_number   1
_chemical_formula_structural   HoEr3Cd2(Ni7B2)2
_chemical_formula_sum   'Ho1 Er3 Cd2 Ni14 B4'
_cell_volume   308.68373084
_cell_formula_units_Z   1
loop_
 _symmetry_equiv_pos_site_id
 _symmetry_equiv_pos_as_xyz
  1  'x, y, z'
loop_
 _atom_site_type_symbol
 _atom_site_label
 _atom_site_symmetry_multiplicity
 _atom_site_fract_x
 _atom_site_fract_y
 _atom_site_fract_z
 _atom_site_occupancy
  Ho  Ho0  1  0.666667  0.333333  0.529703  1
  Er  Er1  1  0.333333  0.666667  0.029324  1
  Er  Er2  1  0.666667  0.333333  0.756662  1
  Er  Er3  1  0.333333  0.666667  0.255961  1
  Cd  Cd4  1  0.333333  0.666667  0.466755  1
  Cd  Cd5  1  0.666667  0.333333  0.967551  1
  Ni  Ni6  1  0.834608  0.165392  0.351359  1
  Ni  Ni7  1  0.834608  0.669217  0.351359  1
  Ni  Ni8  1  0.000000  0.000000  0.999317  1
  Ni  Ni9  1  0.000000  0.000000  0.499561  1
  Ni  Ni10  1  0.834063  0.668126  0.148226  1
  Ni  Ni11  1  0.165869  0.834131  0.648826  1
  Ni  Ni12  1  0.668262  0.834131  0.648826  1
  Ni  Ni13  1  0.331874  0.165937  0.148226  1
  Ni  Ni14  1  0.834063  0.165937  0.148226  1
  Ni  Ni15  1  0.165535  0.331070  0.851785  1
  Ni  Ni16  1  0.165535  0.834465  0.851785  1
  Ni  Ni17  1  0.165869  0.331738  0.648826  1
  Ni  Ni18  1  0.668930  0.834465  0.851785  1
  Ni  Ni19  1  0.330783  0.165392  0.351359  1
  B  B20  1  0.666667  0.333333  0.249687  1
  B  B21  1  0.333333  0.666667  0.750026  1
  B  B22  1  0.000000  0.000000  0.747713  1
  B  B23  1  0.000000  0.000000  0.247156  1
