# generated using pymatgen
data_K2WClF5
_symmetry_space_group_name_H-M   'P 1'
_cell_length_a   11.45873700
_cell_length_b   5.37446851
_cell_length_c   14.12091446
_cell_angle_alpha   66.17654690
_cell_angle_beta   90.00000000
_cell_angle_gamma   90.00000000
_symmetry_Int_Tables_number   1
_chemical_formula_structural   K2WClF5
_chemical_formula_sum   'K8 W4 Cl4 F20'
_cell_volume   795.53372778
_cell_formula_units_Z   4
loop_
 _symmetry_equiv_pos_site_id
 _symmetry_equiv_pos_as_xyz
  1  'x, y, z'
loop_
 _atom_site_type_symbol
 _atom_site_label
 _atom_site_symmetry_multiplicity
 _atom_site_fract_x
 _atom_site_fract_y
 _atom_site_fract_z
 _atom_site_occupancy
  K  K0  1  0.130571  0.627794  0.109709  1
  K  K1  1  0.380688  0.310423  0.923584  1
  K  K2  1  0.119312  0.310423  0.423584  1
  K  K3  1  0.630571  0.372206  0.390291  1
  K  K4  1  0.369429  0.627794  0.609709  1
  K  K5  1  0.619312  0.689577  0.076416  1
  K  K6  1  0.869429  0.372206  0.890291  1
  K  K7  1  0.880688  0.689577  0.576416  1
  W  W8  1  0.625935  0.849733  0.794178  1
  W  W9  1  0.874065  0.849733  0.294178  1
  W  W10  1  0.125935  0.150267  0.705822  1
  W  W11  1  0.374065  0.150267  0.205822  1
  Cl  Cl12  1  0.095066  0.750400  0.871606  1
  Cl  Cl13  1  0.404934  0.750400  0.371606  1
  Cl  Cl14  1  0.904934  0.249600  0.128394  1
  Cl  Cl15  1  0.595066  0.249600  0.628394  1
  F  F16  1  0.257603  0.292273  0.276740  1
  F  F17  1  0.744236  0.009450  0.345779  1
  F  F18  1  0.016050  0.031355  0.621768  1
  F  F19  1  0.255764  0.990550  0.654221  1
  F  F20  1  0.506486  0.338990  0.240785  1
  F  F21  1  0.651124  0.503676  0.927774  1
  F  F22  1  0.242397  0.292273  0.776740  1
  F  F23  1  0.516050  0.968645  0.878232  1
  F  F24  1  0.151124  0.496324  0.572226  1
  F  F25  1  0.755764  0.009450  0.845779  1
  F  F26  1  0.993514  0.338990  0.740785  1
  F  F27  1  0.742397  0.707727  0.723260  1
  F  F28  1  0.848876  0.503676  0.427774  1
  F  F29  1  0.348876  0.496324  0.072226  1
  F  F30  1  0.483950  0.031355  0.121768  1
  F  F31  1  0.244236  0.990550  0.154221  1
  F  F32  1  0.006486  0.661010  0.259215  1
  F  F33  1  0.493514  0.661010  0.759215  1
  F  F34  1  0.757603  0.707727  0.223260  1
  F  F35  1  0.983950  0.968645  0.378232  1
