# generated using pymatgen
data_SmTmLuRh9
_symmetry_space_group_name_H-M   'P 1'
_cell_length_a   5.25835600
_cell_length_b   5.25846792
_cell_length_c   17.47364300
_cell_angle_alpha   90.00157267
_cell_angle_beta   90.00016916
_cell_angle_gamma   120.00247981
_symmetry_Int_Tables_number   1
_chemical_formula_structural   SmTmLuRh9
_chemical_formula_sum   'Sm2 Tm2 Lu2 Rh18'
_cell_volume   418.42001577
_cell_formula_units_Z   2
loop_
 _symmetry_equiv_pos_site_id
 _symmetry_equiv_pos_as_xyz
  1  'x, y, z'
loop_
 _atom_site_type_symbol
 _atom_site_label
 _atom_site_symmetry_multiplicity
 _atom_site_fract_x
 _atom_site_fract_y
 _atom_site_fract_z
 _atom_site_occupancy
  Sm  Sm0  1  0.333325  0.666665  0.749919  1
  Sm  Sm1  1  0.666675  0.333335  0.250081  1
  Tm  Tm2  1  0.333347  0.666661  0.959081  1
  Tm  Tm3  1  0.666653  0.333339  0.040919  1
  Lu  Lu4  1  0.666651  0.333346  0.459128  1
  Lu  Lu5  1  0.333349  0.666654  0.540872  1
  Rh  Rh6  1  0.167590  0.832416  0.375807  1
  Rh  Rh7  1  0.167595  0.335200  0.375818  1
  Rh  Rh8  1  0.664817  0.832414  0.375816  1
  Rh  Rh9  1  0.832410  0.167584  0.624193  1
  Rh  Rh10  1  0.832405  0.664800  0.624182  1
  Rh  Rh11  1  0.335183  0.167586  0.624184  1
  Rh  Rh12  1  0.832469  0.167519  0.875594  1
  Rh  Rh13  1  0.832471  0.664941  0.875597  1
  Rh  Rh14  1  0.335059  0.167523  0.875601  1
  Rh  Rh15  1  0.167531  0.832481  0.124406  1
  Rh  Rh16  1  0.167529  0.335059  0.124403  1
  Rh  Rh17  1  0.664941  0.832477  0.124399  1
  Rh  Rh18  1  0.333344  0.666671  0.250003  1
  Rh  Rh19  1  0.666656  0.333329  0.749997  1
  Rh  Rh20  1  0.999993  0.999995  0.250055  1
  Rh  Rh21  1  0.000007  0.000005  0.749945  1
  Rh  Rh22  1  0.000000  0.000000  0.500000  1
  Rh  Rh23  1  0.000000  0.000000  0.000000  1
