# generated using pymatgen
data_Pr8Mn(Si4Pt)3
_symmetry_space_group_name_H-M   'P 1'
_cell_length_a   8.26812100
_cell_length_b   8.26812190
_cell_length_c   8.64413400
_cell_angle_alpha   90.00000000
_cell_angle_beta   90.00000000
_cell_angle_gamma   120.00000840
_symmetry_Int_Tables_number   1
_chemical_formula_structural   Pr8Mn(Si4Pt)3
_chemical_formula_sum   'Pr8 Mn1 Si12 Pt3'
_cell_volume   511.75934301
_cell_formula_units_Z   1
loop_
 _symmetry_equiv_pos_site_id
 _symmetry_equiv_pos_as_xyz
  1  'x, y, z'
loop_
 _atom_site_type_symbol
 _atom_site_label
 _atom_site_symmetry_multiplicity
 _atom_site_fract_x
 _atom_site_fract_y
 _atom_site_fract_z
 _atom_site_occupancy
  Pr  Pr0  1  0.499879  0.500121  0.751517  1
  Pr  Pr1  1  0.500738  0.499262  0.248452  1
  Pr  Pr2  1  0.000243  0.500121  0.751517  1
  Pr  Pr3  1  0.998523  0.499262  0.248452  1
  Pr  Pr4  1  0.499879  0.999757  0.751517  1
  Pr  Pr5  1  0.500738  0.001477  0.248452  1
  Pr  Pr6  1  0.000000  0.000000  0.750367  1
  Pr  Pr7  1  0.000000  0.000000  0.249692  1
  Mn  Mn8  1  0.666667  0.333333  0.997166  1
  Si  Si9  1  0.831864  0.168136  0.000551  1
  Si  Si10  1  0.166090  0.833910  0.999626  1
  Si  Si11  1  0.336271  0.168136  0.000551  1
  Si  Si12  1  0.165953  0.834047  0.500444  1
  Si  Si13  1  0.667821  0.833910  0.999626  1
  Si  Si14  1  0.834378  0.165622  0.499448  1
  Si  Si15  1  0.831864  0.663729  0.000551  1
  Si  Si16  1  0.668094  0.834047  0.500444  1
  Si  Si17  1  0.166090  0.332179  0.999626  1
  Si  Si18  1  0.331244  0.165622  0.499448  1
  Si  Si19  1  0.165953  0.331906  0.500444  1
  Si  Si20  1  0.834378  0.668756  0.499448  1
  Pt  Pt21  1  0.333333  0.666667  0.001589  1
  Pt  Pt22  1  0.333333  0.666667  0.498950  1
  Pt  Pt23  1  0.666667  0.333333  0.502121  1
