# generated using pymatgen
data_ErS23
_symmetry_space_group_name_H-M   'P 1'
_cell_length_a   5.59544714
_cell_length_b   9.59366147
_cell_length_c   16.29899500
_cell_angle_alpha   82.42591977
_cell_angle_beta   85.98404499
_cell_angle_gamma   91.36398319
_symmetry_Int_Tables_number   1
_chemical_formula_structural   ErS23
_chemical_formula_sum   'Er1 S23'
_cell_volume   864.69732289
_cell_formula_units_Z   1
loop_
 _symmetry_equiv_pos_site_id
 _symmetry_equiv_pos_as_xyz
  1  'x, y, z'
loop_
 _atom_site_type_symbol
 _atom_site_label
 _atom_site_symmetry_multiplicity
 _atom_site_fract_x
 _atom_site_fract_y
 _atom_site_fract_z
 _atom_site_occupancy
  Er  Er0  1  0.619246  0.171875  0.430948  1
  S  S1  1  0.738629  0.923947  0.397021  1
  S  S2  1  0.018412  0.302497  0.099787  1
  S  S3  1  0.784232  0.223856  0.568416  1
  S  S4  1  0.467956  0.891650  0.490021  1
  S  S5  1  0.172210  0.279984  0.983607  1
  S  S6  1  0.815947  0.742236  0.026271  1
  S  S7  1  0.137001  0.197469  0.382347  1
  S  S8  1  0.601162  0.404718  0.312960  1
  S  S9  1  0.854482  0.112866  0.151876  1
  S  S10  1  0.266991  0.875281  0.118832  1
  S  S11  1  0.700042  0.648312  0.628855  1
  S  S12  1  0.305589  0.437544  0.564056  1
  S  S13  1  0.148792  0.901703  0.860594  1
  S  S14  1  0.733551  0.140190  0.886840  1
  S  S15  1  0.062821  0.694844  0.113333  1
  S  S16  1  0.609636  0.854137  0.607536  1
  S  S17  1  0.418466  0.228388  0.587277  1
  S  S18  1  0.968098  0.716053  0.910388  1
  S  S19  1  0.924760  0.323714  0.896287  1
  S  S20  1  0.245717  0.380243  0.309819  1
  S  S21  1  0.107925  0.986190  0.207143  1
  S  S22  1  0.386476  0.528627  0.665699  1
  S  S23  1  0.911859  0.033675  0.800089  1
