# generated using pymatgen
data_Tm13Th7Pb16
_symmetry_space_group_name_H-M   'P 1'
_cell_length_a   8.21618924
_cell_length_b   8.29679711
_cell_length_c   15.61472700
_cell_angle_alpha   90.04607531
_cell_angle_beta   90.14481232
_cell_angle_gamma   89.85804623
_symmetry_Int_Tables_number   1
_chemical_formula_structural   Tm13Th7Pb16
_chemical_formula_sum   'Tm13 Th7 Pb16'
_cell_volume   1064.41856539
_cell_formula_units_Z   1
loop_
 _symmetry_equiv_pos_site_id
 _symmetry_equiv_pos_as_xyz
  1  'x, y, z'
loop_
 _atom_site_type_symbol
 _atom_site_label
 _atom_site_symmetry_multiplicity
 _atom_site_fract_x
 _atom_site_fract_y
 _atom_site_fract_z
 _atom_site_occupancy
  Tm  Tm0  1  0.638440  0.159440  0.624087  1
  Tm  Tm1  1  0.139559  0.342907  0.875939  1
  Tm  Tm2  1  0.362487  0.840585  0.123598  1
  Tm  Tm3  1  0.866545  0.659109  0.377046  1
  Tm  Tm4  1  0.364206  0.841464  0.377229  1
  Tm  Tm5  1  0.861794  0.657726  0.123416  1
  Tm  Tm6  1  0.637634  0.156166  0.874577  1
  Tm  Tm7  1  0.133425  0.341624  0.624008  1
  Tm  Tm8  1  0.463683  0.671534  0.600862  1
  Tm  Tm9  1  0.803799  0.499816  0.749678  1
  Tm  Tm10  1  0.303366  0.000070  0.749438  1
  Tm  Tm11  1  0.196318  0.500337  0.250454  1
  Tm  Tm12  1  0.697050  0.000633  0.249578  1
  Th  Th13  1  0.972627  0.822637  0.902730  1
  Th  Th14  1  0.525589  0.322343  0.096283  1
  Th  Th15  1  0.029563  0.177287  0.404072  1
  Th  Th16  1  0.527256  0.322924  0.403061  1
  Th  Th17  1  0.024918  0.176703  0.095251  1
  Th  Th18  1  0.476940  0.678952  0.904750  1
  Th  Th19  1  0.974376  0.824653  0.595709  1
  Pb  Pb20  1  0.706599  0.963342  0.455188  1
  Pb  Pb21  1  0.204374  0.540471  0.043600  1
  Pb  Pb22  1  0.295815  0.039787  0.955896  1
  Pb  Pb23  1  0.786776  0.466801  0.544661  1
  Pb  Pb24  1  0.298449  0.039122  0.544705  1
  Pb  Pb25  1  0.796595  0.456687  0.956340  1
  Pb  Pb26  1  0.703559  0.959052  0.043115  1
  Pb  Pb27  1  0.209253  0.542148  0.458732  1
  Pb  Pb28  1  0.442137  0.371598  0.750044  1
  Pb  Pb29  1  0.942470  0.128310  0.750385  1
  Pb  Pb30  1  0.558839  0.629911  0.250790  1
  Pb  Pb31  1  0.058570  0.870527  0.250004  1
  Pb  Pb32  1  0.658979  0.847029  0.745337  1
  Pb  Pb33  1  0.164121  0.648615  0.749397  1
  Pb  Pb34  1  0.335759  0.147720  0.249813  1
  Pb  Pb35  1  0.838127  0.351972  0.250226  1
