# generated using pymatgen
data_Ti8FeCoBi4
_symmetry_space_group_name_H-M   'P 1'
_cell_length_a   7.85442132
_cell_length_b   7.85442049
_cell_length_c   7.85442039
_cell_angle_alpha   95.68182323
_cell_angle_beta   95.68182734
_cell_angle_gamma   143.32073639
_symmetry_Int_Tables_number   1
_chemical_formula_structural   Ti8FeCoBi4
_chemical_formula_sum   'Ti8 Fe1 Co1 Bi4'
_cell_volume   274.73993422
_cell_formula_units_Z   1
loop_
 _symmetry_equiv_pos_site_id
 _symmetry_equiv_pos_as_xyz
  1  'x, y, z'
loop_
 _atom_site_type_symbol
 _atom_site_label
 _atom_site_symmetry_multiplicity
 _atom_site_fract_x
 _atom_site_fract_y
 _atom_site_fract_z
 _atom_site_occupancy
  Ti  Ti0  1  0.690849  0.578875  0.271883  1
  Ti  Ti1  1  0.578875  0.306992  0.888027  1
  Ti  Ti2  1  0.081033  0.193008  0.271883  1
  Ti  Ti3  1  0.921125  0.809151  0.728117  1
  Ti  Ti4  1  0.193008  0.921125  0.111973  1
  Ti  Ti5  1  0.809151  0.081033  0.888027  1
  Ti  Ti6  1  0.306992  0.418967  0.728117  1
  Ti  Ti7  1  0.418967  0.690849  0.111973  1
  Fe  Fe8  1  0.250000  0.250000  0.000000  1
  Co  Co9  1  0.750000  0.750000  0.000000  1
  Bi  Bi10  1  0.139404  0.639404  0.778808  1
  Bi  Bi11  1  0.360596  0.139404  0.500000  1
  Bi  Bi12  1  0.639404  0.860596  0.500000  1
  Bi  Bi13  1  0.860596  0.360596  0.221192  1
