# generated using pymatgen
data_Y19HoCd6TcRu
_symmetry_space_group_name_H-M   'P 1'
_cell_length_a   9.61302500
_cell_length_b   9.61302537
_cell_length_c   9.91763700
_cell_angle_alpha   90.00000000
_cell_angle_beta   90.00000000
_cell_angle_gamma   120.00000216
_symmetry_Int_Tables_number   1
_chemical_formula_structural   Y19HoCd6TcRu
_chemical_formula_sum   'Y19 Ho1 Cd6 Tc1 Ru1'
_cell_volume   793.70477139
_cell_formula_units_Z   1
loop_
 _symmetry_equiv_pos_site_id
 _symmetry_equiv_pos_as_xyz
  1  'x, y, z'
loop_
 _atom_site_type_symbol
 _atom_site_label
 _atom_site_symmetry_multiplicity
 _atom_site_fract_x
 _atom_site_fract_y
 _atom_site_fract_z
 _atom_site_occupancy
  Y  Y0  1  0.000000  0.000000  0.999842  1
  Y  Y1  1  0.209791  0.790209  0.441256  1
  Y  Y2  1  0.209791  0.419582  0.441256  1
  Y  Y3  1  0.580418  0.790209  0.441256  1
  Y  Y4  1  0.790039  0.209961  0.559226  1
  Y  Y5  1  0.790039  0.580077  0.559226  1
  Y  Y6  1  0.419923  0.209961  0.559226  1
  Y  Y7  1  0.789842  0.210158  0.940668  1
  Y  Y8  1  0.789842  0.579682  0.940668  1
  Y  Y9  1  0.420318  0.210158  0.940668  1
  Y  Y10  1  0.209995  0.790005  0.058866  1
  Y  Y11  1  0.209995  0.419990  0.058866  1
  Y  Y12  1  0.580010  0.790005  0.058866  1
  Y  Y13  1  0.540161  0.459839  0.250038  1
  Y  Y14  1  0.540161  0.080322  0.250038  1
  Y  Y15  1  0.919678  0.459839  0.250038  1
  Y  Y16  1  0.458710  0.541290  0.749956  1
  Y  Y17  1  0.458710  0.917420  0.749956  1
  Y  Y18  1  0.082580  0.541290  0.749956  1
  Ho  Ho19  1  0.000000  0.000000  0.500179  1
  Cd  Cd20  1  0.885573  0.114427  0.250209  1
  Cd  Cd21  1  0.885573  0.771146  0.250209  1
  Cd  Cd22  1  0.228854  0.114427  0.250209  1
  Cd  Cd23  1  0.114253  0.885747  0.749778  1
  Cd  Cd24  1  0.114253  0.228505  0.749778  1
  Cd  Cd25  1  0.771495  0.885747  0.749778  1
  Tc  Tc26  1  0.333333  0.666667  0.250002  1
  Ru  Ru27  1  0.666667  0.333333  0.749987  1
