# generated using pymatgen
data_Gd3DyEr2Ta2O14
_symmetry_space_group_name_H-M   'P 1'
_cell_length_a   6.50116940
_cell_length_b   6.51594921
_cell_length_c   7.50410451
_cell_angle_alpha   89.94075538
_cell_angle_beta   89.92939631
_cell_angle_gamma   108.54552994
_symmetry_Int_Tables_number   1
_chemical_formula_structural   Gd3DyEr2Ta2O14
_chemical_formula_sum   'Gd3 Dy1 Er2 Ta2 O14'
_cell_volume   301.37566691
_cell_formula_units_Z   1
loop_
 _symmetry_equiv_pos_site_id
 _symmetry_equiv_pos_as_xyz
  1  'x, y, z'
loop_
 _atom_site_type_symbol
 _atom_site_label
 _atom_site_symmetry_multiplicity
 _atom_site_fract_x
 _atom_site_fract_y
 _atom_site_fract_z
 _atom_site_occupancy
  Gd  Gd0  1  0.467927  0.466012  0.001531  1
  Gd  Gd1  1  0.534027  0.533759  0.498325  1
  Gd  Gd2  1  0.000761  0.465948  0.741397  1
  Dy  Dy3  1  0.534656  0.000190  0.758388  1
  Er  Er4  1  0.000586  0.535518  0.241053  1
  Er  Er5  1  0.465098  0.999194  0.258653  1
  Ta  Ta6  1  0.002080  0.002816  0.498233  1
  Ta  Ta7  1  0.997428  0.998241  0.001689  1
  O  O8  1  0.932742  0.063850  0.750059  1
  O  O9  1  0.638227  0.358645  0.749654  1
  O  O10  1  0.307859  0.050355  0.543119  1
  O  O11  1  0.946875  0.691438  0.960542  1
  O  O12  1  0.632180  0.367192  0.249913  1
  O  O13  1  0.918412  0.672684  0.520102  1
  O  O14  1  0.327252  0.079169  0.976478  1
  O  O15  1  0.079689  0.326030  0.028878  1
  O  O16  1  0.672715  0.921899  0.473429  1
  O  O17  1  0.373429  0.633397  0.750719  1
  O  O18  1  0.692952  0.953289  0.047142  1
  O  O19  1  0.047926  0.305590  0.450483  1
  O  O20  1  0.356756  0.643914  0.250196  1
  O  O21  1  0.070425  0.930872  0.250018  1
