# generated using pymatgen
data_Nd5U(Ni3Sb4)2
_symmetry_space_group_name_H-M   'P 1'
_cell_length_a   8.36256554
_cell_length_b   8.36256406
_cell_length_c   8.36256447
_cell_angle_alpha   109.42722652
_cell_angle_beta   109.42721954
_cell_angle_gamma   109.55924913
_symmetry_Int_Tables_number   1
_chemical_formula_structural   Nd5U(Ni3Sb4)2
_chemical_formula_sum   'Nd5 U1 Ni6 Sb8'
_cell_volume   450.18998088
_cell_formula_units_Z   1
loop_
 _symmetry_equiv_pos_site_id
 _symmetry_equiv_pos_as_xyz
  1  'x, y, z'
loop_
 _atom_site_type_symbol
 _atom_site_label
 _atom_site_symmetry_multiplicity
 _atom_site_fract_x
 _atom_site_fract_y
 _atom_site_fract_z
 _atom_site_occupancy
  Nd  Nd0  1  0.875422  0.249730  0.122143  1
  Nd  Nd1  1  0.627587  0.753279  0.377857  1
  Nd  Nd2  1  0.246721  0.124578  0.874308  1
  Nd  Nd3  1  0.750270  0.372413  0.625692  1
  Nd  Nd4  1  0.125000  0.875000  0.250000  1
  U  U5  1  0.375000  0.625000  0.750000  1
  Ni  Ni6  1  0.376588  0.279550  0.636716  1
  Ni  Ni7  1  0.142834  0.739872  0.863284  1
  Ni  Ni8  1  0.260128  0.623412  0.402962  1
  Ni  Ni9  1  0.720450  0.857166  0.097038  1
  Ni  Ni10  1  0.625000  0.375000  0.250000  1
  Ni  Ni11  1  0.875000  0.125000  0.750000  1
  Sb  Sb12  1  0.652044  0.499991  0.001180  1
  Sb  Sb13  1  0.498192  0.999414  0.656136  1
  Sb  Sb14  1  0.998811  0.650864  0.498820  1
  Sb  Sb15  1  0.843278  0.842056  0.843864  1
  Sb  Sb16  1  0.500009  0.001189  0.152053  1
  Sb  Sb17  1  0.157944  0.501808  0.001222  1
  Sb  Sb18  1  0.000586  0.156722  0.498778  1
  Sb  Sb19  1  0.349136  0.347956  0.347947  1
