# generated using pymatgen
data_Sm8Er12Si15As
_symmetry_space_group_name_H-M   'P 1'
_cell_length_a   7.50877706
_cell_length_b   7.69348663
_cell_length_c   14.65442964
_cell_angle_alpha   89.92658468
_cell_angle_beta   86.88060887
_cell_angle_gamma   90.02941743
_symmetry_Int_Tables_number   1
_chemical_formula_structural   Sm8Er12Si15As
_chemical_formula_sum   'Sm8 Er12 Si15 As1'
_cell_volume   845.31180912
_cell_formula_units_Z   1
loop_
 _symmetry_equiv_pos_site_id
 _symmetry_equiv_pos_as_xyz
  1  'x, y, z'
loop_
 _atom_site_type_symbol
 _atom_site_label
 _atom_site_symmetry_multiplicity
 _atom_site_fract_x
 _atom_site_fract_y
 _atom_site_fract_z
 _atom_site_occupancy
  Sm  Sm0  1  0.022265  0.182654  0.100357  1
  Sm  Sm1  1  0.978380  0.818889  0.899534  1
  Sm  Sm2  1  0.478615  0.682079  0.899754  1
  Sm  Sm3  1  0.999186  0.820304  0.598516  1
  Sm  Sm4  1  0.522405  0.318014  0.100778  1
  Sm  Sm5  1  0.998985  0.178457  0.400866  1
  Sm  Sm6  1  0.501173  0.316718  0.400219  1
  Sm  Sm7  1  0.503722  0.682214  0.599087  1
  Er  Er8  1  0.168660  0.505155  0.748373  1
  Er  Er9  1  0.831066  0.495555  0.254789  1
  Er  Er10  1  0.329490  0.004774  0.254366  1
  Er  Er11  1  0.670621  0.995245  0.746578  1
  Er  Er12  1  0.352022  0.164703  0.621112  1
  Er  Er13  1  0.648984  0.833911  0.378961  1
  Er  Er14  1  0.148383  0.665668  0.380911  1
  Er  Er15  1  0.673357  0.823068  0.122926  1
  Er  Er16  1  0.849380  0.334048  0.619185  1
  Er  Er17  1  0.326355  0.177022  0.876469  1
  Er  Er18  1  0.826515  0.322980  0.876587  1
  Er  Er19  1  0.173034  0.676985  0.122938  1
  Si  Si20  1  0.043172  0.113971  0.750653  1
  Si  Si21  1  0.956760  0.886543  0.248184  1
  Si  Si22  1  0.455639  0.612943  0.248483  1
  Si  Si23  1  0.543096  0.387539  0.750772  1
  Si  Si24  1  0.286742  0.873286  0.751495  1
  Si  Si25  1  0.714837  0.125340  0.248035  1
  Si  Si26  1  0.214122  0.374992  0.248495  1
  Si  Si27  1  0.787114  0.625853  0.751217  1
  Si  Si28  1  0.797247  0.537461  0.456321  1
  Si  Si29  1  0.304417  0.961623  0.457956  1
  Si  Si30  1  0.854037  0.530874  0.040571  1
  Si  Si31  1  0.694759  0.037647  0.543180  1
  Si  Si32  1  0.145099  0.470177  0.958422  1
  Si  Si33  1  0.644898  0.030838  0.958627  1
  Si  Si34  1  0.354393  0.970057  0.041068  1
  As  As35  1  0.201070  0.462415  0.544215  1
