# generated using pymatgen
data_Tb2Tm3Rh2
_symmetry_space_group_name_H-M   'P 1'
_cell_length_a   6.40457273
_cell_length_b   7.10293882
_cell_length_c   8.57746311
_cell_angle_alpha   96.93481760
_cell_angle_beta   111.92159161
_cell_angle_gamma   89.99999718
_symmetry_Int_Tables_number   1
_chemical_formula_structural   Tb2Tm3Rh2
_chemical_formula_sum   'Tb4 Tm6 Rh4'
_cell_volume   358.90772319
_cell_formula_units_Z   2
loop_
 _symmetry_equiv_pos_site_id
 _symmetry_equiv_pos_as_xyz
  1  'x, y, z'
loop_
 _atom_site_type_symbol
 _atom_site_label
 _atom_site_symmetry_multiplicity
 _atom_site_fract_x
 _atom_site_fract_y
 _atom_site_fract_z
 _atom_site_occupancy
  Tb  Tb0  1  0.788347  0.081215  0.810134  1
  Tb  Tb1  1  0.978213  0.418785  0.189866  1
  Tb  Tb2  1  0.211653  0.918785  0.189866  1
  Tb  Tb3  1  0.021787  0.581215  0.810134  1
  Tm  Tm4  1  0.209183  0.186021  0.562974  1
  Tm  Tm5  1  0.646209  0.313979  0.437026  1
  Tm  Tm6  1  0.790817  0.813979  0.437026  1
  Tm  Tm7  1  0.353791  0.686021  0.562974  1
  Tm  Tm8  1  0.423515  0.250000  0.000000  1
  Tm  Tm9  1  0.576485  0.750000  0.000000  1
  Rh  Rh10  1  0.591911  0.427006  0.776638  1
  Rh  Rh11  1  0.815273  0.072994  0.223362  1
  Rh  Rh12  1  0.408089  0.572994  0.223362  1
  Rh  Rh13  1  0.184727  0.927006  0.776638  1
