# generated using pymatgen
data_Hf7Zr3Zn2(SnBi2)2
_symmetry_space_group_name_H-M   'P 1'
_cell_length_a   8.75968711
_cell_length_b   8.75968750
_cell_length_c   5.87401400
_cell_angle_alpha   90.00000000
_cell_angle_beta   90.00000000
_cell_angle_gamma   119.88119253
_symmetry_Int_Tables_number   1
_chemical_formula_structural   Hf7Zr3Zn2(SnBi2)2
_chemical_formula_sum   'Hf7 Zr3 Zn2 Sn2 Bi4'
_cell_volume   390.80625110
_cell_formula_units_Z   1
loop_
 _symmetry_equiv_pos_site_id
 _symmetry_equiv_pos_as_xyz
  1  'x, y, z'
loop_
 _atom_site_type_symbol
 _atom_site_label
 _atom_site_symmetry_multiplicity
 _atom_site_fract_x
 _atom_site_fract_y
 _atom_site_fract_z
 _atom_site_occupancy
  Hf  Hf0  1  0.667306  0.330172  0.003895  1
  Hf  Hf1  1  0.330172  0.667306  0.003895  1
  Hf  Hf2  1  0.330172  0.667306  0.496105  1
  Hf  Hf3  1  0.667306  0.330172  0.496105  1
  Hf  Hf4  1  0.267597  0.267597  0.250000  1
  Hf  Hf5  1  0.732171  0.007041  0.250000  1
  Hf  Hf6  1  0.007041  0.732171  0.250000  1
  Zr  Zr7  1  0.736107  0.736107  0.750000  1
  Zr  Zr8  1  0.263711  0.998987  0.750000  1
  Zr  Zr9  1  0.998987  0.263711  0.750000  1
  Zn  Zn10  1  0.999790  0.999790  0.008589  1
  Zn  Zn11  1  0.999790  0.999790  0.491411  1
  Sn  Sn12  1  0.384412  0.001150  0.250000  1
  Sn  Sn13  1  0.001150  0.384412  0.250000  1
  Bi  Bi14  1  0.386990  0.386990  0.750000  1
  Bi  Bi15  1  0.610825  0.998505  0.750000  1
  Bi  Bi16  1  0.998505  0.610825  0.750000  1
  Bi  Bi17  1  0.617970  0.617970  0.250000  1
