# generated using pymatgen
data_NdPa(Be11Cu2)2
_symmetry_space_group_name_H-M   'P 1'
_cell_length_a   7.40753965
_cell_length_b   7.39295424
_cell_length_c   7.36040254
_cell_angle_alpha   60.27683149
_cell_angle_beta   60.07968104
_cell_angle_gamma   59.64411208
_symmetry_Int_Tables_number   1
_chemical_formula_structural   NdPa(Be11Cu2)2
_chemical_formula_sum   'Nd1 Pa1 Be22 Cu4'
_cell_volume   285.00530837
_cell_formula_units_Z   1
loop_
 _symmetry_equiv_pos_site_id
 _symmetry_equiv_pos_as_xyz
  1  'x, y, z'
loop_
 _atom_site_type_symbol
 _atom_site_label
 _atom_site_symmetry_multiplicity
 _atom_site_fract_x
 _atom_site_fract_y
 _atom_site_fract_z
 _atom_site_occupancy
  Nd  Nd0  1  0.250001  0.250000  0.249998  1
  Pa  Pa1  1  0.749999  0.750000  0.750001  1
  Be  Be2  1  0.434888  0.791089  0.568936  1
  Be  Be3  1  0.559993  0.442719  0.797224  1
  Be  Be4  1  0.791091  0.434887  0.205086  1
  Be  Be5  1  0.797226  0.200065  0.559990  1
  Be  Be6  1  0.205088  0.568937  0.791089  1
  Be  Be7  1  0.442721  0.559994  0.200064  1
  Be  Be8  1  0.568937  0.205086  0.434888  1
  Be  Be9  1  0.200066  0.797226  0.442718  1
  Be  Be10  1  0.938313  0.714568  0.057328  1
  Be  Be11  1  0.714568  0.938312  0.289793  1
  Be  Be12  1  0.057326  0.289794  0.938311  1
  Be  Be13  1  0.289791  0.057326  0.714567  1
  Be  Be14  1  0.722533  0.065909  0.930768  1
  Be  Be15  1  0.062098  0.933343  0.716294  1
  Be  Be16  1  0.065909  0.722537  0.280785  1
  Be  Be17  1  0.288268  0.716293  0.933343  1
  Be  Be18  1  0.930766  0.280788  0.722534  1
  Be  Be19  1  0.933343  0.062095  0.288265  1
  Be  Be20  1  0.280792  0.930765  0.065910  1
  Be  Be21  1  0.716296  0.288267  0.062094  1
  Be  Be22  1  0.500001  0.500001  0.499998  1
  Be  Be23  1  0.000000  0.000000  0.999999  1
  Cu  Cu24  1  0.802415  0.558410  0.444660  1
  Cu  Cu25  1  0.558414  0.802410  0.194527  1
  Cu  Cu26  1  0.194496  0.444672  0.558415  1
  Cu  Cu27  1  0.444661  0.194507  0.802413  1
