# generated using pymatgen
data_Th2CuGe2Pd
_symmetry_space_group_name_H-M   'P 1'
_cell_length_a   4.30979300
_cell_length_b   4.30979306
_cell_length_c   8.04554300
_cell_angle_alpha   90.00000000
_cell_angle_beta   90.00000000
_cell_angle_gamma   120.00000724
_symmetry_Int_Tables_number   1
_chemical_formula_structural   Th2CuGe2Pd
_chemical_formula_sum   'Th2 Cu1 Ge2 Pd1'
_cell_volume   129.41922324
_cell_formula_units_Z   1
loop_
 _symmetry_equiv_pos_site_id
 _symmetry_equiv_pos_as_xyz
  1  'x, y, z'
loop_
 _atom_site_type_symbol
 _atom_site_label
 _atom_site_symmetry_multiplicity
 _atom_site_fract_x
 _atom_site_fract_y
 _atom_site_fract_z
 _atom_site_occupancy
  Th  Th0  1  0.333333  0.666667  0.253732  1
  Th  Th1  1  0.333333  0.666667  0.746268  1
  Cu  Cu2  1  0.666667  0.333333  0.000000  1
  Ge  Ge3  1  0.000000  0.000000  0.000000  1
  Ge  Ge4  1  0.000000  0.000000  0.500000  1
  Pd  Pd5  1  0.666667  0.333333  0.500000  1
