# generated using pymatgen
data_Yb2Si5Ir2Ru
_symmetry_space_group_name_H-M   'P 1'
_cell_length_a   8.16130108
_cell_length_b   8.16130158
_cell_length_c   5.75053631
_cell_angle_alpha   70.66689556
_cell_angle_beta   70.66689351
_cell_angle_gamma   94.79336371
_symmetry_Int_Tables_number   1
_chemical_formula_structural   Yb2Si5Ir2Ru
_chemical_formula_sum   'Yb4 Si10 Ir4 Ru2'
_cell_volume   332.92332525
_cell_formula_units_Z   2
loop_
 _symmetry_equiv_pos_site_id
 _symmetry_equiv_pos_as_xyz
  1  'x, y, z'
loop_
 _atom_site_type_symbol
 _atom_site_label
 _atom_site_symmetry_multiplicity
 _atom_site_fract_x
 _atom_site_fract_y
 _atom_site_fract_z
 _atom_site_occupancy
  Yb  Yb0  1  0.867722  0.597466  0.757046  1
  Yb  Yb1  1  0.402534  0.132278  0.742954  1
  Yb  Yb2  1  0.132278  0.402534  0.242954  1
  Yb  Yb3  1  0.597466  0.867722  0.257046  1
  Si  Si4  1  0.064300  0.260105  0.834520  1
  Si  Si5  1  0.739895  0.935700  0.665480  1
  Si  Si6  1  0.935700  0.739895  0.165480  1
  Si  Si7  1  0.260105  0.064300  0.334520  1
  Si  Si8  1  0.207398  0.792602  0.750000  1
  Si  Si9  1  0.792602  0.207398  0.250000  1
  Si  Si10  1  0.509597  0.490403  0.750000  1
  Si  Si11  1  0.490403  0.509597  0.250000  1
  Si  Si12  1  0.779222  0.220778  0.750000  1
  Si  Si13  1  0.220778  0.779222  0.250000  1
  Ir  Ir14  1  0.258727  0.543399  0.623948  1
  Ir  Ir15  1  0.456601  0.741273  0.876052  1
  Ir  Ir16  1  0.741273  0.456601  0.376052  1
  Ir  Ir17  1  0.543399  0.258727  0.123948  1
  Ru  Ru18  1  0.004039  0.995961  0.750000  1
  Ru  Ru19  1  0.995961  0.004039  0.250000  1
