# generated using pymatgen
data_Rb2Tc6Te11
_symmetry_space_group_name_H-M   'P 1'
_cell_length_a   13.33377548
_cell_length_b   13.33377528
_cell_length_c   13.33377417
_cell_angle_alpha   45.93974728
_cell_angle_beta   45.93975566
_cell_angle_gamma   45.93974951
_symmetry_Int_Tables_number   1
_chemical_formula_structural   Rb2Tc6Te11
_chemical_formula_sum   'Rb4 Tc12 Te22'
_cell_volume   1116.45947636
_cell_formula_units_Z   2
loop_
 _symmetry_equiv_pos_site_id
 _symmetry_equiv_pos_as_xyz
  1  'x, y, z'
loop_
 _atom_site_type_symbol
 _atom_site_label
 _atom_site_symmetry_multiplicity
 _atom_site_fract_x
 _atom_site_fract_y
 _atom_site_fract_z
 _atom_site_occupancy
  Rb  Rb0  1  0.307431  0.307431  0.307431  1
  Rb  Rb1  1  0.192569  0.192569  0.192569  1
  Rb  Rb2  1  0.692569  0.692569  0.692569  1
  Rb  Rb3  1  0.807431  0.807431  0.807431  1
  Tc  Tc4  1  0.614111  0.314691  0.476960  1
  Tc  Tc5  1  0.476960  0.614111  0.314691  1
  Tc  Tc6  1  0.814691  0.114111  0.976960  1
  Tc  Tc7  1  0.976960  0.814691  0.114111  1
  Tc  Tc8  1  0.114111  0.976960  0.814691  1
  Tc  Tc9  1  0.685309  0.523040  0.385889  1
  Tc  Tc10  1  0.385889  0.685309  0.523040  1
  Tc  Tc11  1  0.523040  0.385889  0.685309  1
  Tc  Tc12  1  0.314691  0.476960  0.614111  1
  Tc  Tc13  1  0.885889  0.023040  0.185309  1
  Tc  Tc14  1  0.023040  0.185309  0.885889  1
  Tc  Tc15  1  0.185309  0.885889  0.023040  1
  Te  Te16  1  0.092343  0.092343  0.092343  1
  Te  Te17  1  0.407657  0.407657  0.407657  1
  Te  Te18  1  0.907657  0.907657  0.907657  1
  Te  Te19  1  0.592343  0.592343  0.592343  1
  Te  Te20  1  0.250000  0.955557  0.544443  1
  Te  Te21  1  0.544443  0.250000  0.955557  1
  Te  Te22  1  0.955557  0.544443  0.250000  1
  Te  Te23  1  0.750000  0.044443  0.455557  1
  Te  Te24  1  0.455557  0.750000  0.044443  1
  Te  Te25  1  0.044443  0.455557  0.750000  1
  Te  Te26  1  0.051267  0.719883  0.320041  1
  Te  Te27  1  0.320041  0.051267  0.719883  1
  Te  Te28  1  0.719883  0.320041  0.051267  1
  Te  Te29  1  0.448733  0.179959  0.780117  1
  Te  Te30  1  0.780117  0.448733  0.179959  1
  Te  Te31  1  0.179959  0.780117  0.448733  1
  Te  Te32  1  0.820041  0.219883  0.551267  1
  Te  Te33  1  0.219883  0.551267  0.820041  1
  Te  Te34  1  0.551267  0.820041  0.219883  1
  Te  Te35  1  0.280117  0.679959  0.948733  1
  Te  Te36  1  0.679959  0.948733  0.280117  1
  Te  Te37  1  0.948733  0.280117  0.679959  1
