# generated using pymatgen
data_Zr10BeGeBi6
_symmetry_space_group_name_H-M   'P 1'
_cell_length_a   8.81322200
_cell_length_b   8.81322238
_cell_length_c   5.95526200
_cell_angle_alpha   90.00000000
_cell_angle_beta   90.00000000
_cell_angle_gamma   120.00000609
_symmetry_Int_Tables_number   1
_chemical_formula_structural   Zr10BeGeBi6
_chemical_formula_sum   'Zr10 Be1 Ge1 Bi6'
_cell_volume   400.59074955
_cell_formula_units_Z   1
loop_
 _symmetry_equiv_pos_site_id
 _symmetry_equiv_pos_as_xyz
  1  'x, y, z'
loop_
 _atom_site_type_symbol
 _atom_site_label
 _atom_site_symmetry_multiplicity
 _atom_site_fract_x
 _atom_site_fract_y
 _atom_site_fract_z
 _atom_site_occupancy
  Zr  Zr0  1  0.666667  0.333333  0.500000  1
  Zr  Zr1  1  0.333333  0.666667  0.500000  1
  Zr  Zr2  1  0.333333  0.666667  0.000000  1
  Zr  Zr3  1  0.666667  0.333333  0.000000  1
  Zr  Zr4  1  0.745241  0.745241  0.258962  1
  Zr  Zr5  1  0.254759  0.000000  0.258962  1
  Zr  Zr6  1  0.000000  0.254759  0.258962  1
  Zr  Zr7  1  0.254759  0.254759  0.741038  1
  Zr  Zr8  1  0.745241  0.000000  0.741038  1
  Zr  Zr9  1  0.000000  0.745241  0.741038  1
  Be  Be10  1  0.000000  0.000000  0.500000  1
  Ge  Ge11  1  0.000000  0.000000  0.000000  1
  Bi  Bi12  1  0.392695  0.392695  0.249354  1
  Bi  Bi13  1  0.607305  0.000000  0.249354  1
  Bi  Bi14  1  0.000000  0.607305  0.249354  1
  Bi  Bi15  1  0.607305  0.607305  0.750646  1
  Bi  Bi16  1  0.392695  0.000000  0.750646  1
  Bi  Bi17  1  0.000000  0.392695  0.750646  1
