# generated using pymatgen
data_Pr3Ho2Tm15Pt16
_symmetry_space_group_name_H-M   'P 1'
_cell_length_a   7.48379122
_cell_length_b   7.56109529
_cell_length_c   14.64445600
_cell_angle_alpha   90.03439522
_cell_angle_beta   90.09921394
_cell_angle_gamma   89.97156954
_symmetry_Int_Tables_number   1
_chemical_formula_structural   Pr3Ho2Tm15Pt16
_chemical_formula_sum   'Pr3 Ho2 Tm15 Pt16'
_cell_volume   828.66469345
_cell_formula_units_Z   1
loop_
 _symmetry_equiv_pos_site_id
 _symmetry_equiv_pos_as_xyz
  1  'x, y, z'
loop_
 _atom_site_type_symbol
 _atom_site_label
 _atom_site_symmetry_multiplicity
 _atom_site_fract_x
 _atom_site_fract_y
 _atom_site_fract_z
 _atom_site_occupancy
  Pr  Pr0  1  0.000883  0.174502  0.407324  1
  Pr  Pr1  1  0.500867  0.325463  0.408262  1
  Pr  Pr2  1  0.000345  0.176186  0.090701  1
  Ho  Ho3  1  0.501057  0.678493  0.907159  1
  Ho  Ho4  1  0.001082  0.817673  0.595587  1
  Tm  Tm5  1  0.658351  0.165213  0.625003  1
  Tm  Tm6  1  0.159449  0.335009  0.876101  1
  Tm  Tm7  1  0.345986  0.832379  0.121325  1
  Tm  Tm8  1  0.846557  0.668266  0.377326  1
  Tm  Tm9  1  0.347618  0.830633  0.377676  1
  Tm  Tm10  1  0.843221  0.667003  0.120016  1
  Tm  Tm11  1  0.655474  0.167758  0.877374  1
  Tm  Tm12  1  0.157864  0.333781  0.624215  1
  Tm  Tm13  1  0.501806  0.683508  0.595679  1
  Tm  Tm14  1  0.003117  0.816920  0.904378  1
  Tm  Tm15  1  0.498124  0.322915  0.093174  1
  Tm  Tm16  1  0.818348  0.509176  0.750508  1
  Tm  Tm17  1  0.318309  0.990106  0.750806  1
  Tm  Tm18  1  0.181010  0.492131  0.247488  1
  Tm  Tm19  1  0.679653  0.008786  0.248125  1
  Pt  Pt20  1  0.677873  0.954891  0.462512  1
  Pt  Pt21  1  0.188036  0.538905  0.039167  1
  Pt  Pt22  1  0.316750  0.029585  0.954361  1
  Pt  Pt23  1  0.814980  0.474201  0.547022  1
  Pt  Pt24  1  0.317358  0.025207  0.547439  1
  Pt  Pt25  1  0.816319  0.471176  0.955037  1
  Pt  Pt26  1  0.675278  0.963017  0.040399  1
  Pt  Pt27  1  0.178434  0.545664  0.462629  1
  Pt  Pt28  1  0.453662  0.385767  0.749762  1
  Pt  Pt29  1  0.953184  0.114724  0.751015  1
  Pt  Pt30  1  0.546444  0.621300  0.247705  1
  Pt  Pt31  1  0.048501  0.876387  0.249337  1
  Pt  Pt32  1  0.681082  0.856310  0.750681  1
  Pt  Pt33  1  0.181665  0.643426  0.750827  1
  Pt  Pt34  1  0.319302  0.140962  0.246309  1
  Pt  Pt35  1  0.812012  0.362578  0.247570  1
