# generated using pymatgen
data_TbPr4SmCoBr10
_symmetry_space_group_name_H-M   'P 1'
_cell_length_a   7.58075632
_cell_length_b   9.45593492
_cell_length_c   9.61478674
_cell_angle_alpha   108.81138423
_cell_angle_beta   96.05277558
_cell_angle_gamma   105.39221293
_symmetry_Int_Tables_number   1
_chemical_formula_structural   TbPr4SmCoBr10
_chemical_formula_sum   'Tb1 Pr4 Sm1 Co1 Br10'
_cell_volume   615.06878892
_cell_formula_units_Z   1
loop_
 _symmetry_equiv_pos_site_id
 _symmetry_equiv_pos_as_xyz
  1  'x, y, z'
loop_
 _atom_site_type_symbol
 _atom_site_label
 _atom_site_symmetry_multiplicity
 _atom_site_fract_x
 _atom_site_fract_y
 _atom_site_fract_z
 _atom_site_occupancy
  Tb  Tb0  1  0.646203  0.869386  0.326479  1
  Pr  Pr1  1  0.028845  0.711486  0.407419  1
  Pr  Pr2  1  0.969213  0.287788  0.591162  1
  Pr  Pr3  1  0.869946  0.952007  0.746942  1
  Pr  Pr4  1  0.127385  0.046491  0.252065  1
  Sm  Sm5  1  0.357397  0.132467  0.675797  1
  Co  Co6  1  0.999434  0.999676  0.499958  1
  Br  Br7  1  0.451656  0.823656  0.576769  1
  Br  Br8  1  0.549313  0.171927  0.417828  1
  Br  Br9  1  0.914143  0.631600  0.671758  1
  Br  Br10  1  0.085921  0.368143  0.327678  1
  Br  Br11  1  0.252776  0.083901  0.948153  1
  Br  Br12  1  0.743215  0.914275  0.054636  1
  Br  Br13  1  0.355694  0.448938  0.769488  1
  Br  Br14  1  0.641123  0.555854  0.230276  1
  Br  Br15  1  0.776254  0.254331  0.846023  1
  Br  Br16  1  0.231483  0.748073  0.157569  1
