# generated using pymatgen
data_CaInSnPd
_symmetry_space_group_name_H-M   'P 1'
_cell_length_a   5.92045861
_cell_length_b   5.92045875
_cell_length_c   7.61102636
_cell_angle_alpha   90.63704523
_cell_angle_beta   89.36295221
_cell_angle_gamma   135.04431965
_symmetry_Int_Tables_number   1
_chemical_formula_structural   CaInSnPd
_chemical_formula_sum   'Ca2 In2 Sn2 Pd2'
_cell_volume   188.48261511
_cell_formula_units_Z   2
loop_
 _symmetry_equiv_pos_site_id
 _symmetry_equiv_pos_as_xyz
  1  'x, y, z'
loop_
 _atom_site_type_symbol
 _atom_site_label
 _atom_site_symmetry_multiplicity
 _atom_site_fract_x
 _atom_site_fract_y
 _atom_site_fract_z
 _atom_site_occupancy
  Ca  Ca0  1  0.931496  0.068504  0.750098  1
  Ca  Ca1  1  0.068504  0.931496  0.249902  1
  In  In2  1  0.356825  0.643175  0.452216  1
  In  In3  1  0.643175  0.356825  0.547784  1
  Sn  Sn4  1  0.638682  0.361318  0.948533  1
  Sn  Sn5  1  0.361318  0.638682  0.051467  1
  Pd  Pd6  1  0.211710  0.788290  0.759746  1
  Pd  Pd7  1  0.788290  0.211710  0.240254  1
