# generated using pymatgen
data_Ta6Mn5NbRu12
_symmetry_space_group_name_H-M   'P 1'
_cell_length_a   4.40797500
_cell_length_b   6.27446200
_cell_length_c   13.22351000
_cell_angle_alpha   90.00022223
_cell_angle_beta   90.00088389
_cell_angle_gamma   90.00011978
_symmetry_Int_Tables_number   1
_chemical_formula_structural   Ta6Mn5NbRu12
_chemical_formula_sum   'Ta6 Mn5 Nb1 Ru12'
_cell_volume   365.73149741
_cell_formula_units_Z   1
loop_
 _symmetry_equiv_pos_site_id
 _symmetry_equiv_pos_as_xyz
  1  'x, y, z'
loop_
 _atom_site_type_symbol
 _atom_site_label
 _atom_site_symmetry_multiplicity
 _atom_site_fract_x
 _atom_site_fract_y
 _atom_site_fract_z
 _atom_site_occupancy
  Ta  Ta0  1  0.000000  0.500000  0.000000  1
  Ta  Ta1  1  0.499949  0.999997  0.175418  1
  Ta  Ta2  1  0.999926  0.500009  0.334997  1
  Ta  Ta3  1  0.500000  0.000000  0.500000  1
  Ta  Ta4  1  0.000074  0.499991  0.665003  1
  Ta  Ta5  1  0.500050  0.000003  0.824582  1
  Mn  Mn6  1  0.499885  0.500003  0.167781  1
  Mn  Mn7  1  0.999837  0.999977  0.334555  1
  Mn  Mn8  1  0.500000  0.500000  0.500000  1
  Mn  Mn9  1  0.000163  0.000023  0.665445  1
  Mn  Mn10  1  0.500115  0.499997  0.832220  1
  Nb  Nb11  1  0.000000  0.000000  0.000000  1
  Ru  Ru12  1  0.499997  0.247257  0.000000  1
  Ru  Ru13  1  0.500003  0.752743  0.000000  1
  Ru  Ru14  1  0.999931  0.249117  0.165338  1
  Ru  Ru15  1  0.999935  0.750885  0.165342  1
  Ru  Ru16  1  0.499948  0.250955  0.333774  1
  Ru  Ru17  1  0.499946  0.749058  0.333772  1
  Ru  Ru18  1  0.000001  0.251463  0.500004  1
  Ru  Ru19  1  0.999999  0.748537  0.499996  1
  Ru  Ru20  1  0.500054  0.250942  0.666228  1
  Ru  Ru21  1  0.500052  0.749045  0.666226  1
  Ru  Ru22  1  0.000065  0.249116  0.834658  1
  Ru  Ru23  1  0.000069  0.750884  0.834662  1
