# generated using pymatgen
data_Pr2Y3Nb3(Co4P3)4
_symmetry_space_group_name_H-M   'P 1'
_cell_length_a   12.25379600
_cell_length_b   12.25379496
_cell_length_c   3.71893100
_cell_angle_alpha   90.00000000
_cell_angle_beta   90.00000000
_cell_angle_gamma   119.99999742
_symmetry_Int_Tables_number   1
_chemical_formula_structural   Pr2Y3Nb3(Co4P3)4
_chemical_formula_sum   'Pr2 Y3 Nb3 Co16 P12'
_cell_volume   483.60414943
_cell_formula_units_Z   1
loop_
 _symmetry_equiv_pos_site_id
 _symmetry_equiv_pos_as_xyz
  1  'x, y, z'
loop_
 _atom_site_type_symbol
 _atom_site_label
 _atom_site_symmetry_multiplicity
 _atom_site_fract_x
 _atom_site_fract_y
 _atom_site_fract_z
 _atom_site_occupancy
  Pr  Pr0  1  0.333333  0.666667  0.000000  1
  Pr  Pr1  1  0.666667  0.333333  0.000000  1
  Y  Y2  1  0.816027  0.000000  0.500000  1
  Y  Y3  1  0.000000  0.816027  0.500000  1
  Y  Y4  1  0.183973  0.183973  0.500000  1
  Nb  Nb5  1  0.443636  0.000000  0.000000  1
  Nb  Nb6  1  0.000000  0.443636  0.000000  1
  Nb  Nb7  1  0.556364  0.556364  0.000000  1
  Co  Co8  1  0.277004  0.000000  0.500000  1
  Co  Co9  1  0.000000  0.277004  0.500000  1
  Co  Co10  1  0.722996  0.722996  0.500000  1
  Co  Co11  1  0.628799  0.804391  0.000000  1
  Co  Co12  1  0.195609  0.824408  0.000000  1
  Co  Co13  1  0.175592  0.371201  0.000000  1
  Co  Co14  1  0.371201  0.175592  0.000000  1
  Co  Co15  1  0.804391  0.628799  0.000000  1
  Co  Co16  1  0.824408  0.195609  0.000000  1
  Co  Co17  1  0.522755  0.876083  0.500000  1
  Co  Co18  1  0.123917  0.646672  0.500000  1
  Co  Co19  1  0.353328  0.477245  0.500000  1
  Co  Co20  1  0.477245  0.353328  0.500000  1
  Co  Co21  1  0.876083  0.522755  0.500000  1
  Co  Co22  1  0.646672  0.123917  0.500000  1
  Co  Co23  1  0.000000  0.000000  0.000000  1
  P  P24  1  0.177374  0.000000  0.000000  1
  P  P25  1  0.000000  0.177374  0.000000  1
  P  P26  1  0.822626  0.822626  0.000000  1
  P  P27  1  0.526105  0.690911  0.500000  1
  P  P28  1  0.309089  0.835194  0.500000  1
  P  P29  1  0.164806  0.473895  0.500000  1
  P  P30  1  0.473895  0.164806  0.500000  1
  P  P31  1  0.690911  0.526105  0.500000  1
  P  P32  1  0.835194  0.309089  0.500000  1
  P  P33  1  0.643010  0.000000  0.000000  1
  P  P34  1  0.000000  0.643010  0.000000  1
  P  P35  1  0.356990  0.356990  0.000000  1
