# generated using pymatgen
data_Ac2(GaAu2)3
_symmetry_space_group_name_H-M   'P 1'
_cell_length_a   8.93313584
_cell_length_b   8.93313627
_cell_length_c   8.93313608
_cell_angle_alpha   58.14110778
_cell_angle_beta   58.14110589
_cell_angle_gamma   58.14110911
_symmetry_Int_Tables_number   1
_chemical_formula_structural   Ac2(GaAu2)3
_chemical_formula_sum   'Ac4 Ga6 Au12'
_cell_volume   482.59911570
_cell_formula_units_Z   2
loop_
 _symmetry_equiv_pos_site_id
 _symmetry_equiv_pos_as_xyz
  1  'x, y, z'
loop_
 _atom_site_type_symbol
 _atom_site_label
 _atom_site_symmetry_multiplicity
 _atom_site_fract_x
 _atom_site_fract_y
 _atom_site_fract_z
 _atom_site_occupancy
  Ac  Ac0  1  0.406591  0.406591  0.406591  1
  Ac  Ac1  1  0.906591  0.906591  0.906591  1
  Ac  Ac2  1  0.593409  0.593409  0.593409  1
  Ac  Ac3  1  0.093409  0.093409  0.093409  1
  Ga  Ga4  1  0.061067  0.250000  0.438933  1
  Ga  Ga5  1  0.438933  0.061067  0.250000  1
  Ga  Ga6  1  0.250000  0.438933  0.061067  1
  Ga  Ga7  1  0.938933  0.750000  0.561067  1
  Ga  Ga8  1  0.561067  0.938933  0.750000  1
  Ga  Ga9  1  0.750000  0.561067  0.938933  1
  Au  Au10  1  0.983151  0.358279  0.704718  1
  Au  Au11  1  0.704718  0.983151  0.358279  1
  Au  Au12  1  0.358279  0.704718  0.983151  1
  Au  Au13  1  0.204718  0.858279  0.483151  1
  Au  Au14  1  0.483151  0.204718  0.858279  1
  Au  Au15  1  0.858279  0.483151  0.204718  1
  Au  Au16  1  0.016849  0.641721  0.295282  1
  Au  Au17  1  0.295282  0.016849  0.641721  1
  Au  Au18  1  0.641721  0.295282  0.016849  1
  Au  Au19  1  0.795282  0.141721  0.516849  1
  Au  Au20  1  0.516849  0.795282  0.141721  1
  Au  Au21  1  0.141721  0.516849  0.795282  1
