# generated using pymatgen
data_KHo(BeB14)2
_symmetry_space_group_name_H-M   'P 1'
_cell_length_a   7.24939494
_cell_length_b   7.24939320
_cell_length_c   7.24939462
_cell_angle_alpha   133.20703431
_cell_angle_beta   110.35329719
_cell_angle_gamma   88.14073698
_symmetry_Int_Tables_number   1
_chemical_formula_structural   KHo(BeB14)2
_chemical_formula_sum   'K1 Ho1 Be2 B28'
_cell_volume   248.28296799
_cell_formula_units_Z   1
loop_
 _symmetry_equiv_pos_site_id
 _symmetry_equiv_pos_as_xyz
  1  'x, y, z'
loop_
 _atom_site_type_symbol
 _atom_site_label
 _atom_site_symmetry_multiplicity
 _atom_site_fract_x
 _atom_site_fract_y
 _atom_site_fract_z
 _atom_site_occupancy
  K  K0  1  0.396135  0.750000  0.646135  1
  Ho  Ho1  1  0.611616  0.250000  0.361616  1
  Be  Be2  1  0.004608  0.507397  0.012005  1
  Be  Be3  1  0.004608  0.992603  0.497211  1
  B  B4  1  0.978491  0.344200  0.634291  1
  B  B5  1  0.625843  0.325958  0.791980  1
  B  B6  1  0.803284  0.834837  0.968447  1
  B  B7  1  0.633610  0.665163  0.968447  1
  B  B8  1  0.196875  0.165164  0.031711  1
  B  B9  1  0.783086  0.779209  0.676177  1
  B  B10  1  0.966022  0.666137  0.791980  1
  B  B11  1  0.017067  0.654155  0.362912  1
  B  B12  1  0.966022  0.174042  0.299885  1
  B  B13  1  0.032805  0.827028  0.697827  1
  B  B14  1  0.366547  0.334836  0.031711  1
  B  B15  1  0.075032  0.909114  0.165918  1
  B  B16  1  0.625843  0.833863  0.299885  1
  B  B17  1  0.396968  0.720791  0.003876  1
  B  B18  1  0.241817  0.410537  0.831281  1
  B  B19  1  0.217622  0.216488  0.320299  1
  B  B20  1  0.208757  0.845845  0.362912  1
  B  B21  1  0.920745  0.089463  0.831281  1
  B  B22  1  0.396968  0.393092  0.676177  1
  B  B23  1  0.217622  0.897323  0.001134  1
  B  B24  1  0.783086  0.106908  0.003876  1
  B  B25  1  0.603811  0.283512  0.001134  1
  B  B26  1  0.603811  0.602677  0.320299  1
  B  B27  1  0.032805  0.334979  0.205778  1
  B  B28  1  0.756805  0.590886  0.165918  1
  B  B29  1  0.790092  0.155800  0.634291  1
  B  B30  1  0.370799  0.165021  0.697827  1
  B  B31  1  0.370799  0.672972  0.205778  1
