# generated using pymatgen
data_LiY3Pd5
_symmetry_space_group_name_H-M   'P 1'
_cell_length_a   7.46786900
_cell_length_b   7.46786989
_cell_length_c   3.59885200
_cell_angle_alpha   90.00000000
_cell_angle_beta   90.00000000
_cell_angle_gamma   120.00000051
_symmetry_Int_Tables_number   1
_chemical_formula_structural   LiY3Pd5
_chemical_formula_sum   'Li1 Y3 Pd5'
_cell_volume   173.81531909
_cell_formula_units_Z   1
loop_
 _symmetry_equiv_pos_site_id
 _symmetry_equiv_pos_as_xyz
  1  'x, y, z'
loop_
 _atom_site_type_symbol
 _atom_site_label
 _atom_site_symmetry_multiplicity
 _atom_site_fract_x
 _atom_site_fract_y
 _atom_site_fract_z
 _atom_site_occupancy
  Li  Li0  1  0.000000  0.000000  0.500000  1
  Y  Y1  1  0.399450  0.399450  0.500000  1
  Y  Y2  1  0.600550  0.000000  0.500000  1
  Y  Y3  1  0.000000  0.600550  0.500000  1
  Pd  Pd4  1  0.753821  0.753821  0.000000  1
  Pd  Pd5  1  0.246179  0.000000  0.000000  1
  Pd  Pd6  1  0.000000  0.246179  0.000000  1
  Pd  Pd7  1  0.666667  0.333333  0.000000  1
  Pd  Pd8  1  0.333333  0.666667  0.000000  1
