# generated using pymatgen
data_LiTb3ZnIn3Rh
_symmetry_space_group_name_H-M   'P 1'
_cell_length_a   7.93640400
_cell_length_b   7.93640409
_cell_length_c   3.69450000
_cell_angle_alpha   90.00000000
_cell_angle_beta   90.00000000
_cell_angle_gamma   120.00000076
_symmetry_Int_Tables_number   1
_chemical_formula_structural   LiTb3ZnIn3Rh
_chemical_formula_sum   'Li1 Tb3 Zn1 In3 Rh1'
_cell_volume   201.52727782
_cell_formula_units_Z   1
loop_
 _symmetry_equiv_pos_site_id
 _symmetry_equiv_pos_as_xyz
  1  'x, y, z'
loop_
 _atom_site_type_symbol
 _atom_site_label
 _atom_site_symmetry_multiplicity
 _atom_site_fract_x
 _atom_site_fract_y
 _atom_site_fract_z
 _atom_site_occupancy
  Li  Li0  1  0.000000  0.000000  0.500000  1
  Tb  Tb1  1  0.974750  0.581091  0.500000  1
  Tb  Tb2  1  0.418909  0.393658  0.500000  1
  Tb  Tb3  1  0.606342  0.025250  0.500000  1
  Zn  Zn4  1  0.333333  0.666667  0.000000  1
  In  In5  1  0.732964  0.740356  0.000000  1
  In  In6  1  0.007391  0.267036  0.000000  1
  In  In7  1  0.259644  0.992609  0.000000  1
  Rh  Rh8  1  0.666667  0.333333  0.000000  1
