# generated using pymatgen
data_Tb2Tc5P7Ir6Rh
_symmetry_space_group_name_H-M   'P 1'
_cell_length_a   3.98353901
_cell_length_b   9.46363508
_cell_length_c   9.50141644
_cell_angle_alpha   119.63038828
_cell_angle_beta   90.00067894
_cell_angle_gamma   89.99942798
_symmetry_Int_Tables_number   1
_chemical_formula_structural   Tb2Tc5P7Ir6Rh
_chemical_formula_sum   'Tb2 Tc5 P7 Ir6 Rh1'
_cell_volume   311.35191043
_cell_formula_units_Z   1
loop_
 _symmetry_equiv_pos_site_id
 _symmetry_equiv_pos_as_xyz
  1  'x, y, z'
loop_
 _atom_site_type_symbol
 _atom_site_label
 _atom_site_symmetry_multiplicity
 _atom_site_fract_x
 _atom_site_fract_y
 _atom_site_fract_z
 _atom_site_occupancy
  Tb  Tb0  1  0.261932  0.668643  0.333557  1
  Tb  Tb1  1  0.762020  0.333302  0.665958  1
  Tc  Tc2  1  0.761912  0.092175  0.869078  1
  Tc  Tc3  1  0.761880  0.132180  0.220977  1
  Tc  Tc4  1  0.761903  0.780054  0.908538  1
  Tc  Tc5  1  0.261885  0.887433  0.161790  1
  Tc  Tc6  1  0.261938  0.839601  0.727568  1
  P  P7  1  0.261595  0.993706  0.997242  1
  P  P8  1  0.761925  0.880518  0.599416  1
  P  P9  1  0.761849  0.404186  0.285787  1
  P  P10  1  0.761847  0.721454  0.122608  1
  P  P11  1  0.262004  0.115078  0.412516  1
  P  P12  1  0.261997  0.586003  0.702414  1
  P  P13  1  0.261922  0.295529  0.879339  1
  Ir  Ir14  1  0.261873  0.269287  0.108027  1
  Ir  Ir15  1  0.761945  0.609433  0.553583  1
  Ir  Ir16  1  0.761874  0.447090  0.059232  1
  Ir  Ir17  1  0.261933  0.367179  0.436845  1
  Ir  Ir18  1  0.261890  0.561215  0.929735  1
  Ir  Ir19  1  0.261955  0.070037  0.632269  1
  Rh  Rh20  1  0.761924  0.945898  0.393527  1
