# generated using pymatgen
data_NaLiCdTe2
_symmetry_space_group_name_H-M   'P 1'
_cell_length_a   4.67010500
_cell_length_b   4.67010376
_cell_length_c   7.79072000
_cell_angle_alpha   90.00000000
_cell_angle_beta   90.00000000
_cell_angle_gamma   119.99998755
_symmetry_Int_Tables_number   1
_chemical_formula_structural   NaLiCdTe2
_chemical_formula_sum   'Na1 Li1 Cd1 Te2'
_cell_volume   147.15040335
_cell_formula_units_Z   1
loop_
 _symmetry_equiv_pos_site_id
 _symmetry_equiv_pos_as_xyz
  1  'x, y, z'
loop_
 _atom_site_type_symbol
 _atom_site_label
 _atom_site_symmetry_multiplicity
 _atom_site_fract_x
 _atom_site_fract_y
 _atom_site_fract_z
 _atom_site_occupancy
  Na  Na0  1  0.333333  0.666667  0.968789  1
  Li  Li1  1  0.666667  0.333333  0.652170  1
  Cd  Cd2  1  0.000000  0.000000  0.385549  1
  Te  Te3  1  0.666667  0.333333  0.244068  1
  Te  Te4  1  0.000000  0.000000  0.749425  1
