# generated using pymatgen
data_YbPr3(US5)2
_symmetry_space_group_name_H-M   'P 1'
_cell_length_a   7.53121942
_cell_length_b   8.06505813
_cell_length_c   11.90568400
_cell_angle_alpha   90.00000000
_cell_angle_beta   90.00000000
_cell_angle_gamma   89.82808286
_symmetry_Int_Tables_number   1
_chemical_formula_structural   YbPr3(US5)2
_chemical_formula_sum   'Yb2 Pr6 U4 S20'
_cell_volume   723.14468653
_cell_formula_units_Z   2
loop_
 _symmetry_equiv_pos_site_id
 _symmetry_equiv_pos_as_xyz
  1  'x, y, z'
loop_
 _atom_site_type_symbol
 _atom_site_label
 _atom_site_symmetry_multiplicity
 _atom_site_fract_x
 _atom_site_fract_y
 _atom_site_fract_z
 _atom_site_occupancy
  Yb  Yb0  1  0.521264  0.499791  0.322184  1
  Yb  Yb1  1  0.978736  0.000209  0.822184  1
  Pr  Pr2  1  0.473999  0.000309  0.677426  1
  Pr  Pr3  1  0.026001  0.499691  0.177426  1
  Pr  Pr4  1  0.470730  0.499860  0.674728  1
  Pr  Pr5  1  0.029270  0.000140  0.174728  1
  Pr  Pr6  1  0.526755  0.998428  0.324234  1
  Pr  Pr7  1  0.973245  0.501572  0.824234  1
  U  U8  1  0.067719  0.751040  0.491176  1
  U  U9  1  0.432281  0.748960  0.991176  1
  U  U10  1  0.929933  0.250974  0.507939  1
  U  U11  1  0.570067  0.249026  0.007939  1
  S  S12  1  0.840554  0.958048  0.592590  1
  S  S13  1  0.659446  0.541952  0.092590  1
  S  S14  1  0.161620  0.460180  0.407973  1
  S  S15  1  0.338380  0.039820  0.907973  1
  S  S16  1  0.161944  0.041324  0.406795  1
  S  S17  1  0.338056  0.458676  0.906795  1
  S  S18  1  0.838435  0.543990  0.593402  1
  S  S19  1  0.661565  0.956010  0.093402  1
  S  S20  1  0.836087  0.750798  0.314917  1
  S  S21  1  0.663913  0.749202  0.814917  1
  S  S22  1  0.165426  0.251604  0.685087  1
  S  S23  1  0.334574  0.248396  0.185087  1
  S  S24  1  0.450305  0.750871  0.498630  1
  S  S25  1  0.049695  0.749129  0.998630  1
  S  S26  1  0.550654  0.249982  0.502300  1
  S  S27  1  0.949346  0.250018  0.002300  1
  S  S28  1  0.190680  0.750827  0.712026  1
  S  S29  1  0.309320  0.749173  0.212026  1
  S  S30  1  0.807887  0.249128  0.288594  1
  S  S31  1  0.692113  0.250872  0.788594  1
