# generated using pymatgen
data_Ba3Ca4Yb(TaN3)4
_symmetry_space_group_name_H-M   'P 1'
_cell_length_a   6.34211685
_cell_length_b   6.55934498
_cell_length_c   12.92017900
_cell_angle_alpha   90.01234253
_cell_angle_beta   89.72727536
_cell_angle_gamma   124.77029661
_symmetry_Int_Tables_number   1
_chemical_formula_structural   Ba3Ca4Yb(TaN3)4
_chemical_formula_sum   'Ba3 Ca4 Yb1 Ta4 N12'
_cell_volume   441.50414658
_cell_formula_units_Z   1
loop_
 _symmetry_equiv_pos_site_id
 _symmetry_equiv_pos_as_xyz
  1  'x, y, z'
loop_
 _atom_site_type_symbol
 _atom_site_label
 _atom_site_symmetry_multiplicity
 _atom_site_fract_x
 _atom_site_fract_y
 _atom_site_fract_z
 _atom_site_occupancy
  Ba  Ba0  1  0.002737  0.420279  0.861559  1
  Ba  Ba1  1  0.516182  0.917067  0.633335  1
  Ba  Ba2  1  0.506317  0.079296  0.351773  1
  Ca  Ca3  1  0.974120  0.604850  0.118437  1
  Ca  Ca4  1  0.195449  0.409355  0.439669  1
  Ca  Ca5  1  0.307382  0.080061  0.935734  1
  Ca  Ca6  1  0.821099  0.588961  0.561022  1
  Yb  Yb7  1  0.673005  0.913814  0.065818  1
  Ta  Ta8  1  0.825603  0.780156  0.331107  1
  Ta  Ta9  1  0.296121  0.285215  0.166543  1
  Ta  Ta10  1  0.197674  0.215636  0.669180  1
  Ta  Ta11  1  0.691377  0.719582  0.837518  1
  N  N12  1  0.408780  0.377266  0.796875  1
  N  N13  1  0.621026  0.616250  0.201390  1
  N  N14  1  0.920537  0.869614  0.712633  1
  N  N15  1  0.096749  0.133221  0.296272  1
  N  N16  1  0.042207  0.382338  0.623830  1
  N  N17  1  0.547034  0.898972  0.879476  1
  N  N18  1  0.982721  0.619167  0.380280  1
  N  N19  1  0.391382  0.064923  0.117194  1
  N  N20  1  0.871591  0.715830  0.956339  1
  N  N21  1  0.626714  0.774158  0.445437  1
  N  N22  1  0.093108  0.315614  0.064552  1
  N  N23  1  0.391085  0.218375  0.554026  1
