# generated using pymatgen
data_La3Nd2Sn10(IrPd)2
_symmetry_space_group_name_H-M   'P 1'
_cell_length_a   14.29570200
_cell_length_b   14.28822000
_cell_length_c   4.71035200
_cell_angle_alpha   90.00000000
_cell_angle_beta   90.00000000
_cell_angle_gamma   90.00000000
_symmetry_Int_Tables_number   1
_chemical_formula_structural   La3Nd2Sn10(IrPd)2
_chemical_formula_sum   'La6 Nd4 Sn20 Ir4 Pd4'
_cell_volume   962.13713650
_cell_formula_units_Z   2
loop_
 _symmetry_equiv_pos_site_id
 _symmetry_equiv_pos_as_xyz
  1  'x, y, z'
loop_
 _atom_site_type_symbol
 _atom_site_label
 _atom_site_symmetry_multiplicity
 _atom_site_fract_x
 _atom_site_fract_y
 _atom_site_fract_z
 _atom_site_occupancy
  La  La0  1  0.500000  0.500000  0.000000  1
  La  La1  1  0.000000  0.000000  0.000000  1
  La  La2  1  0.892233  0.390117  0.500000  1
  La  La3  1  0.107767  0.609883  0.500000  1
  La  La4  1  0.392233  0.109883  0.500000  1
  La  La5  1  0.607767  0.890117  0.500000  1
  Nd  Nd6  1  0.674979  0.181325  0.500000  1
  Nd  Nd7  1  0.325021  0.818675  0.500000  1
  Nd  Nd8  1  0.174979  0.318675  0.500000  1
  Nd  Nd9  1  0.825021  0.681325  0.500000  1
  Sn  Sn10  1  0.568103  0.070899  0.000000  1
  Sn  Sn11  1  0.431897  0.929101  0.000000  1
  Sn  Sn12  1  0.068103  0.429101  0.000000  1
  Sn  Sn13  1  0.931897  0.570899  0.000000  1
  Sn  Sn14  1  0.652264  0.703886  0.000000  1
  Sn  Sn15  1  0.347736  0.296114  0.000000  1
  Sn  Sn16  1  0.152264  0.796114  0.000000  1
  Sn  Sn17  1  0.847736  0.203886  0.000000  1
  Sn  Sn18  1  0.300875  0.652198  0.000000  1
  Sn  Sn19  1  0.699125  0.347802  0.000000  1
  Sn  Sn20  1  0.199125  0.152198  0.000000  1
  Sn  Sn21  1  0.800875  0.847802  0.000000  1
  Sn  Sn22  1  0.663777  0.505376  0.500000  1
  Sn  Sn23  1  0.336223  0.494624  0.500000  1
  Sn  Sn24  1  0.163777  0.994624  0.500000  1
  Sn  Sn25  1  0.836223  0.005376  0.500000  1
  Sn  Sn26  1  0.495283  0.662303  0.500000  1
  Sn  Sn27  1  0.504717  0.337697  0.500000  1
  Sn  Sn28  1  0.004717  0.162303  0.500000  1
  Sn  Sn29  1  0.995283  0.837697  0.500000  1
  Ir  Ir30  1  0.467547  0.743613  0.000000  1
  Ir  Ir31  1  0.532453  0.256387  0.000000  1
  Ir  Ir32  1  0.032453  0.243613  0.000000  1
  Ir  Ir33  1  0.967547  0.756387  0.000000  1
  Pd  Pd34  1  0.745180  0.532671  0.000000  1
  Pd  Pd35  1  0.254820  0.467329  0.000000  1
  Pd  Pd36  1  0.245180  0.967329  0.000000  1
  Pd  Pd37  1  0.754820  0.032671  0.000000  1
