# generated using pymatgen
data_Tm6Zr2(Al2Os)7
_symmetry_space_group_name_H-M   'P 1'
_cell_length_a   9.03016003
_cell_length_b   9.01746293
_cell_length_c   9.01746348
_cell_angle_alpha   59.83922100
_cell_angle_beta   59.95341199
_cell_angle_gamma   59.95340541
_symmetry_Int_Tables_number   1
_chemical_formula_structural   Tm6Zr2(Al2Os)7
_chemical_formula_sum   'Tm6 Zr2 Al14 Os7'
_cell_volume   518.21891734
_cell_formula_units_Z   1
loop_
 _symmetry_equiv_pos_site_id
 _symmetry_equiv_pos_as_xyz
  1  'x, y, z'
loop_
 _atom_site_type_symbol
 _atom_site_label
 _atom_site_symmetry_multiplicity
 _atom_site_fract_x
 _atom_site_fract_y
 _atom_site_fract_z
 _atom_site_occupancy
  Tm  Tm0  1  0.706088  0.709232  0.285590  1
  Tm  Tm1  1  0.299090  0.709232  0.285590  1
  Tm  Tm2  1  0.700862  0.299138  0.299138  1
  Tm  Tm3  1  0.299090  0.285590  0.709232  1
  Tm  Tm4  1  0.706088  0.285590  0.709232  1
  Tm  Tm5  1  0.285135  0.714865  0.714865  1
  Zr  Zr6  1  0.879466  0.883416  0.357653  1
  Zr  Zr7  1  0.879466  0.357653  0.883416  1
  Al  Al8  1  0.364396  0.879350  0.879350  1
  Al  Al9  1  0.876904  0.879350  0.879350  1
  Al  Al10  1  0.121544  0.125928  0.630985  1
  Al  Al11  1  0.121544  0.630985  0.125928  1
  Al  Al12  1  0.637638  0.119924  0.119924  1
  Al  Al13  1  0.122515  0.119924  0.119924  1
  Al  Al14  1  0.666351  0.671488  0.995809  1
  Al  Al15  1  0.666351  0.995809  0.671488  1
  Al  Al16  1  0.001452  0.668230  0.668230  1
  Al  Al17  1  0.662087  0.668230  0.668230  1
  Al  Al18  1  0.331987  0.332124  0.003901  1
  Al  Al19  1  0.331987  0.003901  0.332124  1
  Al  Al20  1  0.002179  0.332938  0.332938  1
  Al  Al21  1  0.331945  0.332938  0.332938  1
  Os  Os22  1  0.009787  0.990213  0.990213  1
  Os  Os23  1  0.001580  0.000146  0.501661  1
  Os  Os24  1  0.496613  0.000146  0.501661  1
  Os  Os25  1  0.000069  0.499931  0.499931  1
  Os  Os26  1  0.496613  0.501661  0.000146  1
  Os  Os27  1  0.001580  0.501661  0.000146  1
  Os  Os28  1  0.499594  0.000406  0.000406  1
