# generated using pymatgen
data_Rb3Dy(SiO3)3
_symmetry_space_group_name_H-M   'P 1'
_cell_length_a   5.85864200
_cell_length_b   13.00904300
_cell_length_c   14.07386800
_cell_angle_alpha   90.00000000
_cell_angle_beta   90.00000000
_cell_angle_gamma   90.00000000
_symmetry_Int_Tables_number   1
_chemical_formula_structural   Rb3Dy(SiO3)3
_chemical_formula_sum   'Rb12 Dy4 Si12 O36'
_cell_volume   1072.64443347
_cell_formula_units_Z   4
loop_
 _symmetry_equiv_pos_site_id
 _symmetry_equiv_pos_as_xyz
  1  'x, y, z'
loop_
 _atom_site_type_symbol
 _atom_site_label
 _atom_site_symmetry_multiplicity
 _atom_site_fract_x
 _atom_site_fract_y
 _atom_site_fract_z
 _atom_site_occupancy
  Rb  Rb0  1  0.825953  0.296591  0.500000  1
  Rb  Rb1  1  0.834878  0.338827  0.000000  1
  Rb  Rb2  1  0.343440  0.625108  0.713811  1
  Rb  Rb3  1  0.165122  0.838827  0.500000  1
  Rb  Rb4  1  0.242709  0.100609  0.500000  1
  Rb  Rb5  1  0.656560  0.125108  0.213811  1
  Rb  Rb6  1  0.343440  0.625108  0.286189  1
  Rb  Rb7  1  0.189417  0.073702  0.000000  1
  Rb  Rb8  1  0.656560  0.125108  0.786189  1
  Rb  Rb9  1  0.757291  0.600609  0.000000  1
  Rb  Rb10  1  0.810583  0.573702  0.500000  1
  Rb  Rb11  1  0.174047  0.796591  0.000000  1
  Dy  Dy12  1  0.162700  0.961583  0.238931  1
  Dy  Dy13  1  0.837300  0.461583  0.261069  1
  Dy  Dy14  1  0.162700  0.961583  0.761069  1
  Dy  Dy15  1  0.837300  0.461583  0.738931  1
  Si  Si16  1  0.328970  0.435905  0.115304  1
  Si  Si17  1  0.837188  0.749052  0.722134  1
  Si  Si18  1  0.671030  0.935905  0.384696  1
  Si  Si19  1  0.837188  0.749052  0.277866  1
  Si  Si20  1  0.162812  0.249052  0.222134  1
  Si  Si21  1  0.671994  0.872894  0.109099  1
  Si  Si22  1  0.671030  0.935905  0.615304  1
  Si  Si23  1  0.162812  0.249052  0.777866  1
  Si  Si24  1  0.328007  0.372894  0.390901  1
  Si  Si25  1  0.328007  0.372894  0.609099  1
  Si  Si26  1  0.671994  0.872894  0.890901  1
  Si  Si27  1  0.328970  0.435905  0.884696  1
  O  O28  1  0.560304  0.485707  0.156859  1
  O  O29  1  0.572837  0.427086  0.374661  1
  O  O30  1  0.166152  0.128730  0.804641  1
  O  O31  1  0.095493  0.494726  0.143282  1
  O  O32  1  0.316528  0.309758  0.139003  1
  O  O33  1  0.560304  0.485707  0.843141  1
  O  O34  1  0.673817  0.819381  0.000000  1
  O  O35  1  0.572837  0.427086  0.625339  1
  O  O36  1  0.095493  0.494726  0.856718  1
  O  O37  1  0.108672  0.446563  0.377555  1
  O  O38  1  0.427163  0.927086  0.874661  1
  O  O39  1  0.683472  0.809758  0.639003  1
  O  O40  1  0.299616  0.265819  0.674546  1
  O  O41  1  0.166152  0.128730  0.195359  1
  O  O42  1  0.316528  0.309758  0.860997  1
  O  O43  1  0.439696  0.985707  0.656859  1
  O  O44  1  0.891328  0.946563  0.122445  1
  O  O45  1  0.833848  0.628730  0.695359  1
  O  O46  1  0.634144  0.936536  0.500000  1
  O  O47  1  0.909982  0.298245  0.774721  1
  O  O48  1  0.683472  0.809758  0.360997  1
  O  O49  1  0.909982  0.298245  0.225279  1
  O  O50  1  0.891328  0.946563  0.877555  1
  O  O51  1  0.365856  0.436536  0.000000  1
  O  O52  1  0.427163  0.927086  0.125339  1
  O  O53  1  0.700384  0.765819  0.825454  1
  O  O54  1  0.090018  0.798245  0.725279  1
  O  O55  1  0.108672  0.446563  0.622445  1
  O  O56  1  0.700384  0.765819  0.174546  1
  O  O57  1  0.439696  0.985707  0.343141  1
  O  O58  1  0.904507  0.994726  0.356718  1
  O  O59  1  0.090018  0.798245  0.274721  1
  O  O60  1  0.904507  0.994726  0.643282  1
  O  O61  1  0.326183  0.319381  0.500000  1
  O  O62  1  0.833848  0.628730  0.304641  1
  O  O63  1  0.299616  0.265819  0.325454  1
