# generated using pymatgen
data_Zr6GaAsC2
_symmetry_space_group_name_H-M   'P 1'
_cell_length_a   5.93093600
_cell_length_b   5.93093647
_cell_length_c   8.80139700
_cell_angle_alpha   90.00000000
_cell_angle_beta   90.00000000
_cell_angle_gamma   145.63004226
_symmetry_Int_Tables_number   1
_chemical_formula_structural   Zr6GaAsC2
_chemical_formula_sum   'Zr6 Ga1 As1 C2'
_cell_volume   174.77867623
_cell_formula_units_Z   1
loop_
 _symmetry_equiv_pos_site_id
 _symmetry_equiv_pos_as_xyz
  1  'x, y, z'
loop_
 _atom_site_type_symbol
 _atom_site_label
 _atom_site_symmetry_multiplicity
 _atom_site_fract_x
 _atom_site_fract_y
 _atom_site_fract_z
 _atom_site_occupancy
  Zr  Zr0  1  0.872109  0.127888  0.047346  1
  Zr  Zr1  1  0.552937  0.447061  0.250000  1
  Zr  Zr2  1  0.872109  0.127888  0.452653  1
  Zr  Zr3  1  0.129719  0.870278  0.553356  1
  Zr  Zr4  1  0.438790  0.561208  0.750000  1
  Zr  Zr5  1  0.129719  0.870278  0.946645  1
  Ga  Ga6  1  0.250315  0.749682  0.250000  1
  As  As7  1  0.752474  0.247523  0.750000  1
  C  C8  1  0.500908  0.499090  0.997483  1
  C  C9  1  0.500908  0.499090  0.502518  1
