# generated using pymatgen
data_U8RuSe17
_symmetry_space_group_name_H-M   'P 1'
_cell_length_a   8.21351209
_cell_length_b   8.21351249
_cell_length_c   10.82028605
_cell_angle_alpha   80.54943489
_cell_angle_beta   80.54943112
_cell_angle_gamma   64.42564812
_symmetry_Int_Tables_number   1
_chemical_formula_structural   U8RuSe17
_chemical_formula_sum   'U8 Ru1 Se17'
_cell_volume   645.92070236
_cell_formula_units_Z   1
loop_
 _symmetry_equiv_pos_site_id
 _symmetry_equiv_pos_as_xyz
  1  'x, y, z'
loop_
 _atom_site_type_symbol
 _atom_site_label
 _atom_site_symmetry_multiplicity
 _atom_site_fract_x
 _atom_site_fract_y
 _atom_site_fract_z
 _atom_site_occupancy
  U  U0  1  0.819683  0.300069  0.296752  1
  U  U1  1  0.300069  0.819683  0.296752  1
  U  U2  1  0.180317  0.699931  0.703248  1
  U  U3  1  0.699931  0.180317  0.703248  1
  U  U4  1  0.202395  0.202395  0.542181  1
  U  U5  1  0.797605  0.797605  0.457819  1
  U  U6  1  0.677592  0.677592  0.986760  1
  U  U7  1  0.322408  0.322408  0.013240  1
  Ru  Ru8  1  0.000000  0.000000  0.000000  1
  Se  Se9  1  0.818745  0.434273  0.535918  1
  Se  Se10  1  0.434273  0.818745  0.535918  1
  Se  Se11  1  0.181255  0.565727  0.464082  1
  Se  Se12  1  0.565727  0.181255  0.464082  1
  Se  Se13  1  0.948256  0.321801  0.025085  1
  Se  Se14  1  0.321801  0.948256  0.025085  1
  Se  Se15  1  0.051744  0.678199  0.974915  1
  Se  Se16  1  0.678199  0.051744  0.974915  1
  Se  Se17  1  0.214222  0.214222  0.276147  1
  Se  Se18  1  0.785778  0.785778  0.723853  1
  Se  Se19  1  0.058673  0.058673  0.771443  1
  Se  Se20  1  0.941327  0.941327  0.228557  1
  Se  Se21  1  0.301273  0.301273  0.754771  1
  Se  Se22  1  0.698727  0.698727  0.245229  1
  Se  Se23  1  0.521474  0.521474  0.830644  1
  Se  Se24  1  0.478526  0.478526  0.169356  1
  Se  Se25  1  0.000000  0.000000  0.500000  1
