# generated using pymatgen
data_Yb10HgAs7
_symmetry_space_group_name_H-M   'P 1'
_cell_length_a   7.64973100
_cell_length_b   7.84386579
_cell_length_c   14.99392300
_cell_angle_alpha   90.00000000
_cell_angle_beta   90.00000000
_cell_angle_gamma   86.26774670
_symmetry_Int_Tables_number   1
_chemical_formula_structural   Yb10HgAs7
_chemical_formula_sum   'Yb20 Hg2 As14'
_cell_volume   897.77919194
_cell_formula_units_Z   2
loop_
 _symmetry_equiv_pos_site_id
 _symmetry_equiv_pos_as_xyz
  1  'x, y, z'
loop_
 _atom_site_type_symbol
 _atom_site_label
 _atom_site_symmetry_multiplicity
 _atom_site_fract_x
 _atom_site_fract_y
 _atom_site_fract_z
 _atom_site_occupancy
  Yb  Yb0  1  0.025812  0.202226  0.415441  1
  Yb  Yb1  1  0.862990  0.639139  0.385816  1
  Yb  Yb2  1  0.538493  0.328910  0.103962  1
  Yb  Yb3  1  0.137010  0.360861  0.614184  1
  Yb  Yb4  1  0.393831  0.849598  0.391491  1
  Yb  Yb5  1  0.137010  0.360861  0.885816  1
  Yb  Yb6  1  0.393831  0.849598  0.108509  1
  Yb  Yb7  1  0.215012  0.491924  0.250000  1
  Yb  Yb8  1  0.538493  0.328910  0.396038  1
  Yb  Yb9  1  0.784988  0.508076  0.750000  1
  Yb  Yb10  1  0.974188  0.797774  0.915441  1
  Yb  Yb11  1  0.974188  0.797774  0.584559  1
  Yb  Yb12  1  0.461507  0.671090  0.603962  1
  Yb  Yb13  1  0.606169  0.150402  0.608509  1
  Yb  Yb14  1  0.299657  0.001191  0.750000  1
  Yb  Yb15  1  0.606169  0.150402  0.891491  1
  Yb  Yb16  1  0.700343  0.998809  0.250000  1
  Yb  Yb17  1  0.862990  0.639139  0.114184  1
  Yb  Yb18  1  0.461507  0.671090  0.896038  1
  Yb  Yb19  1  0.025812  0.202226  0.084559  1
  Hg  Hg20  1  0.080514  0.876726  0.250000  1
  Hg  Hg21  1  0.919486  0.123274  0.750000  1
  As  As22  1  0.841057  0.352960  0.250000  1
  As  As23  1  0.425832  0.380883  0.750000  1
  As  As24  1  0.667895  0.866465  0.750000  1
  As  As25  1  0.776890  0.455098  0.547692  1
  As  As26  1  0.737064  0.973924  0.054219  1
  As  As27  1  0.776890  0.455098  0.952308  1
  As  As28  1  0.223110  0.544902  0.452308  1
  As  As29  1  0.223110  0.544902  0.047692  1
  As  As30  1  0.158943  0.647040  0.750000  1
  As  As31  1  0.332105  0.133535  0.250000  1
  As  As32  1  0.574168  0.619117  0.250000  1
  As  As33  1  0.262936  0.026076  0.945781  1
  As  As34  1  0.737064  0.973924  0.445781  1
  As  As35  1  0.262936  0.026076  0.554219  1
