# generated using pymatgen
data_Tb3Ce6Dy(SiB4)4
_symmetry_space_group_name_H-M   'P 1'
_cell_length_a   7.31715249
_cell_length_b   7.31692370
_cell_length_c   8.26927000
_cell_angle_alpha   90.00000000
_cell_angle_beta   90.00000000
_cell_angle_gamma   90.05660796
_symmetry_Int_Tables_number   1
_chemical_formula_structural   Tb3Ce6Dy(SiB4)4
_chemical_formula_sum   'Tb3 Ce6 Dy1 Si4 B16'
_cell_volume   442.72861463
_cell_formula_units_Z   1
loop_
 _symmetry_equiv_pos_site_id
 _symmetry_equiv_pos_as_xyz
  1  'x, y, z'
loop_
 _atom_site_type_symbol
 _atom_site_label
 _atom_site_symmetry_multiplicity
 _atom_site_fract_x
 _atom_site_fract_y
 _atom_site_fract_z
 _atom_site_occupancy
  Tb  Tb0  1  0.181248  0.318809  0.779927  1
  Tb  Tb1  1  0.181248  0.318809  0.220073  1
  Tb  Tb2  1  0.001592  0.000476  0.500000  1
  Ce  Ce3  1  0.682387  0.182698  0.227013  1
  Ce  Ce4  1  0.317328  0.817548  0.773004  1
  Ce  Ce5  1  0.317328  0.817548  0.226996  1
  Ce  Ce6  1  0.818197  0.681836  0.227091  1
  Ce  Ce7  1  0.818197  0.681836  0.772909  1
  Ce  Ce8  1  0.682387  0.182698  0.772987  1
  Dy  Dy9  1  0.499362  0.498349  0.500000  1
  Si  Si10  1  0.116233  0.613294  0.500000  1
  Si  Si11  1  0.886044  0.384423  0.500000  1
  Si  Si12  1  0.383954  0.116779  0.500000  1
  Si  Si13  1  0.613161  0.886223  0.500000  1
  B  B14  1  0.173250  0.038827  0.000000  1
  B  B15  1  0.827942  0.962027  0.000000  1
  B  B16  1  0.960427  0.172608  0.000000  1
  B  B17  1  0.327365  0.539552  0.000000  1
  B  B18  1  0.039749  0.827955  0.000000  1
  B  B19  1  0.672079  0.460249  0.000000  1
  B  B20  1  0.537949  0.672102  0.000000  1
  B  B21  1  0.461191  0.326731  0.000000  1
  B  B22  1  0.091545  0.591427  0.000000  1
  B  B23  1  0.908586  0.408440  0.000000  1
  B  B24  1  0.409388  0.090586  0.000000  1
  B  B25  1  0.590928  0.909084  0.000000  1
  B  B26  1  0.000474  0.000018  0.158687  1
  B  B27  1  0.000474  0.000018  0.841313  1
  B  B28  1  0.499995  0.499526  0.841034  1
  B  B29  1  0.499995  0.499526  0.158966  1
