# generated using pymatgen
data_TbY(TcRu)2
_symmetry_space_group_name_H-M   'P 1'
_cell_length_a   5.21288872
_cell_length_b   5.21288879
_cell_length_c   9.13209002
_cell_angle_alpha   89.99391755
_cell_angle_beta   90.00608489
_cell_angle_gamma   117.30425655
_symmetry_Int_Tables_number   1
_chemical_formula_structural   TbY(TcRu)2
_chemical_formula_sum   'Tb2 Y2 Tc4 Ru4'
_cell_volume   220.50841677
_cell_formula_units_Z   2
loop_
 _symmetry_equiv_pos_site_id
 _symmetry_equiv_pos_as_xyz
  1  'x, y, z'
loop_
 _atom_site_type_symbol
 _atom_site_label
 _atom_site_symmetry_multiplicity
 _atom_site_fract_x
 _atom_site_fract_y
 _atom_site_fract_z
 _atom_site_occupancy
  Tb  Tb0  1  0.670797  0.329203  0.933198  1
  Tb  Tb1  1  0.332337  0.667663  0.063162  1
  Y  Y2  1  0.332139  0.667861  0.436520  1
  Y  Y3  1  0.670932  0.329068  0.566959  1
  Tc  Tc4  1  0.827030  0.172970  0.250313  1
  Tc  Tc5  1  0.829898  0.659746  0.250253  1
  Tc  Tc6  1  0.340254  0.170102  0.250253  1
  Tc  Tc7  1  0.162599  0.837401  0.749533  1
  Ru  Ru8  1  0.006936  0.993064  0.502655  1
  Ru  Ru9  1  0.007095  0.992905  0.997597  1
  Ru  Ru10  1  0.170382  0.350399  0.749779  1
  Ru  Ru11  1  0.649601  0.829618  0.749779  1
