# generated using pymatgen
data_Ho20Cd3Ru2Au3
_symmetry_space_group_name_H-M   'P 1'
_cell_length_a   9.52563500
_cell_length_b   9.52563397
_cell_length_c   9.60045900
_cell_angle_alpha   90.00000000
_cell_angle_beta   90.00000000
_cell_angle_gamma   120.00000009
_symmetry_Int_Tables_number   1
_chemical_formula_structural   Ho20Cd3Ru2Au3
_chemical_formula_sum   'Ho20 Cd3 Ru2 Au3'
_cell_volume   754.41524239
_cell_formula_units_Z   1
loop_
 _symmetry_equiv_pos_site_id
 _symmetry_equiv_pos_as_xyz
  1  'x, y, z'
loop_
 _atom_site_type_symbol
 _atom_site_label
 _atom_site_symmetry_multiplicity
 _atom_site_fract_x
 _atom_site_fract_y
 _atom_site_fract_z
 _atom_site_occupancy
  Ho  Ho0  1  0.000000  0.000000  0.460938  1
  Ho  Ho1  1  0.000000  0.000000  0.039062  1
  Ho  Ho2  1  0.209577  0.790423  0.440877  1
  Ho  Ho3  1  0.209577  0.419155  0.440877  1
  Ho  Ho4  1  0.580845  0.790423  0.440877  1
  Ho  Ho5  1  0.791587  0.208413  0.558407  1
  Ho  Ho6  1  0.791587  0.583173  0.558407  1
  Ho  Ho7  1  0.416827  0.208413  0.558407  1
  Ho  Ho8  1  0.791587  0.208413  0.941593  1
  Ho  Ho9  1  0.791587  0.583173  0.941593  1
  Ho  Ho10  1  0.416827  0.208413  0.941593  1
  Ho  Ho11  1  0.209577  0.790423  0.059123  1
  Ho  Ho12  1  0.209577  0.419155  0.059123  1
  Ho  Ho13  1  0.580845  0.790423  0.059123  1
  Ho  Ho14  1  0.540344  0.459656  0.250000  1
  Ho  Ho15  1  0.540344  0.080688  0.250000  1
  Ho  Ho16  1  0.919312  0.459656  0.250000  1
  Ho  Ho17  1  0.458920  0.541080  0.750000  1
  Ho  Ho18  1  0.458920  0.917842  0.750000  1
  Ho  Ho19  1  0.082158  0.541080  0.750000  1
  Cd  Cd20  1  0.109968  0.890032  0.750000  1
  Cd  Cd21  1  0.109968  0.219935  0.750000  1
  Cd  Cd22  1  0.780065  0.890032  0.750000  1
  Ru  Ru23  1  0.333333  0.666667  0.250000  1
  Ru  Ru24  1  0.666667  0.333333  0.750000  1
  Au  Au25  1  0.869674  0.130326  0.250000  1
  Au  Au26  1  0.869674  0.739348  0.250000  1
  Au  Au27  1  0.260652  0.130326  0.250000  1
