# generated using pymatgen
data_YHo19(Hg3Ru)2
_symmetry_space_group_name_H-M   'P 1'
_cell_length_a   9.56199400
_cell_length_b   9.56259635
_cell_length_c   9.67184400
_cell_angle_alpha   90.00000000
_cell_angle_beta   90.00000000
_cell_angle_gamma   119.99833862
_symmetry_Int_Tables_number   1
_chemical_formula_structural   YHo19(Hg3Ru)2
_chemical_formula_sum   'Y1 Ho19 Hg6 Ru2'
_cell_volume   765.89895293
_cell_formula_units_Z   1
loop_
 _symmetry_equiv_pos_site_id
 _symmetry_equiv_pos_as_xyz
  1  'x, y, z'
loop_
 _atom_site_type_symbol
 _atom_site_label
 _atom_site_symmetry_multiplicity
 _atom_site_fract_x
 _atom_site_fract_y
 _atom_site_fract_z
 _atom_site_occupancy
  Y  Y0  1  0.082517  0.541266  0.750000  1
  Ho  Ho1  1  0.999945  0.999972  0.500017  1
  Ho  Ho2  1  0.999945  0.999972  0.999983  1
  Ho  Ho3  1  0.209602  0.790658  0.439632  1
  Ho  Ho4  1  0.209621  0.418967  0.439651  1
  Ho  Ho5  1  0.580964  0.790489  0.439811  1
  Ho  Ho6  1  0.790251  0.209322  0.560183  1
  Ho  Ho7  1  0.790240  0.580913  0.560166  1
  Ho  Ho8  1  0.419065  0.209524  0.560250  1
  Ho  Ho9  1  0.790251  0.209322  0.939817  1
  Ho  Ho10  1  0.790240  0.580913  0.939834  1
  Ho  Ho11  1  0.419065  0.209524  0.939750  1
  Ho  Ho12  1  0.209602  0.790658  0.060368  1
  Ho  Ho13  1  0.209621  0.418967  0.060349  1
  Ho  Ho14  1  0.580964  0.790489  0.060189  1
  Ho  Ho15  1  0.541187  0.458829  0.250000  1
  Ho  Ho16  1  0.541174  0.082350  0.250000  1
  Ho  Ho17  1  0.917699  0.458846  0.250000  1
  Ho  Ho18  1  0.459049  0.541129  0.750000  1
  Ho  Ho19  1  0.459052  0.917919  0.750000  1
  Hg  Hg20  1  0.881400  0.118576  0.250000  1
  Hg  Hg21  1  0.881411  0.762815  0.250000  1
  Hg  Hg22  1  0.237175  0.118563  0.250000  1
  Hg  Hg23  1  0.118657  0.881705  0.750000  1
  Hg  Hg24  1  0.118650  0.236964  0.750000  1
  Hg  Hg25  1  0.762807  0.881426  0.750000  1
  Ru  Ru26  1  0.333323  0.666651  0.250000  1
  Ru  Ru27  1  0.666523  0.333272  0.750000  1
