# generated using pymatgen
data_Nd16Cd2CoNi3Hg2
_symmetry_space_group_name_H-M   'P 1'
_cell_length_a   9.86381667
_cell_length_b   9.86381618
_cell_length_c   9.86003265
_cell_angle_alpha   59.90212733
_cell_angle_beta   59.90212186
_cell_angle_gamma   59.88978426
_symmetry_Int_Tables_number   1
_chemical_formula_structural   Nd16Cd2CoNi3Hg2
_chemical_formula_sum   'Nd16 Cd2 Co1 Ni3 Hg2'
_cell_volume   676.77960014
_cell_formula_units_Z   1
loop_
 _symmetry_equiv_pos_site_id
 _symmetry_equiv_pos_as_xyz
  1  'x, y, z'
loop_
 _atom_site_type_symbol
 _atom_site_label
 _atom_site_symmetry_multiplicity
 _atom_site_fract_x
 _atom_site_fract_y
 _atom_site_fract_z
 _atom_site_occupancy
  Nd  Nd0  1  0.598347  0.598347  0.597583  1
  Nd  Nd1  1  0.596133  0.596133  0.208680  1
  Nd  Nd2  1  0.597974  0.204121  0.597142  1
  Nd  Nd3  1  0.204121  0.597974  0.597142  1
  Nd  Nd4  1  0.064715  0.438479  0.440688  1
  Nd  Nd5  1  0.438720  0.060960  0.058792  1
  Nd  Nd6  1  0.438479  0.064715  0.440688  1
  Nd  Nd7  1  0.060960  0.438720  0.058792  1
  Nd  Nd8  1  0.438488  0.438488  0.065395  1
  Nd  Nd9  1  0.058560  0.058560  0.441312  1
  Nd  Nd10  1  0.188200  0.810865  0.813583  1
  Nd  Nd11  1  0.810158  0.188359  0.186714  1
  Nd  Nd12  1  0.810865  0.188200  0.813583  1
  Nd  Nd13  1  0.188359  0.810158  0.186714  1
  Nd  Nd14  1  0.811549  0.811549  0.187574  1
  Nd  Nd15  1  0.186940  0.186940  0.811641  1
  Cd  Cd16  1  0.829194  0.510976  0.829688  1
  Cd  Cd17  1  0.510976  0.829194  0.829688  1
  Co  Co18  1  0.392236  0.392236  0.393160  1
  Ni  Ni19  1  0.392880  0.392880  0.822523  1
  Ni  Ni20  1  0.392548  0.823639  0.392826  1
  Ni  Ni21  1  0.823639  0.392548  0.392826  1
  Hg  Hg22  1  0.832982  0.832982  0.834422  1
  Hg  Hg23  1  0.832976  0.832976  0.498843  1
