# generated using pymatgen
data_Dy4HoCo19(SiP5)2
_symmetry_space_group_name_H-M   'P 1'
_cell_length_a   12.01379207
_cell_length_b   12.00618519
_cell_length_c   3.67898300
_cell_angle_alpha   90.00000000
_cell_angle_beta   90.00000000
_cell_angle_gamma   119.97700626
_symmetry_Int_Tables_number   1
_chemical_formula_structural   Dy4HoCo19(SiP5)2
_chemical_formula_sum   'Dy4 Ho1 Co19 Si2 P10'
_cell_volume   459.66786244
_cell_formula_units_Z   1
loop_
 _symmetry_equiv_pos_site_id
 _symmetry_equiv_pos_as_xyz
  1  'x, y, z'
loop_
 _atom_site_type_symbol
 _atom_site_label
 _atom_site_symmetry_multiplicity
 _atom_site_fract_x
 _atom_site_fract_y
 _atom_site_fract_z
 _atom_site_occupancy
  Dy  Dy0  1  0.334397  0.667293  0.000000  1
  Dy  Dy1  1  0.184916  0.185163  0.500000  1
  Dy  Dy2  1  0.815084  0.000227  0.500000  1
  Dy  Dy3  1  0.999977  0.811808  0.500000  1
  Ho  Ho4  1  0.665592  0.332958  0.000000  1
  Co  Co5  1  0.559184  0.556263  0.000000  1
  Co  Co6  1  0.440832  0.997072  0.000000  1
  Co  Co7  1  0.000002  0.447880  0.000000  1
  Co  Co8  1  0.824689  0.203818  0.000000  1
  Co  Co9  1  0.801630  0.622246  0.000000  1
  Co  Co10  1  0.377426  0.174660  0.000000  1
  Co  Co11  1  0.198305  0.820652  0.000000  1
  Co  Co12  1  0.622718  0.797269  0.000000  1
  Co  Co13  1  0.175231  0.379002  0.000000  1
  Co  Co14  1  0.640807  0.126920  0.500000  1
  Co  Co15  1  0.874861  0.516365  0.500000  1
  Co  Co16  1  0.485773  0.358256  0.500000  1
  Co  Co17  1  0.124962  0.641511  0.500000  1
  Co  Co18  1  0.514416  0.872666  0.500000  1
  Co  Co19  1  0.359220  0.485929  0.500000  1
  Co  Co20  1  0.716938  0.715449  0.500000  1
  Co  Co21  1  0.283071  0.998542  0.500000  1
  Co  Co22  1  0.999972  0.286093  0.500000  1
  Co  Co23  1  0.000001  0.000451  0.000000  1
  Si  Si24  1  0.369609  0.369701  0.000000  1
  Si  Si25  1  0.630357  0.000037  0.000000  1
  P  P26  1  0.000010  0.631191  0.000000  1
  P  P27  1  0.832708  0.313735  0.500000  1
  P  P28  1  0.686057  0.519896  0.500000  1
  P  P29  1  0.478974  0.165422  0.500000  1
  P  P30  1  0.313891  0.834066  0.500000  1
  P  P31  1  0.521304  0.686478  0.500000  1
  P  P32  1  0.167073  0.480724  0.500000  1
  P  P33  1  0.819154  0.818413  0.000000  1
  P  P34  1  0.180844  0.999272  0.000000  1
  P  P35  1  0.000012  0.182569  0.000000  1
