# generated using pymatgen
data_La16Dy(LuIr4)3
_symmetry_space_group_name_H-M   'P 1'
_cell_length_a   11.35150600
_cell_length_b   11.35150600
_cell_length_c   6.52408800
_cell_angle_alpha   90.00000000
_cell_angle_beta   90.00000000
_cell_angle_gamma   90.00000000
_symmetry_Int_Tables_number   1
_chemical_formula_structural   La16Dy(LuIr4)3
_chemical_formula_sum   'La16 Dy1 Lu3 Ir12'
_cell_volume   840.67237495
_cell_formula_units_Z   1
loop_
 _symmetry_equiv_pos_site_id
 _symmetry_equiv_pos_as_xyz
  1  'x, y, z'
loop_
 _atom_site_type_symbol
 _atom_site_label
 _atom_site_symmetry_multiplicity
 _atom_site_fract_x
 _atom_site_fract_y
 _atom_site_fract_z
 _atom_site_occupancy
  La  La0  1  0.286129  0.087279  0.388631  1
  La  La1  1  0.286288  0.912763  0.888594  1
  La  La2  1  0.713712  0.087237  0.888594  1
  La  La3  1  0.713871  0.912721  0.388631  1
  La  La4  1  0.587366  0.787036  0.888756  1
  La  La5  1  0.587081  0.212463  0.388510  1
  La  La6  1  0.412919  0.787537  0.388510  1
  La  La7  1  0.412634  0.212964  0.888756  1
  La  La8  1  0.212463  0.412919  0.611490  1
  La  La9  1  0.212964  0.587366  0.111244  1
  La  La10  1  0.787036  0.412634  0.111244  1
  La  La11  1  0.787537  0.587081  0.611490  1
  La  La12  1  0.912763  0.713712  0.111406  1
  La  La13  1  0.912721  0.286129  0.611369  1
  La  La14  1  0.087279  0.713871  0.611369  1
  La  La15  1  0.087237  0.286288  0.111406  1
  Dy  Dy16  1  0.500000  0.500000  0.500000  1
  Lu  Lu17  1  0.000000  0.000000  0.500000  1
  Lu  Lu18  1  0.000000  0.000000  0.000000  1
  Lu  Lu19  1  0.500000  0.500000  0.000000  1
  Ir  Ir20  1  0.853501  0.145612  0.250271  1
  Ir  Ir21  1  0.854388  0.853501  0.749729  1
  Ir  Ir22  1  0.145612  0.146499  0.749729  1
  Ir  Ir23  1  0.146499  0.854388  0.250271  1
  Ir  Ir24  1  0.647106  0.352034  0.753243  1
  Ir  Ir25  1  0.647966  0.647106  0.246757  1
  Ir  Ir26  1  0.352034  0.352894  0.246757  1
  Ir  Ir27  1  0.352894  0.647966  0.753243  1
  Ir  Ir28  1  0.500000  0.000000  0.120042  1
  Ir  Ir29  1  0.500000  0.000000  0.619511  1
  Ir  Ir30  1  0.000000  0.500000  0.879958  1
  Ir  Ir31  1  0.000000  0.500000  0.380489  1
