# generated using pymatgen
data_MnCu3Pd4
_symmetry_space_group_name_H-M   'P 1'
_cell_length_a   5.27868049
_cell_length_b   5.27881270
_cell_length_c   4.32068300
_cell_angle_alpha   90.00000000
_cell_angle_beta   90.00000000
_cell_angle_gamma   111.28762146
_symmetry_Int_Tables_number   1
_chemical_formula_structural   MnCu3Pd4
_chemical_formula_sum   'Mn1 Cu3 Pd4'
_cell_volume   112.18185299
_cell_formula_units_Z   1
loop_
 _symmetry_equiv_pos_site_id
 _symmetry_equiv_pos_as_xyz
  1  'x, y, z'
loop_
 _atom_site_type_symbol
 _atom_site_label
 _atom_site_symmetry_multiplicity
 _atom_site_fract_x
 _atom_site_fract_y
 _atom_site_fract_z
 _atom_site_occupancy
  Mn  Mn0  1  0.133744  0.362763  0.250000  1
  Cu  Cu1  1  0.636831  0.866153  0.250000  1
  Cu  Cu2  1  0.362260  0.134518  0.750001  1
  Cu  Cu3  1  0.868302  0.635371  0.750001  1
  Pd  Pd4  1  0.632716  0.368169  0.250000  1
  Pd  Pd5  1  0.134455  0.865167  0.250000  1
  Pd  Pd6  1  0.860578  0.130935  0.750001  1
  Pd  Pd7  1  0.371118  0.636927  0.750001  1
