# generated using pymatgen
data_Y16Ho4Si15P
_symmetry_space_group_name_H-M   'P 1'
_cell_length_a   7.51282679
_cell_length_b   7.64471449
_cell_length_c   14.64454600
_cell_angle_alpha   89.89003589
_cell_angle_beta   85.61277950
_cell_angle_gamma   89.95688415
_symmetry_Int_Tables_number   1
_chemical_formula_structural   Y16Ho4Si15P
_chemical_formula_sum   'Y16 Ho4 Si15 P1'
_cell_volume   838.62008266
_cell_formula_units_Z   1
loop_
 _symmetry_equiv_pos_site_id
 _symmetry_equiv_pos_as_xyz
  1  'x, y, z'
loop_
 _atom_site_type_symbol
 _atom_site_label
 _atom_site_symmetry_multiplicity
 _atom_site_fract_x
 _atom_site_fract_y
 _atom_site_fract_z
 _atom_site_occupancy
  Y  Y0  1  0.012547  0.825491  0.103224  1
  Y  Y1  1  0.474197  0.684219  0.398190  1
  Y  Y2  1  0.491715  0.321740  0.899188  1
  Y  Y3  1  0.025952  0.185062  0.603008  1
  Y  Y4  1  0.991025  0.179450  0.898448  1
  Y  Y5  1  0.525418  0.315347  0.602339  1
  Y  Y6  1  0.510007  0.680086  0.100941  1
  Y  Y7  1  0.973691  0.814315  0.397795  1
  Y  Y8  1  0.639567  0.833024  0.881700  1
  Y  Y9  1  0.173393  0.677161  0.622697  1
  Y  Y10  1  0.859140  0.341373  0.114048  1
  Y  Y11  1  0.326453  0.177553  0.377900  1
  Y  Y12  1  0.360551  0.163474  0.118879  1
  Y  Y13  1  0.826356  0.322432  0.378261  1
  Y  Y14  1  0.134950  0.663435  0.883565  1
  Y  Y15  1  0.673623  0.822524  0.622790  1
  Ho  Ho16  1  0.673828  0.995612  0.245611  1
  Ho  Ho17  1  0.172575  0.504209  0.245528  1
  Ho  Ho18  1  0.826877  0.494900  0.753323  1
  Ho  Ho19  1  0.326954  0.004866  0.754750  1
  Si  Si20  1  0.787405  0.628219  0.251251  1
  Si  Si21  1  0.287846  0.870611  0.251843  1
  Si  Si22  1  0.711742  0.129128  0.748938  1
  Si  Si23  1  0.211630  0.371594  0.749037  1
  Si  Si24  1  0.046276  0.109855  0.251470  1
  Si  Si25  1  0.547693  0.391234  0.250683  1
  Si  Si26  1  0.452384  0.609311  0.749820  1
  Si  Si27  1  0.953466  0.890960  0.749296  1
  Si  Si28  1  0.356536  0.972075  0.542676  1
  Si  Si29  1  0.711274  0.031596  0.043107  1
  Si  Si30  1  0.144242  0.471759  0.458222  1
  Si  Si31  1  0.213991  0.469341  0.044217  1
  Si  Si32  1  0.643710  0.026784  0.457498  1
  Si  Si33  1  0.291665  0.967587  0.955808  1
  Si  Si34  1  0.856120  0.527120  0.542964  1
  P  P35  1  0.785203  0.526554  0.950981  1
