# generated using pymatgen
data_Y4Al4IrPt3
_symmetry_space_group_name_H-M   'P 1'
_cell_length_a   4.44706300
_cell_length_b   6.87329412
_cell_length_c   7.77563715
_cell_angle_alpha   90.02210909
_cell_angle_beta   90.00000000
_cell_angle_gamma   90.00000000
_symmetry_Int_Tables_number   1
_chemical_formula_structural   Y4Al4IrPt3
_chemical_formula_sum   'Y4 Al4 Ir1 Pt3'
_cell_volume   237.66988960
_cell_formula_units_Z   1
loop_
 _symmetry_equiv_pos_site_id
 _symmetry_equiv_pos_as_xyz
  1  'x, y, z'
loop_
 _atom_site_type_symbol
 _atom_site_label
 _atom_site_symmetry_multiplicity
 _atom_site_fract_x
 _atom_site_fract_y
 _atom_site_fract_z
 _atom_site_occupancy
  Y  Y0  1  0.250000  0.030562  0.679927  1
  Y  Y1  1  0.250000  0.527175  0.818086  1
  Y  Y2  1  0.750000  0.978183  0.318379  1
  Y  Y3  1  0.750000  0.470896  0.184274  1
  Al  Al4  1  0.250000  0.149120  0.065942  1
  Al  Al5  1  0.250000  0.642294  0.435278  1
  Al  Al6  1  0.750000  0.851997  0.936709  1
  Al  Al7  1  0.750000  0.352365  0.562654  1
  Ir  Ir8  1  0.250000  0.271254  0.383949  1
  Pt  Pt9  1  0.250000  0.775699  0.115201  1
  Pt  Pt10  1  0.750000  0.725902  0.616191  1
  Pt  Pt11  1  0.750000  0.224553  0.883408  1
