# generated using pymatgen
data_Cs3(ReO4)2
_symmetry_space_group_name_H-M   'P 1'
_cell_length_a   6.59217419
_cell_length_b   6.59217449
_cell_length_c   8.76609673
_cell_angle_alpha   68.10673763
_cell_angle_beta   68.10673241
_cell_angle_gamma   60.42801819
_symmetry_Int_Tables_number   1
_chemical_formula_structural   Cs3(ReO4)2
_chemical_formula_sum   'Cs3 Re2 O8'
_cell_volume   298.89104885
_cell_formula_units_Z   1
loop_
 _symmetry_equiv_pos_site_id
 _symmetry_equiv_pos_as_xyz
  1  'x, y, z'
loop_
 _atom_site_type_symbol
 _atom_site_label
 _atom_site_symmetry_multiplicity
 _atom_site_fract_x
 _atom_site_fract_y
 _atom_site_fract_z
 _atom_site_occupancy
  Cs  Cs0  1  0.004830  0.995170  0.000000  1
  Cs  Cs1  1  0.191610  0.213164  0.394126  1
  Cs  Cs2  1  0.786836  0.808390  0.605874  1
  Re  Re3  1  0.393935  0.415922  0.781301  1
  Re  Re4  1  0.584078  0.606065  0.218699  1
  O  O5  1  0.266441  0.715948  0.298719  1
  O  O6  1  0.707803  0.287000  0.288261  1
  O  O7  1  0.714319  0.718463  0.296179  1
  O  O8  1  0.713000  0.292197  0.711739  1
  O  O9  1  0.284052  0.733559  0.701281  1
  O  O10  1  0.281537  0.285681  0.703821  1
  O  O11  1  0.291978  0.358420  0.005049  1
  O  O12  1  0.641580  0.708022  0.994951  1
