# generated using pymatgen
data_Dy5Tm3Lu2GaSi3Sb4
_symmetry_space_group_name_H-M   'P 1'
_cell_length_a   8.37368371
_cell_length_b   8.53994629
_cell_length_c   7.78981600
_cell_angle_alpha   90.12414621
_cell_angle_beta   90.10741147
_cell_angle_gamma   125.36882386
_symmetry_Int_Tables_number   1
_chemical_formula_structural   Dy5Tm3Lu2GaSi3Sb4
_chemical_formula_sum   'Dy5 Tm3 Lu2 Ga1 Si3 Sb4'
_cell_volume   454.24297425
_cell_formula_units_Z   1
loop_
 _symmetry_equiv_pos_site_id
 _symmetry_equiv_pos_as_xyz
  1  'x, y, z'
loop_
 _atom_site_type_symbol
 _atom_site_label
 _atom_site_symmetry_multiplicity
 _atom_site_fract_x
 _atom_site_fract_y
 _atom_site_fract_z
 _atom_site_occupancy
  Dy  Dy0  1  0.805322  0.546573  0.169415  1
  Dy  Dy1  1  0.537904  0.788441  0.165493  1
  Dy  Dy2  1  0.196890  0.455255  0.829422  1
  Dy  Dy3  1  0.697573  0.954391  0.668746  1
  Dy  Dy4  1  0.301240  0.042413  0.332296  1
  Tm  Tm5  1  0.034418  0.281273  0.337135  1
  Tm  Tm6  1  0.962434  0.716403  0.663784  1
  Tm  Tm7  1  0.463524  0.216084  0.834969  1
  Lu  Lu8  1  0.999695  0.999941  0.998964  1
  Lu  Lu9  1  0.500471  0.499743  0.501184  1
  Ga  Ga10  1  0.368101  0.367063  0.132160  1
  Si  Si11  1  0.632201  0.631792  0.868143  1
  Si  Si12  1  0.132585  0.132044  0.631368  1
  Si  Si13  1  0.868914  0.867687  0.368964  1
  Sb  Sb14  1  0.788875  0.200443  0.008673  1
  Sb  Sb15  1  0.212605  0.803432  0.987630  1
  Sb  Sb16  1  0.713946  0.301746  0.510770  1
  Sb  Sb17  1  0.283303  0.695275  0.490882  1
