# generated using pymatgen
data_Ba3SmHfS6
_symmetry_space_group_name_H-M   'P 1'
_cell_length_a   8.35126734
_cell_length_b   8.35126831
_cell_length_c   8.35126800
_cell_angle_alpha   92.01956469
_cell_angle_beta   92.01955806
_cell_angle_gamma   92.01956564
_symmetry_Int_Tables_number   1
_chemical_formula_structural   Ba3SmHfS6
_chemical_formula_sum   'Ba6 Sm2 Hf2 S12'
_cell_volume   581.33654280
_cell_formula_units_Z   2
loop_
 _symmetry_equiv_pos_site_id
 _symmetry_equiv_pos_as_xyz
  1  'x, y, z'
loop_
 _atom_site_type_symbol
 _atom_site_label
 _atom_site_symmetry_multiplicity
 _atom_site_fract_x
 _atom_site_fract_y
 _atom_site_fract_z
 _atom_site_occupancy
  Ba  Ba0  1  0.876242  0.623758  0.250000  1
  Ba  Ba1  1  0.250000  0.876242  0.623758  1
  Ba  Ba2  1  0.623758  0.250000  0.876242  1
  Ba  Ba3  1  0.750000  0.123758  0.376242  1
  Ba  Ba4  1  0.376242  0.750000  0.123758  1
  Ba  Ba5  1  0.123758  0.376242  0.750000  1
  Sm  Sm6  1  0.250000  0.250000  0.250000  1
  Sm  Sm7  1  0.750000  0.750000  0.750000  1
  Hf  Hf8  1  0.500000  0.500000  0.500000  1
  Hf  Hf9  1  0.000000  0.000000  0.000000  1
  S  S10  1  0.206299  0.544915  0.414535  1
  S  S11  1  0.414535  0.206299  0.544915  1
  S  S12  1  0.544915  0.414535  0.206299  1
  S  S13  1  0.914535  0.044915  0.706299  1
  S  S14  1  0.706299  0.914535  0.044915  1
  S  S15  1  0.044915  0.706299  0.914535  1
  S  S16  1  0.793701  0.455085  0.585465  1
  S  S17  1  0.585465  0.793701  0.455085  1
  S  S18  1  0.455085  0.585465  0.793701  1
  S  S19  1  0.085465  0.955085  0.293701  1
  S  S20  1  0.293701  0.085465  0.955085  1
  S  S21  1  0.955085  0.293701  0.085465  1
