# generated using pymatgen
data_Y2As2Cl2O5
_symmetry_space_group_name_H-M   'P 1'
_cell_length_a   7.06808187
_cell_length_b   7.69988585
_cell_length_c   9.49209659
_cell_angle_alpha   110.15438936
_cell_angle_beta   103.47050943
_cell_angle_gamma   102.33154735
_symmetry_Int_Tables_number   1
_chemical_formula_structural   Y2As2Cl2O5
_chemical_formula_sum   'Y4 As4 Cl4 O10'
_cell_volume   446.52451932
_cell_formula_units_Z   2
loop_
 _symmetry_equiv_pos_site_id
 _symmetry_equiv_pos_as_xyz
  1  'x, y, z'
loop_
 _atom_site_type_symbol
 _atom_site_label
 _atom_site_symmetry_multiplicity
 _atom_site_fract_x
 _atom_site_fract_y
 _atom_site_fract_z
 _atom_site_occupancy
  Y  Y0  1  0.398240  0.701197  0.521452  1
  Y  Y1  1  0.601760  0.298803  0.478548  1
  Y  Y2  1  0.842186  0.758744  0.334357  1
  Y  Y3  1  0.157814  0.241256  0.665643  1
  As  As4  1  0.887278  0.850187  0.739215  1
  As  As5  1  0.112722  0.149813  0.260785  1
  As  As6  1  0.712579  0.236710  0.798115  1
  As  As7  1  0.287421  0.763290  0.201885  1
  Cl  Cl8  1  0.246664  0.638936  0.742277  1
  Cl  Cl9  1  0.753336  0.361064  0.257723  1
  Cl  Cl10  1  0.790031  0.724327  0.041809  1
  Cl  Cl11  1  0.209969  0.275673  0.958191  1
  O  O12  1  0.846442  0.280743  0.665950  1
  O  O13  1  0.153558  0.719257  0.334050  1
  O  O14  1  0.529520  0.784386  0.337701  1
  O  O15  1  0.470480  0.215614  0.662299  1
  O  O16  1  0.669997  0.965856  0.720437  1
  O  O17  1  0.330003  0.034144  0.279563  1
  O  O18  1  0.695105  0.624420  0.583311  1
  O  O19  1  0.304895  0.375580  0.416689  1
  O  O20  1  0.996634  0.919954  0.605848  1
  O  O21  1  0.003366  0.080046  0.394152  1
