# generated using pymatgen
data_Dy2Ga9TcRu4
_symmetry_space_group_name_H-M   'P 1'
_cell_length_a   8.04979850
_cell_length_b   8.04979792
_cell_length_c   8.04979947
_cell_angle_alpha   134.61433990
_cell_angle_beta   134.61433029
_cell_angle_gamma   66.13002603
_symmetry_Int_Tables_number   1
_chemical_formula_structural   Dy2Ga9TcRu4
_chemical_formula_sum   'Dy2 Ga9 Tc1 Ru4'
_cell_volume   260.24918563
_cell_formula_units_Z   1
loop_
 _symmetry_equiv_pos_site_id
 _symmetry_equiv_pos_as_xyz
  1  'x, y, z'
loop_
 _atom_site_type_symbol
 _atom_site_label
 _atom_site_symmetry_multiplicity
 _atom_site_fract_x
 _atom_site_fract_y
 _atom_site_fract_z
 _atom_site_occupancy
  Dy  Dy0  1  0.000099  0.500099  0.500000  1
  Dy  Dy1  1  0.500099  0.000099  0.500000  1
  Ga  Ga2  1  0.437559  0.858000  0.000000  1
  Ga  Ga3  1  0.141733  0.141733  0.580696  1
  Ga  Ga4  1  0.858000  0.437559  0.000000  1
  Ga  Ga5  1  0.858000  0.858000  0.420440  1
  Ga  Ga6  1  0.561037  0.141733  0.000000  1
  Ga  Ga7  1  0.141733  0.561037  0.000000  1
  Ga  Ga8  1  0.561037  0.561037  0.419304  1
  Ga  Ga9  1  0.000390  0.000390  0.000000  1
  Ga  Ga10  1  0.437559  0.437559  0.579560  1
  Tc  Tc11  1  0.182231  0.182231  0.000000  1
  Ru  Ru12  1  0.819249  0.819249  0.000000  1
  Ru  Ru13  1  0.250454  0.750454  0.500000  1
  Ru  Ru14  1  0.750454  0.250454  0.500000  1
  Ru  Ru15  1  0.500369  0.500369  0.000000  1
