# generated using pymatgen
data_Ba(AcS2)2
_symmetry_space_group_name_H-M   'P 1'
_cell_length_a   7.94508850
_cell_length_b   7.94508886
_cell_length_c   7.94508809
_cell_angle_alpha   109.34479496
_cell_angle_beta   109.34479227
_cell_angle_gamma   109.72436344
_symmetry_Int_Tables_number   1
_chemical_formula_structural   Ba(AcS2)2
_chemical_formula_sum   'Ba2 Ac4 S8'
_cell_volume   386.07173413
_cell_formula_units_Z   2
loop_
 _symmetry_equiv_pos_site_id
 _symmetry_equiv_pos_as_xyz
  1  'x, y, z'
loop_
 _atom_site_type_symbol
 _atom_site_label
 _atom_site_symmetry_multiplicity
 _atom_site_fract_x
 _atom_site_fract_y
 _atom_site_fract_z
 _atom_site_occupancy
  Ba  Ba0  1  0.750000  0.250000  0.500000  1
  Ba  Ba1  1  0.500000  0.500000  0.000000  1
  Ac  Ac2  1  0.997139  0.375000  0.122139  1
  Ac  Ac3  1  0.625000  0.747139  0.622139  1
  Ac  Ac4  1  0.252861  0.875000  0.877861  1
  Ac  Ac5  1  0.125000  0.002861  0.377861  1
  S  S6  1  0.518473  0.111792  0.747675  1
  S  S7  1  0.888208  0.635883  0.406680  1
  S  S8  1  0.361792  0.268473  0.247675  1
  S  S9  1  0.731527  0.979202  0.093320  1
  S  S10  1  0.885883  0.638208  0.906680  1
  S  S11  1  0.229202  0.481527  0.593320  1
  S  S12  1  0.364117  0.770798  0.252325  1
  S  S13  1  0.020798  0.114117  0.752325  1
