# generated using pymatgen
data_Y4Lu3ScPt4
_symmetry_space_group_name_H-M   'P 1'
_cell_length_a   4.71873400
_cell_length_b   7.05287288
_cell_length_c   8.57839000
_cell_angle_alpha   89.95814643
_cell_angle_beta   90.00000000
_cell_angle_gamma   90.00000000
_symmetry_Int_Tables_number   1
_chemical_formula_structural   Y4Lu3ScPt4
_chemical_formula_sum   'Y4 Lu3 Sc1 Pt4'
_cell_volume   285.49415655
_cell_formula_units_Z   1
loop_
 _symmetry_equiv_pos_site_id
 _symmetry_equiv_pos_as_xyz
  1  'x, y, z'
loop_
 _atom_site_type_symbol
 _atom_site_label
 _atom_site_symmetry_multiplicity
 _atom_site_fract_x
 _atom_site_fract_y
 _atom_site_fract_z
 _atom_site_occupancy
  Y  Y0  1  0.250000  0.984222  0.328197  1
  Y  Y1  1  0.750000  0.011172  0.677775  1
  Y  Y2  1  0.250000  0.489889  0.166992  1
  Y  Y3  1  0.750000  0.519565  0.826908  1
  Lu  Lu4  1  0.750000  0.642513  0.421838  1
  Lu  Lu5  1  0.250000  0.354871  0.575859  1
  Lu  Lu6  1  0.750000  0.144042  0.075782  1
  Sc  Sc7  1  0.250000  0.860116  0.925484  1
  Pt  Pt8  1  0.250000  0.245589  0.902270  1
  Pt  Pt9  1  0.750000  0.752922  0.091846  1
  Pt  Pt10  1  0.250000  0.749730  0.601684  1
  Pt  Pt11  1  0.750000  0.245368  0.405364  1
