# generated using pymatgen
data_Li2CeTcH6
_symmetry_space_group_name_H-M   'P 1'
_cell_length_a   5.11409910
_cell_length_b   5.12541056
_cell_length_c   5.12301237
_cell_angle_alpha   119.91058588
_cell_angle_beta   119.99549115
_cell_angle_gamma   60.02245414
_symmetry_Int_Tables_number   1
_chemical_formula_structural   Li2CeTcH6
_chemical_formula_sum   'Li2 Ce1 Tc1 H6'
_cell_volume   95.03627068
_cell_formula_units_Z   1
loop_
 _symmetry_equiv_pos_site_id
 _symmetry_equiv_pos_as_xyz
  1  'x, y, z'
loop_
 _atom_site_type_symbol
 _atom_site_label
 _atom_site_symmetry_multiplicity
 _atom_site_fract_x
 _atom_site_fract_y
 _atom_site_fract_z
 _atom_site_occupancy
  Li  Li0  1  0.499697  0.500209  0.499750  1
  Li  Li1  1  0.249941  0.250012  0.749954  1
  Ce  Ce2  1  0.750194  0.749927  0.250302  1
  Tc  Tc3  1  0.000129  0.999906  0.000092  1
  H  H4  1  0.245266  0.245379  0.245293  1
  H  H5  1  0.754706  0.245329  0.245295  1
  H  H6  1  0.245332  0.754621  0.245330  1
  H  H7  1  0.754742  0.245299  0.754718  1
  H  H8  1  0.245289  0.754666  0.754607  1
  H  H9  1  0.754709  0.754655  0.754654  1
