# generated using pymatgen
data_Nd2Y3Pb3Cl
_symmetry_space_group_name_H-M   'P 1'
_cell_length_a   9.36589600
_cell_length_b   9.35405016
_cell_length_c   6.72865900
_cell_angle_alpha   90.00000000
_cell_angle_beta   90.00000000
_cell_angle_gamma   120.04190765
_symmetry_Int_Tables_number   1
_chemical_formula_structural   Nd2Y3Pb3Cl
_chemical_formula_sum   'Nd4 Y6 Pb6 Cl2'
_cell_volume   510.29888999
_cell_formula_units_Z   2
loop_
 _symmetry_equiv_pos_site_id
 _symmetry_equiv_pos_as_xyz
  1  'x, y, z'
loop_
 _atom_site_type_symbol
 _atom_site_label
 _atom_site_symmetry_multiplicity
 _atom_site_fract_x
 _atom_site_fract_y
 _atom_site_fract_z
 _atom_site_occupancy
  Nd  Nd0  1  0.999173  0.259341  0.250000  1
  Nd  Nd1  1  0.000827  0.740659  0.750000  1
  Nd  Nd2  1  0.739831  0.740659  0.250000  1
  Nd  Nd3  1  0.260169  0.259341  0.750000  1
  Y  Y4  1  0.259647  0.000000  0.250000  1
  Y  Y5  1  0.740353  0.000000  0.750000  1
  Y  Y6  1  0.333784  0.667570  0.000000  1
  Y  Y7  1  0.666216  0.332430  0.000000  1
  Y  Y8  1  0.666216  0.332430  0.500000  1
  Y  Y9  1  0.333784  0.667570  0.500000  1
  Pb  Pb10  1  0.604544  0.000000  0.250000  1
  Pb  Pb11  1  0.395456  0.000000  0.750000  1
  Pb  Pb12  1  0.002819  0.611716  0.250000  1
  Pb  Pb13  1  0.997181  0.388284  0.750000  1
  Pb  Pb14  1  0.391104  0.388284  0.250000  1
  Pb  Pb15  1  0.608896  0.611716  0.750000  1
  Cl  Cl16  1  0.000000  0.000000  0.000000  1
  Cl  Cl17  1  0.000000  0.000000  0.500000  1
