# generated using pymatgen
data_LuScFe14(SiC)3
_symmetry_space_group_name_H-M   'P 1'
_cell_length_a   6.40213941
_cell_length_b   6.40213855
_cell_length_c   6.40213768
_cell_angle_alpha   83.00580992
_cell_angle_beta   83.00581597
_cell_angle_gamma   83.00579764
_symmetry_Int_Tables_number   1
_chemical_formula_structural   LuScFe14(SiC)3
_chemical_formula_sum   'Lu1 Sc1 Fe14 Si3 C3'
_cell_volume   256.98840979
_cell_formula_units_Z   1
loop_
 _symmetry_equiv_pos_site_id
 _symmetry_equiv_pos_as_xyz
  1  'x, y, z'
loop_
 _atom_site_type_symbol
 _atom_site_label
 _atom_site_symmetry_multiplicity
 _atom_site_fract_x
 _atom_site_fract_y
 _atom_site_fract_z
 _atom_site_occupancy
  Lu  Lu0  1  0.653249  0.653249  0.653249  1
  Sc  Sc1  1  0.345039  0.345039  0.345039  1
  Fe  Fe2  1  0.098542  0.098542  0.098542  1
  Fe  Fe3  1  0.902238  0.902238  0.902238  1
  Fe  Fe4  1  0.715358  0.283888  0.000774  1
  Fe  Fe5  1  0.283888  0.000774  0.715358  1
  Fe  Fe6  1  0.000774  0.715358  0.283888  1
  Fe  Fe7  1  0.283888  0.715358  0.000774  1
  Fe  Fe8  1  0.715358  0.000774  0.283888  1
  Fe  Fe9  1  0.000774  0.283888  0.715358  1
  Fe  Fe10  1  0.141559  0.657317  0.657317  1
  Fe  Fe11  1  0.657317  0.657317  0.141559  1
  Fe  Fe12  1  0.657317  0.141559  0.657317  1
  Fe  Fe13  1  0.341803  0.861059  0.341803  1
  Fe  Fe14  1  0.341803  0.341803  0.861059  1
  Fe  Fe15  1  0.861059  0.341803  0.341803  1
  Si  Si16  1  0.999384  0.999384  0.500192  1
  Si  Si17  1  0.999384  0.500192  0.999384  1
  Si  Si18  1  0.500192  0.999384  0.999384  1
  C  C19  1  0.497493  0.497493  0.006088  1
  C  C20  1  0.497493  0.006088  0.497493  1
  C  C21  1  0.006088  0.497493  0.497493  1
