# generated using pymatgen
data_La8Pr8Cd2Hg2Ir3Pd
_symmetry_space_group_name_H-M   'P 1'
_cell_length_a   10.07279669
_cell_length_b   10.07279501
_cell_length_c   10.10535000
_cell_angle_alpha   60.08732767
_cell_angle_beta   60.08733975
_cell_angle_gamma   60.54035329
_symmetry_Int_Tables_number   1
_chemical_formula_structural   La8Pr8Cd2Hg2Ir3Pd
_chemical_formula_sum   'La8 Pr8 Cd2 Hg2 Ir3 Pd1'
_cell_volume   728.87889755
_cell_formula_units_Z   1
loop_
 _symmetry_equiv_pos_site_id
 _symmetry_equiv_pos_as_xyz
  1  'x, y, z'
loop_
 _atom_site_type_symbol
 _atom_site_label
 _atom_site_symmetry_multiplicity
 _atom_site_fract_x
 _atom_site_fract_y
 _atom_site_fract_z
 _atom_site_occupancy
  La  La0  1  0.344920  0.344920  0.348286  1
  La  La1  1  0.352160  0.352160  0.950535  1
  La  La2  1  0.354286  0.950691  0.351297  1
  La  La3  1  0.950691  0.354286  0.351297  1
  La  La4  1  0.803441  0.190204  0.191124  1
  La  La5  1  0.189107  0.809788  0.810063  1
  La  La6  1  0.190204  0.803441  0.191124  1
  La  La7  1  0.809788  0.189107  0.810063  1
  Pr  Pr8  1  0.192273  0.192273  0.803884  1
  Pr  Pr9  1  0.805332  0.805332  0.193744  1
  Pr  Pr10  1  0.937758  0.563595  0.564669  1
  Pr  Pr11  1  0.563831  0.936529  0.937070  1
  Pr  Pr12  1  0.563595  0.937758  0.564669  1
  Pr  Pr13  1  0.936529  0.563831  0.937070  1
  Pr  Pr14  1  0.561867  0.561867  0.941197  1
  Pr  Pr15  1  0.937976  0.937976  0.563437  1
  Cd  Cd16  1  0.578806  0.259077  0.580684  1
  Cd  Cd17  1  0.259077  0.578806  0.580684  1
  Hg  Hg18  1  0.584178  0.584178  0.584014  1
  Hg  Hg19  1  0.583750  0.583750  0.248214  1
  Ir  Ir20  1  0.138618  0.138618  0.574398  1
  Ir  Ir21  1  0.145892  0.574980  0.138958  1
  Ir  Ir22  1  0.574980  0.145892  0.138958  1
  Pd  Pd23  1  0.140937  0.140937  0.144554  1
