# generated using pymatgen
data_Tm5Si2Se3
_symmetry_space_group_name_H-M   'P 1'
_cell_length_a   7.01648930
_cell_length_b   7.01648857
_cell_length_c   7.02763300
_cell_angle_alpha   99.10547251
_cell_angle_beta   99.84040781
_cell_angle_gamma   132.09181808
_symmetry_Int_Tables_number   1
_chemical_formula_structural   Tm5Si2Se3
_chemical_formula_sum   'Tm5 Si2 Se3'
_cell_volume   234.69441274
_cell_formula_units_Z   1
loop_
 _symmetry_equiv_pos_site_id
 _symmetry_equiv_pos_as_xyz
  1  'x, y, z'
loop_
 _atom_site_type_symbol
 _atom_site_label
 _atom_site_symmetry_multiplicity
 _atom_site_fract_x
 _atom_site_fract_y
 _atom_site_fract_z
 _atom_site_occupancy
  Tm  Tm0  1  0.393092  0.785786  0.178877  1
  Tm  Tm1  1  0.002786  0.992994  0.995781  1
  Tm  Tm2  1  0.597326  0.207017  0.804343  1
  Tm  Tm3  1  0.206811  0.414201  0.621012  1
  Tm  Tm4  1  0.799904  0.600085  0.399989  1
  Si  Si5  1  0.503797  0.501260  0.005057  1
  Si  Si6  1  0.096174  0.698590  0.794765  1
  Se  Se7  1  0.695028  0.898694  0.593721  1
  Se  Se8  1  0.299944  0.099721  0.399665  1
  Se  Se9  1  0.905137  0.301652  0.206789  1
