# generated using pymatgen
data_Be6Ni2MoRu3
_symmetry_space_group_name_H-M   'P 1'
_cell_length_a   4.50777700
_cell_length_b   4.50777554
_cell_length_c   6.99380800
_cell_angle_alpha   90.00000000
_cell_angle_beta   90.00000000
_cell_angle_gamma   120.00000337
_symmetry_Int_Tables_number   1
_chemical_formula_structural   Be6Ni2MoRu3
_chemical_formula_sum   'Be6 Ni2 Mo1 Ru3'
_cell_volume   123.07476877
_cell_formula_units_Z   1
loop_
 _symmetry_equiv_pos_site_id
 _symmetry_equiv_pos_as_xyz
  1  'x, y, z'
loop_
 _atom_site_type_symbol
 _atom_site_label
 _atom_site_symmetry_multiplicity
 _atom_site_fract_x
 _atom_site_fract_y
 _atom_site_fract_z
 _atom_site_occupancy
  Be  Be0  1  0.827317  0.172683  0.255049  1
  Be  Be1  1  0.827317  0.654632  0.255049  1
  Be  Be2  1  0.345368  0.172683  0.255049  1
  Be  Be3  1  0.170109  0.829891  0.746810  1
  Be  Be4  1  0.170109  0.340219  0.746810  1
  Be  Be5  1  0.659781  0.829891  0.746810  1
  Ni  Ni6  1  0.000000  0.000000  0.501780  1
  Ni  Ni7  1  0.000000  0.000000  0.002765  1
  Mo  Mo8  1  0.333333  0.666667  0.061119  1
  Ru  Ru9  1  0.333333  0.666667  0.428691  1
  Ru  Ru10  1  0.666667  0.333333  0.551949  1
  Ru  Ru11  1  0.666667  0.333333  0.948120  1
