# generated using pymatgen
data_Ti6V4Si6N
_symmetry_space_group_name_H-M   'P 1'
_cell_length_a   7.33738900
_cell_length_b   7.33738951
_cell_length_c   4.93395900
_cell_angle_alpha   90.00000000
_cell_angle_beta   90.00000000
_cell_angle_gamma   120.00001120
_symmetry_Int_Tables_number   1
_chemical_formula_structural   Ti6V4Si6N
_chemical_formula_sum   'Ti6 V4 Si6 N1'
_cell_volume   230.04311410
_cell_formula_units_Z   1
loop_
 _symmetry_equiv_pos_site_id
 _symmetry_equiv_pos_as_xyz
  1  'x, y, z'
loop_
 _atom_site_type_symbol
 _atom_site_label
 _atom_site_symmetry_multiplicity
 _atom_site_fract_x
 _atom_site_fract_y
 _atom_site_fract_z
 _atom_site_occupancy
  Ti  Ti0  1  0.000000  0.763688  0.255450  1
  Ti  Ti1  1  0.236312  0.236312  0.255450  1
  Ti  Ti2  1  0.763688  0.000000  0.255450  1
  Ti  Ti3  1  0.000000  0.236312  0.744550  1
  Ti  Ti4  1  0.763688  0.763688  0.744550  1
  Ti  Ti5  1  0.236312  0.000000  0.744550  1
  V  V6  1  0.333333  0.666667  0.500000  1
  V  V7  1  0.666667  0.333333  0.500000  1
  V  V8  1  0.666667  0.333333  0.000000  1
  V  V9  1  0.333333  0.666667  0.000000  1
  Si  Si10  1  0.000000  0.405819  0.241456  1
  Si  Si11  1  0.594181  0.594181  0.241456  1
  Si  Si12  1  0.405819  0.000000  0.241456  1
  Si  Si13  1  0.000000  0.594181  0.758544  1
  Si  Si14  1  0.405819  0.405819  0.758544  1
  Si  Si15  1  0.594181  0.000000  0.758544  1
  N  N16  1  0.000000  0.000000  0.500000  1
