# generated using pymatgen
data_La20Si5Sb7
_symmetry_space_group_name_H-M   'P 1'
_cell_length_a   8.33103902
_cell_length_b   9.49657802
_cell_length_c   12.66347318
_cell_angle_alpha   90.07790039
_cell_angle_beta   90.22558798
_cell_angle_gamma   90.11466665
_symmetry_Int_Tables_number   1
_chemical_formula_structural   La20Si5Sb7
_chemical_formula_sum   'La20 Si5 Sb7'
_cell_volume   1001.87721974
_cell_formula_units_Z   1
loop_
 _symmetry_equiv_pos_site_id
 _symmetry_equiv_pos_as_xyz
  1  'x, y, z'
loop_
 _atom_site_type_symbol
 _atom_site_label
 _atom_site_symmetry_multiplicity
 _atom_site_fract_x
 _atom_site_fract_y
 _atom_site_fract_z
 _atom_site_occupancy
  La  La0  1  0.817638  0.951268  0.070416  1
  La  La1  1  0.306462  0.046947  0.435018  1
  La  La2  1  0.186729  0.450014  0.936763  1
  La  La3  1  0.686846  0.548757  0.560676  1
  La  La4  1  0.186767  0.049571  0.937998  1
  La  La5  1  0.688505  0.949787  0.561760  1
  La  La6  1  0.812373  0.549185  0.063967  1
  La  La7  1  0.313018  0.451871  0.436769  1
  La  La8  1  0.532587  0.251351  0.997812  1
  La  La9  1  0.028842  0.761846  0.497257  1
  La  La10  1  0.464867  0.747397  0.003935  1
  La  La11  1  0.962011  0.236007  0.492568  1
  La  La12  1  0.161870  0.758914  0.220066  1
  La  La13  1  0.672700  0.242355  0.284562  1
  La  La14  1  0.834189  0.250074  0.783316  1
  La  La15  1  0.334751  0.749744  0.713102  1
  La  La16  1  0.650896  0.761041  0.294599  1
  La  La17  1  0.135096  0.242320  0.208520  1
  La  La18  1  0.359372  0.250106  0.705863  1
  La  La19  1  0.860848  0.749744  0.794033  1
  Si  Si20  1  0.936649  0.992837  0.327485  1
  Si  Si21  1  0.914638  0.250996  0.021184  1
  Si  Si22  1  0.416454  0.750725  0.475816  1
  Si  Si23  1  0.084138  0.749460  0.979967  1
  Si  Si24  1  0.582224  0.248936  0.521273  1
  Sb  Sb25  1  0.430684  0.009510  0.172828  1
  Sb  Sb26  1  0.068497  0.491541  0.669447  1
  Sb  Sb27  1  0.569651  0.509540  0.825558  1
  Sb  Sb28  1  0.069785  0.008527  0.676483  1
  Sb  Sb29  1  0.569372  0.990642  0.826727  1
  Sb  Sb30  1  0.930904  0.508007  0.327032  1
  Sb  Sb31  1  0.430636  0.490981  0.177196  1
