# generated using pymatgen
data_LaEr4(RhO6)2
_symmetry_space_group_name_H-M   'P 1'
_cell_length_a   6.90215829
_cell_length_b   6.90215997
_cell_length_c   7.33296623
_cell_angle_alpha   74.62548309
_cell_angle_beta   74.62548900
_cell_angle_gamma   50.62506935
_symmetry_Int_Tables_number   1
_chemical_formula_structural   LaEr4(RhO6)2
_chemical_formula_sum   'La1 Er4 Rh2 O12'
_cell_volume   258.16928193
_cell_formula_units_Z   1
loop_
 _symmetry_equiv_pos_site_id
 _symmetry_equiv_pos_as_xyz
  1  'x, y, z'
loop_
 _atom_site_type_symbol
 _atom_site_label
 _atom_site_symmetry_multiplicity
 _atom_site_fract_x
 _atom_site_fract_y
 _atom_site_fract_z
 _atom_site_occupancy
  La  La0  1  0.000000  0.000000  0.500000  1
  Er  Er1  1  0.303095  0.303095  0.359507  1
  Er  Er2  1  0.696905  0.696905  0.640493  1
  Er  Er3  1  0.305330  0.305330  0.833196  1
  Er  Er4  1  0.694670  0.694670  0.166804  1
  Rh  Rh5  1  0.749358  0.250642  0.000000  1
  Rh  Rh6  1  0.250642  0.749358  0.000000  1
  O  O7  1  0.899000  0.432624  0.917440  1
  O  O8  1  0.432624  0.899000  0.917440  1
  O  O9  1  0.101000  0.567376  0.082560  1
  O  O10  1  0.567376  0.101000  0.082560  1
  O  O11  1  0.095179  0.583841  0.580322  1
  O  O12  1  0.583841  0.095179  0.580322  1
  O  O13  1  0.904821  0.416159  0.419678  1
  O  O14  1  0.416159  0.904821  0.419678  1
  O  O15  1  0.000182  0.000182  0.825332  1
  O  O16  1  0.999818  0.999818  0.174668  1
  O  O17  1  0.499520  0.499520  0.805901  1
  O  O18  1  0.500480  0.500480  0.194099  1
