# generated using pymatgen
data_Hf2ZrPa5(InPd2)4
_symmetry_space_group_name_H-M   'P 1'
_cell_length_a   7.54684255
_cell_length_b   7.54684363
_cell_length_c   7.35065400
_cell_angle_alpha   90.00000000
_cell_angle_beta   90.00000000
_cell_angle_gamma   90.22272843
_symmetry_Int_Tables_number   1
_chemical_formula_structural   Hf2ZrPa5(InPd2)4
_chemical_formula_sum   'Hf2 Zr1 Pa5 In4 Pd8'
_cell_volume   418.65216373
_cell_formula_units_Z   1
loop_
 _symmetry_equiv_pos_site_id
 _symmetry_equiv_pos_as_xyz
  1  'x, y, z'
loop_
 _atom_site_type_symbol
 _atom_site_label
 _atom_site_symmetry_multiplicity
 _atom_site_fract_x
 _atom_site_fract_y
 _atom_site_fract_z
 _atom_site_occupancy
  Hf  Hf0  1  0.688186  0.683873  0.000000  1
  Hf  Hf1  1  0.316127  0.311814  0.000000  1
  Zr  Zr2  1  0.189489  0.810511  0.500000  1
  Pa  Pa3  1  0.634773  0.638964  0.500000  1
  Pa  Pa4  1  0.812963  0.187037  0.500000  1
  Pa  Pa5  1  0.863396  0.136604  0.000000  1
  Pa  Pa6  1  0.137829  0.862171  0.000000  1
  Pa  Pa7  1  0.361036  0.365227  0.500000  1
  In  In8  1  0.002323  0.503941  0.240093  1
  In  In9  1  0.496059  0.997677  0.759907  1
  In  In10  1  0.496059  0.997677  0.240093  1
  In  In11  1  0.002323  0.503941  0.759907  1
  Pd  Pd12  1  0.634320  0.365680  0.200280  1
  Pd  Pd13  1  0.365819  0.634181  0.800626  1
  Pd  Pd14  1  0.862043  0.862462  0.704465  1
  Pd  Pd15  1  0.634320  0.365680  0.799720  1
  Pd  Pd16  1  0.365819  0.634181  0.199374  1
  Pd  Pd17  1  0.137538  0.137957  0.295535  1
  Pd  Pd18  1  0.862043  0.862462  0.295535  1
  Pd  Pd19  1  0.137538  0.137957  0.704465  1
