# generated using pymatgen
data_La10Fe2AgAu3
_symmetry_space_group_name_H-M   'P 1'
_cell_length_a   8.88237266
_cell_length_b   8.29168774
_cell_length_c   12.23664000
_cell_angle_alpha   90.03119877
_cell_angle_beta   90.41022330
_cell_angle_gamma   89.88542546
_symmetry_Int_Tables_number   1
_chemical_formula_structural   La10Fe2AgAu3
_chemical_formula_sum   'La20 Fe4 Ag2 Au6'
_cell_volume   901.20180178
_cell_formula_units_Z   2
loop_
 _symmetry_equiv_pos_site_id
 _symmetry_equiv_pos_as_xyz
  1  'x, y, z'
loop_
 _atom_site_type_symbol
 _atom_site_label
 _atom_site_symmetry_multiplicity
 _atom_site_fract_x
 _atom_site_fract_y
 _atom_site_fract_z
 _atom_site_occupancy
  La  La0  1  0.843939  0.752383  0.794424  1
  La  La1  1  0.156061  0.247617  0.205576  1
  La  La2  1  0.340935  0.247566  0.702521  1
  La  La3  1  0.659065  0.752434  0.297479  1
  La  La4  1  0.387946  0.752259  0.696364  1
  La  La5  1  0.612054  0.247741  0.303636  1
  La  La6  1  0.893640  0.247904  0.802903  1
  La  La7  1  0.106360  0.752096  0.197097  1
  La  La8  1  0.955180  0.750406  0.491569  1
  La  La9  1  0.044820  0.249594  0.508431  1
  La  La10  1  0.449585  0.241906  0.011393  1
  La  La11  1  0.550415  0.758094  0.988607  1
  La  La12  1  0.672943  0.034184  0.570441  1
  La  La13  1  0.327057  0.965816  0.429559  1
  La  La14  1  0.172831  0.962648  0.930825  1
  La  La15  1  0.326489  0.531723  0.432974  1
  La  La16  1  0.827169  0.037352  0.069175  1
  La  La17  1  0.673511  0.468277  0.567026  1
  La  La18  1  0.827233  0.468507  0.069697  1
  La  La19  1  0.172767  0.531493  0.930303  1
  Fe  Fe20  1  0.566627  0.749467  0.510468  1
  Fe  Fe21  1  0.433373  0.250533  0.489532  1
  Fe  Fe22  1  0.068084  0.249735  0.991509  1
  Fe  Fe23  1  0.931916  0.750265  0.008491  1
  Ag  Ag24  1  0.584697  0.462249  0.829317  1
  Ag  Ag25  1  0.415303  0.537751  0.170683  1
  Au  Au26  1  0.082298  0.530325  0.673757  1
  Au  Au27  1  0.415538  0.962627  0.174205  1
  Au  Au28  1  0.917702  0.469675  0.326243  1
  Au  Au29  1  0.584462  0.037373  0.825795  1
  Au  Au30  1  0.916746  0.031101  0.326305  1
  Au  Au31  1  0.083254  0.968899  0.673695  1
