# generated using pymatgen
data_YbSm3ReB16W3
_symmetry_space_group_name_H-M   'P 1'
_cell_length_a   3.64058400
_cell_length_b   6.07583192
_cell_length_c   11.74356607
_cell_angle_alpha   90.05605307
_cell_angle_beta   90.00000000
_cell_angle_gamma   90.00000000
_symmetry_Int_Tables_number   1
_chemical_formula_structural   YbSm3ReB16W3
_chemical_formula_sum   'Yb1 Sm3 Re1 B16 W3'
_cell_volume   259.76258363
_cell_formula_units_Z   1
loop_
 _symmetry_equiv_pos_site_id
 _symmetry_equiv_pos_as_xyz
  1  'x, y, z'
loop_
 _atom_site_type_symbol
 _atom_site_label
 _atom_site_symmetry_multiplicity
 _atom_site_fract_x
 _atom_site_fract_y
 _atom_site_fract_z
 _atom_site_occupancy
  Yb  Yb0  1  0.500000  0.373866  0.150277  1
  Sm  Sm1  1  0.500000  0.626729  0.850591  1
  Sm  Sm2  1  0.500000  0.125702  0.649242  1
  Sm  Sm3  1  0.500000  0.874094  0.348614  1
  Re  Re4  1  0.500000  0.869904  0.083542  1
  B  B5  1  0.000000  0.114064  0.049852  1
  B  B6  1  0.000000  0.886125  0.955939  1
  B  B7  1  0.000000  0.386925  0.545792  1
  B  B8  1  0.000000  0.612622  0.452354  1
  B  B9  1  0.000000  0.135639  0.466676  1
  B  B10  1  0.000000  0.864640  0.531554  1
  B  B11  1  0.000000  0.365959  0.970907  1
  B  B12  1  0.000000  0.636315  0.034300  1
  B  B13  1  0.000000  0.023904  0.191256  1
  B  B14  1  0.000000  0.974051  0.808977  1
  B  B15  1  0.000000  0.474940  0.691804  1
  B  B16  1  0.000000  0.524035  0.305723  1
  B  B17  1  0.000000  0.216495  0.312035  1
  B  B18  1  0.000000  0.783950  0.685877  1
  B  B19  1  0.000000  0.284590  0.815155  1
  B  B20  1  0.000000  0.716670  0.183971  1
  W  W21  1  0.500000  0.370776  0.413832  1
  W  W22  1  0.500000  0.628586  0.583692  1
  W  W23  1  0.500000  0.129419  0.918039  1
