# generated using pymatgen
data_Li4Ti3SbRh8
_symmetry_space_group_name_H-M   'P 1'
_cell_length_a   6.06476904
_cell_length_b   6.07058200
_cell_length_c   6.06463604
_cell_angle_alpha   90.00001888
_cell_angle_beta   90.01250838
_cell_angle_gamma   90.00022663
_symmetry_Int_Tables_number   1
_chemical_formula_structural   Li4Ti3SbRh8
_chemical_formula_sum   'Li4 Ti3 Sb1 Rh8'
_cell_volume   223.27974526
_cell_formula_units_Z   1
loop_
 _symmetry_equiv_pos_site_id
 _symmetry_equiv_pos_as_xyz
  1  'x, y, z'
loop_
 _atom_site_type_symbol
 _atom_site_label
 _atom_site_symmetry_multiplicity
 _atom_site_fract_x
 _atom_site_fract_y
 _atom_site_fract_z
 _atom_site_occupancy
  Li  Li0  1  0.499968  0.749999  0.249966  1
  Li  Li1  1  0.000035  0.250003  0.249987  1
  Li  Li2  1  0.000015  0.749997  0.750030  1
  Li  Li3  1  0.499961  0.250003  0.750024  1
  Ti  Ti4  1  0.499977  0.250001  0.250017  1
  Ti  Ti5  1  0.000003  0.750002  0.250021  1
  Ti  Ti6  1  0.000010  0.250000  0.749973  1
  Sb  Sb7  1  0.500016  0.750001  0.749992  1
  Rh  Rh8  1  0.247359  0.002682  0.002625  1
  Rh  Rh9  1  0.752631  0.002691  0.002635  1
  Rh  Rh10  1  0.752644  0.497299  0.002644  1
  Rh  Rh11  1  0.247359  0.497322  0.002623  1
  Rh  Rh12  1  0.247368  0.497335  0.497364  1
  Rh  Rh13  1  0.247374  0.002672  0.497371  1
  Rh  Rh14  1  0.752639  0.497307  0.497363  1
  Rh  Rh15  1  0.752638  0.002687  0.497366  1
