# generated using pymatgen
data_Dy6Er2Ti11Si16Au
_symmetry_space_group_name_H-M   'P 1'
_cell_length_a   7.06622939
_cell_length_b   7.06468076
_cell_length_c   12.88547910
_cell_angle_alpha   90.13356749
_cell_angle_beta   89.86829421
_cell_angle_gamma   89.63155347
_symmetry_Int_Tables_number   1
_chemical_formula_structural   Dy6Er2Ti11Si16Au
_chemical_formula_sum   'Dy6 Er2 Ti11 Si16 Au1'
_cell_volume   643.23478433
_cell_formula_units_Z   1
loop_
 _symmetry_equiv_pos_site_id
 _symmetry_equiv_pos_as_xyz
  1  'x, y, z'
loop_
 _atom_site_type_symbol
 _atom_site_label
 _atom_site_symmetry_multiplicity
 _atom_site_fract_x
 _atom_site_fract_y
 _atom_site_fract_z
 _atom_site_occupancy
  Dy  Dy0  1  0.340669  0.002312  0.466765  1
  Dy  Dy1  1  0.496907  0.841079  0.716824  1
  Dy  Dy2  1  0.501527  0.157452  0.214062  1
  Dy  Dy3  1  0.841297  0.496915  0.283210  1
  Dy  Dy4  1  0.157256  0.501740  0.785575  1
  Dy  Dy5  1  0.656301  0.001301  0.968706  1
  Er  Er6  1  0.001508  0.341040  0.533367  1
  Er  Er7  1  0.001322  0.656571  0.031398  1
  Ti  Ti8  1  0.174857  0.825767  0.249491  1
  Ti  Ti9  1  0.826260  0.175152  0.750510  1
  Ti  Ti10  1  0.672773  0.672483  0.500047  1
  Ti  Ti11  1  0.147758  0.008018  0.877241  1
  Ti  Ti12  1  0.495093  0.650959  0.122966  1
  Ti  Ti13  1  0.507486  0.350483  0.625512  1
  Ti  Ti14  1  0.651366  0.495408  0.877167  1
  Ti  Ti15  1  0.350472  0.506905  0.374378  1
  Ti  Ti16  1  0.850015  0.991217  0.374468  1
  Ti  Ti17  1  0.007807  0.147621  0.122774  1
  Ti  Ti18  1  0.991534  0.849799  0.625565  1
  Si  Si19  1  0.200744  0.132847  0.684474  1
  Si  Si20  1  0.373406  0.719268  0.929358  1
  Si  Si21  1  0.631680  0.294106  0.433013  1
  Si  Si22  1  0.720986  0.375063  0.070981  1
  Si  Si23  1  0.293512  0.630147  0.567145  1
  Si  Si24  1  0.798880  0.866737  0.182680  1
  Si  Si25  1  0.132227  0.201519  0.315342  1
  Si  Si26  1  0.867423  0.798206  0.817312  1
  Si  Si27  1  0.285326  0.936946  0.066029  1
  Si  Si28  1  0.547194  0.790350  0.314411  1
  Si  Si29  1  0.454202  0.208861  0.809699  1
  Si  Si30  1  0.790846  0.546730  0.685339  1
  Si  Si31  1  0.208286  0.454520  0.189880  1
  Si  Si32  1  0.709378  0.048250  0.564582  1
  Si  Si33  1  0.938364  0.286991  0.934213  1
  Si  Si34  1  0.047670  0.708021  0.435695  1
  Au  Au35  1  0.327670  0.329220  0.999821  1
