# generated using pymatgen
data_Tb19ErCo3Bi8Ru
_symmetry_space_group_name_H-M   'P 1'
_cell_length_a   8.05274599
_cell_length_b   8.92639511
_cell_length_c   12.47748798
_cell_angle_alpha   89.97394825
_cell_angle_beta   90.18559557
_cell_angle_gamma   89.94917086
_symmetry_Int_Tables_number   1
_chemical_formula_structural   Tb19ErCo3Bi8Ru
_chemical_formula_sum   'Tb19 Er1 Co3 Bi8 Ru1'
_cell_volume   896.90154428
_cell_formula_units_Z   1
loop_
 _symmetry_equiv_pos_site_id
 _symmetry_equiv_pos_as_xyz
  1  'x, y, z'
loop_
 _atom_site_type_symbol
 _atom_site_label
 _atom_site_symmetry_multiplicity
 _atom_site_fract_x
 _atom_site_fract_y
 _atom_site_fract_z
 _atom_site_occupancy
  Tb  Tb0  1  0.847739  0.750162  0.800581  1
  Tb  Tb1  1  0.151444  0.249978  0.198174  1
  Tb  Tb2  1  0.349007  0.249565  0.698287  1
  Tb  Tb3  1  0.652630  0.750188  0.297144  1
  Tb  Tb4  1  0.378639  0.750391  0.693335  1
  Tb  Tb5  1  0.619348  0.249428  0.310205  1
  Tb  Tb6  1  0.880489  0.249857  0.810212  1
  Tb  Tb7  1  0.118752  0.750050  0.188439  1
  Tb  Tb8  1  0.951640  0.750338  0.503767  1
  Tb  Tb9  1  0.046898  0.249833  0.496814  1
  Tb  Tb10  1  0.453839  0.249980  0.997296  1
  Tb  Tb11  1  0.546541  0.749987  0.002547  1
  Tb  Tb12  1  0.322686  0.966831  0.436814  1
  Tb  Tb13  1  0.176703  0.966461  0.937007  1
  Tb  Tb14  1  0.322223  0.532404  0.436528  1
  Tb  Tb15  1  0.822691  0.035064  0.062845  1
  Tb  Tb16  1  0.677581  0.459917  0.564145  1
  Tb  Tb17  1  0.822681  0.464989  0.062782  1
  Tb  Tb18  1  0.176668  0.533505  0.937131  1
  Er  Er19  1  0.675975  0.040828  0.563920  1
  Co  Co20  1  0.438180  0.249652  0.491335  1
  Co  Co21  1  0.059561  0.249985  0.991801  1
  Co  Co22  1  0.939132  0.749981  0.007570  1
  Bi  Bi23  1  0.571832  0.491984  0.826484  1
  Bi  Bi24  1  0.427639  0.507540  0.173828  1
  Bi  Bi25  1  0.072230  0.507316  0.674701  1
  Bi  Bi26  1  0.427458  0.992410  0.173740  1
  Bi  Bi27  1  0.929180  0.492298  0.325633  1
  Bi  Bi28  1  0.572168  0.008072  0.826378  1
  Bi  Bi29  1  0.929500  0.007835  0.325601  1
  Bi  Bi30  1  0.071506  0.992638  0.674623  1
  Ru  Ru31  1  0.567439  0.750531  0.510337  1
