# generated using pymatgen
data_CaAg2(SO4)4
_symmetry_space_group_name_H-M   'P 1'
_cell_length_a   6.50314000
_cell_length_b   6.50314007
_cell_length_c   8.93886529
_cell_angle_alpha   74.85860362
_cell_angle_beta   74.85860297
_cell_angle_gamma   88.40508705
_symmetry_Int_Tables_number   1
_chemical_formula_structural   CaAg2(SO4)4
_chemical_formula_sum   'Ca1 Ag2 S4 O16'
_cell_volume   351.90909326
_cell_formula_units_Z   1
loop_
 _symmetry_equiv_pos_site_id
 _symmetry_equiv_pos_as_xyz
  1  'x, y, z'
loop_
 _atom_site_type_symbol
 _atom_site_label
 _atom_site_symmetry_multiplicity
 _atom_site_fract_x
 _atom_site_fract_y
 _atom_site_fract_z
 _atom_site_occupancy
  Ca  Ca0  1  0.000000  0.000000  0.000000  1
  Ag  Ag1  1  0.000000  0.000000  0.500000  1
  Ag  Ag2  1  0.500000  0.500000  0.500000  1
  S  S3  1  0.086032  0.589011  0.742734  1
  S  S4  1  0.589011  0.086032  0.742734  1
  S  S5  1  0.913968  0.410989  0.257266  1
  S  S6  1  0.410989  0.913968  0.257266  1
  O  O7  1  0.326613  0.632763  0.676878  1
  O  O8  1  0.632763  0.326613  0.676878  1
  O  O9  1  0.673387  0.367237  0.323122  1
  O  O10  1  0.367237  0.673387  0.323122  1
  O  O11  1  0.021888  0.709551  0.862402  1
  O  O12  1  0.709551  0.021888  0.862402  1
  O  O13  1  0.978112  0.290449  0.137598  1
  O  O14  1  0.290449  0.978112  0.137598  1
  O  O15  1  0.982794  0.673088  0.603994  1
  O  O16  1  0.673088  0.982794  0.603994  1
  O  O17  1  0.017206  0.326912  0.396006  1
  O  O18  1  0.326912  0.017206  0.396006  1
  O  O19  1  0.032397  0.361115  0.797945  1
  O  O20  1  0.361115  0.032397  0.797945  1
  O  O21  1  0.967603  0.638885  0.202055  1
  O  O22  1  0.638885  0.967603  0.202055  1
