# generated using pymatgen
data_Ho5Er11Tl6NiRu
_symmetry_space_group_name_H-M   'P 1'
_cell_length_a   10.30420512
_cell_length_b   10.30282582
_cell_length_c   7.06561303
_cell_angle_alpha   89.99598027
_cell_angle_beta   90.00494494
_cell_angle_gamma   119.97839018
_symmetry_Int_Tables_number   1
_chemical_formula_structural   Ho5Er11Tl6NiRu
_chemical_formula_sum   'Ho5 Er11 Tl6 Ni1 Ru1'
_cell_volume   649.74935953
_cell_formula_units_Z   1
loop_
 _symmetry_equiv_pos_site_id
 _symmetry_equiv_pos_as_xyz
  1  'x, y, z'
loop_
 _atom_site_type_symbol
 _atom_site_label
 _atom_site_symmetry_multiplicity
 _atom_site_fract_x
 _atom_site_fract_y
 _atom_site_fract_z
 _atom_site_occupancy
  Ho  Ho0  1  0.535481  0.070648  0.796132  1
  Ho  Ho1  1  0.929314  0.464497  0.796065  1
  Ho  Ho2  1  0.535302  0.464699  0.796528  1
  Ho  Ho3  1  0.462991  0.926201  0.296085  1
  Ho  Ho4  1  0.073841  0.537065  0.296014  1
  Er  Er5  1  0.462736  0.537241  0.296484  1
  Er  Er6  1  0.822162  0.645060  0.493787  1
  Er  Er7  1  0.354785  0.177713  0.493760  1
  Er  Er8  1  0.822627  0.177271  0.493448  1
  Er  Er9  1  0.177106  0.353747  0.995578  1
  Er  Er10  1  0.646412  0.822953  0.995620  1
  Er  Er11  1  0.176972  0.823189  0.994873  1
  Er  Er12  1  0.666517  0.333474  0.182404  1
  Er  Er13  1  0.333495  0.666565  0.677732  1
  Er  Er14  1  0.999936  0.000095  0.772786  1
  Er  Er15  1  0.000144  0.999951  0.277443  1
  Tl  Tl16  1  0.837371  0.674091  0.041389  1
  Tl  Tl17  1  0.325972  0.162854  0.041378  1
  Tl  Tl18  1  0.837138  0.162994  0.041153  1
  Tl  Tl19  1  0.161898  0.324021  0.543203  1
  Tl  Tl20  1  0.675954  0.837973  0.543182  1
  Tl  Tl21  1  0.161681  0.838104  0.543216  1
  Ni  Ni22  1  0.666562  0.333047  0.562950  1
  Ru  Ru23  1  0.333602  0.666548  0.064699  1
