# generated using pymatgen
data_Hf4NbSn3B
_symmetry_space_group_name_H-M   'P 1'
_cell_length_a   5.69065000
_cell_length_b   8.44214645
_cell_length_c   8.44214700
_cell_angle_alpha   119.99999038
_cell_angle_beta   90.00000000
_cell_angle_gamma   90.00000000
_symmetry_Int_Tables_number   1
_chemical_formula_structural   Hf4NbSn3B
_chemical_formula_sum   'Hf8 Nb2 Sn6 B2'
_cell_volume   351.23544898
_cell_formula_units_Z   2
loop_
 _symmetry_equiv_pos_site_id
 _symmetry_equiv_pos_as_xyz
  1  'x, y, z'
loop_
 _atom_site_type_symbol
 _atom_site_label
 _atom_site_symmetry_multiplicity
 _atom_site_fract_x
 _atom_site_fract_y
 _atom_site_fract_z
 _atom_site_occupancy
  Hf  Hf0  1  0.749274  0.769249  0.769249  1
  Hf  Hf1  1  0.250726  0.230751  0.230751  1
  Hf  Hf2  1  0.749274  0.000000  0.230751  1
  Hf  Hf3  1  0.250726  0.000000  0.769249  1
  Hf  Hf4  1  0.749274  0.230751  0.000000  1
  Hf  Hf5  1  0.250726  0.769249  0.000000  1
  Hf  Hf6  1  0.500000  0.333333  0.666667  1
  Hf  Hf7  1  0.500000  0.666667  0.333333  1
  Nb  Nb8  1  0.000000  0.666667  0.333333  1
  Nb  Nb9  1  0.000000  0.333333  0.666667  1
  Sn  Sn10  1  0.755837  0.401577  0.401577  1
  Sn  Sn11  1  0.244163  0.598423  0.598423  1
  Sn  Sn12  1  0.755837  0.000000  0.598423  1
  Sn  Sn13  1  0.244163  0.000000  0.401577  1
  Sn  Sn14  1  0.755837  0.598423  0.000000  1
  Sn  Sn15  1  0.244163  0.401577  0.000000  1
  B  B16  1  0.000000  0.000000  0.000000  1
  B  B17  1  0.500000  0.000000  0.000000  1
