# generated using pymatgen
data_Na4InSn3Au4
_symmetry_space_group_name_H-M   'P 1'
_cell_length_a   4.60966200
_cell_length_b   7.67924888
_cell_length_c   8.27654195
_cell_angle_alpha   89.94510162
_cell_angle_beta   90.00000000
_cell_angle_gamma   90.00000000
_symmetry_Int_Tables_number   1
_chemical_formula_structural   Na4InSn3Au4
_chemical_formula_sum   'Na4 In1 Sn3 Au4'
_cell_volume   292.97903663
_cell_formula_units_Z   1
loop_
 _symmetry_equiv_pos_site_id
 _symmetry_equiv_pos_as_xyz
  1  'x, y, z'
loop_
 _atom_site_type_symbol
 _atom_site_label
 _atom_site_symmetry_multiplicity
 _atom_site_fract_x
 _atom_site_fract_y
 _atom_site_fract_z
 _atom_site_occupancy
  Na  Na0  1  0.250000  0.017064  0.826943  1
  Na  Na1  1  0.250000  0.515949  0.672570  1
  Na  Na2  1  0.750000  0.483811  0.327266  1
  Na  Na3  1  0.750000  0.982745  0.173064  1
  In  In4  1  0.250000  0.657571  0.064598  1
  Sn  Sn5  1  0.250000  0.158848  0.437824  1
  Sn  Sn6  1  0.750000  0.845308  0.561407  1
  Sn  Sn7  1  0.750000  0.342936  0.937393  1
  Au  Au8  1  0.750000  0.709661  0.870466  1
  Au  Au9  1  0.250000  0.285647  0.125068  1
  Au  Au10  1  0.250000  0.789404  0.376405  1
  Au  Au11  1  0.750000  0.211057  0.626997  1
