# generated using pymatgen
data_Pr5Ho11Cd4TcPt3
_symmetry_space_group_name_H-M   'P 1'
_cell_length_a   9.79488842
_cell_length_b   9.78932403
_cell_length_c   9.78932364
_cell_angle_alpha   59.48853979
_cell_angle_beta   59.54235311
_cell_angle_gamma   59.54234668
_symmetry_Int_Tables_number   1
_chemical_formula_structural   Pr5Ho11Cd4TcPt3
_chemical_formula_sum   'Pr5 Ho11 Cd4 Tc1 Pt3'
_cell_volume   656.54932824
_cell_formula_units_Z   1
loop_
 _symmetry_equiv_pos_site_id
 _symmetry_equiv_pos_as_xyz
  1  'x, y, z'
loop_
 _atom_site_type_symbol
 _atom_site_label
 _atom_site_symmetry_multiplicity
 _atom_site_fract_x
 _atom_site_fract_y
 _atom_site_fract_z
 _atom_site_occupancy
  Pr  Pr0  1  0.552044  0.942339  0.942339  1
  Pr  Pr1  1  0.565161  0.935059  0.562687  1
  Pr  Pr2  1  0.940924  0.554877  0.936882  1
  Pr  Pr3  1  0.565161  0.562687  0.935059  1
  Pr  Pr4  1  0.940924  0.936882  0.554877  1
  Ho  Ho5  1  0.351265  0.351068  0.351068  1
  Ho  Ho6  1  0.347794  0.350713  0.954901  1
  Ho  Ho7  1  0.347794  0.954901  0.350713  1
  Ho  Ho8  1  0.951843  0.349802  0.349802  1
  Ho  Ho9  1  0.817824  0.185302  0.185302  1
  Ho  Ho10  1  0.184455  0.811997  0.811997  1
  Ho  Ho11  1  0.184459  0.816388  0.187810  1
  Ho  Ho12  1  0.811884  0.185966  0.810910  1
  Ho  Ho13  1  0.184459  0.187810  0.816388  1
  Ho  Ho14  1  0.811884  0.810910  0.185966  1
  Ho  Ho15  1  0.941271  0.557753  0.557753  1
  Cd  Cd16  1  0.582601  0.578393  0.578393  1
  Cd  Cd17  1  0.578443  0.579349  0.261043  1
  Cd  Cd18  1  0.578443  0.261043  0.579349  1
  Cd  Cd19  1  0.258718  0.578423  0.578423  1
  Tc  Tc20  1  0.143682  0.143138  0.143138  1
  Pt  Pt21  1  0.142316  0.147042  0.574289  1
  Pt  Pt22  1  0.142316  0.574289  0.147042  1
  Pt  Pt23  1  0.574332  0.143869  0.143869  1
