# generated using pymatgen
data_Dy3Si2IrRh2
_symmetry_space_group_name_H-M   'P 1'
_cell_length_a   5.53587100
_cell_length_b   7.54254400
_cell_length_c   14.79897000
_cell_angle_alpha   90.00000000
_cell_angle_beta   90.00000000
_cell_angle_gamma   90.00101610
_symmetry_Int_Tables_number   1
_chemical_formula_structural   Dy3Si2IrRh2
_chemical_formula_sum   'Dy12 Si8 Ir4 Rh8'
_cell_volume   617.92434158
_cell_formula_units_Z   4
loop_
 _symmetry_equiv_pos_site_id
 _symmetry_equiv_pos_as_xyz
  1  'x, y, z'
loop_
 _atom_site_type_symbol
 _atom_site_label
 _atom_site_symmetry_multiplicity
 _atom_site_fract_x
 _atom_site_fract_y
 _atom_site_fract_z
 _atom_site_occupancy
  Dy  Dy0  1  0.895780  0.830445  0.750000  1
  Dy  Dy1  1  0.867030  0.525778  0.391032  1
  Dy  Dy2  1  0.367041  0.974226  0.608963  1
  Dy  Dy3  1  0.132956  0.474233  0.891035  1
  Dy  Dy4  1  0.632965  0.025766  0.108969  1
  Dy  Dy5  1  0.104201  0.169553  0.250000  1
  Dy  Dy6  1  0.132956  0.474233  0.608965  1
  Dy  Dy7  1  0.632965  0.025766  0.391031  1
  Dy  Dy8  1  0.395806  0.669560  0.250000  1
  Dy  Dy9  1  0.367041  0.974226  0.891037  1
  Dy  Dy10  1  0.604222  0.330444  0.750000  1
  Dy  Dy11  1  0.867030  0.525778  0.108968  1
  Si  Si12  1  0.624462  0.624747  0.896466  1
  Si  Si13  1  0.875543  0.124739  0.603539  1
  Si  Si14  1  0.124452  0.875250  0.103531  1
  Si  Si15  1  0.124452  0.875250  0.396469  1
  Si  Si16  1  0.624462  0.624747  0.603534  1
  Si  Si17  1  0.875543  0.124739  0.896461  1
  Si  Si18  1  0.375554  0.375258  0.103533  1
  Si  Si19  1  0.375554  0.375258  0.396467  1
  Ir  Ir20  1  0.407116  0.680836  0.750000  1
  Ir  Ir21  1  0.592861  0.319166  0.250000  1
  Ir  Ir22  1  0.907138  0.819167  0.250000  1
  Ir  Ir23  1  0.092884  0.180835  0.750000  1
  Rh  Rh24  1  0.599595  0.332681  0.961914  1
  Rh  Rh25  1  0.099602  0.167320  0.461881  1
  Rh  Rh26  1  0.099602  0.167320  0.038119  1
  Rh  Rh27  1  0.900405  0.832689  0.961912  1
  Rh  Rh28  1  0.900405  0.832689  0.538088  1
  Rh  Rh29  1  0.599595  0.332681  0.538086  1
  Rh  Rh30  1  0.400391  0.667311  0.461882  1
  Rh  Rh31  1  0.400391  0.667311  0.038118  1
