# generated using pymatgen
data_CeMn2O6
_symmetry_space_group_name_H-M   'P 1'
_cell_length_a   4.99856061
_cell_length_b   7.02439890
_cell_length_c   7.02439929
_cell_angle_alpha   76.24791693
_cell_angle_beta   68.98445331
_cell_angle_gamma   68.98444821
_symmetry_Int_Tables_number   1
_chemical_formula_structural   CeMn2O6
_chemical_formula_sum   'Ce2 Mn4 O12'
_cell_volume   213.22820152
_cell_formula_units_Z   2
loop_
 _symmetry_equiv_pos_site_id
 _symmetry_equiv_pos_as_xyz
  1  'x, y, z'
loop_
 _atom_site_type_symbol
 _atom_site_label
 _atom_site_symmetry_multiplicity
 _atom_site_fract_x
 _atom_site_fract_y
 _atom_site_fract_z
 _atom_site_occupancy
  Ce  Ce0  1  0.250000  0.751180  0.248820  1
  Ce  Ce1  1  0.750000  0.248820  0.751180  1
  Mn  Mn2  1  0.998287  0.334230  0.167000  1
  Mn  Mn3  1  0.501713  0.833000  0.665770  1
  Mn  Mn4  1  0.001713  0.665770  0.833000  1
  Mn  Mn5  1  0.498287  0.167000  0.334230  1
  O  O6  1  0.472589  0.891548  0.391183  1
  O  O7  1  0.027411  0.608817  0.108452  1
  O  O8  1  0.527411  0.108452  0.608817  1
  O  O9  1  0.972589  0.391183  0.891548  1
  O  O10  1  0.069382  0.288488  0.428122  1
  O  O11  1  0.430618  0.571878  0.711512  1
  O  O12  1  0.930618  0.711512  0.571878  1
  O  O13  1  0.569382  0.428122  0.288488  1
  O  O14  1  0.926621  0.073833  0.210927  1
  O  O15  1  0.573379  0.789073  0.926167  1
  O  O16  1  0.073379  0.926167  0.789073  1
  O  O17  1  0.426621  0.210927  0.073833  1
