# generated using pymatgen
data_Hf3Sc(NbP)4
_symmetry_space_group_name_H-M   'P 1'
_cell_length_a   3.54318700
_cell_length_b   6.90979892
_cell_length_c   8.33231154
_cell_angle_alpha   89.60522345
_cell_angle_beta   90.00000000
_cell_angle_gamma   90.00000000
_symmetry_Int_Tables_number   1
_chemical_formula_structural   Hf3Sc(NbP)4
_chemical_formula_sum   'Hf3 Sc1 Nb4 P4'
_cell_volume   203.99272253
_cell_formula_units_Z   1
loop_
 _symmetry_equiv_pos_site_id
 _symmetry_equiv_pos_as_xyz
  1  'x, y, z'
loop_
 _atom_site_type_symbol
 _atom_site_label
 _atom_site_symmetry_multiplicity
 _atom_site_fract_x
 _atom_site_fract_y
 _atom_site_fract_z
 _atom_site_occupancy
  Hf  Hf0  1  0.250000  0.532970  0.833384  1
  Hf  Hf1  1  0.750000  0.467115  0.167523  1
  Hf  Hf2  1  0.750000  0.967035  0.332301  1
  Sc  Sc3  1  0.250000  0.032546  0.666164  1
  Nb  Nb4  1  0.750000  0.859072  0.940878  1
  Nb  Nb5  1  0.250000  0.639782  0.439836  1
  Nb  Nb6  1  0.750000  0.360801  0.559087  1
  Nb  Nb7  1  0.250000  0.141728  0.060766  1
  P  P8  1  0.250000  0.262663  0.356998  1
  P  P9  1  0.250000  0.762902  0.143655  1
  P  P10  1  0.750000  0.736788  0.644238  1
  P  P11  1  0.750000  0.236599  0.855169  1
