# generated using pymatgen
data_Cs4Bi2SbAsPt2
_symmetry_space_group_name_H-M   'P 1'
_cell_length_a   8.28977368
_cell_length_b   8.52550199
_cell_length_c   7.11488300
_cell_angle_alpha   90.00000000
_cell_angle_beta   90.00000000
_cell_angle_gamma   123.47105245
_symmetry_Int_Tables_number   1
_chemical_formula_structural   Cs4Bi2SbAsPt2
_chemical_formula_sum   'Cs4 Bi2 Sb1 As1 Pt2'
_cell_volume   419.45187167
_cell_formula_units_Z   1
loop_
 _symmetry_equiv_pos_site_id
 _symmetry_equiv_pos_as_xyz
  1  'x, y, z'
loop_
 _atom_site_type_symbol
 _atom_site_label
 _atom_site_symmetry_multiplicity
 _atom_site_fract_x
 _atom_site_fract_y
 _atom_site_fract_z
 _atom_site_occupancy
  Cs  Cs0  1  0.809252  0.201923  0.250000  1
  Cs  Cs1  1  0.234361  0.834993  0.750000  1
  Cs  Cs2  1  0.426650  0.642445  0.250000  1
  Cs  Cs3  1  0.644096  0.443113  0.750000  1
  Bi  Bi4  1  0.074848  0.257143  0.750000  1
  Bi  Bi5  1  0.266590  0.104964  0.250000  1
  Sb  Sb6  1  0.929280  0.713081  0.250000  1
  As  As7  1  0.721242  0.910263  0.750000  1
  Pt  Pt8  1  0.946841  0.946038  0.995252  1
  Pt  Pt9  1  0.946841  0.946038  0.504748  1
