# generated using pymatgen
data_Sc10Tl3In5CoPt3
_symmetry_space_group_name_H-M   'P 1'
_cell_length_a   3.40569500
_cell_length_b   7.76473240
_cell_length_c   17.58871393
_cell_angle_alpha   90.00762993
_cell_angle_beta   90.00000000
_cell_angle_gamma   90.00000000
_symmetry_Int_Tables_number   1
_chemical_formula_structural   Sc10Tl3In5CoPt3
_chemical_formula_sum   'Sc10 Tl3 In5 Co1 Pt3'
_cell_volume   465.12140517
_cell_formula_units_Z   1
loop_
 _symmetry_equiv_pos_site_id
 _symmetry_equiv_pos_as_xyz
  1  'x, y, z'
loop_
 _atom_site_type_symbol
 _atom_site_label
 _atom_site_symmetry_multiplicity
 _atom_site_fract_x
 _atom_site_fract_y
 _atom_site_fract_z
 _atom_site_occupancy
  Sc  Sc0  1  0.500000  0.498928  0.498016  1
  Sc  Sc1  1  0.500000  0.997046  0.001897  1
  Sc  Sc2  1  0.500000  0.875598  0.413309  1
  Sc  Sc3  1  0.500000  0.122766  0.583793  1
  Sc  Sc4  1  0.500000  0.623465  0.917804  1
  Sc  Sc5  1  0.500000  0.381683  0.091422  1
  Sc  Sc6  1  0.500000  0.261323  0.274347  1
  Sc  Sc7  1  0.500000  0.753114  0.721029  1
  Sc  Sc8  1  0.500000  0.253777  0.779433  1
  Sc  Sc9  1  0.500000  0.731789  0.219779  1
  Tl  Tl10  1  0.000000  0.204873  0.433215  1
  Tl  Tl11  1  0.000000  0.793629  0.563101  1
  Tl  Tl12  1  0.000000  0.295326  0.938671  1
  In  In13  1  0.000000  0.701603  0.069930  1
  In  In14  1  0.000000  0.569966  0.348028  1
  In  In15  1  0.000000  0.426697  0.647212  1
  In  In16  1  0.000000  0.926869  0.853492  1
  In  In17  1  0.000000  0.075573  0.148449  1
  Co  Co18  1  0.000000  0.464280  0.194096  1
  Pt  Pt19  1  0.000000  0.959467  0.302202  1
  Pt  Pt20  1  0.000000  0.041118  0.696104  1
  Pt  Pt21  1  0.000000  0.541110  0.804673  1
