# generated using pymatgen
data_Y5TmSi5SnRh12
_symmetry_space_group_name_H-M   'P 1'
_cell_length_a   5.60766500
_cell_length_b   5.60766445
_cell_length_c   15.27537700
_cell_angle_alpha   90.00000000
_cell_angle_beta   90.00000000
_cell_angle_gamma   119.99999734
_symmetry_Int_Tables_number   1
_chemical_formula_structural   Y5TmSi5SnRh12
_chemical_formula_sum   'Y5 Tm1 Si5 Sn1 Rh12'
_cell_volume   415.99361096
_cell_formula_units_Z   1
loop_
 _symmetry_equiv_pos_site_id
 _symmetry_equiv_pos_as_xyz
  1  'x, y, z'
loop_
 _atom_site_type_symbol
 _atom_site_label
 _atom_site_symmetry_multiplicity
 _atom_site_fract_x
 _atom_site_fract_y
 _atom_site_fract_z
 _atom_site_occupancy
  Y  Y0  1  0.666667  0.333333  0.539433  1
  Y  Y1  1  0.333333  0.666667  0.036147  1
  Y  Y2  1  0.666667  0.333333  0.752796  1
  Y  Y3  1  0.333333  0.666667  0.461088  1
  Y  Y4  1  0.333333  0.666667  0.247868  1
  Tm  Tm5  1  0.666667  0.333333  0.964134  1
  Si  Si6  1  0.666667  0.333333  0.243605  1
  Si  Si7  1  0.000000  0.000000  0.245226  1
  Si  Si8  1  0.000000  0.000000  0.754613  1
  Si  Si9  1  0.333333  0.666667  0.756192  1
  Si  Si10  1  0.000000  0.000000  0.999816  1
  Sn  Sn11  1  0.000000  0.000000  0.500126  1
  Rh  Rh12  1  0.166203  0.332405  0.872251  1
  Rh  Rh13  1  0.168921  0.337841  0.640670  1
  Rh  Rh14  1  0.667595  0.833797  0.872251  1
  Rh  Rh15  1  0.337938  0.168970  0.359733  1
  Rh  Rh16  1  0.831030  0.662062  0.359733  1
  Rh  Rh17  1  0.831030  0.168970  0.359733  1
  Rh  Rh18  1  0.833608  0.166392  0.126998  1
  Rh  Rh19  1  0.332783  0.166392  0.126998  1
  Rh  Rh20  1  0.662159  0.831079  0.640670  1
  Rh  Rh21  1  0.168921  0.831079  0.640670  1
  Rh  Rh22  1  0.833608  0.667217  0.126998  1
  Rh  Rh23  1  0.166203  0.833797  0.872251  1
