# generated using pymatgen
data_Tb7Ho3(Bi3S)2
_symmetry_space_group_name_H-M   'P 1'
_cell_length_a   9.22069100
_cell_length_b   9.22069156
_cell_length_c   6.56899700
_cell_angle_alpha   90.00000000
_cell_angle_beta   90.00000000
_cell_angle_gamma   120.00000159
_symmetry_Int_Tables_number   1
_chemical_formula_structural   Tb7Ho3(Bi3S)2
_chemical_formula_sum   'Tb7 Ho3 Bi6 S2'
_cell_volume   483.67835322
_cell_formula_units_Z   1
loop_
 _symmetry_equiv_pos_site_id
 _symmetry_equiv_pos_as_xyz
  1  'x, y, z'
loop_
 _atom_site_type_symbol
 _atom_site_label
 _atom_site_symmetry_multiplicity
 _atom_site_fract_x
 _atom_site_fract_y
 _atom_site_fract_z
 _atom_site_occupancy
  Tb  Tb0  1  0.666667  0.333333  0.000000  1
  Tb  Tb1  1  0.753713  0.753650  0.250097  1
  Tb  Tb2  1  0.246350  0.000063  0.250097  1
  Tb  Tb3  1  0.999937  0.246287  0.250097  1
  Tb  Tb4  1  0.246350  0.246287  0.749903  1
  Tb  Tb5  1  0.753713  0.000063  0.749903  1
  Tb  Tb6  1  0.999937  0.753650  0.749903  1
  Ho  Ho7  1  0.666667  0.333333  0.500000  1
  Ho  Ho8  1  0.333333  0.666667  0.500000  1
  Ho  Ho9  1  0.333333  0.666667  0.000000  1
  Bi  Bi10  1  0.396708  0.397113  0.250400  1
  Bi  Bi11  1  0.602887  0.999596  0.250400  1
  Bi  Bi12  1  0.000404  0.603292  0.250400  1
  Bi  Bi13  1  0.602887  0.603292  0.749600  1
  Bi  Bi14  1  0.396708  0.999596  0.749600  1
  Bi  Bi15  1  0.000404  0.397113  0.749600  1
  S  S16  1  0.000000  0.000000  0.500000  1
  S  S17  1  0.000000  0.000000  0.000000  1
