# generated using pymatgen
data_La2CeNd3(CI5)2
_symmetry_space_group_name_H-M   'P 1'
_cell_length_a   8.03566956
_cell_length_b   9.81654571
_cell_length_c   9.92167508
_cell_angle_alpha   106.84329467
_cell_angle_beta   97.11584272
_cell_angle_gamma   104.61908848
_symmetry_Int_Tables_number   1
_chemical_formula_structural   La2CeNd3(CI5)2
_chemical_formula_sum   'La2 Ce1 Nd3 C2 I10'
_cell_volume   708.23111424
_cell_formula_units_Z   1
loop_
 _symmetry_equiv_pos_site_id
 _symmetry_equiv_pos_as_xyz
  1  'x, y, z'
loop_
 _atom_site_type_symbol
 _atom_site_label
 _atom_site_symmetry_multiplicity
 _atom_site_fract_x
 _atom_site_fract_y
 _atom_site_fract_z
 _atom_site_occupancy
  La  La0  1  0.108886  0.042122  0.774793  1
  La  La1  1  0.375799  0.134991  0.183405  1
  Ce  Ce2  1  0.627473  0.865802  0.819296  1
  Nd  Nd3  1  0.890311  0.957039  0.218418  1
  Nd  Nd4  1  0.032595  0.738645  0.925957  1
  Nd  Nd5  1  0.966544  0.260309  0.074495  1
  C  C6  1  0.912570  0.969483  0.957680  1
  C  C7  1  0.086432  0.029735  0.040789  1
  I  I8  1  0.192444  0.732539  0.649763  1
  I  I9  1  0.084819  0.373257  0.825511  1
  I  I10  1  0.458165  0.808025  0.090946  1
  I  I11  1  0.245824  0.082721  0.460985  1
  I  I12  1  0.547594  0.191936  0.909498  1
  I  I13  1  0.813924  0.263223  0.352179  1
  I  I14  1  0.337044  0.456490  0.272368  1
  I  I15  1  0.914225  0.633008  0.177700  1
  I  I16  1  0.661556  0.545785  0.728323  1
  I  I17  1  0.743796  0.914891  0.537892  1
