# generated using pymatgen
data_Os2Br2F11
_symmetry_space_group_name_H-M   'P 1'
_cell_length_a   7.88831124
_cell_length_b   7.88831058
_cell_length_c   5.36942300
_cell_angle_alpha   79.05702566
_cell_angle_beta   79.05702658
_cell_angle_gamma   66.02522924
_symmetry_Int_Tables_number   1
_chemical_formula_structural   Os2Br2F11
_chemical_formula_sum   'Os2 Br2 F11'
_cell_volume   297.36317726
_cell_formula_units_Z   1
loop_
 _symmetry_equiv_pos_site_id
 _symmetry_equiv_pos_as_xyz
  1  'x, y, z'
loop_
 _atom_site_type_symbol
 _atom_site_label
 _atom_site_symmetry_multiplicity
 _atom_site_fract_x
 _atom_site_fract_y
 _atom_site_fract_z
 _atom_site_occupancy
  Os  Os0  1  0.346284  0.355787  0.456108  1
  Os  Os1  1  0.644213  0.653716  0.543892  1
  Br  Br2  1  0.054363  0.060225  0.128887  1
  Br  Br3  1  0.939775  0.945637  0.871113  1
  F  F4  1  0.198423  0.562277  0.245638  1
  F  F5  1  0.437723  0.801577  0.754362  1
  F  F6  1  0.524035  0.274165  0.171561  1
  F  F7  1  0.725835  0.475965  0.828439  1
  F  F8  1  0.478264  0.521736  0.500000  1
  F  F9  1  0.792734  0.778770  0.582913  1
  F  F10  1  0.221230  0.207266  0.417087  1
  F  F11  1  0.555462  0.824084  0.255166  1
  F  F12  1  0.175916  0.444538  0.744834  1
  F  F13  1  0.838661  0.496916  0.328356  1
  F  F14  1  0.503084  0.161339  0.671644  1
