# generated using pymatgen
data_Tb3LuThIr3
_symmetry_space_group_name_H-M   'P 1'
_cell_length_a   11.09984600
_cell_length_b   10.95718000
_cell_length_c   6.34840700
_cell_angle_alpha   90.00000000
_cell_angle_beta   90.00000000
_cell_angle_gamma   90.00000000
_symmetry_Int_Tables_number   1
_chemical_formula_structural   Tb3LuThIr3
_chemical_formula_sum   'Tb12 Lu4 Th4 Ir12'
_cell_volume   772.11237182
_cell_formula_units_Z   4
loop_
 _symmetry_equiv_pos_site_id
 _symmetry_equiv_pos_as_xyz
  1  'x, y, z'
loop_
 _atom_site_type_symbol
 _atom_site_label
 _atom_site_symmetry_multiplicity
 _atom_site_fract_x
 _atom_site_fract_y
 _atom_site_fract_z
 _atom_site_occupancy
  Tb  Tb0  1  0.587938  0.782859  0.880165  1
  Tb  Tb1  1  0.587938  0.217141  0.380165  1
  Tb  Tb2  1  0.412062  0.782859  0.380165  1
  Tb  Tb3  1  0.412062  0.217141  0.880165  1
  Tb  Tb4  1  0.208408  0.414074  0.619206  1
  Tb  Tb5  1  0.208408  0.585926  0.119206  1
  Tb  Tb6  1  0.791592  0.414074  0.119206  1
  Tb  Tb7  1  0.791592  0.585926  0.619206  1
  Tb  Tb8  1  0.915782  0.709130  0.114987  1
  Tb  Tb9  1  0.915782  0.290870  0.614987  1
  Tb  Tb10  1  0.084218  0.709130  0.614987  1
  Tb  Tb11  1  0.084218  0.290870  0.114987  1
  Lu  Lu12  1  0.000000  0.000000  0.498807  1
  Lu  Lu13  1  0.000000  0.000000  0.998807  1
  Lu  Lu14  1  0.500000  0.500000  0.014309  1
  Lu  Lu15  1  0.500000  0.500000  0.514309  1
  Th  Th16  1  0.291902  0.092420  0.379947  1
  Th  Th17  1  0.291902  0.907580  0.879947  1
  Th  Th18  1  0.708098  0.092420  0.879947  1
  Th  Th19  1  0.708098  0.907580  0.379947  1
  Ir  Ir20  1  0.846803  0.147463  0.244430  1
  Ir  Ir21  1  0.846803  0.852537  0.744430  1
  Ir  Ir22  1  0.153197  0.147463  0.744430  1
  Ir  Ir23  1  0.153197  0.852537  0.244430  1
  Ir  Ir24  1  0.650789  0.348806  0.759566  1
  Ir  Ir25  1  0.650789  0.651194  0.259566  1
  Ir  Ir26  1  0.349211  0.348806  0.259566  1
  Ir  Ir27  1  0.349211  0.651194  0.759566  1
  Ir  Ir28  1  0.500000  0.000000  0.117141  1
  Ir  Ir29  1  0.500000  0.000000  0.617141  1
  Ir  Ir30  1  0.000000  0.500000  0.873141  1
  Ir  Ir31  1  0.000000  0.500000  0.373141  1
