# generated using pymatgen
data_ZrSc(ZnPt)2
_symmetry_space_group_name_H-M   'P 1'
_cell_length_a   5.10205768
_cell_length_b   5.10205890
_cell_length_c   5.27803400
_cell_angle_alpha   90.00000000
_cell_angle_beta   90.00000000
_cell_angle_gamma   129.56737125
_symmetry_Int_Tables_number   1
_chemical_formula_structural   ZrSc(ZnPt)2
_chemical_formula_sum   'Zr1 Sc1 Zn2 Pt2'
_cell_volume   105.91259452
_cell_formula_units_Z   1
loop_
 _symmetry_equiv_pos_site_id
 _symmetry_equiv_pos_as_xyz
  1  'x, y, z'
loop_
 _atom_site_type_symbol
 _atom_site_label
 _atom_site_symmetry_multiplicity
 _atom_site_fract_x
 _atom_site_fract_y
 _atom_site_fract_z
 _atom_site_occupancy
  Zr  Zr0  1  0.707345  0.292655  0.250000  1
  Sc  Sc1  1  0.293646  0.706354  0.750000  1
  Zn  Zn2  1  0.002923  0.997077  0.499337  1
  Zn  Zn3  1  0.002923  0.997077  0.000663  1
  Pt  Pt4  1  0.393212  0.606788  0.250000  1
  Pt  Pt5  1  0.599951  0.400049  0.750000  1
