# generated using pymatgen
data_Tb6BCCl6
_symmetry_space_group_name_H-M   'P 1'
_cell_length_a   9.37063232
_cell_length_b   9.37062638
_cell_length_c   9.44138304
_cell_angle_alpha   109.50532036
_cell_angle_beta   109.50529362
_cell_angle_gamma   109.09706199
_symmetry_Int_Tables_number   1
_chemical_formula_structural   Tb6BCCl6
_chemical_formula_sum   'Tb12 B2 C2 Cl12'
_cell_volume   640.58236300
_cell_formula_units_Z   2
loop_
 _symmetry_equiv_pos_site_id
 _symmetry_equiv_pos_as_xyz
  1  'x, y, z'
loop_
 _atom_site_type_symbol
 _atom_site_label
 _atom_site_symmetry_multiplicity
 _atom_site_fract_x
 _atom_site_fract_y
 _atom_site_fract_z
 _atom_site_occupancy
  Tb  Tb0  1  0.467790  0.479163  0.236194  1
  Tb  Tb1  1  0.742969  0.231596  0.263806  1
  Tb  Tb2  1  0.744004  0.014702  0.479207  1
  Tb  Tb3  1  0.235202  0.464504  0.479206  1
  Tb  Tb4  1  0.268405  0.757031  0.236195  1
  Tb  Tb5  1  0.035496  0.264797  0.020793  1
  Tb  Tb6  1  0.020837  0.032211  0.263806  1
  Tb  Tb7  1  0.485297  0.755996  0.020794  1
  Tb  Tb8  1  0.481260  0.231260  0.462518  1
  Tb  Tb9  1  0.014133  0.485866  0.750000  1
  Tb  Tb10  1  0.268741  0.018741  0.037482  1
  Tb  Tb11  1  0.235867  0.264132  0.750000  1
  B  B12  1  0.999489  0.249488  0.498977  1
  B  B13  1  0.250512  0.500512  0.001023  1
  C  C14  1  0.249841  0.250159  0.250000  1
  C  C15  1  0.500159  0.999841  0.250000  1
  Cl  Cl16  1  0.251869  0.758671  0.746216  1
  Cl  Cl17  1  0.512457  0.505655  0.753785  1
  Cl  Cl18  1  0.988882  0.746253  0.994721  1
  Cl  Cl19  1  0.741327  0.248132  0.753785  1
  Cl  Cl20  1  0.994345  0.987541  0.746214  1
  Cl  Cl21  1  0.251531  0.994161  0.505278  1
  Cl  Cl22  1  0.753748  0.511119  0.505279  1
  Cl  Cl23  1  0.505841  0.248469  0.994722  1
  Cl  Cl24  1  0.755220  0.744779  0.249999  1
  Cl  Cl25  1  0.743969  0.993969  0.987939  1
  Cl  Cl26  1  0.994780  0.505221  0.250001  1
  Cl  Cl27  1  0.506031  0.756030  0.512061  1
