# generated using pymatgen
data_Y4Ga18PdRu4Pt
_symmetry_space_group_name_H-M   'P 1'
_cell_length_a   7.57117242
_cell_length_b   7.57117204
_cell_length_c   9.66911948
_cell_angle_alpha   89.98879556
_cell_angle_beta   89.98879785
_cell_angle_gamma   119.61259425
_symmetry_Int_Tables_number   1
_chemical_formula_structural   Y4Ga18PdRu4Pt
_chemical_formula_sum   'Y4 Ga18 Pd1 Ru4 Pt1'
_cell_volume   481.86563498
_cell_formula_units_Z   1
loop_
 _symmetry_equiv_pos_site_id
 _symmetry_equiv_pos_as_xyz
  1  'x, y, z'
loop_
 _atom_site_type_symbol
 _atom_site_label
 _atom_site_symmetry_multiplicity
 _atom_site_fract_x
 _atom_site_fract_y
 _atom_site_fract_z
 _atom_site_occupancy
  Y  Y0  1  0.997521  0.673207  0.250960  1
  Y  Y1  1  0.002479  0.326793  0.749040  1
  Y  Y2  1  0.673207  0.997521  0.250960  1
  Y  Y3  1  0.326793  0.002479  0.749040  1
  Ga  Ga4  1  0.135780  0.135780  0.249729  1
  Ga  Ga5  1  0.864220  0.864220  0.750271  1
  Ga  Ga6  1  0.003932  0.340276  0.079076  1
  Ga  Ga7  1  0.996068  0.659724  0.920924  1
  Ga  Ga8  1  0.996655  0.659070  0.578006  1
  Ga  Ga9  1  0.340930  0.003345  0.421994  1
  Ga  Ga10  1  0.003345  0.340930  0.421994  1
  Ga  Ga11  1  0.659070  0.996655  0.578006  1
  Ga  Ga12  1  0.659724  0.996068  0.920924  1
  Ga  Ga13  1  0.340276  0.003932  0.079076  1
  Ga  Ga14  1  0.340772  0.340772  0.563468  1
  Ga  Ga15  1  0.659228  0.659228  0.436532  1
  Ga  Ga16  1  0.656923  0.656923  0.065321  1
  Ga  Ga17  1  0.343077  0.343077  0.934679  1
  Ga  Ga18  1  0.335890  0.551490  0.250318  1
  Ga  Ga19  1  0.664110  0.448510  0.749682  1
  Ga  Ga20  1  0.551490  0.335890  0.250318  1
  Ga  Ga21  1  0.448510  0.664110  0.749682  1
  Pd  Pd22  1  0.000000  0.000000  0.000000  1
  Ru  Ru23  1  0.673964  0.326036  0.000000  1
  Ru  Ru24  1  0.326036  0.673964  0.000000  1
  Ru  Ru25  1  0.326830  0.673170  0.500000  1
  Ru  Ru26  1  0.673170  0.326830  0.500000  1
  Pt  Pt27  1  0.000000  0.000000  0.500000  1
