# generated using pymatgen
data_Zr2Be2Ru5W
_symmetry_space_group_name_H-M   'P 1'
_cell_length_a   9.46763400
_cell_length_b   9.46763400
_cell_length_c   3.20971700
_cell_angle_alpha   90.00000000
_cell_angle_beta   90.00000000
_cell_angle_gamma   90.00000000
_symmetry_Int_Tables_number   1
_chemical_formula_structural   Zr2Be2Ru5W
_chemical_formula_sum   'Zr4 Be4 Ru10 W2'
_cell_volume   287.70649331
_cell_formula_units_Z   2
loop_
 _symmetry_equiv_pos_site_id
 _symmetry_equiv_pos_as_xyz
  1  'x, y, z'
loop_
 _atom_site_type_symbol
 _atom_site_label
 _atom_site_symmetry_multiplicity
 _atom_site_fract_x
 _atom_site_fract_y
 _atom_site_fract_z
 _atom_site_occupancy
  Zr  Zr0  1  0.673452  0.173452  0.000000  1
  Zr  Zr1  1  0.326548  0.826548  0.000000  1
  Zr  Zr2  1  0.173452  0.326548  0.000000  1
  Zr  Zr3  1  0.826548  0.673452  0.000000  1
  Be  Be4  1  0.121435  0.621435  0.000000  1
  Be  Be5  1  0.878565  0.378565  0.000000  1
  Be  Be6  1  0.621435  0.878565  0.000000  1
  Be  Be7  1  0.378565  0.121435  0.000000  1
  Ru  Ru8  1  0.208967  0.070307  0.500000  1
  Ru  Ru9  1  0.791033  0.929693  0.500000  1
  Ru  Ru10  1  0.070307  0.791033  0.500000  1
  Ru  Ru11  1  0.708967  0.429693  0.500000  1
  Ru  Ru12  1  0.929693  0.208967  0.500000  1
  Ru  Ru13  1  0.291033  0.570307  0.500000  1
  Ru  Ru14  1  0.570307  0.708967  0.500000  1
  Ru  Ru15  1  0.429693  0.291033  0.500000  1
  Ru  Ru16  1  0.500000  0.000000  0.500000  1
  Ru  Ru17  1  0.000000  0.500000  0.500000  1
  W  W18  1  0.000000  0.000000  0.000000  1
  W  W19  1  0.500000  0.500000  0.000000  1
