# generated using pymatgen
data_Dy10Tm10CoBi8Os3
_symmetry_space_group_name_H-M   'P 1'
_cell_length_a   7.92442393
_cell_length_b   8.94852100
_cell_length_c   12.44785804
_cell_angle_alpha   90.00000000
_cell_angle_beta   90.18280397
_cell_angle_gamma   90.00000000
_symmetry_Int_Tables_number   1
_chemical_formula_structural   Dy10Tm10CoBi8Os3
_chemical_formula_sum   'Dy10 Tm10 Co1 Bi8 Os3'
_cell_volume   882.69644734
_cell_formula_units_Z   1
loop_
 _symmetry_equiv_pos_site_id
 _symmetry_equiv_pos_as_xyz
  1  'x, y, z'
loop_
 _atom_site_type_symbol
 _atom_site_label
 _atom_site_symmetry_multiplicity
 _atom_site_fract_x
 _atom_site_fract_y
 _atom_site_fract_z
 _atom_site_occupancy
  Dy  Dy0  1  0.844972  0.750000  0.799195  1
  Dy  Dy1  1  0.656956  0.750000  0.293329  1
  Dy  Dy2  1  0.377591  0.750000  0.692485  1
  Dy  Dy3  1  0.621236  0.250000  0.308104  1
  Dy  Dy4  1  0.877733  0.250000  0.808846  1
  Dy  Dy5  1  0.118284  0.750000  0.184544  1
  Dy  Dy6  1  0.942120  0.750000  0.505097  1
  Dy  Dy7  1  0.059766  0.250000  0.495831  1
  Dy  Dy8  1  0.442829  0.250000  0.996835  1
  Dy  Dy9  1  0.555768  0.750000  0.003640  1
  Tm  Tm10  1  0.157597  0.250000  0.206540  1
  Tm  Tm11  1  0.342322  0.250000  0.708705  1
  Tm  Tm12  1  0.670634  0.042997  0.565240  1
  Tm  Tm13  1  0.326935  0.957353  0.435102  1
  Tm  Tm14  1  0.172548  0.958187  0.935718  1
  Tm  Tm15  1  0.326935  0.542647  0.435102  1
  Tm  Tm16  1  0.828931  0.039687  0.063628  1
  Tm  Tm17  1  0.670634  0.457003  0.565240  1
  Tm  Tm18  1  0.828931  0.460313  0.063628  1
  Tm  Tm19  1  0.172548  0.541813  0.935718  1
  Co  Co20  1  0.931869  0.750000  0.007282  1
  Bi  Bi21  1  0.567892  0.492524  0.827683  1
  Bi  Bi22  1  0.431523  0.507200  0.171881  1
  Bi  Bi23  1  0.068544  0.506799  0.672649  1
  Bi  Bi24  1  0.431523  0.992800  0.171881  1
  Bi  Bi25  1  0.933165  0.493021  0.326211  1
  Bi  Bi26  1  0.567892  0.007476  0.827683  1
  Bi  Bi27  1  0.933165  0.006979  0.326211  1
  Bi  Bi28  1  0.068544  0.993201  0.672649  1
  Os  Os29  1  0.573323  0.750000  0.509685  1
  Os  Os30  1  0.424995  0.250000  0.491942  1
  Os  Os31  1  0.072294  0.250000  0.991712  1
