# generated using pymatgen
data_Mn2FeB2Rh5
_symmetry_space_group_name_H-M   'P 1'
_cell_length_a   9.32294700
_cell_length_b   9.32294700
_cell_length_c   2.93532100
_cell_angle_alpha   90.00000000
_cell_angle_beta   90.00000000
_cell_angle_gamma   90.00000000
_symmetry_Int_Tables_number   1
_chemical_formula_structural   Mn2FeB2Rh5
_chemical_formula_sum   'Mn4 Fe2 B4 Rh10'
_cell_volume   255.13029561
_cell_formula_units_Z   2
loop_
 _symmetry_equiv_pos_site_id
 _symmetry_equiv_pos_as_xyz
  1  'x, y, z'
loop_
 _atom_site_type_symbol
 _atom_site_label
 _atom_site_symmetry_multiplicity
 _atom_site_fract_x
 _atom_site_fract_y
 _atom_site_fract_z
 _atom_site_occupancy
  Mn  Mn0  1  0.822597  0.322597  0.000000  1
  Mn  Mn1  1  0.322597  0.177403  0.000000  1
  Mn  Mn2  1  0.677403  0.822597  0.000000  1
  Mn  Mn3  1  0.177403  0.677403  0.000000  1
  Fe  Fe4  1  0.000000  0.000000  0.000000  1
  Fe  Fe5  1  0.500000  0.500000  0.000000  1
  B  B6  1  0.626875  0.126875  0.000000  1
  B  B7  1  0.126875  0.373125  0.000000  1
  B  B8  1  0.873125  0.626875  0.000000  1
  B  B9  1  0.373125  0.873125  0.000000  1
  Rh  Rh10  1  0.070202  0.214531  0.500000  1
  Rh  Rh11  1  0.214531  0.929798  0.500000  1
  Rh  Rh12  1  0.785469  0.070202  0.500000  1
  Rh  Rh13  1  0.929798  0.785469  0.500000  1
  Rh  Rh14  1  0.429798  0.714531  0.500000  1
  Rh  Rh15  1  0.570202  0.285469  0.500000  1
  Rh  Rh16  1  0.714531  0.570202  0.500000  1
  Rh  Rh17  1  0.285469  0.429798  0.500000  1
  Rh  Rh18  1  0.500000  0.000000  0.500000  1
  Rh  Rh19  1  0.000000  0.500000  0.500000  1
