# generated using pymatgen
data_Tb2Ce2HoSn4
_symmetry_space_group_name_H-M   'P 1'
_cell_length_a   8.13273200
_cell_length_b   8.24289200
_cell_length_c   15.58725900
_cell_angle_alpha   90.00000000
_cell_angle_beta   90.00000000
_cell_angle_gamma   90.00000000
_symmetry_Int_Tables_number   1
_chemical_formula_structural   Tb2Ce2HoSn4
_chemical_formula_sum   'Tb8 Ce8 Ho4 Sn16'
_cell_volume   1044.92669067
_cell_formula_units_Z   4
loop_
 _symmetry_equiv_pos_site_id
 _symmetry_equiv_pos_as_xyz
  1  'x, y, z'
loop_
 _atom_site_type_symbol
 _atom_site_label
 _atom_site_symmetry_multiplicity
 _atom_site_fract_x
 _atom_site_fract_y
 _atom_site_fract_z
 _atom_site_occupancy
  Tb  Tb0  1  0.362051  0.836386  0.877592  1
  Tb  Tb1  1  0.862051  0.663614  0.622408  1
  Tb  Tb2  1  0.637949  0.163614  0.377592  1
  Tb  Tb3  1  0.137949  0.336386  0.122408  1
  Tb  Tb4  1  0.637949  0.163614  0.122408  1
  Tb  Tb5  1  0.137949  0.336386  0.377592  1
  Tb  Tb6  1  0.362051  0.836386  0.622408  1
  Tb  Tb7  1  0.862051  0.663614  0.877592  1
  Ce  Ce8  1  0.515029  0.320227  0.904136  1
  Ce  Ce9  1  0.015029  0.179773  0.595864  1
  Ce  Ce10  1  0.484971  0.679773  0.404136  1
  Ce  Ce11  1  0.984971  0.820227  0.095864  1
  Ce  Ce12  1  0.484971  0.679773  0.095864  1
  Ce  Ce13  1  0.984971  0.820227  0.404136  1
  Ce  Ce14  1  0.515029  0.320227  0.595864  1
  Ce  Ce15  1  0.015029  0.179773  0.904136  1
  Ho  Ho16  1  0.193038  0.500725  0.750000  1
  Ho  Ho17  1  0.693038  0.999275  0.750000  1
  Ho  Ho18  1  0.806962  0.499275  0.250000  1
  Ho  Ho19  1  0.306962  0.000725  0.250000  1
  Sn  Sn20  1  0.299611  0.037639  0.042424  1
  Sn  Sn21  1  0.799611  0.462361  0.457576  1
  Sn  Sn22  1  0.700389  0.962361  0.542424  1
  Sn  Sn23  1  0.200389  0.537639  0.957576  1
  Sn  Sn24  1  0.700389  0.962361  0.957576  1
  Sn  Sn25  1  0.200389  0.537639  0.542424  1
  Sn  Sn26  1  0.299611  0.037639  0.457576  1
  Sn  Sn27  1  0.799611  0.462361  0.042424  1
  Sn  Sn28  1  0.558960  0.618095  0.750000  1
  Sn  Sn29  1  0.058960  0.881905  0.750000  1
  Sn  Sn30  1  0.441040  0.381905  0.250000  1
  Sn  Sn31  1  0.941040  0.118095  0.250000  1
  Sn  Sn32  1  0.323211  0.143847  0.750000  1
  Sn  Sn33  1  0.823211  0.356153  0.750000  1
  Sn  Sn34  1  0.676789  0.856153  0.250000  1
  Sn  Sn35  1  0.176789  0.643847  0.250000  1
