# generated using pymatgen
data_Hf9TiRe3Se
_symmetry_space_group_name_H-M   'P 1'
_cell_length_a   8.72473500
_cell_length_b   8.72473462
_cell_length_c   8.52995900
_cell_angle_alpha   90.00000000
_cell_angle_beta   90.00000000
_cell_angle_gamma   119.99999765
_symmetry_Int_Tables_number   1
_chemical_formula_structural   Hf9TiRe3Se
_chemical_formula_sum   'Hf18 Ti2 Re6 Se2'
_cell_volume   562.31809153
_cell_formula_units_Z   2
loop_
 _symmetry_equiv_pos_site_id
 _symmetry_equiv_pos_as_xyz
  1  'x, y, z'
loop_
 _atom_site_type_symbol
 _atom_site_label
 _atom_site_symmetry_multiplicity
 _atom_site_fract_x
 _atom_site_fract_y
 _atom_site_fract_z
 _atom_site_occupancy
  Hf  Hf0  1  0.192205  0.807795  0.450693  1
  Hf  Hf1  1  0.192205  0.384410  0.450693  1
  Hf  Hf2  1  0.615590  0.807795  0.450693  1
  Hf  Hf3  1  0.807795  0.192205  0.549307  1
  Hf  Hf4  1  0.807795  0.615590  0.549307  1
  Hf  Hf5  1  0.384410  0.192205  0.549307  1
  Hf  Hf6  1  0.807795  0.192205  0.950693  1
  Hf  Hf7  1  0.807795  0.615590  0.950693  1
  Hf  Hf8  1  0.384410  0.192205  0.950693  1
  Hf  Hf9  1  0.192205  0.807795  0.049307  1
  Hf  Hf10  1  0.192205  0.384410  0.049307  1
  Hf  Hf11  1  0.615590  0.807795  0.049307  1
  Hf  Hf12  1  0.544739  0.455261  0.250000  1
  Hf  Hf13  1  0.544739  0.089479  0.250000  1
  Hf  Hf14  1  0.910521  0.455261  0.250000  1
  Hf  Hf15  1  0.455261  0.544739  0.750000  1
  Hf  Hf16  1  0.455261  0.910521  0.750000  1
  Hf  Hf17  1  0.089479  0.544739  0.750000  1
  Ti  Ti18  1  0.000000  0.000000  0.500000  1
  Ti  Ti19  1  0.000000  0.000000  0.000000  1
  Re  Re20  1  0.888336  0.111664  0.250000  1
  Re  Re21  1  0.888336  0.776673  0.250000  1
  Re  Re22  1  0.223327  0.111664  0.250000  1
  Re  Re23  1  0.111664  0.888336  0.750000  1
  Re  Re24  1  0.111664  0.223327  0.750000  1
  Re  Re25  1  0.776673  0.888336  0.750000  1
  Se  Se26  1  0.333333  0.666667  0.250000  1
  Se  Se27  1  0.666667  0.333333  0.750000  1
