# generated using pymatgen
data_Dy2Ho2ReB12Ir
_symmetry_space_group_name_H-M   'P 1'
_cell_length_a   3.66553500
_cell_length_b   9.15186470
_cell_length_c   11.53930203
_cell_angle_alpha   90.32812936
_cell_angle_beta   90.00000000
_cell_angle_gamma   90.00000000
_symmetry_Int_Tables_number   1
_chemical_formula_structural   Dy2Ho2ReB12Ir
_chemical_formula_sum   'Dy4 Ho4 Re2 B24 Ir2'
_cell_volume   387.09662088
_cell_formula_units_Z   2
loop_
 _symmetry_equiv_pos_site_id
 _symmetry_equiv_pos_as_xyz
  1  'x, y, z'
loop_
 _atom_site_type_symbol
 _atom_site_label
 _atom_site_symmetry_multiplicity
 _atom_site_fract_x
 _atom_site_fract_y
 _atom_site_fract_z
 _atom_site_occupancy
  Dy  Dy0  1  0.000000  0.317262  0.409905  1
  Dy  Dy1  1  0.000000  0.682738  0.590095  1
  Dy  Dy2  1  0.000000  0.826496  0.082348  1
  Dy  Dy3  1  0.000000  0.173504  0.917652  1
  Ho  Ho4  1  0.000000  0.946175  0.372244  1
  Ho  Ho5  1  0.000000  0.053825  0.627756  1
  Ho  Ho6  1  0.000000  0.441724  0.125886  1
  Ho  Ho7  1  0.000000  0.558276  0.874114  1
  Re  Re8  1  0.000000  0.138417  0.179815  1
  Re  Re9  1  0.000000  0.861583  0.820185  1
  B  B10  1  0.500000  0.554245  0.433764  1
  B  B11  1  0.500000  0.445755  0.566236  1
  B  B12  1  0.500000  0.053441  0.067362  1
  B  B13  1  0.500000  0.946559  0.932638  1
  B  B14  1  0.500000  0.749396  0.421029  1
  B  B15  1  0.500000  0.250604  0.578971  1
  B  B16  1  0.500000  0.247837  0.080843  1
  B  B17  1  0.500000  0.752163  0.919157  1
  B  B18  1  0.500000  0.790823  0.266129  1
  B  B19  1  0.500000  0.209177  0.733871  1
  B  B20  1  0.500000  0.292171  0.234128  1
  B  B21  1  0.500000  0.707829  0.765872  1
  B  B22  1  0.500000  0.631721  0.184104  1
  B  B23  1  0.500000  0.368279  0.815896  1
  B  B24  1  0.500000  0.131597  0.314610  1
  B  B25  1  0.500000  0.868403  0.685390  1
  B  B26  1  0.500000  0.983126  0.213084  1
  B  B27  1  0.500000  0.016874  0.786916  1
  B  B28  1  0.500000  0.482703  0.287189  1
  B  B29  1  0.500000  0.517297  0.712811  1
  B  B30  1  0.500000  0.606942  0.029930  1
  B  B31  1  0.500000  0.393058  0.970070  1
  B  B32  1  0.500000  0.107574  0.470791  1
  B  B33  1  0.500000  0.892426  0.529209  1
  Ir  Ir34  1  0.000000  0.636663  0.322022  1
  Ir  Ir35  1  0.000000  0.363337  0.677978  1
