# generated using pymatgen
data_Lu6Co18Si11P
_symmetry_space_group_name_H-M   'P 1'
_cell_length_a   10.65415600
_cell_length_b   3.71880800
_cell_length_c   12.23817100
_cell_angle_alpha   90.00000000
_cell_angle_beta   90.00000000
_cell_angle_gamma   90.00000000
_symmetry_Int_Tables_number   1
_chemical_formula_structural   Lu6Co18Si11P
_chemical_formula_sum   'Lu6 Co18 Si11 P1'
_cell_volume   484.88564296
_cell_formula_units_Z   1
loop_
 _symmetry_equiv_pos_site_id
 _symmetry_equiv_pos_as_xyz
  1  'x, y, z'
loop_
 _atom_site_type_symbol
 _atom_site_label
 _atom_site_symmetry_multiplicity
 _atom_site_fract_x
 _atom_site_fract_y
 _atom_site_fract_z
 _atom_site_occupancy
  Lu  Lu0  1  0.066516  0.750001  0.204161  1
  Lu  Lu1  1  0.433484  0.750001  0.204161  1
  Lu  Lu2  1  0.250000  0.750001  0.473826  1
  Lu  Lu3  1  0.750000  0.250001  0.528003  1
  Lu  Lu4  1  0.568729  0.250001  0.795483  1
  Lu  Lu5  1  0.931271  0.250001  0.795483  1
  Co  Co6  1  0.080007  0.250001  0.007224  1
  Co  Co7  1  0.419993  0.250001  0.007224  1
  Co  Co8  1  0.250000  0.750001  0.018722  1
  Co  Co9  1  0.750000  0.750001  0.151894  1
  Co  Co10  1  0.631963  0.250001  0.290910  1
  Co  Co11  1  0.868038  0.250001  0.290910  1
  Co  Co12  1  0.250000  0.250001  0.304059  1
  Co  Co13  1  0.552201  0.750001  0.430137  1
  Co  Co14  1  0.947799  0.750001  0.430137  1
  Co  Co15  1  0.051191  0.250001  0.570516  1
  Co  Co16  1  0.448809  0.250001  0.570516  1
  Co  Co17  1  0.750000  0.750001  0.701144  1
  Co  Co18  1  0.131685  0.750001  0.709222  1
  Co  Co19  1  0.368315  0.750001  0.709222  1
  Co  Co20  1  0.250000  0.250001  0.849676  1
  Co  Co21  1  0.750000  0.250001  0.976082  1
  Co  Co22  1  0.584920  0.750001  0.990002  1
  Co  Co23  1  0.915081  0.750001  0.990002  1
  Si  Si24  1  0.604113  0.250001  0.105649  1
  Si  Si25  1  0.895887  0.250001  0.105649  1
  Si  Si26  1  0.250000  0.250001  0.119357  1
  Si  Si27  1  0.750000  0.750001  0.340407  1
  Si  Si28  1  0.055797  0.250001  0.384315  1
  Si  Si29  1  0.444203  0.250001  0.384315  1
  Si  Si30  1  0.556943  0.750001  0.616429  1
  Si  Si31  1  0.943056  0.750001  0.616429  1
  Si  Si32  1  0.250000  0.250001  0.660742  1
  Si  Si33  1  0.101720  0.750001  0.893902  1
  Si  Si34  1  0.398280  0.750001  0.893902  1
  P  P35  1  0.750000  0.750001  0.880189  1
