# generated using pymatgen
data_Tb5CoSbO12
_symmetry_space_group_name_H-M   'P 1'
_cell_length_a   6.87304363
_cell_length_b   6.87304498
_cell_length_c   7.30421113
_cell_angle_alpha   74.45681303
_cell_angle_beta   74.45681007
_cell_angle_gamma   50.71772680
_symmetry_Int_Tables_number   1
_chemical_formula_structural   Tb5CoSbO12
_chemical_formula_sum   'Tb5 Co1 Sb1 O12'
_cell_volume   255.06199950
_cell_formula_units_Z   1
loop_
 _symmetry_equiv_pos_site_id
 _symmetry_equiv_pos_as_xyz
  1  'x, y, z'
loop_
 _atom_site_type_symbol
 _atom_site_label
 _atom_site_symmetry_multiplicity
 _atom_site_fract_x
 _atom_site_fract_y
 _atom_site_fract_z
 _atom_site_occupancy
  Tb  Tb0  1  0.687388  0.700330  0.667292  1
  Tb  Tb1  1  0.684773  0.711532  0.140315  1
  Tb  Tb2  1  0.002591  0.997409  0.000000  1
  Tb  Tb3  1  0.288468  0.315227  0.859685  1
  Tb  Tb4  1  0.299670  0.312612  0.332708  1
  Co  Co5  1  0.257945  0.742055  0.500000  1
  Sb  Sb6  1  0.769714  0.230286  0.500000  1
  O  O7  1  0.397139  0.911786  0.924076  1
  O  O8  1  0.571584  0.097944  0.581901  1
  O  O9  1  0.902056  0.428416  0.418099  1
  O  O10  1  0.088214  0.602861  0.075924  1
  O  O11  1  0.021623  0.979318  0.318184  1
  O  O12  1  0.499916  0.499714  0.680206  1
  O  O13  1  0.894438  0.408151  0.925168  1
  O  O14  1  0.102471  0.580806  0.579589  1
  O  O15  1  0.419194  0.897529  0.420411  1
  O  O16  1  0.591849  0.105562  0.074832  1
  O  O17  1  0.500286  0.500084  0.319794  1
  O  O18  1  0.020682  0.978377  0.681816  1
