# generated using pymatgen
data_DyTm3(Ir2O7)2
_symmetry_space_group_name_H-M   'P 1'
_cell_length_a   7.22462466
_cell_length_b   7.17624818
_cell_length_c   7.17624800
_cell_angle_alpha   60.00001007
_cell_angle_beta   60.22126757
_cell_angle_gamma   60.22127306
_symmetry_Int_Tables_number   1
_chemical_formula_structural   DyTm3(Ir2O7)2
_chemical_formula_sum   'Dy1 Tm3 Ir4 O14'
_cell_volume   263.96092626
_cell_formula_units_Z   1
loop_
 _symmetry_equiv_pos_site_id
 _symmetry_equiv_pos_as_xyz
  1  'x, y, z'
loop_
 _atom_site_type_symbol
 _atom_site_label
 _atom_site_symmetry_multiplicity
 _atom_site_fract_x
 _atom_site_fract_y
 _atom_site_fract_z
 _atom_site_occupancy
  Dy  Dy0  1  0.625000  0.125000  0.125000  1
  Tm  Tm1  1  0.125000  0.625000  0.125000  1
  Tm  Tm2  1  0.125000  0.125000  0.625000  1
  Tm  Tm3  1  0.125000  0.125000  0.125000  1
  Ir  Ir4  1  0.125000  0.625000  0.625000  1
  Ir  Ir5  1  0.625000  0.125000  0.625000  1
  Ir  Ir6  1  0.625000  0.625000  0.125000  1
  Ir  Ir7  1  0.625000  0.625000  0.625000  1
  O  O8  1  0.720832  0.708647  0.285261  1
  O  O9  1  0.286309  0.286027  0.713831  1
  O  O10  1  0.720832  0.285261  0.708647  1
  O  O11  1  0.286309  0.713831  0.286027  1
  O  O12  1  0.286309  0.713831  0.713831  1
  O  O13  1  0.720832  0.285261  0.285261  1
  O  O14  1  0.529168  0.541353  0.964739  1
  O  O15  1  0.963691  0.963973  0.536169  1
  O  O16  1  0.529168  0.964739  0.541353  1
  O  O17  1  0.963691  0.536169  0.963973  1
  O  O18  1  0.963691  0.536169  0.536169  1
  O  O19  1  0.529168  0.964739  0.964739  1
  O  O20  1  0.247774  0.250742  0.250742  1
  O  O21  1  0.002226  0.999258  0.999258  1
