# generated using pymatgen
data_YbEr3(SiPt2)4
_symmetry_space_group_name_H-M   'P 1'
_cell_length_a   5.51721102
_cell_length_b   6.95982200
_cell_length_c   7.29402703
_cell_angle_alpha   90.00000000
_cell_angle_beta   89.98956509
_cell_angle_gamma   90.00000000
_symmetry_Int_Tables_number   1
_chemical_formula_structural   YbEr3(SiPt2)4
_chemical_formula_sum   'Yb1 Er3 Si4 Pt8'
_cell_volume   280.08192903
_cell_formula_units_Z   1
loop_
 _symmetry_equiv_pos_site_id
 _symmetry_equiv_pos_as_xyz
  1  'x, y, z'
loop_
 _atom_site_type_symbol
 _atom_site_label
 _atom_site_symmetry_multiplicity
 _atom_site_fract_x
 _atom_site_fract_y
 _atom_site_fract_z
 _atom_site_occupancy
  Yb  Yb0  1  0.866616  0.250000  0.522794  1
  Er  Er1  1  0.134268  0.750000  0.475934  1
  Er  Er2  1  0.366060  0.750000  0.976363  1
  Er  Er3  1  0.634913  0.250000  0.024314  1
  Si  Si4  1  0.133148  0.250000  0.877637  1
  Si  Si5  1  0.368137  0.250000  0.380203  1
  Si  Si6  1  0.632488  0.750000  0.620965  1
  Si  Si7  1  0.867272  0.750000  0.121829  1
  Pt  Pt8  1  0.099286  0.050663  0.179134  1
  Pt  Pt9  1  0.099286  0.449337  0.179134  1
  Pt  Pt10  1  0.403538  0.050011  0.679445  1
  Pt  Pt11  1  0.403538  0.449989  0.679445  1
  Pt  Pt12  1  0.592810  0.550806  0.318292  1
  Pt  Pt13  1  0.592810  0.949194  0.318292  1
  Pt  Pt14  1  0.902916  0.551542  0.823109  1
  Pt  Pt15  1  0.902916  0.948458  0.823109  1
