# generated using pymatgen
data_SrYb5(ReH7)2
_symmetry_space_group_name_H-M   'P 1'
_cell_length_a   5.13820100
_cell_length_b   5.13820297
_cell_length_c   12.50074300
_cell_angle_alpha   90.00000000
_cell_angle_beta   90.00000000
_cell_angle_gamma   120.00000666
_symmetry_Int_Tables_number   1
_chemical_formula_structural   SrYb5(ReH7)2
_chemical_formula_sum   'Sr1 Yb5 Re2 H14'
_cell_volume   285.81747229
_cell_formula_units_Z   1
loop_
 _symmetry_equiv_pos_site_id
 _symmetry_equiv_pos_as_xyz
  1  'x, y, z'
loop_
 _atom_site_type_symbol
 _atom_site_label
 _atom_site_symmetry_multiplicity
 _atom_site_fract_x
 _atom_site_fract_y
 _atom_site_fract_z
 _atom_site_occupancy
  Sr  Sr0  1  0.000000  0.000000  0.250000  1
  Yb  Yb1  1  0.333333  0.666667  0.444173  1
  Yb  Yb2  1  0.666667  0.333333  0.568444  1
  Yb  Yb3  1  0.666667  0.333333  0.931556  1
  Yb  Yb4  1  0.333333  0.666667  0.055827  1
  Yb  Yb5  1  0.000000  0.000000  0.750000  1
  Re  Re6  1  0.000000  0.000000  0.506950  1
  Re  Re7  1  0.000000  0.000000  0.993050  1
  H  H8  1  0.161599  0.838401  0.907428  1
  H  H9  1  0.161599  0.323198  0.907428  1
  H  H10  1  0.676802  0.838401  0.907428  1
  H  H11  1  0.837795  0.162205  0.078506  1
  H  H12  1  0.837795  0.675590  0.078506  1
  H  H13  1  0.324410  0.162205  0.078506  1
  H  H14  1  0.837795  0.162205  0.421494  1
  H  H15  1  0.837795  0.675590  0.421494  1
  H  H16  1  0.324410  0.162205  0.421494  1
  H  H17  1  0.161599  0.838401  0.592572  1
  H  H18  1  0.161599  0.323198  0.592572  1
  H  H19  1  0.676802  0.838401  0.592572  1
  H  H20  1  0.333333  0.666667  0.250000  1
  H  H21  1  0.666667  0.333333  0.750000  1
