# generated using pymatgen
data_Cs3KPbCl6
_symmetry_space_group_name_H-M   'P 1'
_cell_length_a   9.46815902
_cell_length_b   9.46815845
_cell_length_c   9.46815776
_cell_angle_alpha   91.07268925
_cell_angle_beta   91.07269027
_cell_angle_gamma   91.07268999
_symmetry_Int_Tables_number   1
_chemical_formula_structural   Cs3KPbCl6
_chemical_formula_sum   'Cs6 K2 Pb2 Cl12'
_cell_volume   848.33085236
_cell_formula_units_Z   2
loop_
 _symmetry_equiv_pos_site_id
 _symmetry_equiv_pos_as_xyz
  1  'x, y, z'
loop_
 _atom_site_type_symbol
 _atom_site_label
 _atom_site_symmetry_multiplicity
 _atom_site_fract_x
 _atom_site_fract_y
 _atom_site_fract_z
 _atom_site_occupancy
  Cs  Cs0  1  0.374537  0.125463  0.750000  1
  Cs  Cs1  1  0.125463  0.750000  0.374537  1
  Cs  Cs2  1  0.750000  0.374537  0.125463  1
  Cs  Cs3  1  0.625463  0.874537  0.250000  1
  Cs  Cs4  1  0.250000  0.625463  0.874537  1
  Cs  Cs5  1  0.874537  0.250000  0.625463  1
  K  K6  1  0.250000  0.250000  0.250000  1
  K  K7  1  0.750000  0.750000  0.750000  1
  Pb  Pb8  1  0.000000  0.000000  0.000000  1
  Pb  Pb9  1  0.500000  0.500000  0.500000  1
  Cl  Cl10  1  0.954671  0.083185  0.294082  1
  Cl  Cl11  1  0.083185  0.294082  0.954671  1
  Cl  Cl12  1  0.294082  0.954671  0.083185  1
  Cl  Cl13  1  0.583185  0.454671  0.794082  1
  Cl  Cl14  1  0.794082  0.583185  0.454671  1
  Cl  Cl15  1  0.454671  0.794082  0.583185  1
  Cl  Cl16  1  0.205918  0.416815  0.545329  1
  Cl  Cl17  1  0.416815  0.545329  0.205918  1
  Cl  Cl18  1  0.545329  0.205918  0.416815  1
  Cl  Cl19  1  0.916815  0.705918  0.045329  1
  Cl  Cl20  1  0.045329  0.916815  0.705918  1
  Cl  Cl21  1  0.705918  0.045329  0.916815  1
