# generated using pymatgen
data_Tb12Co5Sb
_symmetry_space_group_name_H-M   'P 1'
_cell_length_a   8.31348668
_cell_length_b   8.31348736
_cell_length_c   8.31348722
_cell_angle_alpha   110.84084603
_cell_angle_beta   110.52735038
_cell_angle_gamma   107.07194617
_symmetry_Int_Tables_number   1
_chemical_formula_structural   Tb12Co5Sb
_chemical_formula_sum   'Tb12 Co5 Sb1'
_cell_volume   441.72890991
_cell_formula_units_Z   1
loop_
 _symmetry_equiv_pos_site_id
 _symmetry_equiv_pos_as_xyz
  1  'x, y, z'
loop_
 _atom_site_type_symbol
 _atom_site_label
 _atom_site_symmetry_multiplicity
 _atom_site_fract_x
 _atom_site_fract_y
 _atom_site_fract_z
 _atom_site_occupancy
  Tb  Tb0  1  0.815437  0.708762  0.524199  1
  Tb  Tb1  1  0.184563  0.291238  0.475801  1
  Tb  Tb2  1  0.184563  0.708762  0.893326  1
  Tb  Tb3  1  0.815437  0.291238  0.106674  1
  Tb  Tb4  1  0.686843  0.379102  0.692259  1
  Tb  Tb5  1  0.313157  0.620898  0.307741  1
  Tb  Tb6  1  0.686843  0.994584  0.307741  1
  Tb  Tb7  1  0.313157  0.005416  0.692259  1
  Tb  Tb8  1  0.600077  0.792918  0.807160  1
  Tb  Tb9  1  0.399923  0.207082  0.192840  1
  Tb  Tb10  1  0.985758  0.792918  0.192840  1
  Tb  Tb11  1  0.014242  0.207082  0.807160  1
  Co  Co12  1  0.624395  0.000000  0.624395  1
  Co  Co13  1  0.375605  0.000000  0.375605  1
  Co  Co14  1  0.111983  0.611983  0.500000  1
  Co  Co15  1  0.888017  0.388017  0.500000  1
  Co  Co16  1  0.000000  0.000000  0.000000  1
  Sb  Sb17  1  0.500000  0.500000  0.000000  1
