# generated using pymatgen
data_Ca9Nd3(GaIr)8
_symmetry_space_group_name_H-M   'P 1'
_cell_length_a   5.74913854
_cell_length_b   7.91193209
_cell_length_c   13.91558092
_cell_angle_alpha   90.25874482
_cell_angle_beta   89.86354090
_cell_angle_gamma   89.92210411
_symmetry_Int_Tables_number   1
_chemical_formula_structural   Ca9Nd3(GaIr)8
_chemical_formula_sum   'Ca9 Nd3 Ga8 Ir8'
_cell_volume   632.96631530
_cell_formula_units_Z   1
loop_
 _symmetry_equiv_pos_site_id
 _symmetry_equiv_pos_as_xyz
  1  'x, y, z'
loop_
 _atom_site_type_symbol
 _atom_site_label
 _atom_site_symmetry_multiplicity
 _atom_site_fract_x
 _atom_site_fract_y
 _atom_site_fract_z
 _atom_site_occupancy
  Ca  Ca0  1  0.856549  0.396408  0.597722  1
  Ca  Ca1  1  0.854673  0.392498  0.902558  1
  Ca  Ca2  1  0.853604  0.107090  0.098145  1
  Ca  Ca3  1  0.147374  0.891766  0.598140  1
  Ca  Ca4  1  0.141724  0.605781  0.404534  1
  Ca  Ca5  1  0.371741  0.256765  0.250621  1
  Ca  Ca6  1  0.372523  0.244887  0.747760  1
  Ca  Ca7  1  0.627780  0.754733  0.250783  1
  Ca  Ca8  1  0.630238  0.743255  0.748211  1
  Nd  Nd9  1  0.149238  0.603883  0.096085  1
  Nd  Nd10  1  0.148172  0.896802  0.903094  1
  Nd  Nd11  1  0.851275  0.105935  0.406060  1
  Ga  Ga12  1  0.394935  0.250328  0.000207  1
  Ga  Ga13  1  0.604372  0.748758  0.500492  1
  Ga  Ga14  1  0.620343  0.749752  0.999072  1
  Ga  Ga15  1  0.386624  0.251441  0.502193  1
  Ga  Ga16  1  0.846542  0.409638  0.250588  1
  Ga  Ga17  1  0.848396  0.088560  0.748344  1
  Ga  Ga18  1  0.151616  0.910567  0.249735  1
  Ga  Ga19  1  0.155770  0.590442  0.749609  1
  Ir  Ir20  1  0.641381  0.475116  0.094378  1
  Ir  Ir21  1  0.638318  0.025876  0.904284  1
  Ir  Ir22  1  0.360791  0.975541  0.404928  1
  Ir  Ir23  1  0.361961  0.528317  0.594138  1
  Ir  Ir24  1  0.348863  0.531214  0.908186  1
  Ir  Ir25  1  0.349327  0.967305  0.090845  1
  Ir  Ir26  1  0.646019  0.029977  0.591778  1
  Ir  Ir27  1  0.639851  0.467365  0.407511  1
