# generated using pymatgen
data_Ac4Pb3
_symmetry_space_group_name_H-M   'P 1'
_cell_length_a   8.93379855
_cell_length_b   8.93379861
_cell_length_c   8.93379800
_cell_angle_alpha   109.47122151
_cell_angle_beta   109.47122165
_cell_angle_gamma   109.47121949
_symmetry_Int_Tables_number   1
_chemical_formula_structural   Ac4Pb3
_chemical_formula_sum   'Ac8 Pb6'
_cell_volume   548.89155315
_cell_formula_units_Z   2
loop_
 _symmetry_equiv_pos_site_id
 _symmetry_equiv_pos_as_xyz
  1  'x, y, z'
loop_
 _atom_site_type_symbol
 _atom_site_label
 _atom_site_symmetry_multiplicity
 _atom_site_fract_x
 _atom_site_fract_y
 _atom_site_fract_z
 _atom_site_occupancy
  Ac  Ac0  1  0.362315  0.500000  0.000000  1
  Ac  Ac1  1  0.862315  0.499999  0.000000  1
  Ac  Ac2  1  0.137685  0.137685  0.137685  1
  Ac  Ac3  1  0.500000  0.000000  0.362315  1
  Ac  Ac4  1  0.000000  0.362315  0.500000  1
  Ac  Ac5  1  0.000000  0.862315  0.499999  1
  Ac  Ac6  1  0.637686  0.637686  0.637686  1
  Ac  Ac7  1  0.499999  0.000000  0.862315  1
  Pb  Pb8  1  0.750000  0.874999  0.125000  1
  Pb  Pb9  1  0.625000  0.375000  0.250000  1
  Pb  Pb10  1  0.250000  0.625000  0.375000  1
  Pb  Pb11  1  0.375000  0.250000  0.625000  1
  Pb  Pb12  1  0.874999  0.125000  0.750000  1
  Pb  Pb13  1  0.125000  0.750000  0.874999  1
