# generated using pymatgen
data_Ti7Co8Si14Mo
_symmetry_space_group_name_H-M   'P 1'
_cell_length_a   9.16647478
_cell_length_b   9.16672573
_cell_length_c   9.16972414
_cell_angle_alpha   94.17014206
_cell_angle_beta   94.16761013
_cell_angle_gamma   148.71211384
_symmetry_Int_Tables_number   1
_chemical_formula_structural   Ti7Co8Si14Mo
_chemical_formula_sum   'Ti7 Co8 Si14 Mo1'
_cell_volume   385.33530356
_cell_formula_units_Z   1
loop_
 _symmetry_equiv_pos_site_id
 _symmetry_equiv_pos_as_xyz
  1  'x, y, z'
loop_
 _atom_site_type_symbol
 _atom_site_label
 _atom_site_symmetry_multiplicity
 _atom_site_fract_x
 _atom_site_fract_y
 _atom_site_fract_z
 _atom_site_occupancy
  Ti  Ti0  1  0.865867  0.865848  0.731719  1
  Ti  Ti1  1  0.864169  0.134800  0.998956  1
  Ti  Ti2  1  0.134766  0.864166  0.998951  1
  Ti  Ti3  1  0.500756  0.691990  0.192713  1
  Ti  Ti4  1  0.500426  0.308421  0.808829  1
  Ti  Ti5  1  0.308397  0.500381  0.808800  1
  Ti  Ti6  1  0.691970  0.500713  0.192683  1
  Co  Co7  1  0.399553  0.899562  0.799139  1
  Co  Co8  1  0.100463  0.600473  0.200906  1
  Co  Co9  1  0.101086  0.900045  0.499747  1
  Co  Co10  1  0.398647  0.599704  0.499745  1
  Co  Co11  1  0.599730  0.398653  0.499751  1
  Co  Co12  1  0.900041  0.101082  0.499747  1
  Co  Co13  1  0.899567  0.399579  0.799152  1
  Co  Co14  1  0.600481  0.100489  0.200963  1
  Si  Si15  1  0.293414  0.293390  0.586687  1
  Si  Si16  1  0.706293  0.706273  0.412689  1
  Si  Si17  1  0.705482  0.294479  0.000102  1
  Si  Si18  1  0.294583  0.705669  0.000109  1
  Si  Si19  1  0.000741  0.293356  0.294184  1
  Si  Si20  1  0.999484  0.706285  0.705836  1
  Si  Si21  1  0.706298  0.999515  0.705794  1
  Si  Si22  1  0.293443  0.000849  0.294144  1
  Si  Si23  1  0.500390  0.905620  0.405920  1
  Si  Si24  1  0.500315  0.094249  0.594505  1
  Si  Si25  1  0.094181  0.500268  0.594494  1
  Si  Si26  1  0.905505  0.500292  0.405914  1
  Si  Si27  1  0.751294  0.751236  0.001064  1
  Si  Si28  1  0.249817  0.249775  0.001054  1
  Mo  Mo29  1  0.132840  0.132838  0.265700  1
