# generated using pymatgen
data_Pr2GeIrBr
_symmetry_space_group_name_H-M   'P 1'
_cell_length_a   4.38136300
_cell_length_b   4.38136081
_cell_length_c   16.23805400
_cell_angle_alpha   90.00000000
_cell_angle_beta   90.00000000
_cell_angle_gamma   119.99999387
_symmetry_Int_Tables_number   1
_chemical_formula_structural   Pr2GeIrBr
_chemical_formula_sum   'Pr4 Ge2 Ir2 Br2'
_cell_volume   269.94972888
_cell_formula_units_Z   2
loop_
 _symmetry_equiv_pos_site_id
 _symmetry_equiv_pos_as_xyz
  1  'x, y, z'
loop_
 _atom_site_type_symbol
 _atom_site_label
 _atom_site_symmetry_multiplicity
 _atom_site_fract_x
 _atom_site_fract_y
 _atom_site_fract_z
 _atom_site_occupancy
  Pr  Pr0  1  0.000000  0.000000  0.610084  1
  Pr  Pr1  1  0.000000  0.000000  0.393162  1
  Pr  Pr2  1  0.000000  0.000000  0.110084  1
  Pr  Pr3  1  0.000000  0.000000  0.893162  1
  Ge  Ge4  1  0.666667  0.333333  0.507934  1
  Ge  Ge5  1  0.333333  0.666667  0.007934  1
  Ir  Ir6  1  0.666667  0.333333  0.992691  1
  Ir  Ir7  1  0.333333  0.666667  0.492691  1
  Br  Br8  1  0.666667  0.333333  0.246130  1
  Br  Br9  1  0.333333  0.666667  0.746130  1
