# generated using pymatgen
data_Zr2Pa2InGaNi4
_symmetry_space_group_name_H-M   'P 1'
_cell_length_a   7.33542499
_cell_length_b   7.16610903
_cell_length_c   3.43925700
_cell_angle_alpha   90.00000000
_cell_angle_beta   90.00000000
_cell_angle_gamma   89.91470314
_symmetry_Int_Tables_number   1
_chemical_formula_structural   Zr2Pa2InGaNi4
_chemical_formula_sum   'Zr2 Pa2 In1 Ga1 Ni4'
_cell_volume   180.78934880
_cell_formula_units_Z   1
loop_
 _symmetry_equiv_pos_site_id
 _symmetry_equiv_pos_as_xyz
  1  'x, y, z'
loop_
 _atom_site_type_symbol
 _atom_site_label
 _atom_site_symmetry_multiplicity
 _atom_site_fract_x
 _atom_site_fract_y
 _atom_site_fract_z
 _atom_site_occupancy
  Zr  Zr0  1  0.309814  0.168343  0.500000  1
  Zr  Zr1  1  0.831448  0.314906  0.500000  1
  Pa  Pa2  1  0.167913  0.678056  0.500000  1
  Pa  Pa3  1  0.681490  0.838199  0.500000  1
  In  In4  1  0.504910  0.482213  0.000000  1
  Ga  Ga5  1  0.005097  0.018738  0.000000  1
  Ni  Ni6  1  0.121279  0.381639  0.000000  1
  Ni  Ni7  1  0.374260  0.866317  0.000000  1
  Ni  Ni8  1  0.625380  0.113992  0.000000  1
  Ni  Ni9  1  0.878410  0.637595  0.000000  1
