# generated using pymatgen
data_Tb5CeBiO12
_symmetry_space_group_name_H-M   'P 1'
_cell_length_a   6.62013679
_cell_length_b   6.62938092
_cell_length_c   6.58273800
_cell_angle_alpha   99.13676359
_cell_angle_beta   98.80567928
_cell_angle_gamma   99.11396073
_symmetry_Int_Tables_number   1
_chemical_formula_structural   Tb5CeBiO12
_chemical_formula_sum   'Tb5 Ce1 Bi1 O12'
_cell_volume   276.88547787
_cell_formula_units_Z   1
loop_
 _symmetry_equiv_pos_site_id
 _symmetry_equiv_pos_as_xyz
  1  'x, y, z'
loop_
 _atom_site_type_symbol
 _atom_site_label
 _atom_site_symmetry_multiplicity
 _atom_site_fract_x
 _atom_site_fract_y
 _atom_site_fract_z
 _atom_site_occupancy
  Tb  Tb0  1  0.859639  0.694252  0.391862  1
  Tb  Tb1  1  0.389129  0.856213  0.686975  1
  Tb  Tb2  1  0.309881  0.611196  0.145470  1
  Tb  Tb3  1  0.142499  0.310707  0.607109  1
  Tb  Tb4  1  0.608364  0.136053  0.308392  1
  Ce  Ce5  1  0.686760  0.395121  0.856998  1
  Bi  Bi6  1  0.002109  0.002721  0.999675  1
  O  O7  1  0.434412  0.179342  0.590662  1
  O  O8  1  0.589613  0.429909  0.171711  1
  O  O9  1  0.175330  0.585216  0.433853  1
  O  O10  1  0.566914  0.820712  0.412022  1
  O  O11  1  0.417287  0.566613  0.822230  1
  O  O12  1  0.817231  0.413261  0.572801  1
  O  O13  1  0.072388  0.316290  0.949141  1
  O  O14  1  0.685409  0.048066  0.929802  1
  O  O15  1  0.049603  0.929030  0.684616  1
  O  O16  1  0.928947  0.685687  0.049904  1
  O  O17  1  0.314208  0.949474  0.071431  1
  O  O18  1  0.950279  0.070138  0.315344  1
