# generated using pymatgen
data_TbErTm2CdPt
_symmetry_space_group_name_H-M   'P 1'
_cell_length_a   9.62064758
_cell_length_b   9.61083346
_cell_length_c   9.61083500
_cell_angle_alpha   60.06757541
_cell_angle_beta   59.96621244
_cell_angle_gamma   59.96621720
_symmetry_Int_Tables_number   1
_chemical_formula_structural   TbErTm2CdPt
_chemical_formula_sum   'Tb4 Er4 Tm8 Cd4 Pt4'
_cell_volume   628.36298019
_cell_formula_units_Z   4
loop_
 _symmetry_equiv_pos_site_id
 _symmetry_equiv_pos_as_xyz
  1  'x, y, z'
loop_
 _atom_site_type_symbol
 _atom_site_label
 _atom_site_symmetry_multiplicity
 _atom_site_fract_x
 _atom_site_fract_y
 _atom_site_fract_z
 _atom_site_occupancy
  Tb  Tb0  1  0.564835  0.935165  0.564835  1
  Tb  Tb1  1  0.935165  0.564835  0.935165  1
  Tb  Tb2  1  0.564835  0.564835  0.935165  1
  Tb  Tb3  1  0.935165  0.935165  0.564835  1
  Er  Er4  1  0.351777  0.352256  0.352256  1
  Er  Er5  1  0.352256  0.351777  0.943711  1
  Er  Er6  1  0.352256  0.943711  0.351777  1
  Er  Er7  1  0.943711  0.352256  0.352256  1
  Tm  Tm8  1  0.811092  0.188908  0.188908  1
  Tm  Tm9  1  0.188908  0.811092  0.811092  1
  Tm  Tm10  1  0.188855  0.811145  0.188855  1
  Tm  Tm11  1  0.811145  0.188855  0.811145  1
  Tm  Tm12  1  0.188855  0.188855  0.811145  1
  Tm  Tm13  1  0.811145  0.811145  0.188855  1
  Tm  Tm14  1  0.936907  0.563093  0.563093  1
  Tm  Tm15  1  0.563093  0.936907  0.936907  1
  Cd  Cd16  1  0.582353  0.581153  0.581153  1
  Cd  Cd17  1  0.581153  0.582353  0.255339  1
  Cd  Cd18  1  0.581153  0.255339  0.582353  1
  Cd  Cd19  1  0.255339  0.581153  0.581153  1
  Pt  Pt20  1  0.143522  0.142484  0.142484  1
  Pt  Pt21  1  0.142484  0.143522  0.571511  1
  Pt  Pt22  1  0.142484  0.571511  0.143522  1
  Pt  Pt23  1  0.571511  0.142484  0.142484  1
