# generated using pymatgen
data_Hf7ZrFe7Si14Rh
_symmetry_space_group_name_H-M   'P 1'
_cell_length_a   9.49450317
_cell_length_b   9.49244265
_cell_length_c   9.50821631
_cell_angle_alpha   94.11567010
_cell_angle_beta   94.12485769
_cell_angle_gamma   148.66218245
_symmetry_Int_Tables_number   1
_chemical_formula_structural   Hf7ZrFe7Si14Rh
_chemical_formula_sum   'Hf7 Zr1 Fe7 Si14 Rh1'
_cell_volume   429.61797672
_cell_formula_units_Z   1
loop_
 _symmetry_equiv_pos_site_id
 _symmetry_equiv_pos_as_xyz
  1  'x, y, z'
loop_
 _atom_site_type_symbol
 _atom_site_label
 _atom_site_symmetry_multiplicity
 _atom_site_fract_x
 _atom_site_fract_y
 _atom_site_fract_z
 _atom_site_occupancy
  Hf  Hf0  1  0.698571  0.500681  0.194952  1
  Hf  Hf1  1  0.496760  0.695319  0.195497  1
  Hf  Hf2  1  0.499074  0.301656  0.804768  1
  Hf  Hf3  1  0.304590  0.502645  0.804255  1
  Hf  Hf4  1  0.862706  0.863212  0.724690  1
  Hf  Hf5  1  0.138527  0.861253  0.999917  1
  Hf  Hf6  1  0.861425  0.138638  0.999909  1
  Zr  Zr7  1  0.135935  0.136413  0.273742  1
  Fe  Fe8  1  0.903691  0.400426  0.802506  1
  Fe  Fe9  1  0.599655  0.096297  0.197497  1
  Fe  Fe10  1  0.100171  0.603418  0.206827  1
  Fe  Fe11  1  0.601469  0.399879  0.500874  1
  Fe  Fe12  1  0.396594  0.899758  0.793178  1
  Fe  Fe13  1  0.899521  0.100351  0.500793  1
  Fe  Fe14  1  0.395608  0.605212  0.500539  1
  Si  Si15  1  0.748616  0.748915  0.998952  1
  Si  Si16  1  0.249976  0.250273  0.999030  1
  Si  Si17  1  0.088296  0.500491  0.595284  1
  Si  Si18  1  0.535817  0.121672  0.595854  1
  Si  Si19  1  0.499095  0.911230  0.404674  1
  Si  Si20  1  0.878631  0.464658  0.404163  1
  Si  Si21  1  0.703247  0.004412  0.702607  1
  Si  Si22  1  0.987836  0.685623  0.704215  1
  Si  Si23  1  0.696845  0.699095  0.418550  1
  Si  Si24  1  0.289306  0.710173  0.000020  1
  Si  Si25  1  0.314994  0.011995  0.296281  1
  Si  Si26  1  0.710651  0.289905  0.000025  1
  Si  Si27  1  0.301310  0.303596  0.581851  1
  Si  Si28  1  0.995614  0.297561  0.297998  1
  Rh  Rh29  1  0.105469  0.895242  0.500553  1
