# generated using pymatgen
data_PrNdNCl3
_symmetry_space_group_name_H-M   'P 1'
_cell_length_a   6.32041800
_cell_length_b   6.94535500
_cell_length_c   13.63427100
_cell_angle_alpha   90.00000000
_cell_angle_beta   90.00000000
_cell_angle_gamma   90.00000000
_symmetry_Int_Tables_number   1
_chemical_formula_structural   PrNdNCl3
_chemical_formula_sum   'Pr4 Nd4 N4 Cl12'
_cell_volume   598.51104874
_cell_formula_units_Z   4
loop_
 _symmetry_equiv_pos_site_id
 _symmetry_equiv_pos_as_xyz
  1  'x, y, z'
loop_
 _atom_site_type_symbol
 _atom_site_label
 _atom_site_symmetry_multiplicity
 _atom_site_fract_x
 _atom_site_fract_y
 _atom_site_fract_z
 _atom_site_occupancy
  Pr  Pr0  1  0.006198  0.324339  0.407374  1
  Pr  Pr1  1  0.506198  0.175661  0.092626  1
  Pr  Pr2  1  0.493802  0.324339  0.592626  1
  Pr  Pr3  1  0.993802  0.175661  0.907374  1
  Nd  Nd4  1  0.993589  0.674460  0.591704  1
  Nd  Nd5  1  0.493589  0.825540  0.908296  1
  Nd  Nd6  1  0.506411  0.674460  0.408296  1
  Nd  Nd7  1  0.006411  0.825540  0.091704  1
  N  N8  1  0.750000  0.494321  0.500000  1
  N  N9  1  0.250000  0.005679  0.000000  1
  N  N10  1  0.250000  0.509201  0.500000  1
  N  N11  1  0.750000  0.990799  0.000000  1
  Cl  Cl12  1  0.103260  0.362600  0.717285  1
  Cl  Cl13  1  0.603260  0.137400  0.782715  1
  Cl  Cl14  1  0.396740  0.362600  0.282715  1
  Cl  Cl15  1  0.896740  0.137400  0.217285  1
  Cl  Cl16  1  0.750000  0.502706  0.000000  1
  Cl  Cl17  1  0.250000  0.997294  0.500000  1
  Cl  Cl18  1  0.250000  0.499714  0.000000  1
  Cl  Cl19  1  0.750000  0.000286  0.500000  1
  Cl  Cl20  1  0.104728  0.860813  0.781634  1
  Cl  Cl21  1  0.604728  0.639187  0.718366  1
  Cl  Cl22  1  0.395272  0.860813  0.218366  1
  Cl  Cl23  1  0.895272  0.639187  0.281634  1
