# generated using pymatgen
data_Cs3Rb9(InSe3)4
_symmetry_space_group_name_H-M   'P 1'
_cell_length_a   14.58224438
_cell_length_b   8.74330786
_cell_length_c   11.16467300
_cell_angle_alpha   53.04804387
_cell_angle_beta   89.54669746
_cell_angle_gamma   89.42265174
_symmetry_Int_Tables_number   1
_chemical_formula_structural   Cs3Rb9(InSe3)4
_chemical_formula_sum   'Cs3 Rb9 In4 Se12'
_cell_volume   1137.48513057
_cell_formula_units_Z   1
loop_
 _symmetry_equiv_pos_site_id
 _symmetry_equiv_pos_as_xyz
  1  'x, y, z'
loop_
 _atom_site_type_symbol
 _atom_site_label
 _atom_site_symmetry_multiplicity
 _atom_site_fract_x
 _atom_site_fract_y
 _atom_site_fract_z
 _atom_site_occupancy
  Cs  Cs0  1  0.312038  0.166401  0.060553  1
  Cs  Cs1  1  0.685709  0.837283  0.938938  1
  Cs  Cs2  1  0.815206  0.838387  0.440544  1
  Rb  Rb3  1  0.896990  0.316136  0.402621  1
  Rb  Rb4  1  0.612383  0.365609  0.474041  1
  Rb  Rb5  1  0.113488  0.633234  0.026146  1
  Rb  Rb6  1  0.385681  0.636664  0.526211  1
  Rb  Rb7  1  0.889319  0.363936  0.974285  1
  Rb  Rb8  1  0.607619  0.313545  0.903988  1
  Rb  Rb9  1  0.108005  0.684260  0.596990  1
  Rb  Rb10  1  0.391319  0.688070  0.095652  1
  Rb  Rb11  1  0.187058  0.158828  0.567719  1
  In  In12  1  0.067607  0.940852  0.162240  1
  In  In13  1  0.564138  0.052745  0.339000  1
  In  In14  1  0.431061  0.953826  0.659020  1
  In  In15  1  0.935921  0.052052  0.838028  1
  Se  Se16  1  0.404639  0.190534  0.359989  1
  Se  Se17  1  0.907230  0.815679  0.137360  1
  Se  Se18  1  0.589730  0.813575  0.638932  1
  Se  Se19  1  0.096611  0.177305  0.861629  1
  Se  Se20  1  0.691519  0.313060  0.204142  1
  Se  Se21  1  0.191963  0.671397  0.302390  1
  Se  Se22  1  0.301970  0.697976  0.791316  1
  Se  Se23  1  0.808519  0.314719  0.703689  1
  Se  Se24  1  0.547296  0.859045  0.233963  1
  Se  Se25  1  0.052481  0.140332  0.263168  1
  Se  Se26  1  0.450446  0.144902  0.765778  1
  Se  Se27  1  0.954050  0.859648  0.731665  1
