# generated using pymatgen
data_Y16MgHg3IrRh3
_symmetry_space_group_name_H-M   'P 1'
_cell_length_a   9.66749906
_cell_length_b   9.65382514
_cell_length_c   9.65382500
_cell_angle_alpha   59.99999706
_cell_angle_beta   60.04677472
_cell_angle_gamma   60.04677540
_symmetry_Int_Tables_number   1
_chemical_formula_structural   Y16MgHg3IrRh3
_chemical_formula_sum   'Y16 Mg1 Hg3 Ir1 Rh3'
_cell_volume   637.53593330
_cell_formula_units_Z   1
loop_
 _symmetry_equiv_pos_site_id
 _symmetry_equiv_pos_as_xyz
  1  'x, y, z'
loop_
 _atom_site_type_symbol
 _atom_site_label
 _atom_site_symmetry_multiplicity
 _atom_site_fract_x
 _atom_site_fract_y
 _atom_site_fract_z
 _atom_site_occupancy
  Y  Y0  1  0.600699  0.598469  0.598469  1
  Y  Y1  1  0.600699  0.598469  0.202362  1
  Y  Y2  1  0.600699  0.202362  0.598469  1
  Y  Y3  1  0.189600  0.603466  0.603466  1
  Y  Y4  1  0.059383  0.440230  0.440230  1
  Y  Y5  1  0.436833  0.062832  0.062832  1
  Y  Y6  1  0.436833  0.062832  0.437503  1
  Y  Y7  1  0.059383  0.440230  0.060156  1
  Y  Y8  1  0.436833  0.437503  0.062832  1
  Y  Y9  1  0.059383  0.060156  0.440230  1
  Y  Y10  1  0.185087  0.814046  0.814046  1
  Y  Y11  1  0.813746  0.186516  0.186516  1
  Y  Y12  1  0.813746  0.186516  0.813223  1
  Y  Y13  1  0.185087  0.814046  0.186822  1
  Y  Y14  1  0.813746  0.813223  0.186516  1
  Y  Y15  1  0.185087  0.186822  0.814046  1
  Mg  Mg16  1  0.536816  0.821062  0.821062  1
  Hg  Hg17  1  0.831787  0.836323  0.836323  1
  Hg  Hg18  1  0.831787  0.836323  0.495569  1
  Hg  Hg19  1  0.831787  0.495569  0.836323  1
  Ir  Ir20  1  0.823246  0.392251  0.392251  1
  Rh  Rh21  1  0.389244  0.394233  0.394233  1
  Rh  Rh22  1  0.389244  0.394233  0.822290  1
  Rh  Rh23  1  0.389244  0.822290  0.394233  1
