# generated using pymatgen
data_La4Co3Pt3O19
_symmetry_space_group_name_H-M   'P 1'
_cell_length_a   7.75887525
_cell_length_b   7.75787413
_cell_length_c   7.75787401
_cell_angle_alpha   109.46859065
_cell_angle_beta   109.47382923
_cell_angle_gamma   109.47384710
_symmetry_Int_Tables_number   1
_chemical_formula_structural   La4Co3Pt3O19
_chemical_formula_sum   'La4 Co3 Pt3 O19'
_cell_volume   359.45817533
_cell_formula_units_Z   1
loop_
 _symmetry_equiv_pos_site_id
 _symmetry_equiv_pos_as_xyz
  1  'x, y, z'
loop_
 _atom_site_type_symbol
 _atom_site_label
 _atom_site_symmetry_multiplicity
 _atom_site_fract_x
 _atom_site_fract_y
 _atom_site_fract_z
 _atom_site_occupancy
  La  La0  1  0.010271  0.016836  0.334958  1
  La  La1  1  0.993435  0.318122  0.983164  1
  La  La2  1  0.675313  0.665042  0.681878  1
  La  La3  1  0.318096  0.000000  0.000000  1
  Co  Co4  1  0.339030  0.496444  0.838309  1
  Co  Co5  1  0.842587  0.341865  0.503556  1
  Co  Co6  1  0.500721  0.161691  0.658135  1
  Pt  Pt7  1  0.160662  0.658578  0.502830  1
  Pt  Pt8  1  0.502084  0.844252  0.341422  1
  Pt  Pt9  1  0.657832  0.497170  0.155748  1
  O  O10  1  0.343728  0.004449  0.352424  1
  O  O11  1  0.339279  0.347975  0.995551  1
  O  O12  1  0.991304  0.647576  0.652025  1
  O  O13  1  0.644779  0.652405  0.995833  1
  O  O14  1  0.992374  0.343428  0.347595  1
  O  O15  1  0.648946  0.004167  0.656572  1
  O  O16  1  0.003091  0.000000  0.000000  1
  O  O17  1  0.363649  0.321050  0.626395  1
  O  O18  1  0.042600  0.305344  0.678950  1
  O  O19  1  0.737255  0.373605  0.694656  1
  O  O20  1  0.384858  0.694808  0.749136  1
  O  O21  1  0.265565  0.969323  0.645591  1
  O  O22  1  0.619975  0.354409  0.323733  1
  O  O23  1  0.320884  0.605684  0.356417  1
  O  O24  1  0.690051  0.054330  0.305192  1
  O  O25  1  0.964466  0.643583  0.249266  1
  O  O26  1  0.715201  0.750734  0.394316  1
  O  O27  1  0.635722  0.250864  0.945670  1
  O  O28  1  0.296241  0.676267  0.030677  1
