# generated using pymatgen
data_Sm6Nb2Co15NiP12
_symmetry_space_group_name_H-M   'P 1'
_cell_length_a   3.75097300
_cell_length_b   10.70599400
_cell_length_c   12.44626700
_cell_angle_alpha   90.00000000
_cell_angle_beta   90.00000000
_cell_angle_gamma   90.00000000
_symmetry_Int_Tables_number   1
_chemical_formula_structural   Sm6Nb2Co15NiP12
_chemical_formula_sum   'Sm6 Nb2 Co15 Ni1 P12'
_cell_volume   499.81587626
_cell_formula_units_Z   1
loop_
 _symmetry_equiv_pos_site_id
 _symmetry_equiv_pos_as_xyz
  1  'x, y, z'
loop_
 _atom_site_type_symbol
 _atom_site_label
 _atom_site_symmetry_multiplicity
 _atom_site_fract_x
 _atom_site_fract_y
 _atom_site_fract_z
 _atom_site_occupancy
  Sm  Sm0  1  0.000000  0.500000  0.523317  1
  Sm  Sm1  1  0.500000  0.000000  0.474533  1
  Sm  Sm2  1  0.500000  0.819781  0.205267  1
  Sm  Sm3  1  0.500000  0.180219  0.205267  1
  Sm  Sm4  1  0.000000  0.682015  0.795787  1
  Sm  Sm5  1  0.000000  0.317985  0.795787  1
  Nb  Nb6  1  0.500000  0.500000  0.155042  1
  Nb  Nb7  1  0.000000  0.000000  0.844518  1
  Co  Co8  1  0.000000  0.000000  0.297776  1
  Co  Co9  1  0.000000  0.500000  0.986592  1
  Co  Co10  1  0.500000  0.000000  0.013744  1
  Co  Co11  1  0.500000  0.332543  0.992039  1
  Co  Co12  1  0.500000  0.667457  0.992039  1
  Co  Co13  1  0.000000  0.167295  0.008058  1
  Co  Co14  1  0.000000  0.832705  0.008058  1
  Co  Co15  1  0.500000  0.295505  0.432019  1
  Co  Co16  1  0.500000  0.704495  0.432019  1
  Co  Co17  1  0.000000  0.204388  0.567844  1
  Co  Co18  1  0.000000  0.795612  0.567844  1
  Co  Co19  1  0.500000  0.878840  0.705722  1
  Co  Co20  1  0.500000  0.121160  0.705722  1
  Co  Co21  1  0.000000  0.621110  0.294280  1
  Co  Co22  1  0.000000  0.378890  0.294280  1
  Ni  Ni23  1  0.500000  0.500000  0.702397  1
  P  P24  1  0.500000  0.500000  0.885719  1
  P  P25  1  0.000000  0.000000  0.115921  1
  P  P26  1  0.500000  0.500000  0.351269  1
  P  P27  1  0.000000  0.000000  0.647918  1
  P  P28  1  0.500000  0.306871  0.613916  1
  P  P29  1  0.500000  0.693129  0.613916  1
  P  P30  1  0.000000  0.191733  0.385009  1
  P  P31  1  0.000000  0.808267  0.385009  1
  P  P32  1  0.500000  0.843103  0.896140  1
  P  P33  1  0.500000  0.156897  0.896140  1
  P  P34  1  0.000000  0.657570  0.104547  1
  P  P35  1  0.000000  0.342430  0.104547  1
