# generated using pymatgen
data_Li14Mn2Se9
_symmetry_space_group_name_H-M   'P 1'
_cell_length_a   7.42790400
_cell_length_b   7.42790438
_cell_length_c   10.39714900
_cell_angle_alpha   90.00000000
_cell_angle_beta   90.00000000
_cell_angle_gamma   119.99999831
_symmetry_Int_Tables_number   1
_chemical_formula_structural   Li14Mn2Se9
_chemical_formula_sum   'Li14 Mn2 Se9'
_cell_volume   496.79531721
_cell_formula_units_Z   1
loop_
 _symmetry_equiv_pos_site_id
 _symmetry_equiv_pos_as_xyz
  1  'x, y, z'
loop_
 _atom_site_type_symbol
 _atom_site_label
 _atom_site_symmetry_multiplicity
 _atom_site_fract_x
 _atom_site_fract_y
 _atom_site_fract_z
 _atom_site_occupancy
  Li  Li0  1  0.018106  0.673810  0.410799  1
  Li  Li1  1  0.326394  0.965508  0.089724  1
  Li  Li2  1  0.034492  0.360886  0.089724  1
  Li  Li3  1  0.000000  0.000000  0.750420  1
  Li  Li4  1  0.000000  0.000000  0.249580  1
  Li  Li5  1  0.326190  0.344297  0.410799  1
  Li  Li6  1  0.655703  0.981894  0.410799  1
  Li  Li7  1  0.360886  0.326394  0.910276  1
  Li  Li8  1  0.639114  0.673606  0.089724  1
  Li  Li9  1  0.344297  0.018106  0.589201  1
  Li  Li10  1  0.673810  0.655703  0.589201  1
  Li  Li11  1  0.965508  0.639114  0.910276  1
  Li  Li12  1  0.673606  0.034492  0.910276  1
  Li  Li13  1  0.981894  0.326190  0.589201  1
  Mn  Mn14  1  0.333333  0.666667  0.755135  1
  Mn  Mn15  1  0.666667  0.333333  0.244865  1
  Se  Se16  1  0.311779  0.974381  0.838330  1
  Se  Se17  1  0.025619  0.337397  0.838330  1
  Se  Se18  1  0.333333  0.666667  0.512635  1
  Se  Se19  1  0.000000  0.000000  0.500000  1
  Se  Se20  1  0.337397  0.311779  0.161670  1
  Se  Se21  1  0.662603  0.688221  0.838330  1
  Se  Se22  1  0.666667  0.333333  0.487365  1
  Se  Se23  1  0.974381  0.662603  0.161670  1
  Se  Se24  1  0.688221  0.025619  0.161670  1
