# generated using pymatgen
data_CsNa(NbBr3)3
_symmetry_space_group_name_H-M   'P 1'
_cell_length_a   10.31611306
_cell_length_b   10.47211721
_cell_length_c   10.50175669
_cell_angle_alpha   119.43325774
_cell_angle_beta   104.92399954
_cell_angle_gamma   97.39773543
_symmetry_Int_Tables_number   1
_chemical_formula_structural   CsNa(NbBr3)3
_chemical_formula_sum   'Cs2 Na2 Nb6 Br18'
_cell_volume   909.75790991
_cell_formula_units_Z   2
loop_
 _symmetry_equiv_pos_site_id
 _symmetry_equiv_pos_as_xyz
  1  'x, y, z'
loop_
 _atom_site_type_symbol
 _atom_site_label
 _atom_site_symmetry_multiplicity
 _atom_site_fract_x
 _atom_site_fract_y
 _atom_site_fract_z
 _atom_site_occupancy
  Cs  Cs0  1  0.329598  0.265756  0.476590  1
  Cs  Cs1  1  0.670402  0.734244  0.523410  1
  Na  Na2  1  0.627627  0.049545  0.194167  1
  Na  Na3  1  0.372373  0.950455  0.805833  1
  Nb  Nb4  1  0.129595  0.565046  0.227106  1
  Nb  Nb5  1  0.870405  0.434954  0.772894  1
  Nb  Nb6  1  0.121717  0.359252  0.900202  1
  Nb  Nb7  1  0.867029  0.313132  0.977185  1
  Nb  Nb8  1  0.878283  0.640748  0.099798  1
  Nb  Nb9  1  0.132971  0.686868  0.022815  1
  Br  Br10  1  0.007811  0.645129  0.747515  1
  Br  Br11  1  0.693158  0.592790  0.842555  1
  Br  Br12  1  0.318890  0.952025  0.063558  1
  Br  Br13  1  0.989275  0.101263  0.858121  1
  Br  Br14  1  0.013912  0.754985  0.399132  1
  Br  Br15  1  0.687892  0.351391  0.465072  1
  Br  Br16  1  0.312302  0.559205  0.911336  1
  Br  Br17  1  0.306842  0.407210  0.157445  1
  Br  Br18  1  0.285034  0.174248  0.761355  1
  Br  Br19  1  0.992189  0.354871  0.252485  1
  Br  Br20  1  0.687698  0.440795  0.088664  1
  Br  Br21  1  0.678381  0.189077  0.692409  1
  Br  Br22  1  0.714966  0.825752  0.238645  1
  Br  Br23  1  0.010725  0.898737  0.141879  1
  Br  Br24  1  0.986088  0.245015  0.600868  1
  Br  Br25  1  0.312108  0.648609  0.534928  1
  Br  Br26  1  0.681110  0.047975  0.936442  1
  Br  Br27  1  0.321619  0.810923  0.307591  1
