# generated using pymatgen
data_Th4Tl2ZnRh3
_symmetry_space_group_name_H-M   'P 1'
_cell_length_a   7.88089700
_cell_length_b   7.88089614
_cell_length_c   3.83360500
_cell_angle_alpha   90.00000000
_cell_angle_beta   90.00000000
_cell_angle_gamma   89.18865366
_symmetry_Int_Tables_number   1
_chemical_formula_structural   Th4Tl2ZnRh3
_chemical_formula_sum   'Th4 Tl2 Zn1 Rh3'
_cell_volume   238.07570211
_cell_formula_units_Z   1
loop_
 _symmetry_equiv_pos_site_id
 _symmetry_equiv_pos_as_xyz
  1  'x, y, z'
loop_
 _atom_site_type_symbol
 _atom_site_label
 _atom_site_symmetry_multiplicity
 _atom_site_fract_x
 _atom_site_fract_y
 _atom_site_fract_z
 _atom_site_occupancy
  Th  Th0  1  0.676141  0.176141  0.500000  1
  Th  Th1  1  0.341597  0.841597  0.500000  1
  Th  Th2  1  0.165024  0.310425  0.500000  1
  Th  Th3  1  0.810425  0.665024  0.500000  1
  Tl  Tl4  1  0.998175  0.990447  0.000000  1
  Tl  Tl5  1  0.490447  0.498175  0.000000  1
  Zn  Zn6  1  0.125620  0.625620  0.000000  1
  Rh  Rh7  1  0.885876  0.385876  0.000000  1
  Rh  Rh8  1  0.634939  0.871753  0.000000  1
  Rh  Rh9  1  0.371753  0.134939  0.000000  1
