# generated using pymatgen
data_Rb7LiTaIn2As5
_symmetry_space_group_name_H-M   'P 1'
_cell_length_a   8.82182066
_cell_length_b   9.63126196
_cell_length_c   14.73944515
_cell_angle_alpha   86.57619849
_cell_angle_beta   79.37841633
_cell_angle_gamma   86.48344352
_symmetry_Int_Tables_number   1
_chemical_formula_structural   Rb7LiTaIn2As5
_chemical_formula_sum   'Rb14 Li2 Ta2 In4 As10'
_cell_volume   1227.06854810
_cell_formula_units_Z   2
loop_
 _symmetry_equiv_pos_site_id
 _symmetry_equiv_pos_as_xyz
  1  'x, y, z'
loop_
 _atom_site_type_symbol
 _atom_site_label
 _atom_site_symmetry_multiplicity
 _atom_site_fract_x
 _atom_site_fract_y
 _atom_site_fract_z
 _atom_site_occupancy
  Rb  Rb0  1  0.858848  0.356515  0.649844  1
  Rb  Rb1  1  0.838460  0.797875  0.136852  1
  Rb  Rb2  1  0.240826  0.017319  0.467486  1
  Rb  Rb3  1  0.278844  0.262985  0.249025  1
  Rb  Rb4  1  0.738166  0.476118  0.970285  1
  Rb  Rb5  1  0.261834  0.523882  0.029715  1
  Rb  Rb6  1  0.640819  0.086217  0.874048  1
  Rb  Rb7  1  0.759174  0.982681  0.532514  1
  Rb  Rb8  1  0.721156  0.737015  0.750975  1
  Rb  Rb9  1  0.351129  0.347862  0.607919  1
  Rb  Rb10  1  0.141152  0.643485  0.350156  1
  Rb  Rb11  1  0.161540  0.202125  0.863148  1
  Rb  Rb12  1  0.359181  0.913783  0.125952  1
  Rb  Rb13  1  0.648871  0.652138  0.392081  1
  Li  Li14  1  0.080241  0.824040  0.823776  1
  Li  Li15  1  0.919759  0.175960  0.176224  1
  Ta  Ta16  1  0.339662  0.617691  0.779590  1
  Ta  Ta17  1  0.660338  0.382309  0.220410  1
  In  In18  1  0.354058  0.964057  0.699691  1
  In  In19  1  0.101318  0.724941  0.622866  1
  In  In20  1  0.898682  0.275059  0.377134  1
  In  In21  1  0.645942  0.035943  0.300309  1
  As  As22  1  0.936641  0.444861  0.209329  1
  As  As23  1  0.651885  0.172698  0.122634  1
  As  As24  1  0.063359  0.555139  0.790671  1
  As  As25  1  0.572234  0.293986  0.386023  1
  As  As26  1  0.427766  0.706014  0.613977  1
  As  As27  1  0.011845  0.004905  0.703234  1
  As  As28  1  0.500845  0.413546  0.815796  1
  As  As29  1  0.499155  0.586454  0.184204  1
  As  As30  1  0.348115  0.827302  0.877366  1
  As  As31  1  0.988155  0.995095  0.296766  1
