# generated using pymatgen
data_Ca3Si2Au9
_symmetry_space_group_name_H-M   'P 1'
_cell_length_a   4.48000400
_cell_length_b   9.73542200
_cell_length_c   13.17228100
_cell_angle_alpha   90.00000000
_cell_angle_beta   90.00000000
_cell_angle_gamma   90.00000000
_symmetry_Int_Tables_number   1
_chemical_formula_structural   Ca3Si2Au9
_chemical_formula_sum   'Ca6 Si4 Au18'
_cell_volume   574.50547274
_cell_formula_units_Z   2
loop_
 _symmetry_equiv_pos_site_id
 _symmetry_equiv_pos_as_xyz
  1  'x, y, z'
loop_
 _atom_site_type_symbol
 _atom_site_label
 _atom_site_symmetry_multiplicity
 _atom_site_fract_x
 _atom_site_fract_y
 _atom_site_fract_z
 _atom_site_occupancy
  Ca  Ca0  1  0.000000  0.996048  0.185111  1
  Ca  Ca1  1  0.000000  0.003952  0.814889  1
  Ca  Ca2  1  0.500000  0.503952  0.685111  1
  Ca  Ca3  1  0.500000  0.496048  0.314889  1
  Ca  Ca4  1  0.000000  0.000000  0.500000  1
  Ca  Ca5  1  0.500000  0.500000  0.000000  1
  Si  Si6  1  0.000000  0.344981  0.177618  1
  Si  Si7  1  0.000000  0.655019  0.822382  1
  Si  Si8  1  0.500000  0.155019  0.677618  1
  Si  Si9  1  0.500000  0.844981  0.322382  1
  Au  Au10  1  0.000000  0.208546  0.003514  1
  Au  Au11  1  0.000000  0.791454  0.996486  1
  Au  Au12  1  0.500000  0.291454  0.503514  1
  Au  Au13  1  0.500000  0.708546  0.496486  1
  Au  Au14  1  0.000000  0.278063  0.357667  1
  Au  Au15  1  0.000000  0.721937  0.642333  1
  Au  Au16  1  0.500000  0.221937  0.857667  1
  Au  Au17  1  0.500000  0.778063  0.142333  1
  Au  Au18  1  0.000000  0.254726  0.636987  1
  Au  Au19  1  0.000000  0.745274  0.363013  1
  Au  Au20  1  0.500000  0.245274  0.136987  1
  Au  Au21  1  0.500000  0.754726  0.863013  1
  Au  Au22  1  0.000000  0.591677  0.157998  1
  Au  Au23  1  0.000000  0.408323  0.842002  1
  Au  Au24  1  0.500000  0.908323  0.657998  1
  Au  Au25  1  0.500000  0.091677  0.342002  1
  Au  Au26  1  0.500000  0.000000  0.000000  1
  Au  Au27  1  0.000000  0.500000  0.500000  1
