# generated using pymatgen
data_Zr3Sc5(Nb3Si4)4
_symmetry_space_group_name_H-M   'P 1'
_cell_length_a   6.71082968
_cell_length_b   6.89926630
_cell_length_c   13.18647745
_cell_angle_alpha   89.97321833
_cell_angle_beta   89.92159113
_cell_angle_gamma   89.97904306
_symmetry_Int_Tables_number   1
_chemical_formula_structural   Zr3Sc5(Nb3Si4)4
_chemical_formula_sum   'Zr3 Sc5 Nb12 Si16'
_cell_volume   610.53060392
_cell_formula_units_Z   1
loop_
 _symmetry_equiv_pos_site_id
 _symmetry_equiv_pos_as_xyz
  1  'x, y, z'
loop_
 _atom_site_type_symbol
 _atom_site_label
 _atom_site_symmetry_multiplicity
 _atom_site_fract_x
 _atom_site_fract_y
 _atom_site_fract_z
 _atom_site_occupancy
  Zr  Zr0  1  0.500348  0.674632  0.595788  1
  Zr  Zr1  1  0.999711  0.826131  0.904367  1
  Zr  Zr2  1  0.499906  0.326564  0.096020  1
  Sc  Sc3  1  0.000516  0.173648  0.404984  1
  Sc  Sc4  1  0.500537  0.326816  0.405280  1
  Sc  Sc5  1  0.001756  0.173304  0.094705  1
  Sc  Sc6  1  0.497315  0.673490  0.905537  1
  Sc  Sc7  1  0.998355  0.825596  0.594520  1
  Nb  Nb8  1  0.662047  0.173035  0.624220  1
  Nb  Nb9  1  0.162158  0.327093  0.875791  1
  Nb  Nb10  1  0.337999  0.826772  0.123989  1
  Nb  Nb11  1  0.837083  0.673230  0.375423  1
  Nb  Nb12  1  0.337503  0.826159  0.375231  1
  Nb  Nb13  1  0.836874  0.672177  0.124333  1
  Nb  Nb14  1  0.663265  0.172366  0.875378  1
  Nb  Nb15  1  0.164228  0.328437  0.624907  1
  Nb  Nb16  1  0.836809  0.495547  0.751133  1
  Nb  Nb17  1  0.336992  0.004583  0.749186  1
  Nb  Nb18  1  0.163650  0.505601  0.249782  1
  Nb  Nb19  1  0.662789  0.995568  0.248858  1
  Si  Si20  1  0.668702  0.967159  0.460347  1
  Si  Si21  1  0.168413  0.534327  0.039030  1
  Si  Si22  1  0.331260  0.034683  0.961057  1
  Si  Si23  1  0.831932  0.465274  0.538844  1
  Si  Si24  1  0.330235  0.034708  0.538710  1
  Si  Si25  1  0.828710  0.465039  0.961277  1
  Si  Si26  1  0.671000  0.965151  0.038842  1
  Si  Si27  1  0.169544  0.532996  0.460705  1
  Si  Si28  1  0.459539  0.386099  0.750503  1
  Si  Si29  1  0.959527  0.114231  0.749223  1
  Si  Si30  1  0.541289  0.613979  0.250171  1
  Si  Si31  1  0.040247  0.886409  0.249830  1
  Si  Si32  1  0.703708  0.862797  0.749945  1
  Si  Si33  1  0.203626  0.637490  0.749969  1
  Si  Si34  1  0.294889  0.137377  0.250947  1
  Si  Si35  1  0.797539  0.361534  0.251169  1
