# generated using pymatgen
data_Tb7Tm(OsI4)2
_symmetry_space_group_name_H-M   'P 1'
_cell_length_a   11.31768739
_cell_length_b   11.30448855
_cell_length_c   6.20776606
_cell_angle_alpha   90.00305874
_cell_angle_beta   89.98769525
_cell_angle_gamma   90.00305821
_symmetry_Int_Tables_number   1
_chemical_formula_structural   Tb7Tm(OsI4)2
_chemical_formula_sum   'Tb7 Tm1 Os2 I8'
_cell_volume   794.22571310
_cell_formula_units_Z   1
loop_
 _symmetry_equiv_pos_site_id
 _symmetry_equiv_pos_as_xyz
  1  'x, y, z'
loop_
 _atom_site_type_symbol
 _atom_site_label
 _atom_site_symmetry_multiplicity
 _atom_site_fract_x
 _atom_site_fract_y
 _atom_site_fract_z
 _atom_site_occupancy
  Tb  Tb0  1  0.081250  0.800559  0.500240  1
  Tb  Tb1  1  0.081717  0.199476  0.000196  1
  Tb  Tb2  1  0.198936  0.082220  0.500141  1
  Tb  Tb3  1  0.918124  0.800648  0.999874  1
  Tb  Tb4  1  0.917262  0.199481  0.499822  1
  Tb  Tb5  1  0.199062  0.918285  0.999704  1
  Tb  Tb6  1  0.799993  0.918772  0.499923  1
  Tm  Tm7  1  0.807061  0.079335  0.000475  1
  Os  Os8  1  0.000012  0.999964  0.250144  1
  Os  Os9  1  0.999921  0.000046  0.749956  1
  I  I10  1  0.643143  0.149853  0.497342  1
  I  I11  1  0.850069  0.643335  0.502653  1
  I  I12  1  0.356105  0.149583  0.997323  1
  I  I13  1  0.149169  0.356876  0.497283  1
  I  I14  1  0.644067  0.853812  0.002619  1
  I  I15  1  0.356148  0.850352  0.502276  1
  I  I16  1  0.149508  0.643426  0.997665  1
  I  I17  1  0.848454  0.353979  0.002361  1
