# generated using pymatgen
data_Li2Ni3RhO8
_symmetry_space_group_name_H-M   'P 1'
_cell_length_a   5.95557872
_cell_length_b   5.95555965
_cell_length_c   5.95549142
_cell_angle_alpha   58.59850433
_cell_angle_beta   58.59920942
_cell_angle_gamma   58.59607209
_symmetry_Int_Tables_number   1
_chemical_formula_structural   Li2Ni3RhO8
_chemical_formula_sum   'Li2 Ni3 Rh1 O8'
_cell_volume   144.57707450
_cell_formula_units_Z   1
loop_
 _symmetry_equiv_pos_site_id
 _symmetry_equiv_pos_as_xyz
  1  'x, y, z'
loop_
 _atom_site_type_symbol
 _atom_site_label
 _atom_site_symmetry_multiplicity
 _atom_site_fract_x
 _atom_site_fract_y
 _atom_site_fract_z
 _atom_site_occupancy
  Li  Li0  1  0.132915  0.132946  0.132876  1
  Li  Li1  1  0.867083  0.867086  0.867126  1
  Ni  Ni2  1  0.000014  0.500013  0.499981  1
  Ni  Ni3  1  0.500003  0.999984  0.499996  1
  Ni  Ni4  1  0.499974  0.500014  0.000005  1
  Rh  Rh5  1  0.499996  0.499995  0.499971  1
  O  O6  1  0.269493  0.269505  0.269452  1
  O  O7  1  0.263363  0.263381  0.721947  1
  O  O8  1  0.263389  0.721973  0.263366  1
  O  O9  1  0.721976  0.263393  0.263352  1
  O  O10  1  0.278017  0.736604  0.736647  1
  O  O11  1  0.736625  0.278011  0.736644  1
  O  O12  1  0.736626  0.736601  0.278066  1
  O  O13  1  0.730526  0.730493  0.730569  1
