# generated using pymatgen
data_NdGd2WO7
_symmetry_space_group_name_H-M   'P 1'
_cell_length_a   6.57860301
_cell_length_b   6.57860305
_cell_length_c   7.68553100
_cell_angle_alpha   90.00000000
_cell_angle_beta   90.00000000
_cell_angle_gamma   109.65268183
_symmetry_Int_Tables_number   1
_chemical_formula_structural   NdGd2WO7
_chemical_formula_sum   'Nd2 Gd4 W2 O14'
_cell_volume   313.23929016
_cell_formula_units_Z   2
loop_
 _symmetry_equiv_pos_site_id
 _symmetry_equiv_pos_as_xyz
  1  'x, y, z'
loop_
 _atom_site_type_symbol
 _atom_site_label
 _atom_site_symmetry_multiplicity
 _atom_site_fract_x
 _atom_site_fract_y
 _atom_site_fract_z
 _atom_site_occupancy
  Nd  Nd0  1  0.500000  0.500000  0.500000  1
  Nd  Nd1  1  0.500000  0.500000  0.000000  1
  Gd  Gd2  1  0.000069  0.529573  0.250000  1
  Gd  Gd3  1  0.999931  0.470427  0.750000  1
  Gd  Gd4  1  0.529573  0.000069  0.750000  1
  Gd  Gd5  1  0.470427  0.999931  0.250000  1
  W  W6  1  0.000000  0.000000  0.500000  1
  W  W7  1  0.000000  0.000000  0.000000  1
  O  O8  1  0.944946  0.055054  0.750000  1
  O  O9  1  0.055054  0.944946  0.250000  1
  O  O10  1  0.360029  0.639971  0.250000  1
  O  O11  1  0.639971  0.360029  0.750000  1
  O  O12  1  0.366598  0.633402  0.750000  1
  O  O13  1  0.633402  0.366598  0.250000  1
  O  O14  1  0.320066  0.069671  0.973030  1
  O  O15  1  0.679934  0.930329  0.473030  1
  O  O16  1  0.320066  0.069671  0.526970  1
  O  O17  1  0.679934  0.930329  0.026970  1
  O  O18  1  0.069671  0.320066  0.473030  1
  O  O19  1  0.930329  0.679934  0.973030  1
  O  O20  1  0.930329  0.679934  0.526970  1
  O  O21  1  0.069671  0.320066  0.026970  1
