# generated using pymatgen
data_Ho4Pa2Fe13Co5P12
_symmetry_space_group_name_H-M   'P 1'
_cell_length_a   3.70669100
_cell_length_b   10.52941535
_cell_length_c   12.06908756
_cell_angle_alpha   89.94178647
_cell_angle_beta   90.00000000
_cell_angle_gamma   90.00000000
_symmetry_Int_Tables_number   1
_chemical_formula_structural   Ho4Pa2Fe13Co5P12
_chemical_formula_sum   'Ho4 Pa2 Fe13 Co5 P12'
_cell_volume   471.04766487
_cell_formula_units_Z   1
loop_
 _symmetry_equiv_pos_site_id
 _symmetry_equiv_pos_as_xyz
  1  'x, y, z'
loop_
 _atom_site_type_symbol
 _atom_site_label
 _atom_site_symmetry_multiplicity
 _atom_site_fract_x
 _atom_site_fract_y
 _atom_site_fract_z
 _atom_site_occupancy
  Ho  Ho0  1  0.500000  0.815802  0.204062  1
  Ho  Ho1  1  0.500000  0.184488  0.203673  1
  Ho  Ho2  1  0.000000  0.683801  0.796605  1
  Ho  Ho3  1  0.000000  0.315264  0.797037  1
  Pa  Pa4  1  0.000000  0.499162  0.527100  1
  Pa  Pa5  1  0.500000  0.001256  0.472854  1
  Fe  Fe6  1  0.000000  0.502612  0.985707  1
  Fe  Fe7  1  0.500000  0.998791  0.014341  1
  Fe  Fe8  1  0.500000  0.304192  0.429572  1
  Fe  Fe9  1  0.500000  0.696421  0.429686  1
  Fe  Fe10  1  0.000000  0.195479  0.570463  1
  Fe  Fe11  1  0.000000  0.803919  0.570848  1
  Fe  Fe12  1  0.500000  0.883076  0.711765  1
  Fe  Fe13  1  0.500000  0.116172  0.712479  1
  Fe  Fe14  1  0.000000  0.616974  0.288259  1
  Fe  Fe15  1  0.000000  0.383494  0.286131  1
  Fe  Fe16  1  0.500000  0.331790  0.993531  1
  Fe  Fe17  1  0.500000  0.502588  0.150497  1
  Fe  Fe18  1  0.000000  0.998963  0.848783  1
  Co  Co19  1  0.500000  0.669780  0.991998  1
  Co  Co20  1  0.000000  0.165462  0.007371  1
  Co  Co21  1  0.000000  0.831573  0.007736  1
  Co  Co22  1  0.500000  0.500364  0.693250  1
  Co  Co23  1  0.000000  0.999722  0.306702  1
  P  P24  1  0.500000  0.301714  0.616126  1
  P  P25  1  0.500000  0.697838  0.615810  1
  P  P26  1  0.000000  0.198713  0.384167  1
  P  P27  1  0.000000  0.802157  0.385087  1
  P  P28  1  0.500000  0.498969  0.881903  1
  P  P29  1  0.000000  0.999325  0.119066  1
  P  P30  1  0.500000  0.849928  0.893200  1
  P  P31  1  0.500000  0.151421  0.894908  1
  P  P32  1  0.000000  0.651066  0.106656  1
  P  P33  1  0.000000  0.347995  0.102833  1
  P  P34  1  0.500000  0.499785  0.337458  1
  P  P35  1  0.000000  0.999943  0.662337  1
