# generated using pymatgen
data_Sc6Ta4Al4Ga8Os7
_symmetry_space_group_name_H-M   'P 1'
_cell_length_a   8.87781534
_cell_length_b   8.87781443
_cell_length_c   8.87781500
_cell_angle_alpha   60.00000159
_cell_angle_beta   60.00000499
_cell_angle_gamma   59.99999778
_symmetry_Int_Tables_number   1
_chemical_formula_structural   Sc6Ta4Al4Ga8Os7
_chemical_formula_sum   'Sc6 Ta4 Al4 Ga8 Os7'
_cell_volume   494.76990730
_cell_formula_units_Z   1
loop_
 _symmetry_equiv_pos_site_id
 _symmetry_equiv_pos_as_xyz
  1  'x, y, z'
loop_
 _atom_site_type_symbol
 _atom_site_label
 _atom_site_symmetry_multiplicity
 _atom_site_fract_x
 _atom_site_fract_y
 _atom_site_fract_z
 _atom_site_occupancy
  Sc  Sc0  1  0.712824  0.712824  0.287176  1
  Sc  Sc1  1  0.287176  0.712824  0.287176  1
  Sc  Sc2  1  0.712824  0.287176  0.287176  1
  Sc  Sc3  1  0.287176  0.287176  0.712824  1
  Sc  Sc4  1  0.712824  0.287176  0.712824  1
  Sc  Sc5  1  0.287176  0.712824  0.712824  1
  Ta  Ta6  1  0.878120  0.878120  0.365638  1
  Ta  Ta7  1  0.878120  0.365638  0.878120  1
  Ta  Ta8  1  0.365638  0.878120  0.878120  1
  Ta  Ta9  1  0.878120  0.878120  0.878120  1
  Al  Al10  1  0.121561  0.121561  0.635318  1
  Al  Al11  1  0.121561  0.635318  0.121561  1
  Al  Al12  1  0.635318  0.121561  0.121561  1
  Al  Al13  1  0.121561  0.121561  0.121561  1
  Ga  Ga14  1  0.657978  0.657978  0.026068  1
  Ga  Ga15  1  0.657978  0.026068  0.657978  1
  Ga  Ga16  1  0.026068  0.657978  0.657978  1
  Ga  Ga17  1  0.657978  0.657978  0.657978  1
  Ga  Ga18  1  0.339217  0.339217  0.982348  1
  Ga  Ga19  1  0.339217  0.982348  0.339217  1
  Ga  Ga20  1  0.982348  0.339217  0.339217  1
  Ga  Ga21  1  0.339217  0.339217  0.339217  1
  Os  Os22  1  0.000000  0.000000  0.000000  1
  Os  Os23  1  0.997575  0.997575  0.502425  1
  Os  Os24  1  0.502425  0.997575  0.502425  1
  Os  Os25  1  0.997575  0.502425  0.502425  1
  Os  Os26  1  0.502425  0.502425  0.997575  1
  Os  Os27  1  0.997575  0.502425  0.997575  1
  Os  Os28  1  0.502425  0.997575  0.997575  1
