# generated using pymatgen
data_NdDyHo6(CdPt)2
_symmetry_space_group_name_H-M   'P 1'
_cell_length_a   9.68520888
_cell_length_b   9.68262423
_cell_length_c   9.66406335
_cell_angle_alpha   60.08108143
_cell_angle_beta   60.05451617
_cell_angle_gamma   59.86440620
_symmetry_Int_Tables_number   1
_chemical_formula_structural   NdDyHo6(CdPt)2
_chemical_formula_sum   'Nd2 Dy2 Ho12 Cd4 Pt4'
_cell_volume   640.83048233
_cell_formula_units_Z   2
loop_
 _symmetry_equiv_pos_site_id
 _symmetry_equiv_pos_as_xyz
  1  'x, y, z'
loop_
 _atom_site_type_symbol
 _atom_site_label
 _atom_site_symmetry_multiplicity
 _atom_site_fract_x
 _atom_site_fract_y
 _atom_site_fract_z
 _atom_site_occupancy
  Nd  Nd0  1  0.567179  0.567179  0.932821  1
  Nd  Nd1  1  0.932821  0.932821  0.567179  1
  Dy  Dy2  1  0.562193  0.937807  0.562193  1
  Dy  Dy3  1  0.937807  0.562193  0.937807  1
  Ho  Ho4  1  0.351292  0.351451  0.351381  1
  Ho  Ho5  1  0.351451  0.351292  0.945875  1
  Ho  Ho6  1  0.351381  0.945875  0.351292  1
  Ho  Ho7  1  0.945875  0.351381  0.351451  1
  Ho  Ho8  1  0.810321  0.189679  0.189679  1
  Ho  Ho9  1  0.189679  0.810321  0.810321  1
  Ho  Ho10  1  0.189693  0.810307  0.189693  1
  Ho  Ho11  1  0.810307  0.189693  0.810307  1
  Ho  Ho12  1  0.189717  0.189717  0.810283  1
  Ho  Ho13  1  0.810283  0.810283  0.189717  1
  Ho  Ho14  1  0.938048  0.561952  0.561952  1
  Ho  Ho15  1  0.561952  0.938048  0.938048  1
  Cd  Cd16  1  0.582371  0.582233  0.578586  1
  Cd  Cd17  1  0.582233  0.582371  0.256811  1
  Cd  Cd18  1  0.578586  0.256811  0.582371  1
  Cd  Cd19  1  0.256811  0.578586  0.582233  1
  Pt  Pt20  1  0.143965  0.143864  0.140913  1
  Pt  Pt21  1  0.143864  0.143965  0.571258  1
  Pt  Pt22  1  0.140913  0.571258  0.143965  1
  Pt  Pt23  1  0.571258  0.140913  0.143864  1
