# generated using pymatgen
data_ScPa(GaRu2)2
_symmetry_space_group_name_H-M   'P 1'
_cell_length_a   4.50794101
_cell_length_b   6.38705000
_cell_length_c   13.37832400
_cell_angle_alpha   90.00000000
_cell_angle_beta   90.00343169
_cell_angle_gamma   90.00000000
_symmetry_Int_Tables_number   1
_chemical_formula_structural   ScPa(GaRu2)2
_chemical_formula_sum   'Sc3 Pa3 Ga6 Ru12'
_cell_volume   385.19465213
_cell_formula_units_Z   3
loop_
 _symmetry_equiv_pos_site_id
 _symmetry_equiv_pos_as_xyz
  1  'x, y, z'
loop_
 _atom_site_type_symbol
 _atom_site_label
 _atom_site_symmetry_multiplicity
 _atom_site_fract_x
 _atom_site_fract_y
 _atom_site_fract_z
 _atom_site_occupancy
  Sc  Sc0  1  0.499980  0.499996  0.506829  1
  Sc  Sc1  1  0.000116  0.999971  0.666634  1
  Sc  Sc2  1  0.500142  0.499996  0.826545  1
  Pa  Pa3  1  0.000043  0.999998  0.989591  1
  Pa  Pa4  1  0.499857  0.500015  0.166741  1
  Pa  Pa5  1  0.999869  0.999998  0.343749  1
  Ga  Ga6  1  0.000003  0.500001  0.991019  1
  Ga  Ga7  1  0.499887  0.000003  0.166687  1
  Ga  Ga8  1  0.999870  0.500002  0.342327  1
  Ga  Ga9  1  0.499977  0.000001  0.513348  1
  Ga  Ga10  1  0.000122  0.499998  0.666649  1
  Ga  Ga11  1  0.500123  0.000001  0.819974  1
  Ru  Ru12  1  0.500062  0.256886  0.000486  1
  Ru  Ru13  1  0.500008  0.743118  0.000484  1
  Ru  Ru14  1  0.999891  0.240201  0.166586  1
  Ru  Ru15  1  0.999866  0.759803  0.166585  1
  Ru  Ru16  1  0.499910  0.256905  0.332931  1
  Ru  Ru17  1  0.499846  0.743098  0.332935  1
  Ru  Ru18  1  0.999972  0.247257  0.498732  1
  Ru  Ru19  1  0.999979  0.752743  0.498731  1
  Ru  Ru20  1  0.500071  0.252123  0.666639  1
  Ru  Ru21  1  0.500185  0.747878  0.666637  1
  Ru  Ru22  1  0.000113  0.247295  0.834580  1
  Ru  Ru23  1  0.000109  0.752706  0.834581  1
