# generated using pymatgen
data_Sc12Re(Si4Rh)3
_symmetry_space_group_name_H-M   'P 1'
_cell_length_a   4.02982400
_cell_length_b   10.27896860
_cell_length_c   11.70476502
_cell_angle_alpha   90.15692529
_cell_angle_beta   90.00000000
_cell_angle_gamma   90.00000000
_symmetry_Int_Tables_number   1
_chemical_formula_structural   Sc12Re(Si4Rh)3
_chemical_formula_sum   'Sc12 Re1 Si12 Rh3'
_cell_volume   484.83804221
_cell_formula_units_Z   1
loop_
 _symmetry_equiv_pos_site_id
 _symmetry_equiv_pos_as_xyz
  1  'x, y, z'
loop_
 _atom_site_type_symbol
 _atom_site_label
 _atom_site_symmetry_multiplicity
 _atom_site_fract_x
 _atom_site_fract_y
 _atom_site_fract_z
 _atom_site_occupancy
  Sc  Sc0  1  0.250000  0.875598  0.020078  1
  Sc  Sc1  1  0.250000  0.622403  0.521578  1
  Sc  Sc2  1  0.750000  0.121746  0.980852  1
  Sc  Sc3  1  0.750000  0.376301  0.482974  1
  Sc  Sc4  1  0.250000  0.921625  0.600621  1
  Sc  Sc5  1  0.250000  0.579440  0.102603  1
  Sc  Sc6  1  0.750000  0.078375  0.396970  1
  Sc  Sc7  1  0.750000  0.420305  0.894895  1
  Sc  Sc8  1  0.250000  0.663660  0.797798  1
  Sc  Sc9  1  0.250000  0.841662  0.299053  1
  Sc  Sc10  1  0.750000  0.341617  0.200880  1
  Sc  Sc11  1  0.750000  0.156557  0.701463  1
  Re  Re12  1  0.250000  0.391782  0.676567  1
  Si  Si13  1  0.250000  0.014003  0.823229  1
  Si  Si14  1  0.250000  0.484474  0.322821  1
  Si  Si15  1  0.750000  0.983979  0.177330  1
  Si  Si16  1  0.750000  0.518718  0.678988  1
  Si  Si17  1  0.250000  0.249130  0.842749  1
  Si  Si18  1  0.250000  0.248745  0.342054  1
  Si  Si19  1  0.750000  0.749021  0.158064  1
  Si  Si20  1  0.750000  0.754572  0.656547  1
  Si  Si21  1  0.250000  0.193201  0.544837  1
  Si  Si22  1  0.250000  0.305573  0.044812  1
  Si  Si23  1  0.750000  0.806026  0.454337  1
  Si  Si24  1  0.750000  0.691860  0.955276  1
  Rh  Rh25  1  0.250000  0.109825  0.176900  1
  Rh  Rh26  1  0.750000  0.610190  0.322256  1
  Rh  Rh27  1  0.750000  0.889615  0.823465  1
