# generated using pymatgen
data_Dy12Ni4BiPd
_symmetry_space_group_name_H-M   'P 1'
_cell_length_a   8.37677009
_cell_length_b   8.37691703
_cell_length_c   8.37677000
_cell_angle_alpha   111.46854476
_cell_angle_beta   109.82272150
_cell_angle_gamma   107.15075320
_symmetry_Int_Tables_number   1
_chemical_formula_structural   Dy12Ni4BiPd
_chemical_formula_sum   'Dy12 Ni4 Bi1 Pd1'
_cell_volume   451.84968632
_cell_formula_units_Z   1
loop_
 _symmetry_equiv_pos_site_id
 _symmetry_equiv_pos_as_xyz
  1  'x, y, z'
loop_
 _atom_site_type_symbol
 _atom_site_label
 _atom_site_symmetry_multiplicity
 _atom_site_fract_x
 _atom_site_fract_y
 _atom_site_fract_z
 _atom_site_occupancy
  Dy  Dy0  1  0.819576  0.704072  0.523684  1
  Dy  Dy1  1  0.180424  0.295928  0.476316  1
  Dy  Dy2  1  0.180388  0.704072  0.884495  1
  Dy  Dy3  1  0.819612  0.295928  0.115505  1
  Dy  Dy4  1  0.681548  0.373772  0.692224  1
  Dy  Dy5  1  0.318452  0.626228  0.307776  1
  Dy  Dy6  1  0.681550  0.989335  0.307786  1
  Dy  Dy7  1  0.318450  0.010665  0.692214  1
  Dy  Dy8  1  0.593709  0.790279  0.803425  1
  Dy  Dy9  1  0.406291  0.209721  0.196575  1
  Dy  Dy10  1  0.986856  0.790279  0.196570  1
  Dy  Dy11  1  0.013144  0.209721  0.803430  1
  Ni  Ni12  1  0.631514  0.000000  0.631514  1
  Ni  Ni13  1  0.368486  0.000000  0.368486  1
  Ni  Ni14  1  0.124012  0.624005  0.499993  1
  Ni  Ni15  1  0.875988  0.375995  0.500007  1
  Bi  Bi16  1  0.500000  0.500000  0.000000  1
  Pd  Pd17  1  0.000000  0.000000  0.000000  1
