# generated using pymatgen
data_SmTh2(RhPb)3
_symmetry_space_group_name_H-M   'P 1'
_cell_length_a   7.77803466
_cell_length_b   7.77803620
_cell_length_c   4.07000900
_cell_angle_alpha   90.00000000
_cell_angle_beta   90.00000000
_cell_angle_gamma   120.68679746
_symmetry_Int_Tables_number   1
_chemical_formula_structural   SmTh2(RhPb)3
_chemical_formula_sum   'Sm1 Th2 Rh3 Pb3'
_cell_volume   211.74757747
_cell_formula_units_Z   1
loop_
 _symmetry_equiv_pos_site_id
 _symmetry_equiv_pos_as_xyz
  1  'x, y, z'
loop_
 _atom_site_type_symbol
 _atom_site_label
 _atom_site_symmetry_multiplicity
 _atom_site_fract_x
 _atom_site_fract_y
 _atom_site_fract_z
 _atom_site_occupancy
  Sm  Sm0  1  0.406317  0.406317  0.500000  1
  Th  Th1  1  0.589781  0.999748  0.500000  1
  Th  Th2  1  0.999748  0.589781  0.500000  1
  Rh  Rh3  1  0.991313  0.991313  0.500000  1
  Rh  Rh4  1  0.681021  0.331085  0.000000  1
  Rh  Rh5  1  0.331085  0.681021  0.000000  1
  Pb  Pb6  1  0.734590  0.734590  0.000000  1
  Pb  Pb7  1  0.257397  0.008748  0.000000  1
  Pb  Pb8  1  0.008748  0.257397  0.000000  1
