# generated using pymatgen
data_Pa2PtSe6
_symmetry_space_group_name_H-M   'P 1'
_cell_length_a   7.31651877
_cell_length_b   7.31651932
_cell_length_c   11.22327229
_cell_angle_alpha   120.39917268
_cell_angle_beta   120.39917464
_cell_angle_gamma   31.06332449
_symmetry_Int_Tables_number   1
_chemical_formula_structural   Pa2PtSe6
_chemical_formula_sum   'Pa2 Pt1 Se6'
_cell_volume   263.80581451
_cell_formula_units_Z   1
loop_
 _symmetry_equiv_pos_site_id
 _symmetry_equiv_pos_as_xyz
  1  'x, y, z'
loop_
 _atom_site_type_symbol
 _atom_site_label
 _atom_site_symmetry_multiplicity
 _atom_site_fract_x
 _atom_site_fract_y
 _atom_site_fract_z
 _atom_site_occupancy
  Pa  Pa0  1  0.681132  0.681132  0.290696  1
  Pa  Pa1  1  0.318869  0.318869  0.709304  1
  Pt  Pt2  1  0.000000  0.000000  0.000000  1
  Se  Se3  1  0.205524  0.205524  0.120772  1
  Se  Se4  1  0.014188  0.014188  0.230142  1
  Se  Se5  1  0.342429  0.342429  0.467723  1
  Se  Se6  1  0.657571  0.657571  0.532276  1
  Se  Se7  1  0.985813  0.985813  0.769859  1
  Se  Se8  1  0.794476  0.794476  0.879228  1
