# generated using pymatgen
data_Yb3Co2Ir2PbO14
_symmetry_space_group_name_H-M   'P 1'
_cell_length_a   7.14806640
_cell_length_b   7.13195947
_cell_length_c   7.13196003
_cell_angle_alpha   59.62916884
_cell_angle_beta   59.37654083
_cell_angle_gamma   59.37654244
_symmetry_Int_Tables_number   1
_chemical_formula_structural   Yb3Co2Ir2PbO14
_chemical_formula_sum   'Yb3 Co2 Ir2 Pb1 O14'
_cell_volume   253.93655695
_cell_formula_units_Z   1
loop_
 _symmetry_equiv_pos_site_id
 _symmetry_equiv_pos_as_xyz
  1  'x, y, z'
loop_
 _atom_site_type_symbol
 _atom_site_label
 _atom_site_symmetry_multiplicity
 _atom_site_fract_x
 _atom_site_fract_y
 _atom_site_fract_z
 _atom_site_occupancy
  Yb  Yb0  1  0.125000  0.625000  0.125000  1
  Yb  Yb1  1  0.125000  0.125000  0.625000  1
  Yb  Yb2  1  0.125000  0.125000  0.125000  1
  Co  Co3  1  0.625000  0.125000  0.625000  1
  Co  Co4  1  0.625000  0.625000  0.125000  1
  Ir  Ir5  1  0.125000  0.625000  0.625000  1
  Ir  Ir6  1  0.625000  0.625000  0.625000  1
  Pb  Pb7  1  0.625000  0.125000  0.125000  1
  O  O8  1  0.694277  0.705971  0.295967  1
  O  O9  1  0.301737  0.291671  0.702500  1
  O  O10  1  0.694277  0.295967  0.705971  1
  O  O11  1  0.301737  0.702500  0.291671  1
  O  O12  1  0.292357  0.707784  0.707784  1
  O  O13  1  0.690840  0.303172  0.303172  1
  O  O14  1  0.555723  0.544029  0.954033  1
  O  O15  1  0.948263  0.958329  0.547500  1
  O  O16  1  0.555723  0.954033  0.544029  1
  O  O17  1  0.948263  0.547500  0.958329  1
  O  O18  1  0.957643  0.542216  0.542216  1
  O  O19  1  0.559160  0.946828  0.946828  1
  O  O20  1  0.270006  0.242034  0.242034  1
  O  O21  1  0.979994  0.007966  0.007966  1
