# generated using pymatgen
data_Nd8Mo(RuO8)3
_symmetry_space_group_name_H-M   'P 1'
_cell_length_a   10.20884620
_cell_length_b   10.17599556
_cell_length_c   5.60627055
_cell_angle_alpha   75.02333755
_cell_angle_beta   74.94219004
_cell_angle_gamma   69.13985470
_symmetry_Int_Tables_number   1
_chemical_formula_structural   Nd8Mo(RuO8)3
_chemical_formula_sum   'Nd8 Mo1 Ru3 O24'
_cell_volume   516.58619574
_cell_formula_units_Z   1
loop_
 _symmetry_equiv_pos_site_id
 _symmetry_equiv_pos_as_xyz
  1  'x, y, z'
loop_
 _atom_site_type_symbol
 _atom_site_label
 _atom_site_symmetry_multiplicity
 _atom_site_fract_x
 _atom_site_fract_y
 _atom_site_fract_z
 _atom_site_occupancy
  Nd  Nd0  1  0.108950  0.891574  0.749114  1
  Nd  Nd1  1  0.892027  0.108799  0.250808  1
  Nd  Nd2  1  0.065998  0.287441  0.625266  1
  Nd  Nd3  1  0.712753  0.936242  0.878223  1
  Nd  Nd4  1  0.936859  0.712242  0.373994  1
  Nd  Nd5  1  0.288171  0.064675  0.123765  1
  Nd  Nd6  1  0.631550  0.367991  0.749153  1
  Nd  Nd7  1  0.366746  0.633794  0.249905  1
  Mo  Mo8  1  0.506273  0.797308  0.554978  1
  Ru  Ru9  1  0.202087  0.497526  0.949674  1
  Ru  Ru10  1  0.497497  0.201849  0.448000  1
  Ru  Ru11  1  0.797802  0.502054  0.050814  1
  O  O12  1  0.613566  0.172418  0.145956  1
  O  O13  1  0.827599  0.386793  0.353538  1
  O  O14  1  0.385665  0.824787  0.858325  1
  O  O15  1  0.171955  0.613046  0.646915  1
  O  O16  1  0.473662  0.067489  0.730442  1
  O  O17  1  0.928407  0.527974  0.764646  1
  O  O18  1  0.525304  0.928796  0.258791  1
  O  O19  1  0.070361  0.472445  0.234641  1
  O  O20  1  0.324653  0.215730  0.368801  1
  O  O21  1  0.783553  0.675568  0.132429  1
  O  O22  1  0.675343  0.787008  0.627792  1
  O  O23  1  0.215866  0.324282  0.869173  1
  O  O24  1  0.889192  0.924335  0.073746  1
  O  O25  1  0.076261  0.110894  0.426962  1
  O  O26  1  0.110167  0.076274  0.927209  1
  O  O27  1  0.924972  0.889358  0.572368  1
  O  O28  1  0.162162  0.688393  0.087986  1
  O  O29  1  0.311771  0.837951  0.415507  1
  O  O30  1  0.836764  0.311803  0.912334  1
  O  O31  1  0.687998  0.162666  0.587713  1
  O  O32  1  0.384421  0.457969  0.983261  1
  O  O33  1  0.540957  0.614451  0.519807  1
  O  O34  1  0.615303  0.543554  0.015280  1
  O  O35  1  0.457386  0.384521  0.482684  1
