# generated using pymatgen
data_Lu5Si7Pt9
_symmetry_space_group_name_H-M   'P 1'
_cell_length_a   10.13703700
_cell_length_b   10.13703763
_cell_length_c   4.01446600
_cell_angle_alpha   90.00000000
_cell_angle_beta   90.00000000
_cell_angle_gamma   120.00000121
_symmetry_Int_Tables_number   1
_chemical_formula_structural   Lu5Si7Pt9
_chemical_formula_sum   'Lu5 Si7 Pt9'
_cell_volume   357.25679748
_cell_formula_units_Z   1
loop_
 _symmetry_equiv_pos_site_id
 _symmetry_equiv_pos_as_xyz
  1  'x, y, z'
loop_
 _atom_site_type_symbol
 _atom_site_label
 _atom_site_symmetry_multiplicity
 _atom_site_fract_x
 _atom_site_fract_y
 _atom_site_fract_z
 _atom_site_occupancy
  Lu  Lu0  1  0.000000  0.000000  0.000000  1
  Lu  Lu1  1  0.333333  0.666667  0.500000  1
  Lu  Lu2  1  0.899550  0.458874  0.500000  1
  Lu  Lu3  1  0.559324  0.100450  0.500000  1
  Lu  Lu4  1  0.541126  0.440676  0.500000  1
  Si  Si5  1  0.238826  0.184555  0.500000  1
  Si  Si6  1  0.815445  0.054271  0.500000  1
  Si  Si7  1  0.945729  0.761174  0.500000  1
  Si  Si8  1  0.558055  0.653950  0.000000  1
  Si  Si9  1  0.346050  0.904104  0.000000  1
  Si  Si10  1  0.095896  0.441945  0.000000  1
  Si  Si11  1  0.666667  0.333333  0.000000  1
  Pt  Pt12  1  0.213706  0.931133  0.500000  1
  Pt  Pt13  1  0.068867  0.282574  0.500000  1
  Pt  Pt14  1  0.717426  0.786294  0.500000  1
  Pt  Pt15  1  0.318923  0.419614  0.000000  1
  Pt  Pt16  1  0.580386  0.899309  0.000000  1
  Pt  Pt17  1  0.100691  0.681077  0.000000  1
  Pt  Pt18  1  0.376831  0.168690  0.000000  1
  Pt  Pt19  1  0.831310  0.208141  0.000000  1
  Pt  Pt20  1  0.791859  0.623169  0.000000  1
