# generated using pymatgen
data_Y4Tm6IrOs3
_symmetry_space_group_name_H-M   'P 1'
_cell_length_a   6.32599228
_cell_length_b   7.34382739
_cell_length_c   8.37503547
_cell_angle_alpha   97.10106963
_cell_angle_beta   112.05556161
_cell_angle_gamma   90.03429915
_symmetry_Int_Tables_number   1
_chemical_formula_structural   Y4Tm6IrOs3
_chemical_formula_sum   'Y4 Tm6 Ir1 Os3'
_cell_volume   357.37233017
_cell_formula_units_Z   1
loop_
 _symmetry_equiv_pos_site_id
 _symmetry_equiv_pos_as_xyz
  1  'x, y, z'
loop_
 _atom_site_type_symbol
 _atom_site_label
 _atom_site_symmetry_multiplicity
 _atom_site_fract_x
 _atom_site_fract_y
 _atom_site_fract_z
 _atom_site_occupancy
  Y  Y0  1  0.970977  0.916744  0.183810  1
  Y  Y1  1  0.786171  0.580457  0.813014  1
  Y  Y2  1  0.024272  0.082085  0.810489  1
  Y  Y3  1  0.211794  0.420650  0.185022  1
  Tm  Tm4  1  0.643632  0.816681  0.438034  1
  Tm  Tm5  1  0.205090  0.682314  0.563580  1
  Tm  Tm6  1  0.357255  0.181757  0.564429  1
  Tm  Tm7  1  0.798548  0.319359  0.437617  1
  Tm  Tm8  1  0.421462  0.749162  0.999171  1
  Tm  Tm9  1  0.578586  0.250233  0.999908  1
  Ir  Ir10  1  0.405501  0.076777  0.224474  1
  Os  Os11  1  0.815942  0.576087  0.220618  1
  Os  Os12  1  0.597566  0.924274  0.779305  1
  Os  Os13  1  0.183206  0.423421  0.780527  1
