# generated using pymatgen
data_SrPr5SmOsBr12
_symmetry_space_group_name_H-M   'P 1'
_cell_length_a   9.60467027
_cell_length_b   9.68690590
_cell_length_c   9.58015551
_cell_angle_alpha   106.50569084
_cell_angle_beta   106.28171806
_cell_angle_gamma   105.99814188
_symmetry_Int_Tables_number   1
_chemical_formula_structural   SrPr5SmOsBr12
_chemical_formula_sum   'Sr1 Pr5 Sm1 Os1 Br12'
_cell_volume   756.74901036
_cell_formula_units_Z   1
loop_
 _symmetry_equiv_pos_site_id
 _symmetry_equiv_pos_as_xyz
  1  'x, y, z'
loop_
 _atom_site_type_symbol
 _atom_site_label
 _atom_site_symmetry_multiplicity
 _atom_site_fract_x
 _atom_site_fract_y
 _atom_site_fract_z
 _atom_site_occupancy
  Sr  Sr0  1  0.500308  0.499622  0.500844  1
  Pr  Pr1  1  0.106026  0.318762  0.019968  1
  Pr  Pr2  1  0.307311  0.018968  0.102006  1
  Pr  Pr3  1  0.019785  0.101601  0.308888  1
  Pr  Pr4  1  0.979394  0.895659  0.689884  1
  Pr  Pr5  1  0.692446  0.981704  0.897861  1
  Sm  Sm6  1  0.895057  0.686548  0.979222  1
  Os  Os7  1  0.999633  0.999791  0.999186  1
  Br  Br8  1  0.211936  0.679921  0.070875  1
  Br  Br9  1  0.449954  0.366455  0.151744  1
  Br  Br10  1  0.680921  0.073089  0.220518  1
  Br  Br11  1  0.925965  0.776926  0.312854  1
  Br  Br12  1  0.152010  0.449574  0.368252  1
  Br  Br13  1  0.368094  0.153092  0.451093  1
  Br  Br14  1  0.631709  0.846122  0.548602  1
  Br  Br15  1  0.848937  0.550132  0.638293  1
  Br  Br16  1  0.072191  0.217870  0.679644  1
  Br  Br17  1  0.319118  0.926575  0.779365  1
  Br  Br18  1  0.556818  0.633534  0.852243  1
  Br  Br19  1  0.782389  0.324057  0.928658  1
