# generated using pymatgen
data_Pr6Mn(GeS7)2
_symmetry_space_group_name_H-M   'P 1'
_cell_length_a   10.32067000
_cell_length_b   10.32066965
_cell_length_c   5.81460200
_cell_angle_alpha   90.00000000
_cell_angle_beta   90.00000000
_cell_angle_gamma   120.00000112
_symmetry_Int_Tables_number   1
_chemical_formula_structural   Pr6Mn(GeS7)2
_chemical_formula_sum   'Pr6 Mn1 Ge2 S14'
_cell_volume   536.37235893
_cell_formula_units_Z   1
loop_
 _symmetry_equiv_pos_site_id
 _symmetry_equiv_pos_as_xyz
  1  'x, y, z'
loop_
 _atom_site_type_symbol
 _atom_site_label
 _atom_site_symmetry_multiplicity
 _atom_site_fract_x
 _atom_site_fract_y
 _atom_site_fract_z
 _atom_site_occupancy
  Pr  Pr0  1  0.876997  0.232877  0.249395  1
  Pr  Pr1  1  0.767123  0.644121  0.249395  1
  Pr  Pr2  1  0.355879  0.123003  0.249395  1
  Pr  Pr3  1  0.122925  0.767464  0.751413  1
  Pr  Pr4  1  0.232536  0.355461  0.751413  1
  Pr  Pr5  1  0.644539  0.877075  0.751413  1
  Mn  Mn6  1  0.000000  0.000000  0.488386  1
  Ge  Ge7  1  0.666667  0.333333  0.831334  1
  Ge  Ge8  1  0.333333  0.666667  0.334371  1
  S  S9  1  0.666667  0.333333  0.454301  1
  S  S10  1  0.333333  0.666667  0.957035  1
  S  S11  1  0.914494  0.159424  0.724000  1
  S  S12  1  0.840576  0.755070  0.724000  1
  S  S13  1  0.244930  0.085506  0.724000  1
  S  S14  1  0.083304  0.838557  0.249169  1
  S  S15  1  0.161443  0.244747  0.249169  1
  S  S16  1  0.755253  0.916696  0.249169  1
  S  S17  1  0.588796  0.106742  0.986788  1
  S  S18  1  0.893258  0.482055  0.986788  1
  S  S19  1  0.517945  0.411204  0.986788  1
  S  S20  1  0.411815  0.893290  0.489312  1
  S  S21  1  0.106710  0.518525  0.489312  1
  S  S22  1  0.481475  0.588185  0.489312  1
