# generated using pymatgen
data_Dy2Ho2Cu3Ni11
_symmetry_space_group_name_H-M   'P 1'
_cell_length_a   4.95174956
_cell_length_b   4.95175196
_cell_length_c   12.40363501
_cell_angle_alpha   78.48591955
_cell_angle_beta   78.48591081
_cell_angle_gamma   60.00000432
_symmetry_Int_Tables_number   1
_chemical_formula_structural   Dy2Ho2Cu3Ni11
_chemical_formula_sum   'Dy2 Ho2 Cu3 Ni11'
_cell_volume   256.29700339
_cell_formula_units_Z   1
loop_
 _symmetry_equiv_pos_site_id
 _symmetry_equiv_pos_as_xyz
  1  'x, y, z'
loop_
 _atom_site_type_symbol
 _atom_site_label
 _atom_site_symmetry_multiplicity
 _atom_site_fract_x
 _atom_site_fract_y
 _atom_site_fract_z
 _atom_site_occupancy
  Dy  Dy0  1  0.950981  0.950981  0.147057  1
  Dy  Dy1  1  0.050899  0.050899  0.847304  1
  Ho  Ho2  1  0.852854  0.852854  0.441437  1
  Ho  Ho3  1  0.147251  0.147251  0.558249  1
  Cu  Cu4  1  0.722067  0.722067  0.833801  1
  Cu  Cu5  1  0.277706  0.277706  0.166881  1
  Cu  Cu6  1  0.610910  0.610910  0.167271  1
  Ni  Ni7  1  0.499888  0.499888  0.500336  1
  Ni  Ni8  1  0.388675  0.388675  0.833975  1
  Ni  Ni9  1  0.001543  0.499412  0.999631  1
  Ni  Ni10  1  0.499412  0.001543  0.999631  1
  Ni  Ni11  1  0.499412  0.499412  0.999631  1
  Ni  Ni12  1  0.388261  0.388261  0.333413  1
  Ni  Ni13  1  0.890066  0.388261  0.333413  1
  Ni  Ni14  1  0.388261  0.890066  0.333413  1
  Ni  Ni15  1  0.610905  0.610905  0.668187  1
  Ni  Ni16  1  0.110003  0.610905  0.668187  1
  Ni  Ni17  1  0.610905  0.110003  0.668187  1
