# generated using pymatgen
data_Sr2PrY(Ir2O7)2
_symmetry_space_group_name_H-M   'P 1'
_cell_length_a   7.41532268
_cell_length_b   7.38373767
_cell_length_c   7.39460121
_cell_angle_alpha   60.04858503
_cell_angle_beta   60.00943677
_cell_angle_gamma   60.14079308
_symmetry_Int_Tables_number   1
_chemical_formula_structural   Sr2PrY(Ir2O7)2
_chemical_formula_sum   'Sr2 Pr1 Y1 Ir4 O14'
_cell_volume   286.71911996
_cell_formula_units_Z   1
loop_
 _symmetry_equiv_pos_site_id
 _symmetry_equiv_pos_as_xyz
  1  'x, y, z'
loop_
 _atom_site_type_symbol
 _atom_site_label
 _atom_site_symmetry_multiplicity
 _atom_site_fract_x
 _atom_site_fract_y
 _atom_site_fract_z
 _atom_site_occupancy
  Sr  Sr0  1  0.125000  0.625000  0.125000  1
  Sr  Sr1  1  0.125000  0.125000  0.125000  1
  Pr  Pr2  1  0.625000  0.125000  0.125000  1
  Y  Y3  1  0.125000  0.125000  0.625000  1
  Ir  Ir4  1  0.125000  0.625000  0.625000  1
  Ir  Ir5  1  0.625000  0.125000  0.625000  1
  Ir  Ir6  1  0.625000  0.625000  0.125000  1
  Ir  Ir7  1  0.625000  0.625000  0.625000  1
  O  O8  1  0.694935  0.706233  0.300648  1
  O  O9  1  0.299868  0.298526  0.687778  1
  O  O10  1  0.708065  0.297449  0.697037  1
  O  O11  1  0.302163  0.697100  0.303637  1
  O  O12  1  0.299868  0.713828  0.687778  1
  O  O13  1  0.694935  0.298184  0.300648  1
  O  O14  1  0.555065  0.543767  0.949352  1
  O  O15  1  0.950132  0.951474  0.562222  1
  O  O16  1  0.541935  0.952551  0.552963  1
  O  O17  1  0.947837  0.552900  0.946363  1
  O  O18  1  0.950132  0.536172  0.562222  1
  O  O19  1  0.555065  0.951816  0.949352  1
  O  O20  1  0.252511  0.238463  0.270562  1
  O  O21  1  0.997489  0.011537  0.979438  1
