# generated using pymatgen
data_Pr10InSi4Ir
_symmetry_space_group_name_H-M   'P 1'
_cell_length_a   7.77957600
_cell_length_b   9.29432666
_cell_length_c   7.77957600
_cell_angle_alpha   114.74069138
_cell_angle_beta   90.00000000
_cell_angle_gamma   114.74069138
_symmetry_Int_Tables_number   1
_chemical_formula_structural   Pr10InSi4Ir
_chemical_formula_sum   'Pr10 In1 Si4 Ir1'
_cell_volume   453.40320071
_cell_formula_units_Z   1
loop_
 _symmetry_equiv_pos_site_id
 _symmetry_equiv_pos_as_xyz
  1  'x, y, z'
loop_
 _atom_site_type_symbol
 _atom_site_label
 _atom_site_symmetry_multiplicity
 _atom_site_fract_x
 _atom_site_fract_y
 _atom_site_fract_z
 _atom_site_occupancy
  Pr  Pr0  1  0.971966  0.943932  0.971966  1
  Pr  Pr1  1  0.528034  0.056068  0.528034  1
  Pr  Pr2  1  0.516211  0.718539  0.662183  1
  Pr  Pr3  1  0.202330  0.718539  0.056357  1
  Pr  Pr4  1  0.662183  0.718539  0.202330  1
  Pr  Pr5  1  0.056357  0.718539  0.516211  1
  Pr  Pr6  1  0.443643  0.281461  0.297670  1
  Pr  Pr7  1  0.837817  0.281461  0.983789  1
  Pr  Pr8  1  0.297670  0.281461  0.837817  1
  Pr  Pr9  1  0.983789  0.281461  0.443643  1
  In  In10  1  0.750000  0.500000  0.750000  1
  Si  Si11  1  0.885650  0.000000  0.614350  1
  Si  Si12  1  0.114350  0.000000  0.385650  1
  Si  Si13  1  0.614350  0.000000  0.114350  1
  Si  Si14  1  0.385650  0.000000  0.885650  1
  Ir  Ir15  1  0.250000  0.500000  0.250000  1
