# generated using pymatgen
data_Zr6Fe15Si7Pt
_symmetry_space_group_name_H-M   'P 1'
_cell_length_a   8.13803471
_cell_length_b   8.13803432
_cell_length_c   8.15898844
_cell_angle_alpha   60.08492098
_cell_angle_beta   60.08492202
_cell_angle_gamma   59.99999566
_symmetry_Int_Tables_number   1
_chemical_formula_structural   Zr6Fe15Si7Pt
_chemical_formula_sum   'Zr6 Fe15 Si7 Pt1'
_cell_volume   382.57503335
_cell_formula_units_Z   1
loop_
 _symmetry_equiv_pos_site_id
 _symmetry_equiv_pos_as_xyz
  1  'x, y, z'
loop_
 _atom_site_type_symbol
 _atom_site_label
 _atom_site_symmetry_multiplicity
 _atom_site_fract_x
 _atom_site_fract_y
 _atom_site_fract_z
 _atom_site_occupancy
  Zr  Zr0  1  0.702359  0.702359  0.295134  1
  Zr  Zr1  1  0.300148  0.702359  0.295134  1
  Zr  Zr2  1  0.702359  0.300148  0.295134  1
  Zr  Zr3  1  0.292808  0.292808  0.708500  1
  Zr  Zr4  1  0.705884  0.292808  0.708500  1
  Zr  Zr5  1  0.292808  0.705884  0.708500  1
  Fe  Fe6  1  0.876703  0.364134  0.882461  1
  Fe  Fe7  1  0.364134  0.876703  0.882461  1
  Fe  Fe8  1  0.876703  0.876703  0.882461  1
  Fe  Fe9  1  0.122678  0.122678  0.631964  1
  Fe  Fe10  1  0.124448  0.634767  0.116336  1
  Fe  Fe11  1  0.634767  0.124448  0.116336  1
  Fe  Fe12  1  0.124448  0.124448  0.116336  1
  Fe  Fe13  1  0.676324  0.676324  0.971029  1
  Fe  Fe14  1  0.674735  0.972739  0.677792  1
  Fe  Fe15  1  0.972739  0.674735  0.677792  1
  Fe  Fe16  1  0.674735  0.674735  0.677792  1
  Fe  Fe17  1  0.323160  0.323160  0.030520  1
  Fe  Fe18  1  0.324376  0.028550  0.322697  1
  Fe  Fe19  1  0.028550  0.324376  0.322697  1
  Fe  Fe20  1  0.324376  0.324376  0.322697  1
  Si  Si21  1  0.006769  0.006769  0.979692  1
  Si  Si22  1  0.001141  0.001141  0.509876  1
  Si  Si23  1  0.487842  0.001141  0.509876  1
  Si  Si24  1  0.001141  0.487842  0.509876  1
  Si  Si25  1  0.500480  0.500480  0.000037  1
  Si  Si26  1  0.999002  0.500480  0.000037  1
  Si  Si27  1  0.500480  0.999002  0.000037  1
  Pt  Pt28  1  0.883903  0.883903  0.348292  1
