# generated using pymatgen
data_Ho4Al7Ga5
_symmetry_space_group_name_H-M   'P 1'
_cell_length_a   6.12036200
_cell_length_b   6.10716286
_cell_length_c   9.55578500
_cell_angle_alpha   90.00037443
_cell_angle_beta   90.00000000
_cell_angle_gamma   120.07150872
_symmetry_Int_Tables_number   1
_chemical_formula_structural   Ho4Al7Ga5
_chemical_formula_sum   'Ho4 Al7 Ga5'
_cell_volume   309.10086637
_cell_formula_units_Z   1
loop_
 _symmetry_equiv_pos_site_id
 _symmetry_equiv_pos_as_xyz
  1  'x, y, z'
loop_
 _atom_site_type_symbol
 _atom_site_label
 _atom_site_symmetry_multiplicity
 _atom_site_fract_x
 _atom_site_fract_y
 _atom_site_fract_z
 _atom_site_occupancy
  Ho  Ho0  1  0.000593  0.001185  0.500931  1
  Ho  Ho1  1  0.000593  0.001186  0.999061  1
  Ho  Ho2  1  0.333038  0.666077  0.250003  1
  Ho  Ho3  1  0.666654  0.333306  0.749999  1
  Al  Al4  1  0.500711  0.500497  0.499345  1
  Al  Al5  1  0.500328  0.000657  0.499966  1
  Al  Al6  1  0.999786  0.500497  0.499345  1
  Al  Al7  1  0.500710  0.500497  0.000656  1
  Al  Al8  1  0.500328  0.000656  0.000034  1
  Al  Al9  1  0.999788  0.500497  0.000656  1
  Al  Al10  1  0.814488  0.628976  0.250000  1
  Ga  Ga11  1  0.368381  0.183565  0.250001  1
  Ga  Ga12  1  0.815184  0.183565  0.250001  1
  Ga  Ga13  1  0.184339  0.368678  0.750001  1
  Ga  Ga14  1  0.630880  0.815080  0.750000  1
  Ga  Ga15  1  0.184200  0.815080  0.750000  1
