# generated using pymatgen
data_NdYCo2Br
_symmetry_space_group_name_H-M   'P 1'
_cell_length_a   3.93575800
_cell_length_b   3.93575888
_cell_length_c   16.71384900
_cell_angle_alpha   90.00000000
_cell_angle_beta   90.00000000
_cell_angle_gamma   119.99997583
_symmetry_Int_Tables_number   1
_chemical_formula_structural   NdYCo2Br
_chemical_formula_sum   'Nd2 Y2 Co4 Br2'
_cell_volume   224.21469984
_cell_formula_units_Z   2
loop_
 _symmetry_equiv_pos_site_id
 _symmetry_equiv_pos_as_xyz
  1  'x, y, z'
loop_
 _atom_site_type_symbol
 _atom_site_label
 _atom_site_symmetry_multiplicity
 _atom_site_fract_x
 _atom_site_fract_y
 _atom_site_fract_z
 _atom_site_occupancy
  Nd  Nd0  1  0.000000  0.000000  0.612157  1
  Nd  Nd1  1  0.000000  0.000000  0.387843  1
  Y  Y2  1  0.000000  0.000000  0.105813  1
  Y  Y3  1  0.000000  0.000000  0.894187  1
  Co  Co4  1  0.333333  0.666667  0.500363  1
  Co  Co5  1  0.666667  0.333333  0.499637  1
  Co  Co6  1  0.666667  0.333333  0.002612  1
  Co  Co7  1  0.333333  0.666667  0.997388  1
  Br  Br8  1  0.333333  0.666667  0.242105  1
  Br  Br9  1  0.666667  0.333333  0.757895  1
