# generated using pymatgen
data_Dy5GaTe4
_symmetry_space_group_name_H-M   'P 1'
_cell_length_a   7.50915089
_cell_length_b   7.50915014
_cell_length_c   10.64561700
_cell_angle_alpha   62.06974417
_cell_angle_beta   62.06973926
_cell_angle_gamma   33.47665388
_symmetry_Int_Tables_number   1
_chemical_formula_structural   Dy5GaTe4
_chemical_formula_sum   'Dy5 Ga1 Te4'
_cell_volume   288.80096643
_cell_formula_units_Z   1
loop_
 _symmetry_equiv_pos_site_id
 _symmetry_equiv_pos_as_xyz
  1  'x, y, z'
loop_
 _atom_site_type_symbol
 _atom_site_label
 _atom_site_symmetry_multiplicity
 _atom_site_fract_x
 _atom_site_fract_y
 _atom_site_fract_z
 _atom_site_occupancy
  Dy  Dy0  1  0.000000  0.000000  0.500000  1
  Dy  Dy1  1  0.585718  0.585718  0.090423  1
  Dy  Dy2  1  0.185900  0.185900  0.727881  1
  Dy  Dy3  1  0.814100  0.814100  0.272119  1
  Dy  Dy4  1  0.414282  0.414282  0.909577  1
  Ga  Ga5  1  0.000000  0.000000  0.000000  1
  Te  Te6  1  0.608950  0.608950  0.588674  1
  Te  Te7  1  0.194306  0.194306  0.195507  1
  Te  Te8  1  0.805694  0.805694  0.804493  1
  Te  Te9  1  0.391050  0.391050  0.411326  1
