# generated using pymatgen
data_Dy5Lu7In2FeTc2
_symmetry_space_group_name_H-M   'P 1'
_cell_length_a   8.32207261
_cell_length_b   8.31157544
_cell_length_c   8.32207394
_cell_angle_alpha   108.68587443
_cell_angle_beta   108.70337014
_cell_angle_gamma   111.08851885
_symmetry_Int_Tables_number   1
_chemical_formula_structural   Dy5Lu7In2FeTc2
_chemical_formula_sum   'Dy5 Lu7 In2 Fe1 Tc2'
_cell_volume   442.57787799
_cell_formula_units_Z   1
loop_
 _symmetry_equiv_pos_site_id
 _symmetry_equiv_pos_as_xyz
  1  'x, y, z'
loop_
 _atom_site_type_symbol
 _atom_site_label
 _atom_site_symmetry_multiplicity
 _atom_site_fract_x
 _atom_site_fract_y
 _atom_site_fract_z
 _atom_site_occupancy
  Dy  Dy0  1  0.303130  0.301846  0.608340  1
  Dy  Dy1  1  0.697356  0.694453  0.392589  1
  Dy  Dy2  1  0.693507  0.301846  0.998717  1
  Dy  Dy3  1  0.301864  0.694453  0.997097  1
  Dy  Dy4  1  0.190667  0.433039  0.242372  1
  Lu  Lu5  1  0.807599  0.571973  0.764375  1
  Lu  Lu6  1  0.189389  0.949810  0.760422  1
  Lu  Lu7  1  0.949312  0.188486  0.759265  1
  Lu  Lu8  1  0.806161  0.042977  0.236815  1
  Lu  Lu9  1  0.043775  0.809196  0.235288  1
  Lu  Lu10  1  0.429220  0.188486  0.239173  1
  Lu  Lu11  1  0.573908  0.809196  0.765422  1
  In  In12  1  0.995753  0.497040  0.501288  1
  In  In13  1  0.497997  0.997137  0.499140  1
  Fe  Fe14  1  0.631552  0.631891  0.000339  1
  Tc  Tc15  1  0.387981  0.387429  0.999448  1
  Tc  Tc16  1  0.000832  0.000743  0.999911  1
