# generated using pymatgen
data_Pr4YSi2Pb
_symmetry_space_group_name_H-M   'P 1'
_cell_length_a   7.82472533
_cell_length_b   7.82472621
_cell_length_c   9.40770985
_cell_angle_alpha   114.57398213
_cell_angle_beta   114.57397734
_cell_angle_gamma   89.99999378
_symmetry_Int_Tables_number   1
_chemical_formula_structural   Pr4YSi2Pb
_chemical_formula_sum   'Pr8 Y2 Si4 Pb2'
_cell_volume   465.85083184
_cell_formula_units_Z   2
loop_
 _symmetry_equiv_pos_site_id
 _symmetry_equiv_pos_as_xyz
  1  'x, y, z'
loop_
 _atom_site_type_symbol
 _atom_site_label
 _atom_site_symmetry_multiplicity
 _atom_site_fract_x
 _atom_site_fract_y
 _atom_site_fract_z
 _atom_site_occupancy
  Pr  Pr0  1  0.962983  0.809446  0.272429  1
  Pr  Pr1  1  0.309446  0.462983  0.272429  1
  Pr  Pr2  1  0.809446  0.309446  0.272429  1
  Pr  Pr3  1  0.462983  0.962983  0.272429  1
  Pr  Pr4  1  0.037017  0.190554  0.727571  1
  Pr  Pr5  1  0.690554  0.537017  0.727571  1
  Pr  Pr6  1  0.190554  0.690554  0.727571  1
  Pr  Pr7  1  0.537017  0.037017  0.727571  1
  Y  Y8  1  0.500000  0.500000  0.000000  1
  Y  Y9  1  0.000000  0.000000  0.000000  1
  Si  Si10  1  0.622394  0.877606  0.000000  1
  Si  Si11  1  0.377606  0.122394  0.000000  1
  Si  Si12  1  0.877606  0.377606  0.000000  1
  Si  Si13  1  0.122394  0.622394  0.000000  1
  Pb  Pb14  1  0.750000  0.750000  0.500000  1
  Pb  Pb15  1  0.250000  0.250000  0.500000  1
