# generated using pymatgen
data_Hf18VCrCoRe6Se
_symmetry_space_group_name_H-M   'P 1'
_cell_length_a   8.56931100
_cell_length_b   8.56931023
_cell_length_c   8.47828000
_cell_angle_alpha   90.00000000
_cell_angle_beta   90.00000000
_cell_angle_gamma   119.99999138
_symmetry_Int_Tables_number   1
_chemical_formula_structural   Hf18VCrCoRe6Se
_chemical_formula_sum   'Hf18 V1 Cr1 Co1 Re6 Se1'
_cell_volume   539.17555644
_cell_formula_units_Z   1
loop_
 _symmetry_equiv_pos_site_id
 _symmetry_equiv_pos_as_xyz
  1  'x, y, z'
loop_
 _atom_site_type_symbol
 _atom_site_label
 _atom_site_symmetry_multiplicity
 _atom_site_fract_x
 _atom_site_fract_y
 _atom_site_fract_z
 _atom_site_occupancy
  Hf  Hf0  1  0.191165  0.808835  0.452131  1
  Hf  Hf1  1  0.191165  0.382332  0.452131  1
  Hf  Hf2  1  0.617668  0.808835  0.452131  1
  Hf  Hf3  1  0.800424  0.199576  0.558339  1
  Hf  Hf4  1  0.800424  0.600848  0.558339  1
  Hf  Hf5  1  0.399152  0.199576  0.558339  1
  Hf  Hf6  1  0.801128  0.198872  0.941376  1
  Hf  Hf7  1  0.801128  0.602257  0.941376  1
  Hf  Hf8  1  0.397743  0.198872  0.941376  1
  Hf  Hf9  1  0.189821  0.810179  0.047779  1
  Hf  Hf10  1  0.189821  0.379643  0.047779  1
  Hf  Hf11  1  0.620357  0.810179  0.047779  1
  Hf  Hf12  1  0.545310  0.454690  0.249767  1
  Hf  Hf13  1  0.545310  0.090620  0.249767  1
  Hf  Hf14  1  0.909380  0.454690  0.249767  1
  Hf  Hf15  1  0.458388  0.541612  0.750268  1
  Hf  Hf16  1  0.458388  0.916776  0.750268  1
  Hf  Hf17  1  0.083224  0.541612  0.750268  1
  V  V18  1  0.000000  0.000000  0.501620  1
  Cr  Cr19  1  0.000000  0.000000  0.999505  1
  Co  Co20  1  0.666667  0.333333  0.750757  1
  Re  Re21  1  0.891123  0.108877  0.249551  1
  Re  Re22  1  0.891123  0.782247  0.249551  1
  Re  Re23  1  0.217753  0.108877  0.249551  1
  Re  Re24  1  0.108661  0.891339  0.750565  1
  Re  Re25  1  0.108661  0.217320  0.750565  1
  Re  Re26  1  0.782680  0.891339  0.750565  1
  Se  Se27  1  0.333333  0.666667  0.248791  1
