# generated using pymatgen
data_Sr5(SnSb3)2
_symmetry_space_group_name_H-M   'P 1'
_cell_length_a   4.65651600
_cell_length_b   13.26626900
_cell_length_c   14.92512200
_cell_angle_alpha   90.00000000
_cell_angle_beta   90.00000000
_cell_angle_gamma   90.00000000
_symmetry_Int_Tables_number   1
_chemical_formula_structural   Sr5(SnSb3)2
_chemical_formula_sum   'Sr10 Sn4 Sb12'
_cell_volume   921.99334984
_cell_formula_units_Z   2
loop_
 _symmetry_equiv_pos_site_id
 _symmetry_equiv_pos_as_xyz
  1  'x, y, z'
loop_
 _atom_site_type_symbol
 _atom_site_label
 _atom_site_symmetry_multiplicity
 _atom_site_fract_x
 _atom_site_fract_y
 _atom_site_fract_z
 _atom_site_occupancy
  Sr  Sr0  1  0.000000  0.624797  0.254408  1
  Sr  Sr1  1  0.000000  0.375203  0.745592  1
  Sr  Sr2  1  0.000000  0.124797  0.245592  1
  Sr  Sr3  1  0.000000  0.875203  0.754408  1
  Sr  Sr4  1  0.000000  0.864166  0.435709  1
  Sr  Sr5  1  0.000000  0.135834  0.564291  1
  Sr  Sr6  1  0.000000  0.364166  0.064291  1
  Sr  Sr7  1  0.000000  0.635834  0.935709  1
  Sr  Sr8  1  0.000000  0.500000  0.500000  1
  Sr  Sr9  1  0.000000  0.000000  0.000000  1
  Sn  Sn10  1  0.500000  0.788498  0.106954  1
  Sn  Sn11  1  0.500000  0.211502  0.893046  1
  Sn  Sn12  1  0.500000  0.288498  0.393046  1
  Sn  Sn13  1  0.500000  0.711502  0.606954  1
  Sb  Sb14  1  0.500000  0.569901  0.099594  1
  Sb  Sb15  1  0.500000  0.430099  0.900406  1
  Sb  Sb16  1  0.500000  0.069901  0.400406  1
  Sb  Sb17  1  0.500000  0.930099  0.599594  1
  Sb  Sb18  1  0.500000  0.669402  0.416972  1
  Sb  Sb19  1  0.500000  0.330598  0.583028  1
  Sb  Sb20  1  0.500000  0.169402  0.083028  1
  Sb  Sb21  1  0.500000  0.830598  0.916972  1
  Sb  Sb22  1  0.000000  0.872912  0.199006  1
  Sb  Sb23  1  0.000000  0.127088  0.800994  1
  Sb  Sb24  1  0.000000  0.372912  0.300994  1
  Sb  Sb25  1  0.000000  0.627088  0.699006  1
