# generated using pymatgen
data_SrLa3(Ni3P4)2
_symmetry_space_group_name_H-M   'P 1'
_cell_length_a   7.92365712
_cell_length_b   7.92047316
_cell_length_c   7.92047260
_cell_angle_alpha   137.36312386
_cell_angle_beta   109.60226090
_cell_angle_gamma   85.91385558
_symmetry_Int_Tables_number   1
_chemical_formula_structural   SrLa3(Ni3P4)2
_chemical_formula_sum   'Sr1 La3 Ni6 P8'
_cell_volume   304.94472376
_cell_formula_units_Z   1
loop_
 _symmetry_equiv_pos_site_id
 _symmetry_equiv_pos_as_xyz
  1  'x, y, z'
loop_
 _atom_site_type_symbol
 _atom_site_label
 _atom_site_symmetry_multiplicity
 _atom_site_fract_x
 _atom_site_fract_y
 _atom_site_fract_z
 _atom_site_occupancy
  Sr  Sr0  1  0.667709  0.386457  0.281253  1
  La  La1  1  0.101846  0.883446  0.218401  1
  La  La2  1  0.896378  0.114885  0.781493  1
  La  La3  1  0.336906  0.616829  0.720076  1
  Ni  Ni4  1  0.499725  0.753173  0.251750  1
  Ni  Ni5  1  0.499725  0.247974  0.746552  1
  Ni  Ni6  1  0.272245  0.023815  0.752020  1
  Ni  Ni7  1  0.727964  0.472611  0.745560  1
  Ni  Ni8  1  0.272245  0.520225  0.248430  1
  Ni  Ni9  1  0.727964  0.982405  0.255353  1
  P  P10  1  0.488887  0.118726  0.370161  1
  P  P11  1  0.508241  0.879847  0.628394  1
  P  P12  1  0.254453  0.381221  0.873232  1
  P  P13  1  0.746653  0.620406  0.126247  1
  P  P14  1  0.978674  0.352364  0.626309  1
  P  P15  1  0.027659  0.652121  0.375537  1
  P  P16  1  0.724869  0.848142  0.876729  1
  P  P17  1  0.267856  0.145353  0.122503  1
