# generated using pymatgen
data_Sc5Si8Tc5
_symmetry_space_group_name_H-M   'P 1'
_cell_length_a   6.69243800
_cell_length_b   6.69994435
_cell_length_c   12.49420319
_cell_angle_alpha   90.11643113
_cell_angle_beta   90.00000000
_cell_angle_gamma   90.00000000
_symmetry_Int_Tables_number   1
_chemical_formula_structural   Sc5Si8Tc5
_chemical_formula_sum   'Sc10 Si16 Tc10'
_cell_volume   560.22594749
_cell_formula_units_Z   2
loop_
 _symmetry_equiv_pos_site_id
 _symmetry_equiv_pos_as_xyz
  1  'x, y, z'
loop_
 _atom_site_type_symbol
 _atom_site_label
 _atom_site_symmetry_multiplicity
 _atom_site_fract_x
 _atom_site_fract_y
 _atom_site_fract_z
 _atom_site_occupancy
  Sc  Sc0  1  0.009102  0.661845  0.033190  1
  Sc  Sc1  1  0.995378  0.343474  0.528832  1
  Sc  Sc2  1  0.346270  0.988406  0.464783  1
  Sc  Sc3  1  0.162216  0.498442  0.779671  1
  Sc  Sc4  1  0.846270  0.511594  0.285217  1
  Sc  Sc5  1  0.495378  0.156526  0.221168  1
  Sc  Sc6  1  0.509102  0.838155  0.716810  1
  Sc  Sc7  1  0.662216  0.001558  0.970329  1
  Sc  Sc8  1  0.334766  0.337919  0.003588  1
  Sc  Sc9  1  0.834766  0.162081  0.746412  1
  Si  Si10  1  0.019613  0.736066  0.441557  1
  Si  Si11  1  0.615823  0.306422  0.430775  1
  Si  Si12  1  0.370703  0.711289  0.925585  1
  Si  Si13  1  0.210687  0.125684  0.678120  1
  Si  Si14  1  0.305499  0.623972  0.572595  1
  Si  Si15  1  0.710687  0.374316  0.071880  1
  Si  Si16  1  0.805499  0.876028  0.177405  1
  Si  Si17  1  0.115823  0.193578  0.319225  1
  Si  Si18  1  0.962276  0.296892  0.937929  1
  Si  Si19  1  0.727316  0.019633  0.550551  1
  Si  Si20  1  0.227316  0.480367  0.199449  1
  Si  Si21  1  0.788972  0.542074  0.682178  1
  Si  Si22  1  0.462276  0.203108  0.812071  1
  Si  Si23  1  0.519613  0.763934  0.308443  1
  Si  Si24  1  0.288972  0.957926  0.067822  1
  Si  Si25  1  0.870703  0.788711  0.824415  1
  Tc  Tc26  1  0.667208  0.666909  0.496577  1
  Tc  Tc27  1  0.167208  0.833091  0.253423  1
  Tc  Tc28  1  0.014586  0.828146  0.636503  1
  Tc  Tc29  1  0.004818  0.178891  0.127910  1
  Tc  Tc30  1  0.802376  0.022213  0.358155  1
  Tc  Tc31  1  0.302376  0.477787  0.391845  1
  Tc  Tc32  1  0.662391  0.496346  0.876437  1
  Tc  Tc33  1  0.504818  0.321109  0.622090  1
  Tc  Tc34  1  0.514586  0.671854  0.113497  1
  Tc  Tc35  1  0.162391  0.003654  0.873563  1
