# generated using pymatgen
data_Nb2Co7Ni13B6W
_symmetry_space_group_name_H-M   'P 1'
_cell_length_a   7.45118522
_cell_length_b   7.45596609
_cell_length_c   7.45596600
_cell_angle_alpha   60.00000040
_cell_angle_beta   59.97877333
_cell_angle_gamma   59.97876972
_symmetry_Int_Tables_number   1
_chemical_formula_structural   Nb2Co7Ni13B6W
_chemical_formula_sum   'Nb2 Co7 Ni13 B6 W1'
_cell_volume   292.80519632
_cell_formula_units_Z   1
loop_
 _symmetry_equiv_pos_site_id
 _symmetry_equiv_pos_as_xyz
  1  'x, y, z'
loop_
 _atom_site_type_symbol
 _atom_site_label
 _atom_site_symmetry_multiplicity
 _atom_site_fract_x
 _atom_site_fract_y
 _atom_site_fract_z
 _atom_site_occupancy
  Nb  Nb0  1  0.743299  0.752233  0.752233  1
  Nb  Nb1  1  0.999857  0.000048  0.000048  1
  Co  Co2  1  0.381459  0.381102  0.381102  1
  Co  Co3  1  0.615852  0.615861  0.615861  1
  Co  Co4  1  0.381459  0.381102  0.856337  1
  Co  Co5  1  0.381459  0.856337  0.381102  1
  Co  Co6  1  0.615852  0.615861  0.152427  1
  Co  Co7  1  0.615852  0.152427  0.615861  1
  Co  Co8  1  0.856763  0.381079  0.381079  1
  Ni  Ni9  1  0.155922  0.614693  0.614693  1
  Ni  Ni10  1  0.341183  0.001134  0.001134  1
  Ni  Ni11  1  0.658258  0.000188  0.000188  1
  Ni  Ni12  1  0.000494  0.341635  0.657456  1
  Ni  Ni13  1  0.000494  0.657456  0.341635  1
  Ni  Ni14  1  0.000494  0.341635  0.000415  1
  Ni  Ni15  1  0.658258  0.000188  0.341367  1
  Ni  Ni16  1  0.000494  0.657456  0.000415  1
  Ni  Ni17  1  0.341183  0.001134  0.656548  1
  Ni  Ni18  1  0.000494  0.000415  0.341635  1
  Ni  Ni19  1  0.000494  0.000415  0.657456  1
  Ni  Ni20  1  0.658258  0.341367  0.000188  1
  Ni  Ni21  1  0.341183  0.656548  0.001134  1
  B  B22  1  0.726192  0.274088  0.274088  1
  B  B23  1  0.274187  0.727324  0.727324  1
  B  B24  1  0.274187  0.727324  0.271165  1
  B  B25  1  0.726192  0.274088  0.725633  1
  B  B26  1  0.274187  0.271165  0.727324  1
  B  B27  1  0.726192  0.725633  0.274088  1
  W  W28  1  0.249801  0.250066  0.250066  1
