# generated using pymatgen
data_Gd3Dy(RhO3)4
_symmetry_space_group_name_H-M   'P 1'
_cell_length_a   5.30950600
_cell_length_b   5.83464983
_cell_length_c   7.70616500
_cell_angle_alpha   90.00000000
_cell_angle_beta   90.00000000
_cell_angle_gamma   90.06562652
_symmetry_Int_Tables_number   1
_chemical_formula_structural   Gd3Dy(RhO3)4
_chemical_formula_sum   'Gd3 Dy1 Rh4 O12'
_cell_volume   238.72996325
_cell_formula_units_Z   1
loop_
 _symmetry_equiv_pos_site_id
 _symmetry_equiv_pos_as_xyz
  1  'x, y, z'
loop_
 _atom_site_type_symbol
 _atom_site_label
 _atom_site_symmetry_multiplicity
 _atom_site_fract_x
 _atom_site_fract_y
 _atom_site_fract_z
 _atom_site_occupancy
  Gd  Gd0  1  0.029336  0.416593  0.250000  1
  Gd  Gd1  1  0.969728  0.582715  0.750000  1
  Gd  Gd2  1  0.529482  0.082265  0.750000  1
  Dy  Dy3  1  0.468818  0.916567  0.250000  1
  Rh  Rh4  1  0.999474  0.999489  0.000710  1
  Rh  Rh5  1  0.500491  0.499300  0.000508  1
  Rh  Rh6  1  0.999474  0.999489  0.499290  1
  Rh  Rh7  1  0.500491  0.499300  0.499492  1
  O  O8  1  0.323093  0.189378  0.062393  1
  O  O9  1  0.677419  0.808400  0.940532  1
  O  O10  1  0.822444  0.308463  0.940340  1
  O  O11  1  0.677419  0.808400  0.559468  1
  O  O12  1  0.181715  0.694564  0.063561  1
  O  O13  1  0.323093  0.189378  0.437607  1
  O  O14  1  0.181715  0.694564  0.436439  1
  O  O15  1  0.822444  0.308463  0.559660  1
  O  O16  1  0.628698  0.553332  0.250000  1
  O  O17  1  0.370454  0.450989  0.750000  1
  O  O18  1  0.129107  0.951478  0.750000  1
  O  O19  1  0.865108  0.046873  0.250000  1
