# generated using pymatgen
data_Tb4AlIr
_symmetry_space_group_name_H-M   'P 1'
_cell_length_a   9.59339300
_cell_length_b   9.59339333
_cell_length_c   9.59339300
_cell_angle_alpha   120.00000232
_cell_angle_beta   90.00000000
_cell_angle_gamma   120.00000232
_symmetry_Int_Tables_number   1
_chemical_formula_structural   Tb4AlIr
_chemical_formula_sum   'Tb16 Al4 Ir4'
_cell_volume   624.31201705
_cell_formula_units_Z   4
loop_
 _symmetry_equiv_pos_site_id
 _symmetry_equiv_pos_as_xyz
  1  'x, y, z'
loop_
 _atom_site_type_symbol
 _atom_site_label
 _atom_site_symmetry_multiplicity
 _atom_site_fract_x
 _atom_site_fract_y
 _atom_site_fract_z
 _atom_site_occupancy
  Tb  Tb0  1  0.804610  0.000000  0.195390  1
  Tb  Tb1  1  0.195390  0.000000  0.195390  1
  Tb  Tb2  1  0.195390  0.390781  0.195390  1
  Tb  Tb3  1  0.648500  0.297000  0.351501  1
  Tb  Tb4  1  0.054501  0.703001  0.351501  1
  Tb  Tb5  1  0.648500  0.703001  0.351501  1
  Tb  Tb6  1  0.061703  0.123406  0.561704  1
  Tb  Tb7  1  0.061703  0.500000  0.561704  1
  Tb  Tb8  1  0.438297  0.500000  0.561704  1
  Tb  Tb9  1  0.804610  0.000000  0.804610  1
  Tb  Tb10  1  0.195390  0.000000  0.804610  1
  Tb  Tb11  1  0.804610  0.609220  0.804610  1
  Tb  Tb12  1  0.061704  0.500000  0.938297  1
  Tb  Tb13  1  0.438297  0.500000  0.938297  1
  Tb  Tb14  1  0.438297  0.876593  0.938297  1
  Tb  Tb15  1  0.648499  0.297000  0.945499  1
  Al  Al16  1  0.422497  0.844994  0.267490  1
  Al  Al17  1  0.732510  0.155007  0.577503  1
  Al  Al18  1  0.422497  0.844994  0.577504  1
  Al  Al19  1  0.422497  0.155007  0.577504  1
  Ir  Ir20  1  0.423917  0.282612  0.141306  1
  Ir  Ir21  1  0.858694  0.282612  0.141306  1
  Ir  Ir22  1  0.858694  0.717388  0.141306  1
  Ir  Ir23  1  0.858694  0.717388  0.576083  1
