# generated using pymatgen
data_LiLa5PrOsBr12
_symmetry_space_group_name_H-M   'P 1'
_cell_length_a   9.93441755
_cell_length_b   9.59862064
_cell_length_c   9.72958675
_cell_angle_alpha   107.77355474
_cell_angle_beta   108.63490731
_cell_angle_gamma   107.98582821
_symmetry_Int_Tables_number   1
_chemical_formula_structural   LiLa5PrOsBr12
_chemical_formula_sum   'Li1 La5 Pr1 Os1 Br12'
_cell_volume   747.50141223
_cell_formula_units_Z   1
loop_
 _symmetry_equiv_pos_site_id
 _symmetry_equiv_pos_as_xyz
  1  'x, y, z'
loop_
 _atom_site_type_symbol
 _atom_site_label
 _atom_site_symmetry_multiplicity
 _atom_site_fract_x
 _atom_site_fract_y
 _atom_site_fract_z
 _atom_site_occupancy
  Li  Li0  1  0.500129  0.499629  0.499723  1
  La  La1  1  0.032510  0.308767  0.115131  1
  La  La2  1  0.125163  0.035423  0.324905  1
  La  La3  1  0.876978  0.965281  0.675678  1
  La  La4  1  0.967022  0.690800  0.884812  1
  La  La5  1  0.661503  0.868158  0.963404  1
  Pr  Pr6  1  0.333676  0.130817  0.036840  1
  Os  Os7  1  0.999978  0.000166  0.000411  1
  Br  Br8  1  0.686047  0.210226  0.067531  1
  Br  Br9  1  0.381812  0.470301  0.182874  1
  Br  Br10  1  0.066860  0.681634  0.212093  1
  Br  Br11  1  0.794346  0.934067  0.317360  1
  Br  Br12  1  0.466148  0.181601  0.379741  1
  Br  Br13  1  0.185332  0.385298  0.468609  1
  Br  Br14  1  0.814926  0.614731  0.531348  1
  Br  Br15  1  0.534606  0.818143  0.618018  1
  Br  Br16  1  0.208431  0.067301  0.685287  1
  Br  Br17  1  0.933151  0.318328  0.787846  1
  Br  Br18  1  0.618388  0.527458  0.815345  1
  Br  Br19  1  0.312997  0.791874  0.933049  1
