# generated using pymatgen
data_MgMn3(AlPt5)2
_symmetry_space_group_name_H-M   'P 1'
_cell_length_a   4.05088800
_cell_length_b   5.48656335
_cell_length_c   10.88064406
_cell_angle_alpha   89.80158998
_cell_angle_beta   90.00000000
_cell_angle_gamma   90.00000000
_symmetry_Int_Tables_number   1
_chemical_formula_structural   MgMn3(AlPt5)2
_chemical_formula_sum   'Mg1 Mn3 Al2 Pt10'
_cell_volume   241.82580017
_cell_formula_units_Z   1
loop_
 _symmetry_equiv_pos_site_id
 _symmetry_equiv_pos_as_xyz
  1  'x, y, z'
loop_
 _atom_site_type_symbol
 _atom_site_label
 _atom_site_symmetry_multiplicity
 _atom_site_fract_x
 _atom_site_fract_y
 _atom_site_fract_z
 _atom_site_occupancy
  Mg  Mg0  1  0.500000  0.189182  0.638330  1
  Mn  Mn1  1  0.500000  0.807479  0.362845  1
  Mn  Mn2  1  0.500000  0.694447  0.862257  1
  Mn  Mn3  1  0.500000  0.306746  0.137131  1
  Al  Al4  1  0.000000  0.501943  0.499038  1
  Al  Al5  1  0.000000  0.999892  0.000049  1
  Pt  Pt6  1  0.500000  0.300714  0.389628  1
  Pt  Pt7  1  0.500000  0.697195  0.608821  1
  Pt  Pt8  1  0.500000  0.799112  0.108341  1
  Pt  Pt9  1  0.500000  0.203197  0.893566  1
  Pt  Pt10  1  0.000000  0.445545  0.742342  1
  Pt  Pt11  1  0.000000  0.558073  0.258960  1
  Pt  Pt12  1  0.000000  0.941534  0.761368  1
  Pt  Pt13  1  0.000000  0.058233  0.239494  1
  Pt  Pt14  1  0.000000  0.500211  0.000529  1
  Pt  Pt15  1  0.000000  0.996495  0.497301  1
