# generated using pymatgen
data_Lu7(PdSe)2
_symmetry_space_group_name_H-M   'P 1'
_cell_length_a   3.84125321
_cell_length_b   8.95886019
_cell_length_c   8.95885982
_cell_angle_alpha   111.88589642
_cell_angle_beta   102.37933406
_cell_angle_gamma   102.37932878
_symmetry_Int_Tables_number   1
_chemical_formula_structural   Lu7(PdSe)2
_chemical_formula_sum   'Lu7 Pd2 Se2'
_cell_volume   264.29112323
_cell_formula_units_Z   1
loop_
 _symmetry_equiv_pos_site_id
 _symmetry_equiv_pos_as_xyz
  1  'x, y, z'
loop_
 _atom_site_type_symbol
 _atom_site_label
 _atom_site_symmetry_multiplicity
 _atom_site_fract_x
 _atom_site_fract_y
 _atom_site_fract_z
 _atom_site_occupancy
  Lu  Lu0  1  0.002916  0.002916  0.002916  1
  Lu  Lu1  1  0.418246  0.542317  0.294174  1
  Lu  Lu2  1  0.629644  0.949163  0.310125  1
  Lu  Lu3  1  0.418246  0.294174  0.542317  1
  Lu  Lu4  1  0.260961  0.899118  0.622806  1
  Lu  Lu5  1  0.260961  0.622806  0.899118  1
  Lu  Lu6  1  0.629644  0.310125  0.949163  1
  Pd  Pd7  1  0.932477  0.696196  0.168754  1
  Pd  Pd8  1  0.932477  0.168754  0.696196  1
  Se  Se9  1  0.766536  0.266535  0.266535  1
  Se  Se10  1  0.661294  0.661294  0.661294  1
