# generated using pymatgen
data_La7Pr4Tl9Pt4
_symmetry_space_group_name_H-M   'P 1'
_cell_length_a   13.66470000
_cell_length_b   13.66472702
_cell_length_c   3.89523900
_cell_angle_alpha   90.00000000
_cell_angle_beta   90.00000000
_cell_angle_gamma   111.53507320
_symmetry_Int_Tables_number   1
_chemical_formula_structural   La7Pr4Tl9Pt4
_chemical_formula_sum   'La7 Pr4 Tl9 Pt4'
_cell_volume   676.56302328
_cell_formula_units_Z   1
loop_
 _symmetry_equiv_pos_site_id
 _symmetry_equiv_pos_as_xyz
  1  'x, y, z'
loop_
 _atom_site_type_symbol
 _atom_site_label
 _atom_site_symmetry_multiplicity
 _atom_site_fract_x
 _atom_site_fract_y
 _atom_site_fract_z
 _atom_site_occupancy
  La  La0  1  0.809423  0.809843  0.500000  1
  La  La1  1  0.190163  0.190576  0.500000  1
  La  La2  1  0.574246  0.919670  0.500000  1
  La  La3  1  0.426886  0.081446  0.500000  1
  La  La4  1  0.918551  0.573113  0.500000  1
  La  La5  1  0.080335  0.425755  0.500000  1
  La  La6  1  0.127689  0.872305  0.500000  1
  Pr  Pr7  1  0.500042  0.499959  0.500000  1
  Pr  Pr8  1  0.871626  0.128373  0.500000  1
  Pr  Pr9  1  0.339978  0.660025  0.500000  1
  Pr  Pr10  1  0.660064  0.339932  0.500000  1
  Tl  Tl11  1  0.342365  0.865320  0.000000  1
  Tl  Tl12  1  0.659074  0.134901  0.000000  1
  Tl  Tl13  1  0.865088  0.340926  0.000000  1
  Tl  Tl14  1  0.134677  0.657635  0.000000  1
  Tl  Tl15  1  0.571178  0.716259  0.000000  1
  Tl  Tl16  1  0.428784  0.283994  0.000000  1
  Tl  Tl17  1  0.716006  0.571218  0.000000  1
  Tl  Tl18  1  0.283748  0.428828  0.000000  1
  Tl  Tl19  1  0.999088  0.000922  0.000000  1
  Pt  Pt20  1  0.745636  0.947511  0.000000  1
  Pt  Pt21  1  0.253810  0.050941  0.000000  1
  Pt  Pt22  1  0.949054  0.746188  0.000000  1
  Pt  Pt23  1  0.052488  0.254362  0.000000  1
