# generated using pymatgen
data_Cs14LiTa2(InAs2)5
_symmetry_space_group_name_H-M   'P 1'
_cell_length_a   9.01220612
_cell_length_b   9.89096883
_cell_length_c   15.10412612
_cell_angle_alpha   85.42565702
_cell_angle_beta   84.42397258
_cell_angle_gamma   85.30515952
_symmetry_Int_Tables_number   1
_chemical_formula_structural   Cs14LiTa2(InAs2)5
_chemical_formula_sum   'Cs14 Li1 Ta2 In5 As10'
_cell_volume   1332.00338243
_cell_formula_units_Z   1
loop_
 _symmetry_equiv_pos_site_id
 _symmetry_equiv_pos_as_xyz
  1  'x, y, z'
loop_
 _atom_site_type_symbol
 _atom_site_label
 _atom_site_symmetry_multiplicity
 _atom_site_fract_x
 _atom_site_fract_y
 _atom_site_fract_z
 _atom_site_occupancy
  Cs  Cs0  1  0.822464  0.810188  0.133408  1
  Cs  Cs1  1  0.180487  0.187881  0.868900  1
  Cs  Cs2  1  0.267971  0.259523  0.260243  1
  Cs  Cs3  1  0.726061  0.752555  0.747448  1
  Cs  Cs4  1  0.743879  0.502962  0.978042  1
  Cs  Cs5  1  0.257899  0.499558  0.029612  1
  Cs  Cs6  1  0.682629  0.081811  0.891471  1
  Cs  Cs7  1  0.322337  0.925634  0.116517  1
  Cs  Cs8  1  0.671399  0.662350  0.398011  1
  Cs  Cs9  1  0.334932  0.338749  0.602935  1
  Cs  Cs10  1  0.763927  0.994725  0.528093  1
  Cs  Cs11  1  0.260682  0.996825  0.468561  1
  Cs  Cs12  1  0.829203  0.368054  0.649209  1
  Cs  Cs13  1  0.159289  0.649053  0.347807  1
  Li  Li14  1  0.872840  0.245345  0.335054  1
  Ta  Ta15  1  0.648853  0.395604  0.231393  1
  Ta  Ta16  1  0.351333  0.606530  0.773749  1
  In  In17  1  0.095579  0.720959  0.624819  1
  In  In18  1  0.941611  0.187168  0.135472  1
  In  In19  1  0.056806  0.814521  0.864630  1
  In  In20  1  0.640549  0.052866  0.297201  1
  In  In21  1  0.359649  0.948469  0.704693  1
  As  As22  1  0.488932  0.599356  0.194548  1
  As  As23  1  0.512777  0.404577  0.810633  1
  As  As24  1  0.919287  0.447348  0.211534  1
  As  As25  1  0.082656  0.550450  0.788222  1
  As  As26  1  0.590719  0.293892  0.390625  1
  As  As27  1  0.413936  0.700610  0.614494  1
  As  As28  1  0.623905  0.207318  0.129054  1
  As  As29  1  0.370470  0.797278  0.874785  1
  As  As30  1  0.971350  0.004132  0.301118  1
  As  As31  1  0.035587  0.993708  0.697719  1
