# generated using pymatgen
data_Mg2Al7Ir3
_symmetry_space_group_name_H-M   'P 1'
_cell_length_a   7.43701900
_cell_length_b   7.46089232
_cell_length_c   8.09101900
_cell_angle_alpha   89.99851680
_cell_angle_beta   90.00171429
_cell_angle_gamma   119.89333321
_symmetry_Int_Tables_number   1
_chemical_formula_structural   Mg2Al7Ir3
_chemical_formula_sum   'Mg4 Al14 Ir6'
_cell_volume   389.21476979
_cell_formula_units_Z   2
loop_
 _symmetry_equiv_pos_site_id
 _symmetry_equiv_pos_as_xyz
  1  'x, y, z'
loop_
 _atom_site_type_symbol
 _atom_site_label
 _atom_site_symmetry_multiplicity
 _atom_site_fract_x
 _atom_site_fract_y
 _atom_site_fract_z
 _atom_site_occupancy
  Mg  Mg0  1  0.316105  0.315679  0.066318  1
  Mg  Mg1  1  0.000422  0.684315  0.066326  1
  Mg  Mg2  1  0.317032  0.999998  0.562704  1
  Mg  Mg3  1  0.688866  0.000000  0.066844  1
  Al  Al4  1  0.666280  0.332047  0.231476  1
  Al  Al5  1  0.331120  0.671138  0.733257  1
  Al  Al6  1  0.659985  0.328860  0.733257  1
  Al  Al7  1  0.334240  0.667956  0.231474  1
  Al  Al8  1  0.000065  0.349289  0.910178  1
  Al  Al9  1  0.650779  0.650710  0.910177  1
  Al  Al10  1  0.346219  0.352323  0.409332  1
  Al  Al11  1  0.993892  0.647672  0.409340  1
  Al  Al12  1  0.351125  0.999996  0.909083  1
  Al  Al13  1  0.658101  0.000002  0.407616  1
  Al  Al14  1  0.002570  0.000001  0.763994  1
  Al  Al15  1  0.006441  0.000005  0.266861  1
  Al  Al16  1  0.998372  0.319043  0.571088  1
  Al  Al17  1  0.679316  0.680950  0.571086  1
  Ir  Ir18  1  0.001655  0.334028  0.251610  1
  Ir  Ir19  1  0.667640  0.665987  0.251610  1
  Ir  Ir20  1  0.331049  0.342441  0.730191  1
  Ir  Ir21  1  0.988604  0.657559  0.730196  1
  Ir  Ir22  1  0.339075  0.000004  0.232497  1
  Ir  Ir23  1  0.671151  0.999996  0.729282  1
