# generated using pymatgen
data_LaNd(Bi3O7)2
_symmetry_space_group_name_H-M   'P 1'
_cell_length_a   6.78074667
_cell_length_b   6.98673776
_cell_length_c   7.99319810
_cell_angle_alpha   106.41978556
_cell_angle_beta   89.20380975
_cell_angle_gamma   99.62318469
_symmetry_Int_Tables_number   1
_chemical_formula_structural   LaNd(Bi3O7)2
_chemical_formula_sum   'La1 Nd1 Bi6 O14'
_cell_volume   357.90207519
_cell_formula_units_Z   1
loop_
 _symmetry_equiv_pos_site_id
 _symmetry_equiv_pos_as_xyz
  1  'x, y, z'
loop_
 _atom_site_type_symbol
 _atom_site_label
 _atom_site_symmetry_multiplicity
 _atom_site_fract_x
 _atom_site_fract_y
 _atom_site_fract_z
 _atom_site_occupancy
  La  La0  1  0.461873  0.997594  0.247837  1
  Nd  Nd1  1  0.541439  0.001873  0.752029  1
  Bi  Bi2  1  0.000166  0.999856  0.500578  1
  Bi  Bi3  1  0.000601  0.000028  0.998958  1
  Bi  Bi4  1  0.259754  0.504499  0.873542  1
  Bi  Bi5  1  0.741503  0.494169  0.125779  1
  Bi  Bi6  1  0.720042  0.473966  0.608877  1
  Bi  Bi7  1  0.279562  0.527125  0.393247  1
  O  O8  1  0.464103  0.640415  0.183386  1
  O  O9  1  0.535133  0.355480  0.815170  1
  O  O10  1  0.294863  0.938004  0.951497  1
  O  O11  1  0.704717  0.062809  0.042640  1
  O  O12  1  0.286551  0.907964  0.508975  1
  O  O13  1  0.713040  0.092393  0.496793  1
  O  O14  1  0.533997  0.356600  0.359284  1
  O  O15  1  0.467546  0.646256  0.641964  1
  O  O16  1  0.907055  0.683399  0.970602  1
  O  O17  1  0.092775  0.316961  0.029509  1
  O  O18  1  0.109410  0.319140  0.622125  1
  O  O19  1  0.891221  0.681048  0.377353  1
  O  O20  1  0.886674  0.924470  0.730693  1
  O  O21  1  0.107974  0.075951  0.269162  1
