# generated using pymatgen
data_Yb12Ga12Sn5Sb2RhO48
_symmetry_space_group_name_H-M   'P 1'
_cell_length_a   10.78982806
_cell_length_b   10.77287490
_cell_length_c   10.77287600
_cell_angle_alpha   109.36792858
_cell_angle_beta   109.53181644
_cell_angle_gamma   109.45015110
_symmetry_Int_Tables_number   1
_chemical_formula_structural   Yb12Ga12Sn5Sb2RhO48
_chemical_formula_sum   'Yb12 Ga12 Sn5 Sb2 Rh1 O48'
_cell_volume   964.70947673
_cell_formula_units_Z   1
loop_
 _symmetry_equiv_pos_site_id
 _symmetry_equiv_pos_as_xyz
  1  'x, y, z'
loop_
 _atom_site_type_symbol
 _atom_site_label
 _atom_site_symmetry_multiplicity
 _atom_site_fract_x
 _atom_site_fract_y
 _atom_site_fract_z
 _atom_site_occupancy
  Yb  Yb0  1  0.248138  0.376449  0.124576  1
  Yb  Yb1  1  0.373667  0.753321  0.126427  1
  Yb  Yb2  1  0.377644  0.123391  0.250581  1
  Yb  Yb3  1  0.878984  0.626002  0.251886  1
  Yb  Yb4  1  0.123315  0.250590  0.377730  1
  Yb  Yb5  1  0.750678  0.124828  0.374928  1
  Yb  Yb6  1  0.249322  0.875170  0.625072  1
  Yb  Yb7  1  0.876685  0.749410  0.622270  1
  Yb  Yb8  1  0.121014  0.373998  0.748114  1
  Yb  Yb9  1  0.622356  0.876609  0.749419  1
  Yb  Yb10  1  0.626333  0.246679  0.873571  1
  Yb  Yb11  1  0.751862  0.623551  0.875424  1
  Ga  Ga12  1  0.749725  0.876714  0.126136  1
  Ga  Ga13  1  0.873084  0.248974  0.124530  1
  Ga  Ga14  1  0.627677  0.376640  0.252319  1
  Ga  Ga15  1  0.124014  0.873427  0.249028  1
  Ga  Ga16  1  0.625829  0.750535  0.372263  1
  Ga  Ga17  1  0.251105  0.628945  0.376413  1
  Ga  Ga18  1  0.748895  0.371055  0.623587  1
  Ga  Ga19  1  0.374171  0.249465  0.627737  1
  Ga  Ga20  1  0.875986  0.126573  0.750973  1
  Ga  Ga21  1  0.372323  0.623360  0.747681  1
  Ga  Ga22  1  0.250276  0.123286  0.873864  1
  Ga  Ga23  1  0.126916  0.751027  0.875470  1
  Sn  Sn24  1  0.499999  0.000000  0.000000  1
  Sn  Sn25  1  0.000000  0.499999  0.000000  1
  Sn  Sn26  1  0.500000  0.000000  0.500000  1
  Sn  Sn27  1  0.000000  0.500000  0.500000  1
  Sn  Sn28  1  0.000000  0.000000  0.499999  1
  Sb  Sb29  1  0.000000  0.000000  0.000000  1
  Sb  Sb30  1  0.500000  0.500000  0.000000  1
  Rh  Rh31  1  0.499999  0.499999  0.499999  1
  O  O32  1  0.318332  0.907636  0.029291  1
  O  O33  1  0.203437  0.122661  0.026286  1
  O  O34  1  0.701697  0.677280  0.080639  1
  O  O35  1  0.876203  0.404422  0.086372  1
  O  O36  1  0.969532  0.681623  0.092902  1
  O  O37  1  0.619185  0.417712  0.095353  1
  O  O38  1  0.593889  0.912115  0.122432  1
  O  O39  1  0.026687  0.203604  0.121056  1
  O  O40  1  0.473614  0.592188  0.176993  1
  O  O41  1  0.211738  0.585314  0.183246  1
  O  O42  1  0.121800  0.027551  0.203743  1
  O  O43  1  0.585291  0.183987  0.209812  1
  O  O44  1  0.475231  0.385889  0.299753  1
  O  O45  1  0.317634  0.914695  0.290101  1
  O  O46  1  0.906396  0.027766  0.317329  1
  O  O47  1  0.915254  0.290070  0.318610  1
  O  O48  1  0.300209  0.476214  0.386011  1
  O  O49  1  0.585109  0.902770  0.376168  1
  O  O50  1  0.817832  0.529251  0.406008  1
  O  O51  1  0.086763  0.877393  0.404849  1
  O  O52  1  0.817155  0.788648  0.413478  1
  O  O53  1  0.095535  0.622576  0.413232  1
  O  O54  1  0.592068  0.181344  0.469704  1
  O  O55  1  0.386573  0.300989  0.477944  1
  O  O56  1  0.613427  0.699011  0.522056  1
  O  O57  1  0.407930  0.818655  0.530295  1
  O  O58  1  0.904465  0.377423  0.586768  1
  O  O59  1  0.182845  0.211352  0.586522  1
  O  O60  1  0.913237  0.122607  0.595151  1
  O  O61  1  0.182167  0.470748  0.593990  1
  O  O62  1  0.414891  0.097230  0.623831  1
  O  O63  1  0.699791  0.523786  0.613989  1
  O  O64  1  0.084745  0.709930  0.681390  1
  O  O65  1  0.093604  0.972234  0.682671  1
  O  O66  1  0.682366  0.085304  0.709899  1
  O  O67  1  0.524769  0.614111  0.700247  1
  O  O68  1  0.414709  0.816013  0.790188  1
  O  O69  1  0.878199  0.972448  0.796255  1
  O  O70  1  0.788262  0.414686  0.816754  1
  O  O71  1  0.526385  0.407810  0.823006  1
  O  O72  1  0.973312  0.796394  0.878943  1
  O  O73  1  0.406111  0.087885  0.877568  1
  O  O74  1  0.380814  0.582288  0.904647  1
  O  O75  1  0.030468  0.318377  0.907098  1
  O  O76  1  0.123797  0.595578  0.913628  1
  O  O77  1  0.298303  0.322720  0.919360  1
  O  O78  1  0.681668  0.092364  0.970709  1
  O  O79  1  0.796561  0.877338  0.973713  1
