# generated using pymatgen
data_Li3Sm3AgSn4
_symmetry_space_group_name_H-M   'P 1'
_cell_length_a   8.78394565
_cell_length_b   8.79560962
_cell_length_c   8.79561064
_cell_angle_alpha   149.22950802
_cell_angle_beta   131.63194550
_cell_angle_gamma   58.44077810
_symmetry_Int_Tables_number   1
_chemical_formula_structural   Li3Sm3AgSn4
_chemical_formula_sum   'Li3 Sm3 Ag1 Sn4'
_cell_volume   257.84191134
_cell_formula_units_Z   1
loop_
 _symmetry_equiv_pos_site_id
 _symmetry_equiv_pos_as_xyz
  1  'x, y, z'
loop_
 _atom_site_type_symbol
 _atom_site_label
 _atom_site_symmetry_multiplicity
 _atom_site_fract_x
 _atom_site_fract_y
 _atom_site_fract_z
 _atom_site_occupancy
  Li  Li0  1  0.638944  0.328036  0.310909  1
  Li  Li1  1  0.360465  0.670262  0.690202  1
  Li  Li2  1  0.018425  0.328066  0.690359  1
  Sm  Sm3  1  0.367172  0.870689  0.496483  1
  Sm  Sm4  1  0.629189  0.129403  0.499786  1
  Sm  Sm5  1  0.001361  0.001504  0.999857  1
  Ag  Ag6  1  0.981385  0.672118  0.309267  1
  Sn  Sn7  1  0.224087  0.215123  0.008964  1
  Sn  Sn8  1  0.784181  0.787990  0.996191  1
  Sn  Sn9  1  0.694579  0.497258  0.197321  1
  Sn  Sn10  1  0.300213  0.499551  0.800662  1
