# generated using pymatgen
data_Tm4AlNi13
_symmetry_space_group_name_H-M   'P 1'
_cell_length_a   4.88823171
_cell_length_b   4.88823266
_cell_length_c   12.38664603
_cell_angle_alpha   78.60844095
_cell_angle_beta   78.60845098
_cell_angle_gamma   60.77201818
_symmetry_Int_Tables_number   1
_chemical_formula_structural   Tm4AlNi13
_chemical_formula_sum   'Tm4 Al1 Ni13'
_cell_volume   251.43235480
_cell_formula_units_Z   1
loop_
 _symmetry_equiv_pos_site_id
 _symmetry_equiv_pos_as_xyz
  1  'x, y, z'
loop_
 _atom_site_type_symbol
 _atom_site_label
 _atom_site_symmetry_multiplicity
 _atom_site_fract_x
 _atom_site_fract_y
 _atom_site_fract_z
 _atom_site_occupancy
  Tm  Tm0  1  0.946309  0.946309  0.160855  1
  Tm  Tm1  1  0.053691  0.053691  0.839145  1
  Tm  Tm2  1  0.852047  0.852047  0.442986  1
  Tm  Tm3  1  0.147953  0.147953  0.557014  1
  Al  Al4  1  0.500000  0.500000  0.000000  1
  Ni  Ni5  1  0.500000  0.500000  0.500000  1
  Ni  Ni6  1  0.722920  0.722920  0.833592  1
  Ni  Ni7  1  0.277080  0.277080  0.166408  1
  Ni  Ni8  1  0.611459  0.611459  0.166379  1
  Ni  Ni9  1  0.388541  0.388541  0.833621  1
  Ni  Ni10  1  0.000000  0.500000  0.000000  1
  Ni  Ni11  1  0.500000  0.000000  0.000000  1
  Ni  Ni12  1  0.388440  0.388440  0.331287  1
  Ni  Ni13  1  0.890594  0.388824  0.331176  1
  Ni  Ni14  1  0.388824  0.890594  0.331176  1
  Ni  Ni15  1  0.611560  0.611560  0.668713  1
  Ni  Ni16  1  0.109406  0.611176  0.668824  1
  Ni  Ni17  1  0.611176  0.109406  0.668824  1
