# generated using pymatgen
data_Nb8V2Ga4Ge2B
_symmetry_space_group_name_H-M   'P 1'
_cell_length_a   7.70029598
_cell_length_b   7.69832764
_cell_length_c   5.25147136
_cell_angle_alpha   90.04120234
_cell_angle_beta   89.91760892
_cell_angle_gamma   120.00845830
_symmetry_Int_Tables_number   1
_chemical_formula_structural   Nb8V2Ga4Ge2B
_chemical_formula_sum   'Nb8 V2 Ga4 Ge2 B1'
_cell_volume   269.57398090
_cell_formula_units_Z   1
loop_
 _symmetry_equiv_pos_site_id
 _symmetry_equiv_pos_as_xyz
  1  'x, y, z'
loop_
 _atom_site_type_symbol
 _atom_site_label
 _atom_site_symmetry_multiplicity
 _atom_site_fract_x
 _atom_site_fract_y
 _atom_site_fract_z
 _atom_site_occupancy
  Nb  Nb0  1  0.999549  0.758100  0.252521  1
  Nb  Nb1  1  0.241449  0.241900  0.252521  1
  Nb  Nb2  1  0.758692  0.000000  0.253386  1
  Nb  Nb3  1  0.000117  0.242536  0.747486  1
  Nb  Nb4  1  0.757582  0.757464  0.747486  1
  Nb  Nb5  1  0.242276  0.000000  0.746926  1
  Nb  Nb6  1  0.332956  0.665805  0.500861  1
  Nb  Nb7  1  0.667152  0.334195  0.500861  1
  V  V8  1  0.667765  0.335054  0.999054  1
  V  V9  1  0.332710  0.664946  0.999054  1
  Ga  Ga10  1  0.401169  0.000000  0.232675  1
  Ga  Ga11  1  0.000477  0.600911  0.766104  1
  Ga  Ga12  1  0.399566  0.399089  0.766104  1
  Ga  Ga13  1  0.599150  0.000000  0.767765  1
  Ge  Ge14  1  0.999821  0.400799  0.233045  1
  Ge  Ge15  1  0.599022  0.599201  0.233045  1
  B  B16  1  0.000545  0.000000  0.501102  1
