# generated using pymatgen
data_SrFe3NiP12
_symmetry_space_group_name_H-M   'P 1'
_cell_length_a   6.78791642
_cell_length_b   6.78791734
_cell_length_c   6.78791627
_cell_angle_alpha   109.46581824
_cell_angle_beta   109.46581202
_cell_angle_gamma   109.46581634
_symmetry_Int_Tables_number   1
_chemical_formula_structural   SrFe3NiP12
_chemical_formula_sum   'Sr1 Fe3 Ni1 P12'
_cell_volume   240.80998851
_cell_formula_units_Z   1
loop_
 _symmetry_equiv_pos_site_id
 _symmetry_equiv_pos_as_xyz
  1  'x, y, z'
loop_
 _atom_site_type_symbol
 _atom_site_label
 _atom_site_symmetry_multiplicity
 _atom_site_fract_x
 _atom_site_fract_y
 _atom_site_fract_z
 _atom_site_occupancy
  Sr  Sr0  1  0.000000  0.000000  0.000000  1
  Fe  Fe1  1  0.500000  0.000000  0.000000  1
  Fe  Fe2  1  0.000000  0.500000  0.000000  1
  Fe  Fe3  1  0.000000  0.000000  0.500000  1
  Ni  Ni4  1  0.500000  0.500000  0.500000  1
  P  P5  1  0.151590  0.799651  0.648997  1
  P  P6  1  0.142109  0.502903  0.348465  1
  P  P7  1  0.857891  0.497097  0.651535  1
  P  P8  1  0.348465  0.142109  0.502903  1
  P  P9  1  0.799651  0.648997  0.151590  1
  P  P10  1  0.848410  0.200349  0.351003  1
  P  P11  1  0.648997  0.151590  0.799651  1
  P  P12  1  0.497097  0.651535  0.857891  1
  P  P13  1  0.651535  0.857891  0.497097  1
  P  P14  1  0.502903  0.348465  0.142109  1
  P  P15  1  0.351003  0.848410  0.200349  1
  P  P16  1  0.200349  0.351003  0.848410  1
