# generated using pymatgen
data_Yb2SmEr(Pt2O7)2
_symmetry_space_group_name_H-M   'P 1'
_cell_length_a   7.27497471
_cell_length_b   7.27349977
_cell_length_c   7.27350019
_cell_angle_alpha   60.07804195
_cell_angle_beta   60.11185329
_cell_angle_gamma   60.11185249
_symmetry_Int_Tables_number   1
_chemical_formula_structural   Yb2SmEr(Pt2O7)2
_chemical_formula_sum   'Yb2 Sm1 Er1 Pt4 O14'
_cell_volume   272.76705125
_cell_formula_units_Z   1
loop_
 _symmetry_equiv_pos_site_id
 _symmetry_equiv_pos_as_xyz
  1  'x, y, z'
loop_
 _atom_site_type_symbol
 _atom_site_label
 _atom_site_symmetry_multiplicity
 _atom_site_fract_x
 _atom_site_fract_y
 _atom_site_fract_z
 _atom_site_occupancy
  Yb  Yb0  1  0.625000  0.625000  0.125000  1
  Yb  Yb1  1  0.625000  0.125000  0.625000  1
  Sm  Sm2  1  0.125000  0.625000  0.625000  1
  Er  Er3  1  0.625000  0.625000  0.625000  1
  Pt  Pt4  1  0.625000  0.125000  0.125000  1
  Pt  Pt5  1  0.125000  0.125000  0.125000  1
  Pt  Pt6  1  0.125000  0.625000  0.125000  1
  Pt  Pt7  1  0.125000  0.125000  0.625000  1
  O  O8  1  0.033030  0.461300  0.461300  1
  O  O9  1  0.789700  0.789496  0.216628  1
  O  O10  1  0.791102  0.208399  0.208399  1
  O  O11  1  0.746982  0.746746  0.746746  1
  O  O12  1  0.040986  0.459491  0.040633  1
  O  O13  1  0.460300  0.033372  0.460504  1
  O  O14  1  0.040986  0.040633  0.459491  1
  O  O15  1  0.503018  0.503254  0.503254  1
  O  O16  1  0.209014  0.209367  0.790509  1
  O  O17  1  0.209014  0.790509  0.209367  1
  O  O18  1  0.789700  0.216628  0.789496  1
  O  O19  1  0.458898  0.041601  0.041601  1
  O  O20  1  0.460300  0.460504  0.033372  1
  O  O21  1  0.216970  0.788700  0.788700  1
