# generated using pymatgen
data_ScBr37
_symmetry_space_group_name_H-M   'P 1'
_cell_length_a   14.20848141
_cell_length_b   15.29732181
_cell_length_c   14.42416200
_cell_angle_alpha   103.00376457
_cell_angle_beta   48.80056783
_cell_angle_gamma   81.50743146
_symmetry_Int_Tables_number   1
_chemical_formula_structural   ScBr37
_chemical_formula_sum   'Sc1 Br37'
_cell_volume   2102.91272627
_cell_formula_units_Z   1
loop_
 _symmetry_equiv_pos_site_id
 _symmetry_equiv_pos_as_xyz
  1  'x, y, z'
loop_
 _atom_site_type_symbol
 _atom_site_label
 _atom_site_symmetry_multiplicity
 _atom_site_fract_x
 _atom_site_fract_y
 _atom_site_fract_z
 _atom_site_occupancy
  Sc  Sc0  1  0.500000  0.000000  0.000000  1
  Br  Br1  1  0.793719  0.302024  0.135610  1
  Br  Br2  1  0.206281  0.697976  0.864390  1
  Br  Br3  1  0.748025  0.082437  0.361335  1
  Br  Br4  1  0.251975  0.917563  0.638665  1
  Br  Br5  1  0.110077  0.351954  0.172789  1
  Br  Br6  1  0.889923  0.648046  0.827211  1
  Br  Br7  1  0.869109  0.538257  0.248140  1
  Br  Br8  1  0.130891  0.461743  0.751860  1
  Br  Br9  1  0.687488  0.275284  0.521391  1
  Br  Br10  1  0.312512  0.724716  0.478609  1
  Br  Br11  1  0.058317  0.143747  0.462866  1
  Br  Br12  1  0.941683  0.856253  0.537134  1
  Br  Br13  1  0.982645  0.006541  0.282279  1
  Br  Br14  1  0.017355  0.993459  0.717721  1
  Br  Br15  1  0.957779  0.337094  0.594195  1
  Br  Br16  1  0.042221  0.662906  0.405805  1
  Br  Br17  1  0.583763  0.429244  0.234580  1
  Br  Br18  1  0.416237  0.570756  0.765420  1
  Br  Br19  1  0.168808  0.481076  0.276102  1
  Br  Br20  1  0.831192  0.518924  0.723898  1
  Br  Br21  1  0.000000  0.500000  0.000000  1
  Br  Br22  1  0.581325  0.955433  0.116974  1
  Br  Br23  1  0.418675  0.044567  0.883026  1
  Br  Br24  1  0.321056  0.055562  0.291174  1
  Br  Br25  1  0.678944  0.944438  0.708826  1
  Br  Br26  1  0.536771  0.130424  0.409163  1
  Br  Br27  1  0.463229  0.869576  0.590837  1
  Br  Br28  1  0.090805  0.215841  0.070821  1
  Br  Br29  1  0.909195  0.784159  0.929179  1
  Br  Br30  1  0.663839  0.696155  0.403900  1
  Br  Br31  1  0.336161  0.303845  0.596100  1
  Br  Br32  1  0.901685  0.148540  0.923662  1
  Br  Br33  1  0.098315  0.851460  0.076338  1
  Br  Br34  1  0.537627  0.154733  0.023866  1
  Br  Br35  1  0.462373  0.845267  0.976134  1
  Br  Br36  1  0.648060  0.431524  0.650902  1
  Br  Br37  1  0.351940  0.568476  0.349098  1
