# generated using pymatgen
data_Dy3Bi2Rh3Pb
_symmetry_space_group_name_H-M   'P 1'
_cell_length_a   7.63773000
_cell_length_b   7.68674552
_cell_length_c   3.97009300
_cell_angle_alpha   90.00000000
_cell_angle_beta   90.00000000
_cell_angle_gamma   119.78927748
_symmetry_Int_Tables_number   1
_chemical_formula_structural   Dy3Bi2Rh3Pb
_chemical_formula_sum   'Dy3 Bi2 Rh3 Pb1'
_cell_volume   202.28159914
_cell_formula_units_Z   1
loop_
 _symmetry_equiv_pos_site_id
 _symmetry_equiv_pos_as_xyz
  1  'x, y, z'
loop_
 _atom_site_type_symbol
 _atom_site_label
 _atom_site_symmetry_multiplicity
 _atom_site_fract_x
 _atom_site_fract_y
 _atom_site_fract_z
 _atom_site_occupancy
  Dy  Dy0  1  0.594983  0.000000  0.000000  1
  Dy  Dy1  1  0.400624  0.398353  0.000000  1
  Dy  Dy2  1  0.002271  0.601647  0.000000  1
  Bi  Bi3  1  0.736651  0.734636  0.500000  1
  Bi  Bi4  1  0.002015  0.265364  0.500000  1
  Rh  Rh5  1  0.667571  0.335263  0.500000  1
  Rh  Rh6  1  0.996159  0.000000  0.000000  1
  Rh  Rh7  1  0.332307  0.664737  0.500000  1
  Pb  Pb8  1  0.267419  0.000000  0.500000  1
