# generated using pymatgen
data_Tb5ReOsC7
_symmetry_space_group_name_H-M   'P 1'
_cell_length_a   8.30582738
_cell_length_b   8.30582793
_cell_length_c   3.49443300
_cell_angle_alpha   90.00000000
_cell_angle_beta   90.00000000
_cell_angle_gamma   122.78434602
_symmetry_Int_Tables_number   1
_chemical_formula_structural   Tb5ReOsC7
_chemical_formula_sum   'Tb5 Re1 Os1 C7'
_cell_volume   202.67077346
_cell_formula_units_Z   1
loop_
 _symmetry_equiv_pos_site_id
 _symmetry_equiv_pos_as_xyz
  1  'x, y, z'
loop_
 _atom_site_type_symbol
 _atom_site_label
 _atom_site_symmetry_multiplicity
 _atom_site_fract_x
 _atom_site_fract_y
 _atom_site_fract_z
 _atom_site_occupancy
  Tb  Tb0  1  0.500643  0.499357  0.000000  1
  Tb  Tb1  1  0.073640  0.334855  0.500000  1
  Tb  Tb2  1  0.924359  0.664244  0.500000  1
  Tb  Tb3  1  0.665145  0.926360  0.500000  1
  Tb  Tb4  1  0.335756  0.075641  0.500000  1
  Re  Re5  1  0.285647  0.714353  0.000000  1
  Os  Os6  1  0.712826  0.287174  0.000000  1
  C  C7  1  0.632574  0.367426  0.500000  1
  C  C8  1  0.372536  0.627464  0.500000  1
  C  C9  1  0.999486  0.000514  0.000000  1
  C  C10  1  0.170291  0.170960  0.000000  1
  C  C11  1  0.829040  0.829709  0.000000  1
  C  C12  1  0.999308  0.501252  0.000000  1
  C  C13  1  0.498748  0.000692  0.000000  1
