# generated using pymatgen
data_Sc3(Zn2Ga)2
_symmetry_space_group_name_H-M   'P 1'
_cell_length_a   6.62679700
_cell_length_b   6.62679678
_cell_length_c   4.16528000
_cell_angle_alpha   90.00000000
_cell_angle_beta   90.00000000
_cell_angle_gamma   120.00000611
_symmetry_Int_Tables_number   1
_chemical_formula_structural   Sc3(Zn2Ga)2
_chemical_formula_sum   'Sc3 Zn4 Ga2'
_cell_volume   158.40982902
_cell_formula_units_Z   1
loop_
 _symmetry_equiv_pos_site_id
 _symmetry_equiv_pos_as_xyz
  1  'x, y, z'
loop_
 _atom_site_type_symbol
 _atom_site_label
 _atom_site_symmetry_multiplicity
 _atom_site_fract_x
 _atom_site_fract_y
 _atom_site_fract_z
 _atom_site_occupancy
  Sc  Sc0  1  0.432130  0.432130  0.000000  1
  Sc  Sc1  1  0.567870  0.000000  0.000000  1
  Sc  Sc2  1  0.000000  0.567870  0.000000  1
  Zn  Zn3  1  0.000000  0.000000  0.000000  1
  Zn  Zn4  1  0.761136  0.761136  0.500000  1
  Zn  Zn5  1  0.238864  0.000000  0.500000  1
  Zn  Zn6  1  0.000000  0.238864  0.500000  1
  Ga  Ga7  1  0.666667  0.333333  0.500000  1
  Ga  Ga8  1  0.333333  0.666667  0.500000  1
