# generated using pymatgen
data_YHo(ThH5)6
_symmetry_space_group_name_H-M   'P 1'
_cell_length_a   7.82453597
_cell_length_b   7.82179520
_cell_length_c   7.78737206
_cell_angle_alpha   109.44846215
_cell_angle_beta   109.46212855
_cell_angle_gamma   109.67777754
_symmetry_Int_Tables_number   1
_chemical_formula_structural   YHo(ThH5)6
_chemical_formula_sum   'Y1 Ho1 Th6 H30'
_cell_volume   366.09389931
_cell_formula_units_Z   1
loop_
 _symmetry_equiv_pos_site_id
 _symmetry_equiv_pos_as_xyz
  1  'x, y, z'
loop_
 _atom_site_type_symbol
 _atom_site_label
 _atom_site_symmetry_multiplicity
 _atom_site_fract_x
 _atom_site_fract_y
 _atom_site_fract_z
 _atom_site_occupancy
  Y  Y0  1  0.915101  0.915983  0.916534  1
  Ho  Ho1  1  0.498571  0.999383  0.083821  1
  Th  Th2  1  0.993453  0.079056  0.494500  1
  Th  Th3  1  0.085002  0.505058  0.000952  1
  Th  Th4  1  0.999053  0.584462  0.505371  1
  Th  Th5  1  0.583911  0.503899  0.999102  1
  Th  Th6  1  0.504437  0.998703  0.587860  1
  Th  Th7  1  0.416767  0.410786  0.412145  1
  H  H8  1  0.649789  0.964034  0.368691  1
  H  H9  1  0.218086  0.316253  0.846522  1
  H  H10  1  0.186735  0.403964  0.534837  1
  H  H11  1  0.095386  0.279381  0.125328  1
  H  H12  1  0.281910  0.122081  0.092622  1
  H  H13  1  0.124643  0.092821  0.276159  1
  H  H14  1  0.470110  0.153811  0.875076  1
  H  H15  1  0.719195  0.350721  0.813305  1
  H  H16  1  0.627377  0.379429  0.250789  1
  H  H17  1  0.250309  0.624262  0.376233  1
  H  H18  1  0.749746  0.872973  0.126438  1
  H  H19  1  0.124019  0.746694  0.873756  1
  H  H20  1  0.374074  0.248025  0.623783  1
  H  H21  1  0.876512  0.128895  0.749040  1
  H  H22  1  0.780847  0.594762  0.630780  1
  H  H23  1  0.318112  0.849691  0.221003  1
  H  H24  1  0.374019  0.659097  0.967300  1
  H  H25  1  0.963468  0.368384  0.650601  1
  H  H26  1  0.536937  0.185281  0.405232  1
  H  H27  1  0.405896  0.537424  0.186715  1
  H  H28  1  0.839863  0.216799  0.311284  1
  H  H29  1  0.906658  0.691203  0.033012  1
  H  H30  1  0.812871  0.717781  0.349412  1
  H  H31  1  0.151889  0.869135  0.465158  1
  H  H32  1  0.688408  0.029698  0.907635  1
  H  H33  1  0.348736  0.816987  0.724523  1
  H  H34  1  0.871574  0.469723  0.153474  1
  H  H35  1  0.631158  0.779780  0.594175  1
  H  H36  1  0.596504  0.628121  0.778718  1
  H  H37  1  0.028872  0.905463  0.688115  1
