# generated using pymatgen
data_Tb3(GaRu)2
_symmetry_space_group_name_H-M   'P 1'
_cell_length_a   5.59342200
_cell_length_b   7.73090200
_cell_length_c   13.83447800
_cell_angle_alpha   90.00000000
_cell_angle_beta   90.00000000
_cell_angle_gamma   90.00000000
_symmetry_Int_Tables_number   1
_chemical_formula_structural   Tb3(GaRu)2
_chemical_formula_sum   'Tb12 Ga8 Ru8'
_cell_volume   598.23322759
_cell_formula_units_Z   4
loop_
 _symmetry_equiv_pos_site_id
 _symmetry_equiv_pos_as_xyz
  1  'x, y, z'
loop_
 _atom_site_type_symbol
 _atom_site_label
 _atom_site_symmetry_multiplicity
 _atom_site_fract_x
 _atom_site_fract_y
 _atom_site_fract_z
 _atom_site_occupancy
  Tb  Tb0  1  0.845405  0.901577  0.595558  1
  Tb  Tb1  1  0.154595  0.401577  0.904442  1
  Tb  Tb2  1  0.845405  0.598423  0.095558  1
  Tb  Tb3  1  0.620805  0.262352  0.750000  1
  Tb  Tb4  1  0.620805  0.237648  0.250000  1
  Tb  Tb5  1  0.845405  0.598423  0.404442  1
  Tb  Tb6  1  0.379195  0.737648  0.250000  1
  Tb  Tb7  1  0.154595  0.098423  0.095558  1
  Tb  Tb8  1  0.154595  0.098423  0.404442  1
  Tb  Tb9  1  0.379195  0.762352  0.750000  1
  Tb  Tb10  1  0.154595  0.401577  0.595558  1
  Tb  Tb11  1  0.845405  0.901577  0.904442  1
  Ga  Ga12  1  0.366895  0.750000  0.500000  1
  Ga  Ga13  1  0.366895  0.750000  0.000000  1
  Ga  Ga14  1  0.124210  0.106700  0.750000  1
  Ga  Ga15  1  0.633105  0.250000  0.500000  1
  Ga  Ga16  1  0.124210  0.393300  0.250000  1
  Ga  Ga17  1  0.875790  0.893300  0.250000  1
  Ga  Ga18  1  0.875790  0.606700  0.750000  1
  Ga  Ga19  1  0.633105  0.250000  0.000000  1
  Ru  Ru20  1  0.351802  0.035976  0.905753  1
  Ru  Ru21  1  0.351802  0.464024  0.094247  1
  Ru  Ru22  1  0.648198  0.964024  0.094247  1
  Ru  Ru23  1  0.648198  0.535976  0.905753  1
  Ru  Ru24  1  0.648198  0.964024  0.405753  1
  Ru  Ru25  1  0.648198  0.535976  0.594247  1
  Ru  Ru26  1  0.351802  0.464024  0.405753  1
  Ru  Ru27  1  0.351802  0.035976  0.594247  1
