# generated using pymatgen
data_Er4Mg3CdPt4
_symmetry_space_group_name_H-M   'P 1'
_cell_length_a   4.19864900
_cell_length_b   7.00529712
_cell_length_c   8.57869400
_cell_angle_alpha   92.07198444
_cell_angle_beta   90.00000000
_cell_angle_gamma   90.00000000
_symmetry_Int_Tables_number   1
_chemical_formula_structural   Er4Mg3CdPt4
_chemical_formula_sum   'Er4 Mg3 Cd1 Pt4'
_cell_volume   252.15830046
_cell_formula_units_Z   1
loop_
 _symmetry_equiv_pos_site_id
 _symmetry_equiv_pos_as_xyz
  1  'x, y, z'
loop_
 _atom_site_type_symbol
 _atom_site_label
 _atom_site_symmetry_multiplicity
 _atom_site_fract_x
 _atom_site_fract_y
 _atom_site_fract_z
 _atom_site_occupancy
  Er  Er0  1  0.250000  0.960195  0.323557  1
  Er  Er1  1  0.250000  0.456943  0.168945  1
  Er  Er2  1  0.750000  0.043871  0.678107  1
  Er  Er3  1  0.750000  0.535997  0.827244  1
  Mg  Mg4  1  0.250000  0.368418  0.559505  1
  Mg  Mg5  1  0.250000  0.866708  0.941927  1
  Mg  Mg6  1  0.750000  0.635424  0.439662  1
  Cd  Cd7  1  0.750000  0.134976  0.060910  1
  Pt  Pt8  1  0.250000  0.257581  0.860047  1
  Pt  Pt9  1  0.250000  0.759132  0.625574  1
  Pt  Pt10  1  0.750000  0.736825  0.131256  1
  Pt  Pt11  1  0.750000  0.243930  0.383270  1
