# generated using pymatgen
data_LaThPaSb4Pt3
_symmetry_space_group_name_H-M   'P 1'
_cell_length_a   8.58493365
_cell_length_b   8.58433349
_cell_length_c   8.58493347
_cell_angle_alpha   109.62160049
_cell_angle_beta   109.31595053
_cell_angle_gamma   109.47910153
_symmetry_Int_Tables_number   1
_chemical_formula_structural   LaThPaSb4Pt3
_chemical_formula_sum   'La2 Th2 Pa2 Sb8 Pt6'
_cell_volume   487.01262133
_cell_formula_units_Z   2
loop_
 _symmetry_equiv_pos_site_id
 _symmetry_equiv_pos_as_xyz
  1  'x, y, z'
loop_
 _atom_site_type_symbol
 _atom_site_label
 _atom_site_symmetry_multiplicity
 _atom_site_fract_x
 _atom_site_fract_y
 _atom_site_fract_z
 _atom_site_occupancy
  La  La0  1  0.249996  0.125103  0.875106  1
  La  La1  1  0.750003  0.374897  0.624893  1
  Th  Th2  1  0.125836  0.875822  0.249997  1
  Th  Th3  1  0.374175  0.624178  0.750014  1
  Pa  Pa4  1  0.874099  0.250000  0.124099  1
  Pa  Pa5  1  0.625886  0.750000  0.375886  1
  Sb  Sb6  1  0.672607  0.500323  0.001839  1
  Sb  Sb7  1  0.501516  0.999677  0.672284  1
  Sb  Sb8  1  0.998547  0.670736  0.498147  1
  Sb  Sb9  1  0.827411  0.829264  0.827811  1
  Sb  Sb10  1  0.501454  0.000025  0.172473  1
  Sb  Sb11  1  0.172449  0.499975  0.001430  1
  Sb  Sb12  1  0.998557  0.171049  0.498514  1
  Sb  Sb13  1  0.327465  0.328951  0.327508  1
  Pt  Pt14  1  0.373079  0.250000  0.623079  1
  Pt  Pt15  1  0.126923  0.750000  0.876923  1
  Pt  Pt16  1  0.249903  0.622556  0.372604  1
  Pt  Pt17  1  0.750049  0.877444  0.127347  1
  Pt  Pt18  1  0.629605  0.379509  0.249951  1
  Pt  Pt19  1  0.870442  0.120491  0.750096  1
