# generated using pymatgen
data_Li3Co(SiRu)4
_symmetry_space_group_name_H-M   'P 1'
_cell_length_a   4.06031000
_cell_length_b   5.03497131
_cell_length_c   7.17261057
_cell_angle_alpha   87.52863616
_cell_angle_beta   90.00000000
_cell_angle_gamma   90.00000000
_symmetry_Int_Tables_number   1
_chemical_formula_structural   Li3Co(SiRu)4
_chemical_formula_sum   'Li3 Co1 Si4 Ru4'
_cell_volume   146.49719813
_cell_formula_units_Z   1
loop_
 _symmetry_equiv_pos_site_id
 _symmetry_equiv_pos_as_xyz
  1  'x, y, z'
loop_
 _atom_site_type_symbol
 _atom_site_label
 _atom_site_symmetry_multiplicity
 _atom_site_fract_x
 _atom_site_fract_y
 _atom_site_fract_z
 _atom_site_occupancy
  Li  Li0  1  0.750000  0.494927  0.756619  1
  Li  Li1  1  0.250000  0.500632  0.245706  1
  Li  Li2  1  0.750000  0.998585  0.750378  1
  Co  Co3  1  0.750000  0.332064  0.084681  1
  Si  Si4  1  0.250000  0.224337  0.937740  1
  Si  Si5  1  0.750000  0.806945  0.091671  1
  Si  Si6  1  0.250000  0.781899  0.566965  1
  Si  Si7  1  0.750000  0.189991  0.402487  1
  Ru  Ru8  1  0.250000  0.006167  0.243470  1
  Ru  Ru9  1  0.250000  0.707929  0.903570  1
  Ru  Ru10  1  0.250000  0.286262  0.597995  1
  Ru  Ru11  1  0.750000  0.670261  0.418716  1
