# generated using pymatgen
data_Ce3Pr2P12Ru19
_symmetry_space_group_name_H-M   'P 1'
_cell_length_a   12.62953829
_cell_length_b   12.62484346
_cell_length_c   4.00381700
_cell_angle_alpha   90.00000000
_cell_angle_beta   90.00000000
_cell_angle_gamma   119.98770256
_symmetry_Int_Tables_number   1
_chemical_formula_structural   Ce3Pr2P12Ru19
_chemical_formula_sum   'Ce3 Pr2 P12 Ru19'
_cell_volume   552.93251595
_cell_formula_units_Z   1
loop_
 _symmetry_equiv_pos_site_id
 _symmetry_equiv_pos_as_xyz
  1  'x, y, z'
loop_
 _atom_site_type_symbol
 _atom_site_label
 _atom_site_symmetry_multiplicity
 _atom_site_fract_x
 _atom_site_fract_y
 _atom_site_fract_z
 _atom_site_occupancy
  Ce  Ce0  1  0.000000  0.816495  0.500000  1
  Ce  Ce1  1  0.333127  0.666408  0.000000  1
  Ce  Ce2  1  0.666873  0.333280  0.000000  1
  Pr  Pr3  1  0.186500  0.186589  0.500000  1
  Pr  Pr4  1  0.813500  0.000089  0.500000  1
  P  P5  1  0.812427  0.812614  0.000000  1
  P  P6  1  0.187573  0.000188  0.000000  1
  P  P7  1  0.000000  0.187071  0.000000  1
  P  P8  1  0.172037  0.476582  0.500000  1
  P  P9  1  0.523608  0.695380  0.500000  1
  P  P10  1  0.304467  0.828058  0.500000  1
  P  P11  1  0.695533  0.523590  0.500000  1
  P  P12  1  0.827963  0.304546  0.500000  1
  P  P13  1  0.476392  0.171771  0.500000  1
  P  P14  1  0.374807  0.374682  0.000000  1
  P  P15  1  0.625193  0.999875  0.000000  1
  P  P16  1  0.000000  0.626231  0.000000  1
  Ru  Ru17  1  0.555649  0.554160  0.000000  1
  Ru  Ru18  1  0.444351  0.998511  0.000000  1
  Ru  Ru19  1  0.000000  0.446149  0.000000  1
  Ru  Ru20  1  0.715637  0.714687  0.500000  1
  Ru  Ru21  1  0.284363  0.999050  0.500000  1
  Ru  Ru22  1  0.000000  0.285233  0.500000  1
  Ru  Ru23  1  0.184979  0.380540  0.000000  1
  Ru  Ru24  1  0.619771  0.804182  0.000000  1
  Ru  Ru25  1  0.192071  0.815153  0.000000  1
  Ru  Ru26  1  0.807929  0.623082  0.000000  1
  Ru  Ru27  1  0.815021  0.195561  0.000000  1
  Ru  Ru28  1  0.380229  0.184411  0.000000  1
  Ru  Ru29  1  0.368229  0.493783  0.500000  1
  Ru  Ru30  1  0.506055  0.873323  0.500000  1
  Ru  Ru31  1  0.125995  0.632830  0.500000  1
  Ru  Ru32  1  0.874005  0.506835  0.500000  1
  Ru  Ru33  1  0.631771  0.125554  0.500000  1
  Ru  Ru34  1  0.493945  0.367267  0.500000  1
  Ru  Ru35  1  0.000000  0.996239  0.000000  1
