# generated using pymatgen
data_YEr3Al18(Ir2Pt)2
_symmetry_space_group_name_H-M   'P 1'
_cell_length_a   7.57005366
_cell_length_b   7.56691531
_cell_length_c   9.44128815
_cell_angle_alpha   89.93276949
_cell_angle_beta   89.95450112
_cell_angle_gamma   119.63415938
_symmetry_Int_Tables_number   1
_chemical_formula_structural   YEr3Al18(Ir2Pt)2
_chemical_formula_sum   'Y1 Er3 Al18 Ir4 Pt2'
_cell_volume   470.07602780
_cell_formula_units_Z   1
loop_
 _symmetry_equiv_pos_site_id
 _symmetry_equiv_pos_as_xyz
  1  'x, y, z'
loop_
 _atom_site_type_symbol
 _atom_site_label
 _atom_site_symmetry_multiplicity
 _atom_site_fract_x
 _atom_site_fract_y
 _atom_site_fract_z
 _atom_site_occupancy
  Y  Y0  1  0.329541  0.004925  0.748979  1
  Er  Er1  1  0.995059  0.670610  0.251285  1
  Er  Er2  1  0.004695  0.329203  0.748762  1
  Er  Er3  1  0.670894  0.995239  0.251263  1
  Al  Al4  1  0.127270  0.127323  0.250588  1
  Al  Al5  1  0.872304  0.872700  0.749391  1
  Al  Al6  1  0.000260  0.331425  0.077608  1
  Al  Al7  1  0.999252  0.668138  0.922709  1
  Al  Al8  1  0.999961  0.664668  0.574340  1
  Al  Al9  1  0.334955  0.999704  0.424850  1
  Al  Al10  1  0.999652  0.334900  0.425358  1
  Al  Al11  1  0.665543  0.000349  0.574272  1
  Al  Al12  1  0.669065  0.999668  0.922746  1
  Al  Al13  1  0.331373  0.000334  0.078099  1
  Al  Al14  1  0.332220  0.332562  0.551347  1
  Al  Al15  1  0.667795  0.667800  0.448157  1
  Al  Al16  1  0.669387  0.669443  0.058017  1
  Al  Al17  1  0.330583  0.330925  0.942462  1
  Al  Al18  1  0.340416  0.547409  0.252995  1
  Al  Al19  1  0.660139  0.453055  0.746932  1
  Al  Al20  1  0.547390  0.340431  0.253003  1
  Al  Al21  1  0.452507  0.659159  0.746927  1
  Ir  Ir22  1  0.327964  0.672070  0.499701  1
  Ir  Ir23  1  0.672255  0.328166  0.499724  1
  Ir  Ir24  1  0.999758  0.999833  0.000317  1
  Ir  Ir25  1  0.999731  0.999817  0.499654  1
  Pt  Pt26  1  0.672404  0.327726  0.000278  1
  Pt  Pt27  1  0.327629  0.672418  0.000233  1
