# generated using pymatgen
data_Pa6P13IrRh19
_symmetry_space_group_name_H-M   'P 1'
_cell_length_a   13.37996200
_cell_length_b   13.37996151
_cell_length_c   3.93364900
_cell_angle_alpha   90.00000000
_cell_angle_beta   90.00000000
_cell_angle_gamma   119.99999628
_symmetry_Int_Tables_number   1
_chemical_formula_structural   Pa6P13IrRh19
_chemical_formula_sum   'Pa6 P13 Ir1 Rh19'
_cell_volume   609.86821169
_cell_formula_units_Z   1
loop_
 _symmetry_equiv_pos_site_id
 _symmetry_equiv_pos_as_xyz
  1  'x, y, z'
loop_
 _atom_site_type_symbol
 _atom_site_label
 _atom_site_symmetry_multiplicity
 _atom_site_fract_x
 _atom_site_fract_y
 _atom_site_fract_z
 _atom_site_occupancy
  Pa  Pa0  1  0.528807  0.718140  0.248484  1
  Pa  Pa1  1  0.281860  0.810666  0.248484  1
  Pa  Pa2  1  0.189334  0.471193  0.248484  1
  Pa  Pa3  1  0.471151  0.281890  0.751327  1
  Pa  Pa4  1  0.718110  0.189261  0.751327  1
  Pa  Pa5  1  0.810739  0.528849  0.751327  1
  P  P6  1  0.526884  0.139204  0.251246  1
  P  P7  1  0.860796  0.387681  0.251246  1
  P  P8  1  0.612319  0.473116  0.251246  1
  P  P9  1  0.946281  0.718418  0.253382  1
  P  P10  1  0.281582  0.227863  0.253382  1
  P  P11  1  0.772137  0.053719  0.253382  1
  P  P12  1  0.387424  0.525981  0.748728  1
  P  P13  1  0.474019  0.861442  0.748728  1
  P  P14  1  0.138558  0.612576  0.748728  1
  P  P15  1  0.718613  0.772478  0.746337  1
  P  P16  1  0.227522  0.946134  0.746337  1
  P  P17  1  0.053866  0.281387  0.746337  1
  P  P18  1  0.000000  0.000000  0.000812  1
  Ir  Ir19  1  0.333333  0.666667  0.749374  1
  Rh  Rh20  1  0.917911  0.250507  0.253824  1
  Rh  Rh21  1  0.749493  0.667405  0.253824  1
  Rh  Rh22  1  0.332595  0.082089  0.253824  1
  Rh  Rh23  1  0.434234  0.014346  0.751312  1
  Rh  Rh24  1  0.985654  0.419889  0.751312  1
  Rh  Rh25  1  0.580111  0.565766  0.751312  1
  Rh  Rh26  1  0.666667  0.333333  0.250257  1
  Rh  Rh27  1  0.092116  0.184237  0.252351  1
  Rh  Rh28  1  0.815763  0.907880  0.252351  1
  Rh  Rh29  1  0.092120  0.907884  0.252351  1
  Rh  Rh30  1  0.015569  0.580040  0.248779  1
  Rh  Rh31  1  0.419960  0.435529  0.248779  1
  Rh  Rh32  1  0.564471  0.984431  0.248779  1
  Rh  Rh33  1  0.667920  0.918748  0.746291  1
  Rh  Rh34  1  0.081252  0.749171  0.746291  1
  Rh  Rh35  1  0.250829  0.332080  0.746291  1
  Rh  Rh36  1  0.907933  0.816374  0.747791  1
  Rh  Rh37  1  0.183626  0.091557  0.747791  1
  Rh  Rh38  1  0.908443  0.092067  0.747791  1
