# generated using pymatgen
data_Dy8SnPdPt23
_symmetry_space_group_name_H-M   'P 1'
_cell_length_a   8.43993300
_cell_length_b   8.43993300
_cell_length_c   8.45371200
_cell_angle_alpha   90.00000000
_cell_angle_beta   90.00000000
_cell_angle_gamma   90.00000000
_symmetry_Int_Tables_number   1
_chemical_formula_structural   Dy8SnPdPt23
_chemical_formula_sum   'Dy8 Sn1 Pd1 Pt23'
_cell_volume   602.17877835
_cell_formula_units_Z   1
loop_
 _symmetry_equiv_pos_site_id
 _symmetry_equiv_pos_as_xyz
  1  'x, y, z'
loop_
 _atom_site_type_symbol
 _atom_site_label
 _atom_site_symmetry_multiplicity
 _atom_site_fract_x
 _atom_site_fract_y
 _atom_site_fract_z
 _atom_site_occupancy
  Dy  Dy0  1  0.251417  0.251417  0.251563  1
  Dy  Dy1  1  0.748475  0.748475  0.748501  1
  Dy  Dy2  1  0.748583  0.748583  0.251563  1
  Dy  Dy3  1  0.748475  0.251525  0.748501  1
  Dy  Dy4  1  0.251525  0.251525  0.748501  1
  Dy  Dy5  1  0.251417  0.748583  0.251563  1
  Dy  Dy6  1  0.251525  0.748475  0.748501  1
  Dy  Dy7  1  0.748583  0.251417  0.251563  1
  Sn  Sn8  1  0.000000  0.000000  0.000252  1
  Pd  Pd9  1  0.500000  0.500000  0.744713  1
  Pt  Pt10  1  0.267092  0.500000  0.000317  1
  Pt  Pt11  1  0.732908  0.500000  0.000317  1
  Pt  Pt12  1  0.000000  0.266666  0.500064  1
  Pt  Pt13  1  0.500000  0.267092  0.000317  1
  Pt  Pt14  1  0.000000  0.733334  0.500064  1
  Pt  Pt15  1  0.500000  0.732908  0.000317  1
  Pt  Pt16  1  0.500000  0.000000  0.266361  1
  Pt  Pt17  1  0.266666  0.000000  0.500064  1
  Pt  Pt18  1  0.500000  0.000000  0.733284  1
  Pt  Pt19  1  0.733334  0.000000  0.500064  1
  Pt  Pt20  1  0.000000  0.500000  0.266361  1
  Pt  Pt21  1  0.000000  0.500000  0.733284  1
  Pt  Pt22  1  0.255357  0.500000  0.499741  1
  Pt  Pt23  1  0.744643  0.500000  0.499741  1
  Pt  Pt24  1  0.500000  0.255357  0.499741  1
  Pt  Pt25  1  0.500000  0.744643  0.499741  1
  Pt  Pt26  1  0.500000  0.500000  0.254963  1
  Pt  Pt27  1  0.312819  0.000000  0.999873  1
  Pt  Pt28  1  0.687181  0.000000  0.999873  1
  Pt  Pt29  1  0.000000  0.312819  0.999873  1
  Pt  Pt30  1  0.000000  0.687181  0.999873  1
  Pt  Pt31  1  0.000000  0.000000  0.311999  1
  Pt  Pt32  1  0.000000  0.000000  0.688547  1
