# generated using pymatgen
data_Mn5Cr16(OsC3)2
_symmetry_space_group_name_H-M   'P 1'
_cell_length_a   7.47359551
_cell_length_b   7.47359522
_cell_length_c   7.47359600
_cell_angle_alpha   60.00000539
_cell_angle_beta   60.00000666
_cell_angle_gamma   59.99999806
_symmetry_Int_Tables_number   1
_chemical_formula_structural   Mn5Cr16(OsC3)2
_chemical_formula_sum   'Mn5 Cr16 Os2 C6'
_cell_volume   295.17108639
_cell_formula_units_Z   1
loop_
 _symmetry_equiv_pos_site_id
 _symmetry_equiv_pos_as_xyz
  1  'x, y, z'
loop_
 _atom_site_type_symbol
 _atom_site_label
 _atom_site_symmetry_multiplicity
 _atom_site_fract_x
 _atom_site_fract_y
 _atom_site_fract_z
 _atom_site_occupancy
  Mn  Mn0  1  0.000000  0.000000  0.000000  1
  Mn  Mn1  1  0.616844  0.616844  0.149467  1
  Mn  Mn2  1  0.616844  0.149467  0.616844  1
  Mn  Mn3  1  0.149467  0.616844  0.616844  1
  Mn  Mn4  1  0.616844  0.616844  0.616844  1
  Cr  Cr5  1  0.385833  0.385833  0.842503  1
  Cr  Cr6  1  0.385833  0.842503  0.385833  1
  Cr  Cr7  1  0.842503  0.385833  0.385833  1
  Cr  Cr8  1  0.385833  0.385833  0.385833  1
  Cr  Cr9  1  0.999090  0.999090  0.340115  1
  Cr  Cr10  1  0.661706  0.999090  0.340115  1
  Cr  Cr11  1  0.999090  0.661706  0.340115  1
  Cr  Cr12  1  0.661706  0.340115  0.999090  1
  Cr  Cr13  1  0.999090  0.340115  0.999090  1
  Cr  Cr14  1  0.999090  0.340115  0.661706  1
  Cr  Cr15  1  0.340115  0.661706  0.999090  1
  Cr  Cr16  1  0.340115  0.999090  0.661706  1
  Cr  Cr17  1  0.340115  0.999090  0.999090  1
  Cr  Cr18  1  0.999090  0.999090  0.661706  1
  Cr  Cr19  1  0.999090  0.661706  0.999090  1
  Cr  Cr20  1  0.661706  0.999090  0.999090  1
  Os  Os21  1  0.750000  0.750000  0.750000  1
  Os  Os22  1  0.250000  0.250000  0.250000  1
  C  C23  1  0.723004  0.723004  0.276996  1
  C  C24  1  0.276996  0.723004  0.276996  1
  C  C25  1  0.723004  0.276996  0.276996  1
  C  C26  1  0.276996  0.276996  0.723004  1
  C  C27  1  0.723004  0.276996  0.723004  1
  C  C28  1  0.276996  0.723004  0.723004  1
