# generated using pymatgen
data_Y5Er2Co6Sn22Au
_symmetry_space_group_name_H-M   'P 1'
_cell_length_a   9.67212242
_cell_length_b   9.67212323
_cell_length_c   9.94230835
_cell_angle_alpha   90.02635351
_cell_angle_beta   89.97364449
_cell_angle_gamma   120.02082474
_symmetry_Int_Tables_number   1
_chemical_formula_structural   Y5Er2Co6Sn22Au
_chemical_formula_sum   'Y5 Er2 Co6 Sn22 Au1'
_cell_volume   805.32324007
_cell_formula_units_Z   1
loop_
 _symmetry_equiv_pos_site_id
 _symmetry_equiv_pos_as_xyz
  1  'x, y, z'
loop_
 _atom_site_type_symbol
 _atom_site_label
 _atom_site_symmetry_multiplicity
 _atom_site_fract_x
 _atom_site_fract_y
 _atom_site_fract_z
 _atom_site_occupancy
  Y  Y0  1  0.000011  0.999989  0.000039  1
  Y  Y1  1  0.478170  0.521830  0.307009  1
  Y  Y2  1  0.956371  0.478142  0.692737  1
  Y  Y3  1  0.521858  0.043629  0.692737  1
  Y  Y4  1  0.521831  0.478169  0.692981  1
  Er  Er5  1  0.043065  0.521589  0.307064  1
  Er  Er6  1  0.478411  0.956935  0.307064  1
  Co  Co7  1  0.167684  0.832316  0.803867  1
  Co  Co8  1  0.664587  0.832230  0.803887  1
  Co  Co9  1  0.167770  0.335413  0.803887  1
  Co  Co10  1  0.832148  0.167852  0.196374  1
  Co  Co11  1  0.335538  0.167498  0.196266  1
  Co  Co12  1  0.832502  0.664462  0.196266  1
  Sn  Sn13  1  0.113487  0.886513  0.278047  1
  Sn  Sn14  1  0.773380  0.886907  0.278013  1
  Sn  Sn15  1  0.113093  0.226620  0.278013  1
  Sn  Sn16  1  0.886814  0.113186  0.722049  1
  Sn  Sn17  1  0.226342  0.113119  0.722046  1
  Sn  Sn18  1  0.886881  0.773658  0.722046  1
  Sn  Sn19  1  0.346283  0.999942  0.000159  1
  Sn  Sn20  1  0.653745  0.653709  0.000029  1
  Sn  Sn21  1  0.999983  0.346310  0.000147  1
  Sn  Sn22  1  0.346291  0.346255  0.000029  1
  Sn  Sn23  1  0.000058  0.653717  0.000159  1
  Sn  Sn24  1  0.653690  0.000017  0.000147  1
  Sn  Sn25  1  0.783905  0.566794  0.451864  1
  Sn  Sn26  1  0.783413  0.216587  0.451750  1
  Sn  Sn27  1  0.433206  0.216095  0.451864  1
  Sn  Sn28  1  0.216286  0.433201  0.547678  1
  Sn  Sn29  1  0.216604  0.783396  0.547339  1
  Sn  Sn30  1  0.566799  0.783714  0.547678  1
  Sn  Sn31  1  0.666728  0.333272  0.183751  1
  Sn  Sn32  1  0.333363  0.666637  0.816300  1
  Sn  Sn33  1  0.666684  0.333316  0.882489  1
  Sn  Sn34  1  0.333016  0.666984  0.118234  1
  Au  Au35  1  0.000003  0.999997  0.499988  1
