# generated using pymatgen
data_Hf18Nb2FeCuRe6
_symmetry_space_group_name_H-M   'P 1'
_cell_length_a   8.47907300
_cell_length_b   8.67604094
_cell_length_c   8.67604000
_cell_angle_alpha   119.99972740
_cell_angle_beta   90.00000000
_cell_angle_gamma   90.00000000
_symmetry_Int_Tables_number   1
_chemical_formula_structural   Hf18Nb2FeCuRe6
_chemical_formula_sum   'Hf18 Nb2 Fe1 Cu1 Re6'
_cell_volume   552.74310954
_cell_formula_units_Z   1
loop_
 _symmetry_equiv_pos_site_id
 _symmetry_equiv_pos_as_xyz
  1  'x, y, z'
loop_
 _atom_site_type_symbol
 _atom_site_label
 _atom_site_symmetry_multiplicity
 _atom_site_fract_x
 _atom_site_fract_y
 _atom_site_fract_z
 _atom_site_occupancy
  Hf  Hf0  1  0.554926  0.802161  0.604310  1
  Hf  Hf1  1  0.554923  0.802138  0.197862  1
  Hf  Hf2  1  0.554926  0.395690  0.197839  1
  Hf  Hf3  1  0.440209  0.202310  0.404608  1
  Hf  Hf4  1  0.440193  0.202317  0.797683  1
  Hf  Hf5  1  0.440209  0.595392  0.797690  1
  Hf  Hf6  1  0.059791  0.202310  0.404608  1
  Hf  Hf7  1  0.059807  0.202317  0.797683  1
  Hf  Hf8  1  0.059791  0.595392  0.797690  1
  Hf  Hf9  1  0.945074  0.802161  0.604310  1
  Hf  Hf10  1  0.945077  0.802138  0.197862  1
  Hf  Hf11  1  0.945074  0.395690  0.197839  1
  Hf  Hf12  1  0.750000  0.457922  0.915888  1
  Hf  Hf13  1  0.750000  0.457946  0.542054  1
  Hf  Hf14  1  0.750000  0.084112  0.542077  1
  Hf  Hf15  1  0.250000  0.541071  0.082108  1
  Hf  Hf16  1  0.250000  0.541057  0.458943  1
  Hf  Hf17  1  0.250000  0.917892  0.458928  1
  Nb  Nb18  1  0.499291  0.999999  0.000001  1
  Nb  Nb19  1  0.000709  0.999999  0.000001  1
  Fe  Fe20  1  0.250000  0.333349  0.666651  1
  Cu  Cu21  1  0.750000  0.666650  0.333350  1
  Re  Re22  1  0.750000  0.113968  0.227985  1
  Re  Re23  1  0.750000  0.113990  0.886010  1
  Re  Re24  1  0.750000  0.772015  0.886032  1
  Re  Re25  1  0.250000  0.885941  0.771846  1
  Re  Re26  1  0.250000  0.885919  0.114081  1
  Re  Re27  1  0.250000  0.228154  0.114059  1
