# generated using pymatgen
data_Ca21Mg(Ga5Hg2)2
_symmetry_space_group_name_H-M   'P 1'
_cell_length_a   11.48583311
_cell_length_b   11.41964144
_cell_length_c   11.41964159
_cell_angle_alpha   59.75647277
_cell_angle_beta   59.80806907
_cell_angle_gamma   59.80807545
_symmetry_Int_Tables_number   1
_chemical_formula_structural   Ca21Mg(Ga5Hg2)2
_chemical_formula_sum   'Ca21 Mg1 Ga10 Hg4'
_cell_volume   1054.10876214
_cell_formula_units_Z   1
loop_
 _symmetry_equiv_pos_site_id
 _symmetry_equiv_pos_as_xyz
  1  'x, y, z'
loop_
 _atom_site_type_symbol
 _atom_site_label
 _atom_site_symmetry_multiplicity
 _atom_site_fract_x
 _atom_site_fract_y
 _atom_site_fract_z
 _atom_site_occupancy
  Ca  Ca0  1  0.000000  0.002974  0.997026  1
  Ca  Ca1  1  0.133221  0.134146  0.126240  1
  Ca  Ca2  1  0.393607  0.873760  0.865854  1
  Ca  Ca3  1  0.872424  0.391109  0.864043  1
  Ca  Ca4  1  0.868871  0.867720  0.394538  1
  Ca  Ca5  1  0.131129  0.605462  0.132280  1
  Ca  Ca6  1  0.127576  0.135957  0.608891  1
  Ca  Ca7  1  0.606393  0.134146  0.126240  1
  Ca  Ca8  1  0.866779  0.873760  0.865854  1
  Ca  Ca9  1  0.500770  0.828648  0.499727  1
  Ca  Ca10  1  0.828459  0.495260  0.504740  1
  Ca  Ca11  1  0.500000  0.826415  0.173585  1
  Ca  Ca12  1  0.170629  0.494921  0.828760  1
  Ca  Ca13  1  0.829144  0.500273  0.171352  1
  Ca  Ca14  1  0.505690  0.494921  0.828760  1
  Ca  Ca15  1  0.170856  0.828648  0.499727  1
  Ca  Ca16  1  0.500000  0.173454  0.826546  1
  Ca  Ca17  1  0.499230  0.500273  0.171352  1
  Ca  Ca18  1  0.829371  0.171240  0.505079  1
  Ca  Ca19  1  0.171541  0.495260  0.504740  1
  Ca  Ca20  1  0.494310  0.171240  0.505079  1
  Mg  Mg21  1  0.500000  0.502295  0.497705  1
  Ga  Ga22  1  0.216555  0.214733  0.785267  1
  Ga  Ga23  1  0.783445  0.214733  0.785267  1
  Ga  Ga24  1  0.309262  0.309703  0.308284  1
  Ga  Ga25  1  0.927248  0.691716  0.690297  1
  Ga  Ga26  1  0.691683  0.928673  0.687962  1
  Ga  Ga27  1  0.691616  0.688191  0.928577  1
  Ga  Ga28  1  0.308384  0.071423  0.311809  1
  Ga  Ga29  1  0.308317  0.312038  0.071327  1
  Ga  Ga30  1  0.072752  0.309703  0.308284  1
  Ga  Ga31  1  0.690739  0.691716  0.690296  1
  Hg  Hg32  1  0.214130  0.784153  0.215847  1
  Hg  Hg33  1  0.215995  0.782596  0.785414  1
  Hg  Hg34  1  0.784005  0.214586  0.217404  1
  Hg  Hg35  1  0.785870  0.784153  0.215847  1
