# generated using pymatgen
data_ErZr3(Al8Pt3)3
_symmetry_space_group_name_H-M   'P 1'
_cell_length_a   7.48487148
_cell_length_b   7.48598801
_cell_length_c   12.99639943
_cell_angle_alpha   84.44812088
_cell_angle_beta   101.01998453
_cell_angle_gamma   119.93157265
_symmetry_Int_Tables_number   1
_chemical_formula_structural   ErZr3(Al8Pt3)3
_chemical_formula_sum   'Er1 Zr3 Al24 Pt9'
_cell_volume   619.44498413
_cell_formula_units_Z   1
loop_
 _symmetry_equiv_pos_site_id
 _symmetry_equiv_pos_as_xyz
  1  'x, y, z'
loop_
 _atom_site_type_symbol
 _atom_site_label
 _atom_site_symmetry_multiplicity
 _atom_site_fract_x
 _atom_site_fract_y
 _atom_site_fract_z
 _atom_site_occupancy
  Er  Er0  1  0.938275  0.331918  0.808770  1
  Zr  Zr1  1  0.731759  0.998915  0.189094  1
  Zr  Zr2  1  0.268294  0.000430  0.811387  1
  Zr  Zr3  1  0.060997  0.668165  0.189136  1
  Al  Al4  1  0.811913  0.868862  0.815321  1
  Al  Al5  1  0.187384  0.125111  0.184972  1
  Al  Al6  1  0.984438  0.668624  0.943781  1
  Al  Al7  1  0.016866  0.333630  0.060651  1
  Al  Al8  1  0.398279  0.669346  0.816276  1
  Al  Al9  1  0.607610  0.335692  0.183490  1
  Al  Al10  1  0.885511  0.666990  0.673223  1
  Al  Al11  1  0.113522  0.334839  0.323675  1
  Al  Al12  1  0.597867  0.452994  0.815931  1
  Al  Al13  1  0.397715  0.548107  0.184489  1
  Al  Al14  1  0.229939  0.337449  0.671485  1
  Al  Al15  1  0.770418  0.662151  0.325340  1
  Al  Al16  1  0.852887  0.333359  0.559889  1
  Al  Al17  1  0.187066  0.999797  0.561128  1
  Al  Al18  1  0.812904  0.000334  0.438976  1
  Al  Al19  1  0.353236  0.995934  0.059320  1
  Al  Al20  1  0.645515  0.001191  0.943679  1
  Al  Al21  1  0.554913  0.993928  0.673258  1
  Al  Al22  1  0.442222  0.004646  0.323445  1
  Al  Al23  1  0.521527  0.667465  0.563514  1
  Al  Al24  1  0.478174  0.332585  0.436613  1
  Al  Al25  1  0.687468  0.670360  0.051809  1
  Al  Al26  1  0.316461  0.330293  0.951747  1
  Al  Al27  1  0.146863  0.666745  0.438891  1
  Pt  Pt28  1  0.328101  0.670717  0.000596  1
  Pt  Pt29  1  0.545782  0.324380  0.637459  1
  Pt  Pt30  1  0.454424  0.676360  0.362519  1
  Pt  Pt31  1  0.888188  0.008762  0.638994  1
  Pt  Pt32  1  0.111023  0.990760  0.360975  1
  Pt  Pt33  1  0.672622  0.328831  0.000188  1
  Pt  Pt34  1  0.203459  0.666425  0.638843  1
  Pt  Pt35  1  0.796717  0.333382  0.360663  1
  Pt  Pt36  1  0.999662  0.000523  0.000472  1
