# generated using pymatgen
data_Y2SiIrBr2
_symmetry_space_group_name_H-M   'P 1'
_cell_length_a   4.12351600
_cell_length_b   4.12351584
_cell_length_c   11.05618300
_cell_angle_alpha   90.00000000
_cell_angle_beta   90.00000000
_cell_angle_gamma   119.99998525
_symmetry_Int_Tables_number   1
_chemical_formula_structural   Y2SiIrBr2
_chemical_formula_sum   'Y2 Si1 Ir1 Br2'
_cell_volume   162.80632224
_cell_formula_units_Z   1
loop_
 _symmetry_equiv_pos_site_id
 _symmetry_equiv_pos_as_xyz
  1  'x, y, z'
loop_
 _atom_site_type_symbol
 _atom_site_label
 _atom_site_symmetry_multiplicity
 _atom_site_fract_x
 _atom_site_fract_y
 _atom_site_fract_z
 _atom_site_occupancy
  Y  Y0  1  0.000000  0.000000  0.173000  1
  Y  Y1  1  0.000000  0.000000  0.826970  1
  Si  Si2  1  0.666667  0.333333  0.995387  1
  Ir  Ir3  1  0.333333  0.666667  0.005415  1
  Br  Br4  1  0.333333  0.666667  0.659730  1
  Br  Br5  1  0.666667  0.333333  0.339498  1
