# generated using pymatgen
data_Tm12Fe3Ag2
_symmetry_space_group_name_H-M   'P 1'
_cell_length_a   8.18229361
_cell_length_b   8.18229436
_cell_length_c   8.18229427
_cell_angle_alpha   108.31174372
_cell_angle_beta   108.31174351
_cell_angle_gamma   111.81592919
_symmetry_Int_Tables_number   1
_chemical_formula_structural   Tm12Fe3Ag2
_chemical_formula_sum   'Tm12 Fe3 Ag2'
_cell_volume   421.16769494
_cell_formula_units_Z   1
loop_
 _symmetry_equiv_pos_site_id
 _symmetry_equiv_pos_as_xyz
  1  'x, y, z'
loop_
 _atom_site_type_symbol
 _atom_site_label
 _atom_site_symmetry_multiplicity
 _atom_site_fract_x
 _atom_site_fract_y
 _atom_site_fract_z
 _atom_site_occupancy
  Tm  Tm0  1  0.189615  0.430008  0.240394  1
  Tm  Tm1  1  0.810385  0.569992  0.759606  1
  Tm  Tm2  1  0.189615  0.949222  0.759606  1
  Tm  Tm3  1  0.949222  0.189615  0.759606  1
  Tm  Tm4  1  0.810385  0.050778  0.240394  1
  Tm  Tm5  1  0.050778  0.810385  0.240394  1
  Tm  Tm6  1  0.430008  0.189615  0.240394  1
  Tm  Tm7  1  0.569992  0.810385  0.759606  1
  Tm  Tm8  1  0.310361  0.310361  0.620723  1
  Tm  Tm9  1  0.689639  0.689639  0.379277  1
  Tm  Tm10  1  0.689639  0.310361  0.000000  1
  Tm  Tm11  1  0.310361  0.689639  0.000000  1
  Fe  Fe12  1  0.380228  0.380228  0.000000  1
  Fe  Fe13  1  0.619772  0.619772  0.000000  1
  Fe  Fe14  1  0.000000  0.000000  0.000000  1
  Ag  Ag15  1  0.000000  0.500000  0.500000  1
  Ag  Ag16  1  0.500000  0.000000  0.500000  1
