# generated using pymatgen
data_Tb6Al24Ru3PtRh4
_symmetry_space_group_name_H-M   'P 1'
_cell_length_a   8.81993300
_cell_length_b   8.84718429
_cell_length_c   9.55038435
_cell_angle_alpha   90.10200395
_cell_angle_beta   90.00000000
_cell_angle_gamma   119.89816301
_symmetry_Int_Tables_number   1
_chemical_formula_structural   Tb6Al24Ru3PtRh4
_chemical_formula_sum   'Tb6 Al24 Ru3 Pt1 Rh4'
_cell_volume   646.04932147
_cell_formula_units_Z   1
loop_
 _symmetry_equiv_pos_site_id
 _symmetry_equiv_pos_as_xyz
  1  'x, y, z'
loop_
 _atom_site_type_symbol
 _atom_site_label
 _atom_site_symmetry_multiplicity
 _atom_site_fract_x
 _atom_site_fract_y
 _atom_site_fract_z
 _atom_site_occupancy
  Tb  Tb0  1  0.384239  0.190550  0.249720  1
  Tb  Tb1  1  0.806311  0.190550  0.249720  1
  Tb  Tb2  1  0.808012  0.616023  0.248917  1
  Tb  Tb3  1  0.615761  0.809450  0.750280  1
  Tb  Tb4  1  0.193689  0.809450  0.750280  1
  Tb  Tb5  1  0.191988  0.383977  0.751083  1
  Al  Al6  1  0.436683  0.873367  0.246685  1
  Al  Al7  1  0.123547  0.561062  0.250406  1
  Al  Al8  1  0.437516  0.561062  0.250406  1
  Al  Al9  1  0.563317  0.126633  0.753315  1
  Al  Al10  1  0.876453  0.438938  0.749594  1
  Al  Al11  1  0.562484  0.438938  0.749594  1
  Al  Al12  1  0.159025  0.833360  0.422403  1
  Al  Al13  1  0.162749  0.325498  0.422949  1
  Al  Al14  1  0.674334  0.833360  0.422403  1
  Al  Al15  1  0.840975  0.166640  0.577597  1
  Al  Al16  1  0.837251  0.674502  0.577051  1
  Al  Al17  1  0.325666  0.166640  0.577597  1
  Al  Al18  1  0.835232  0.162022  0.923760  1
  Al  Al19  1  0.836721  0.673443  0.923936  1
  Al  Al20  1  0.326792  0.162022  0.923760  1
  Al  Al21  1  0.164768  0.837978  0.076240  1
  Al  Al22  1  0.163279  0.326557  0.076064  1
  Al  Al23  1  0.673208  0.837978  0.076240  1
  Al  Al24  1  0.331481  0.662963  0.527289  1
  Al  Al25  1  0.668519  0.337037  0.472711  1
  Al  Al26  1  0.665900  0.331798  0.026080  1
  Al  Al27  1  0.334100  0.668202  0.973920  1
  Al  Al28  1  0.999479  0.998959  0.249849  1
  Al  Al29  1  0.000521  0.001041  0.750151  1
  Ru  Ru30  1  0.000000  0.000000  0.500000  1
  Ru  Ru31  1  0.000000  0.000000  0.000000  1
  Ru  Ru32  1  0.500000  0.000000  0.000000  1
  Pt  Pt33  1  0.500000  0.000000  0.500000  1
  Rh  Rh34  1  0.000000  0.500000  0.500000  1
  Rh  Rh35  1  0.500000  0.500000  0.500000  1
  Rh  Rh36  1  0.000000  0.500000  0.000000  1
  Rh  Rh37  1  0.500000  0.500000  0.000000  1
