# generated using pymatgen
data_HfZr3Ru9PtRh2C3
_symmetry_space_group_name_H-M   'P 1'
_cell_length_a   4.08540200
_cell_length_b   4.08540200
_cell_length_c   16.13169600
_cell_angle_alpha   90.00000000
_cell_angle_beta   90.00000000
_cell_angle_gamma   90.00000000
_symmetry_Int_Tables_number   1
_chemical_formula_structural   HfZr3Ru9PtRh2C3
_chemical_formula_sum   'Hf1 Zr3 Ru9 Pt1 Rh2 C3'
_cell_volume   269.24622536
_cell_formula_units_Z   1
loop_
 _symmetry_equiv_pos_site_id
 _symmetry_equiv_pos_as_xyz
  1  'x, y, z'
loop_
 _atom_site_type_symbol
 _atom_site_label
 _atom_site_symmetry_multiplicity
 _atom_site_fract_x
 _atom_site_fract_y
 _atom_site_fract_z
 _atom_site_occupancy
  Hf  Hf0  1  0.000000  0.000000  0.626791  1
  Zr  Zr1  1  0.000000  0.000000  0.879958  1
  Zr  Zr2  1  0.000000  0.000000  0.120643  1
  Zr  Zr3  1  0.000000  0.000000  0.373972  1
  Ru  Ru4  1  0.500000  0.500000  0.119758  1
  Ru  Ru5  1  0.500000  0.500000  0.373212  1
  Ru  Ru6  1  0.500000  0.500000  0.626800  1
  Ru  Ru7  1  0.500000  0.000000  0.248619  1
  Ru  Ru8  1  0.500000  0.000000  0.501346  1
  Ru  Ru9  1  0.500000  0.000000  0.749595  1
  Ru  Ru10  1  0.000000  0.500000  0.249158  1
  Ru  Ru11  1  0.000000  0.500000  0.501265  1
  Ru  Ru12  1  0.000000  0.500000  0.749547  1
  Pt  Pt13  1  0.500000  0.000000  0.000554  1
  Rh  Rh14  1  0.500000  0.500000  0.880237  1
  Rh  Rh15  1  0.000000  0.500000  0.000776  1
  C  C16  1  0.500000  0.500000  0.241427  1
  C  C17  1  0.500000  0.500000  0.499342  1
  C  C18  1  0.500000  0.500000  0.756995  1
