# generated using pymatgen
data_Pr3IrCl3
_symmetry_space_group_name_H-M   'P 1'
_cell_length_a   10.33299279
_cell_length_b   10.33299234
_cell_length_c   10.33299300
_cell_angle_alpha   109.47122193
_cell_angle_beta   109.47122105
_cell_angle_gamma   109.47121832
_symmetry_Int_Tables_number   1
_chemical_formula_structural   Pr3IrCl3
_chemical_formula_sum   'Pr12 Ir4 Cl12'
_cell_volume   849.29092056
_cell_formula_units_Z   4
loop_
 _symmetry_equiv_pos_site_id
 _symmetry_equiv_pos_as_xyz
  1  'x, y, z'
loop_
 _atom_site_type_symbol
 _atom_site_label
 _atom_site_symmetry_multiplicity
 _atom_site_fract_x
 _atom_site_fract_y
 _atom_site_fract_z
 _atom_site_occupancy
  Pr  Pr0  1  0.477172  0.488586  0.238586  1
  Pr  Pr1  1  0.750000  0.238586  0.261414  1
  Pr  Pr2  1  0.750000  0.011414  0.488586  1
  Pr  Pr3  1  0.238586  0.477172  0.488586  1
  Pr  Pr4  1  0.261414  0.750000  0.238586  1
  Pr  Pr5  1  0.022828  0.261414  0.011414  1
  Pr  Pr6  1  0.011414  0.022828  0.261414  1
  Pr  Pr7  1  0.488586  0.750000  0.011414  1
  Pr  Pr8  1  0.488586  0.238586  0.477172  1
  Pr  Pr9  1  0.011414  0.488586  0.750000  1
  Pr  Pr10  1  0.261414  0.011414  0.022828  1
  Pr  Pr11  1  0.238586  0.261414  0.750000  1
  Ir  Ir12  1  0.250000  0.250000  0.250000  1
  Ir  Ir13  1  0.500000  0.000000  0.250000  1
  Ir  Ir14  1  0.000000  0.250000  0.500000  1
  Ir  Ir15  1  0.250000  0.500000  0.000000  1
  Cl  Cl16  1  0.250000  0.750465  0.749535  1
  Cl  Cl17  1  0.500931  0.500465  0.750465  1
  Cl  Cl18  1  0.999069  0.749535  0.999535  1
  Cl  Cl19  1  0.749535  0.250000  0.750465  1
  Cl  Cl20  1  0.999535  0.999069  0.749535  1
  Cl  Cl21  1  0.250000  0.999535  0.500465  1
  Cl  Cl22  1  0.750465  0.500931  0.500465  1
  Cl  Cl23  1  0.500465  0.250000  0.999535  1
  Cl  Cl24  1  0.750465  0.749535  0.250000  1
  Cl  Cl25  1  0.749535  0.999535  0.999069  1
  Cl  Cl26  1  0.999535  0.500465  0.250000  1
  Cl  Cl27  1  0.500465  0.750465  0.500931  1
