# generated using pymatgen
data_Re2SeSO13
_symmetry_space_group_name_H-M   'P 1'
_cell_length_a   6.36484100
_cell_length_b   8.60435737
_cell_length_c   9.97913772
_cell_angle_alpha   89.01958593
_cell_angle_beta   90.00000000
_cell_angle_gamma   90.00000000
_symmetry_Int_Tables_number   1
_chemical_formula_structural   Re2SeSO13
_chemical_formula_sum   'Re4 Se2 S2 O26'
_cell_volume   546.43112717
_cell_formula_units_Z   2
loop_
 _symmetry_equiv_pos_site_id
 _symmetry_equiv_pos_as_xyz
  1  'x, y, z'
loop_
 _atom_site_type_symbol
 _atom_site_label
 _atom_site_symmetry_multiplicity
 _atom_site_fract_x
 _atom_site_fract_y
 _atom_site_fract_z
 _atom_site_occupancy
  Re  Re0  1  0.967598  0.181561  0.596930  1
  Re  Re1  1  0.967598  0.818439  0.403070  1
  Re  Re2  1  0.968330  0.682456  0.896075  1
  Re  Re3  1  0.968330  0.317544  0.103925  1
  Se  Se4  1  0.294635  0.366340  0.817301  1
  Se  Se5  1  0.294635  0.633660  0.182699  1
  S  S6  1  0.276042  0.871823  0.682912  1
  S  S7  1  0.276042  0.128177  0.317088  1
  O  O8  1  0.149155  0.344033  0.665106  1
  O  O9  1  0.149155  0.655967  0.334894  1
  O  O10  1  0.136086  0.848872  0.813449  1
  O  O11  1  0.136086  0.151128  0.186551  1
  O  O12  1  0.169211  0.253567  0.931116  1
  O  O13  1  0.169211  0.746433  0.068884  1
  O  O14  1  0.171526  0.776161  0.578491  1
  O  O15  1  0.171526  0.223839  0.421509  1
  O  O16  1  0.259688  0.555830  0.850303  1
  O  O17  1  0.259688  0.444170  0.149697  1
  O  O18  1  0.250420  0.041045  0.651065  1
  O  O19  1  0.250420  0.958955  0.348935  1
  O  O20  1  0.538602  0.326406  0.793294  1
  O  O21  1  0.538602  0.673594  0.206706  1
  O  O22  1  0.488347  0.829806  0.710421  1
  O  O23  1  0.488347  0.170194  0.289579  1
  O  O24  1  0.901099  0.000000  0.500000  1
  O  O25  1  0.908968  0.500000  0.000000  1
  O  O26  1  0.858613  0.120935  0.745242  1
  O  O27  1  0.858613  0.879065  0.254758  1
  O  O28  1  0.856437  0.619524  0.750876  1
  O  O29  1  0.856437  0.380476  0.249124  1
  O  O30  1  0.779199  0.301174  0.529749  1
  O  O31  1  0.779199  0.698826  0.470251  1
  O  O32  1  0.781276  0.803629  0.959630  1
  O  O33  1  0.781276  0.196371  0.040370  1
