# generated using pymatgen
data_Ba10Li4In(TeO6)5
_symmetry_space_group_name_H-M   'P 1'
_cell_length_a   10.22486290
_cell_length_b   10.22485888
_cell_length_c   10.22402181
_cell_angle_alpha   99.55391772
_cell_angle_beta   99.58438738
_cell_angle_gamma   131.87843387
_symmetry_Int_Tables_number   1
_chemical_formula_structural   Ba10Li4In(TeO6)5
_chemical_formula_sum   'Ba10 Li4 In1 Te5 O30'
_cell_volume   726.70033476
_cell_formula_units_Z   1
loop_
 _symmetry_equiv_pos_site_id
 _symmetry_equiv_pos_as_xyz
  1  'x, y, z'
loop_
 _atom_site_type_symbol
 _atom_site_label
 _atom_site_symmetry_multiplicity
 _atom_site_fract_x
 _atom_site_fract_y
 _atom_site_fract_z
 _atom_site_occupancy
  Ba  Ba0  1  0.749950  0.249950  0.500000  1
  Ba  Ba1  1  0.541977  0.644164  0.693629  1
  Ba  Ba2  1  0.950535  0.848347  0.306373  1
  Ba  Ba3  1  0.151698  0.458067  0.102222  1
  Ba  Ba4  1  0.355847  0.049477  0.897777  1
  Ba  Ba5  1  0.848302  0.541933  0.897778  1
  Ba  Ba6  1  0.644153  0.950523  0.102223  1
  Ba  Ba7  1  0.049465  0.151653  0.693627  1
  Ba  Ba8  1  0.250050  0.750050  0.500000  1
  Ba  Ba9  1  0.458023  0.355836  0.306371  1
  Li  Li10  1  0.402115  0.198444  0.600555  1
  Li  Li11  1  0.801499  0.402040  0.203543  1
  Li  Li12  1  0.198501  0.597960  0.796457  1
  Li  Li13  1  0.597885  0.801556  0.399445  1
  In  In14  1  0.000000  0.000000  0.000000  1
  Te  Te15  1  0.300194  0.901038  0.201234  1
  Te  Te16  1  0.098984  0.300240  0.399225  1
  Te  Te17  1  0.500000  0.500000  0.000000  1
  Te  Te18  1  0.699806  0.098962  0.798766  1
  Te  Te19  1  0.901016  0.699760  0.600775  1
  O  O20  1  0.531510  0.134542  0.199115  1
  O  O21  1  0.332436  0.531576  0.396938  1
  O  O22  1  0.739128  0.739130  0.999999  1
  O  O23  1  0.935427  0.332401  0.800885  1
  O  O24  1  0.134638  0.935498  0.603062  1
  O  O25  1  0.252004  0.761409  0.013414  1
  O  O26  1  0.051749  0.155913  0.207661  1
  O  O27  1  0.452983  0.361073  0.814058  1
  O  O28  1  0.655480  0.958740  0.614214  1
  O  O29  1  0.854035  0.559436  0.413471  1
  O  O30  1  0.155923  0.948258  0.104191  1
  O  O31  1  0.958695  0.344536  0.303234  1
  O  O32  1  0.361071  0.547085  0.908158  1
  O  O33  1  0.559427  0.145903  0.705332  1
  O  O34  1  0.761322  0.747963  0.509286  1
  O  O35  1  0.064573  0.667599  0.199115  1
  O  O36  1  0.865362  0.064502  0.396938  1
  O  O37  1  0.260872  0.260870  0.000001  1
  O  O38  1  0.468490  0.865458  0.800885  1
  O  O39  1  0.667564  0.468424  0.603062  1
  O  O40  1  0.344520  0.041260  0.385786  1
  O  O41  1  0.145965  0.440564  0.586529  1
  O  O42  1  0.547017  0.638927  0.185942  1
  O  O43  1  0.747996  0.238591  0.986586  1
  O  O44  1  0.948251  0.844087  0.792339  1
  O  O45  1  0.440573  0.854097  0.294668  1
  O  O46  1  0.238678  0.252037  0.490714  1
  O  O47  1  0.638929  0.452915  0.091842  1
  O  O48  1  0.844077  0.051742  0.895809  1
  O  O49  1  0.041305  0.655464  0.696766  1
