# generated using pymatgen
data_Yb4Tc3B16Ru
_symmetry_space_group_name_H-M   'P 1'
_cell_length_a   3.54391600
_cell_length_b   5.97328073
_cell_length_c   11.55269635
_cell_angle_alpha   89.91282340
_cell_angle_beta   90.00000000
_cell_angle_gamma   90.00000000
_symmetry_Int_Tables_number   1
_chemical_formula_structural   Yb4Tc3B16Ru
_chemical_formula_sum   'Yb4 Tc3 B16 Ru1'
_cell_volume   244.55649473
_cell_formula_units_Z   1
loop_
 _symmetry_equiv_pos_site_id
 _symmetry_equiv_pos_as_xyz
  1  'x, y, z'
loop_
 _atom_site_type_symbol
 _atom_site_label
 _atom_site_symmetry_multiplicity
 _atom_site_fract_x
 _atom_site_fract_y
 _atom_site_fract_z
 _atom_site_occupancy
  Yb  Yb0  1  0.500000  0.629778  0.150824  1
  Yb  Yb1  1  0.500000  0.371176  0.849403  1
  Yb  Yb2  1  0.500000  0.129223  0.349889  1
  Yb  Yb3  1  0.500000  0.870574  0.650439  1
  Tc  Tc4  1  0.500000  0.629911  0.416788  1
  Tc  Tc5  1  0.500000  0.370299  0.583729  1
  Tc  Tc6  1  0.500000  0.133078  0.083771  1
  B  B7  1  0.000000  0.976756  0.192438  1
  B  B8  1  0.000000  0.022790  0.807744  1
  B  B9  1  0.000000  0.477449  0.307086  1
  B  B10  1  0.000000  0.523208  0.693281  1
  B  B11  1  0.000000  0.786104  0.315186  1
  B  B12  1  0.000000  0.213216  0.685289  1
  B  B13  1  0.000000  0.285881  0.185068  1
  B  B14  1  0.000000  0.714883  0.815331  1
  B  B15  1  0.000000  0.865795  0.467913  1
  B  B16  1  0.000000  0.133645  0.532126  1
  B  B17  1  0.000000  0.365160  0.031400  1
  B  B18  1  0.000000  0.635588  0.968024  1
  B  B19  1  0.000000  0.885485  0.046775  1
  B  B20  1  0.000000  0.111877  0.951669  1
  B  B21  1  0.000000  0.385538  0.452379  1
  B  B22  1  0.000000  0.614228  0.547570  1
  Ru  Ru23  1  0.500000  0.868358  0.915879  1
