# generated using pymatgen
data_NdLu2Ir7Rh2
_symmetry_space_group_name_H-M   'P 1'
_cell_length_a   5.30942500
_cell_length_b   5.30942058
_cell_length_c   17.39670500
_cell_angle_alpha   90.00000000
_cell_angle_beta   90.00000000
_cell_angle_gamma   119.99989426
_symmetry_Int_Tables_number   1
_chemical_formula_structural   NdLu2Ir7Rh2
_chemical_formula_sum   'Nd2 Lu4 Ir14 Rh4'
_cell_volume   424.71022096
_cell_formula_units_Z   2
loop_
 _symmetry_equiv_pos_site_id
 _symmetry_equiv_pos_as_xyz
  1  'x, y, z'
loop_
 _atom_site_type_symbol
 _atom_site_label
 _atom_site_symmetry_multiplicity
 _atom_site_fract_x
 _atom_site_fract_y
 _atom_site_fract_z
 _atom_site_occupancy
  Nd  Nd0  1  0.333330  0.666666  0.750000  1
  Nd  Nd1  1  0.666670  0.333334  0.250000  1
  Lu  Lu2  1  0.333335  0.666664  0.540309  1
  Lu  Lu3  1  0.666665  0.333336  0.040309  1
  Lu  Lu4  1  0.666665  0.333336  0.459691  1
  Lu  Lu5  1  0.333335  0.666664  0.959691  1
  Ir  Ir6  1  0.168099  0.336180  0.123996  1
  Ir  Ir7  1  0.831901  0.663820  0.623996  1
  Ir  Ir8  1  0.663819  0.831908  0.123994  1
  Ir  Ir9  1  0.168095  0.831915  0.123993  1
  Ir  Ir10  1  0.831905  0.168085  0.623993  1
  Ir  Ir11  1  0.336181  0.168092  0.623994  1
  Ir  Ir12  1  0.831901  0.663820  0.876004  1
  Ir  Ir13  1  0.831905  0.168085  0.876007  1
  Ir  Ir14  1  0.336181  0.168092  0.876006  1
  Ir  Ir15  1  0.663819  0.831908  0.376006  1
  Ir  Ir16  1  0.168095  0.831915  0.376007  1
  Ir  Ir17  1  0.168099  0.336180  0.376004  1
  Ir  Ir18  1  0.000000  0.000000  0.000000  1
  Ir  Ir19  1  0.000000  0.000000  0.500000  1
  Rh  Rh20  1  0.000000  0.999997  0.250000  1
  Rh  Rh21  1  0.000000  0.000003  0.750000  1
  Rh  Rh22  1  0.333316  0.666657  0.250000  1
  Rh  Rh23  1  0.666684  0.333343  0.750000  1
