# generated using pymatgen
data_Na(AuO2)2
_symmetry_space_group_name_H-M   'P 1'
_cell_length_a   6.72528050
_cell_length_b   6.72528118
_cell_length_c   6.72528038
_cell_angle_alpha   124.23256720
_cell_angle_beta   124.23256638
_cell_angle_gamma   82.81308469
_symmetry_Int_Tables_number   1
_chemical_formula_structural   Na(AuO2)2
_chemical_formula_sum   'Na2 Au4 O8'
_cell_volume   199.60349321
_cell_formula_units_Z   2
loop_
 _symmetry_equiv_pos_site_id
 _symmetry_equiv_pos_as_xyz
  1  'x, y, z'
loop_
 _atom_site_type_symbol
 _atom_site_label
 _atom_site_symmetry_multiplicity
 _atom_site_fract_x
 _atom_site_fract_y
 _atom_site_fract_z
 _atom_site_occupancy
  Na  Na0  1  0.000000  0.000000  0.000000  1
  Na  Na1  1  0.750000  0.250000  0.500000  1
  Au  Au2  1  0.375129  0.623625  0.748928  1
  Au  Au3  1  0.376375  0.125302  0.751504  1
  Au  Au4  1  0.874698  0.626202  0.251072  1
  Au  Au5  1  0.373798  0.624871  0.248496  1
  O  O6  1  0.048322  0.424790  0.071413  1
  O  O7  1  0.728993  0.300770  0.127555  1
  O  O8  1  0.173215  0.601438  0.872445  1
  O  O9  1  0.353377  0.976909  0.928587  1
  O  O10  1  0.699230  0.826785  0.428222  1
  O  O11  1  0.023091  0.951678  0.376467  1
  O  O12  1  0.398562  0.271007  0.571778  1
  O  O13  1  0.575210  0.646623  0.623533  1
