# generated using pymatgen
data_Tm6Sc4Tl3In5Rh4
_symmetry_space_group_name_H-M   'P 1'
_cell_length_a   3.52902100
_cell_length_b   7.85396401
_cell_length_c   17.92617702
_cell_angle_alpha   90.00546551
_cell_angle_beta   90.00000000
_cell_angle_gamma   90.00000000
_symmetry_Int_Tables_number   1
_chemical_formula_structural   Tm6Sc4Tl3In5Rh4
_chemical_formula_sum   'Tm6 Sc4 Tl3 In5 Rh4'
_cell_volume   496.85633127
_cell_formula_units_Z   1
loop_
 _symmetry_equiv_pos_site_id
 _symmetry_equiv_pos_as_xyz
  1  'x, y, z'
loop_
 _atom_site_type_symbol
 _atom_site_label
 _atom_site_symmetry_multiplicity
 _atom_site_fract_x
 _atom_site_fract_y
 _atom_site_fract_z
 _atom_site_occupancy
  Tm  Tm0  1  0.000000  0.998995  0.000205  1
  Tm  Tm1  1  0.000000  0.500081  0.499769  1
  Tm  Tm2  1  0.000000  0.748940  0.782858  1
  Tm  Tm3  1  0.000000  0.251822  0.216741  1
  Tm  Tm4  1  0.000000  0.248605  0.717889  1
  Tm  Tm5  1  0.000000  0.750848  0.282909  1
  Sc  Sc6  1  0.000000  0.879825  0.590316  1
  Sc  Sc7  1  0.000000  0.120197  0.409537  1
  Sc  Sc8  1  0.000000  0.378839  0.910043  1
  Sc  Sc9  1  0.000000  0.620985  0.089485  1
  Tl  Tl10  1  0.500000  0.806362  0.439656  1
  Tl  Tl11  1  0.500000  0.194375  0.560463  1
  Tl  Tl12  1  0.500000  0.307259  0.059996  1
  In  In13  1  0.500000  0.692559  0.938418  1
  In  In14  1  0.500000  0.921403  0.150188  1
  In  In15  1  0.500000  0.074781  0.850528  1
  In  In16  1  0.500000  0.421654  0.349617  1
  In  In17  1  0.500000  0.577635  0.650226  1
  Rh  Rh18  1  0.500000  0.959986  0.694856  1
  Rh  Rh19  1  0.500000  0.040714  0.304832  1
  Rh  Rh20  1  0.500000  0.462914  0.806593  1
  Rh  Rh21  1  0.500000  0.541222  0.194872  1
