# generated using pymatgen
data_Dy2Y7Lu11Pt16
_symmetry_space_group_name_H-M   'P 1'
_cell_length_a   7.44563800
_cell_length_b   7.51902642
_cell_length_c   14.63411600
_cell_angle_alpha   89.96498561
_cell_angle_beta   90.00202384
_cell_angle_gamma   89.99581018
_symmetry_Int_Tables_number   1
_chemical_formula_structural   Dy2Y7Lu11Pt16
_chemical_formula_sum   'Dy2 Y7 Lu11 Pt16'
_cell_volume   819.27544668
_cell_formula_units_Z   1
loop_
 _symmetry_equiv_pos_site_id
 _symmetry_equiv_pos_as_xyz
  1  'x, y, z'
loop_
 _atom_site_type_symbol
 _atom_site_label
 _atom_site_symmetry_multiplicity
 _atom_site_fract_x
 _atom_site_fract_y
 _atom_site_fract_z
 _atom_site_occupancy
  Dy  Dy0  1  0.656367  0.832129  0.878188  1
  Dy  Dy1  1  0.998789  0.820639  0.406606  1
  Y  Y2  1  0.498700  0.679368  0.093938  1
  Y  Y3  1  0.500981  0.320261  0.592734  1
  Y  Y4  1  0.001314  0.180504  0.906907  1
  Y  Y5  1  0.000956  0.179405  0.592857  1
  Y  Y6  1  0.500800  0.320383  0.906873  1
  Y  Y7  1  0.498851  0.679568  0.406842  1
  Y  Y8  1  0.998877  0.820248  0.093330  1
  Lu  Lu9  1  0.681214  0.990571  0.250103  1
  Lu  Lu10  1  0.181408  0.509545  0.250251  1
  Lu  Lu11  1  0.819107  0.489873  0.749292  1
  Lu  Lu12  1  0.318132  0.010163  0.749428  1
  Lu  Lu13  1  0.655802  0.832421  0.622359  1
  Lu  Lu14  1  0.156006  0.667344  0.877285  1
  Lu  Lu15  1  0.843956  0.332695  0.377399  1
  Lu  Lu16  1  0.343598  0.167792  0.122880  1
  Lu  Lu17  1  0.343898  0.167487  0.377510  1
  Lu  Lu18  1  0.844408  0.332823  0.123204  1
  Lu  Lu19  1  0.156117  0.667352  0.622162  1
  Pt  Pt20  1  0.817545  0.640952  0.250566  1
  Pt  Pt21  1  0.316185  0.859645  0.250321  1
  Pt  Pt22  1  0.683572  0.141573  0.748735  1
  Pt  Pt23  1  0.182303  0.358988  0.749682  1
  Pt  Pt24  1  0.546634  0.381185  0.250257  1
  Pt  Pt25  1  0.046405  0.118469  0.250452  1
  Pt  Pt26  1  0.955269  0.882135  0.748682  1
  Pt  Pt27  1  0.452432  0.616609  0.748775  1
  Pt  Pt28  1  0.818851  0.535427  0.541760  1
  Pt  Pt29  1  0.315536  0.965870  0.958748  1
  Pt  Pt30  1  0.682340  0.034294  0.457465  1
  Pt  Pt31  1  0.182208  0.465695  0.042539  1
  Pt  Pt32  1  0.181000  0.465887  0.457443  1
  Pt  Pt33  1  0.680725  0.036687  0.044170  1
  Pt  Pt34  1  0.318640  0.965095  0.541952  1
  Pt  Pt35  1  0.821070  0.530914  0.958308  1
