# generated using pymatgen
data_Tb8Ho7Sc5Si15Ir
_symmetry_space_group_name_H-M   'P 1'
_cell_length_a   7.22141455
_cell_length_b   7.66517522
_cell_length_c   14.35078074
_cell_angle_alpha   90.13948761
_cell_angle_beta   90.04280760
_cell_angle_gamma   90.22048171
_symmetry_Int_Tables_number   1
_chemical_formula_structural   Tb8Ho7Sc5Si15Ir
_chemical_formula_sum   'Tb8 Ho7 Sc5 Si15 Ir1'
_cell_volume   794.35615577
_cell_formula_units_Z   1
loop_
 _symmetry_equiv_pos_site_id
 _symmetry_equiv_pos_as_xyz
  1  'x, y, z'
loop_
 _atom_site_type_symbol
 _atom_site_label
 _atom_site_symmetry_multiplicity
 _atom_site_fract_x
 _atom_site_fract_y
 _atom_site_fract_z
 _atom_site_occupancy
  Tb  Tb0  1  0.016063  0.181921  0.097216  1
  Tb  Tb1  1  0.987860  0.822911  0.905505  1
  Tb  Tb2  1  0.483763  0.682195  0.904712  1
  Tb  Tb3  1  0.986388  0.823549  0.596730  1
  Tb  Tb4  1  0.514909  0.319493  0.096493  1
  Tb  Tb5  1  0.016473  0.183198  0.400999  1
  Tb  Tb6  1  0.515639  0.319729  0.401581  1
  Tb  Tb7  1  0.484823  0.681334  0.595457  1
  Ho  Ho8  1  0.313959  0.173275  0.628192  1
  Ho  Ho9  1  0.676657  0.824595  0.372322  1
  Ho  Ho10  1  0.175325  0.678973  0.373103  1
  Ho  Ho11  1  0.675344  0.824140  0.125632  1
  Ho  Ho12  1  0.831417  0.317865  0.628253  1
  Ho  Ho13  1  0.314340  0.174007  0.873528  1
  Ho  Ho14  1  0.831566  0.320110  0.873827  1
  Sc  Sc15  1  0.157325  0.516757  0.750373  1
  Sc  Sc16  1  0.841929  0.488451  0.248415  1
  Sc  Sc17  1  0.341033  0.012864  0.247944  1
  Sc  Sc18  1  0.667130  0.986386  0.750661  1
  Sc  Sc19  1  0.176023  0.678025  0.127424  1
  Si  Si20  1  0.980930  0.897018  0.246942  1
  Si  Si21  1  0.474115  0.599276  0.246687  1
  Si  Si22  1  0.521137  0.404207  0.750839  1
  Si  Si23  1  0.284024  0.861114  0.750657  1
  Si  Si24  1  0.716459  0.136498  0.248829  1
  Si  Si25  1  0.217146  0.368470  0.247973  1
  Si  Si26  1  0.775634  0.630447  0.750548  1
  Si  Si27  1  0.155796  0.471779  0.538275  1
  Si  Si28  1  0.844811  0.530911  0.460448  1
  Si  Si29  1  0.347212  0.970779  0.459482  1
  Si  Si30  1  0.854375  0.532082  0.042539  1
  Si  Si31  1  0.651898  0.031135  0.538666  1
  Si  Si32  1  0.159330  0.474484  0.966448  1
  Si  Si33  1  0.651690  0.030388  0.961055  1
  Si  Si34  1  0.340950  0.964056  0.041219  1
  Ir  Ir35  1  0.016525  0.087581  0.751028  1
