# generated using pymatgen
data_SmScSi(PRu2)6
_symmetry_space_group_name_H-M   'P 1'
_cell_length_a   9.42235900
_cell_length_b   9.42235766
_cell_length_c   3.94605100
_cell_angle_alpha   90.00000000
_cell_angle_beta   90.00000000
_cell_angle_gamma   120.00000119
_symmetry_Int_Tables_number   1
_chemical_formula_structural   SmScSi(PRu2)6
_chemical_formula_sum   'Sm1 Sc1 Si1 P6 Ru12'
_cell_volume   303.39788788
_cell_formula_units_Z   1
loop_
 _symmetry_equiv_pos_site_id
 _symmetry_equiv_pos_as_xyz
  1  'x, y, z'
loop_
 _atom_site_type_symbol
 _atom_site_label
 _atom_site_symmetry_multiplicity
 _atom_site_fract_x
 _atom_site_fract_y
 _atom_site_fract_z
 _atom_site_occupancy
  Sm  Sm0  1  0.333333  0.666667  0.000000  1
  Sc  Sc1  1  0.666667  0.333333  0.500000  1
  Si  Si2  1  0.000000  0.000000  0.000000  1
  P  P3  1  0.603899  0.719707  0.500000  1
  P  P4  1  0.280293  0.884192  0.500000  1
  P  P5  1  0.115808  0.396101  0.500000  1
  P  P6  1  0.884688  0.570703  0.000000  1
  P  P7  1  0.429297  0.313986  0.000000  1
  P  P8  1  0.686014  0.115312  0.000000  1
  Ru  Ru9  1  0.557836  0.956466  0.500000  1
  Ru  Ru10  1  0.398629  0.442164  0.500000  1
  Ru  Ru11  1  0.912987  0.119594  0.500000  1
  Ru  Ru12  1  0.206608  0.087013  0.500000  1
  Ru  Ru13  1  0.880406  0.793392  0.500000  1
  Ru  Ru14  1  0.720279  0.887735  0.000000  1
  Ru  Ru15  1  0.112265  0.832542  0.000000  1
  Ru  Ru16  1  0.167458  0.279721  0.000000  1
  Ru  Ru17  1  0.424675  0.071846  0.000000  1
  Ru  Ru18  1  0.928154  0.352829  0.000000  1
  Ru  Ru19  1  0.647171  0.575325  0.000000  1
  Ru  Ru20  1  0.043534  0.601371  0.500000  1
