# generated using pymatgen
data_Tm6CdRh7
_symmetry_space_group_name_H-M   'P 1'
_cell_length_a   7.53916683
_cell_length_b   7.53916597
_cell_length_c   7.53916500
_cell_angle_alpha   113.74394616
_cell_angle_beta   113.74395989
_cell_angle_gamma   113.74394756
_symmetry_Int_Tables_number   1
_chemical_formula_structural   Tm6CdRh7
_chemical_formula_sum   'Tm6 Cd1 Rh7'
_cell_volume   265.21744624
_cell_formula_units_Z   1
loop_
 _symmetry_equiv_pos_site_id
 _symmetry_equiv_pos_as_xyz
  1  'x, y, z'
loop_
 _atom_site_type_symbol
 _atom_site_label
 _atom_site_symmetry_multiplicity
 _atom_site_fract_x
 _atom_site_fract_y
 _atom_site_fract_z
 _atom_site_occupancy
  Tm  Tm0  1  0.368435  0.952147  0.227407  1
  Tm  Tm1  1  0.952147  0.227407  0.368435  1
  Tm  Tm2  1  0.227407  0.368435  0.952147  1
  Tm  Tm3  1  0.631565  0.047853  0.772593  1
  Tm  Tm4  1  0.047853  0.772593  0.631565  1
  Tm  Tm5  1  0.772593  0.631565  0.047853  1
  Cd  Cd6  1  0.500000  0.500000  0.500000  1
  Rh  Rh7  1  0.000000  0.000000  0.000000  1
  Rh  Rh8  1  0.277284  0.130447  0.568610  1
  Rh  Rh9  1  0.130447  0.568610  0.277284  1
  Rh  Rh10  1  0.568610  0.277284  0.130447  1
  Rh  Rh11  1  0.722716  0.869553  0.431390  1
  Rh  Rh12  1  0.869553  0.431390  0.722716  1
  Rh  Rh13  1  0.431390  0.722716  0.869553  1
