# generated using pymatgen
data_Ac3Sn3IrPtAu
_symmetry_space_group_name_H-M   'P 1'
_cell_length_a   7.95172600
_cell_length_b   7.95172674
_cell_length_c   4.33108800
_cell_angle_alpha   90.00000000
_cell_angle_beta   90.00000000
_cell_angle_gamma   119.99999803
_symmetry_Int_Tables_number   1
_chemical_formula_structural   Ac3Sn3IrPtAu
_chemical_formula_sum   'Ac3 Sn3 Ir1 Pt1 Au1'
_cell_volume   237.16494790
_cell_formula_units_Z   1
loop_
 _symmetry_equiv_pos_site_id
 _symmetry_equiv_pos_as_xyz
  1  'x, y, z'
loop_
 _atom_site_type_symbol
 _atom_site_label
 _atom_site_symmetry_multiplicity
 _atom_site_fract_x
 _atom_site_fract_y
 _atom_site_fract_z
 _atom_site_occupancy
  Ac  Ac0  1  0.591335  0.008525  0.000000  1
  Ac  Ac1  1  0.991475  0.582810  0.000000  1
  Ac  Ac2  1  0.417190  0.408665  0.000000  1
  Sn  Sn3  1  0.236173  0.001873  0.500000  1
  Sn  Sn4  1  0.998127  0.234301  0.500000  1
  Sn  Sn5  1  0.765699  0.763827  0.500000  1
  Ir  Ir6  1  0.000000  0.000000  0.000000  1
  Pt  Pt7  1  0.666667  0.333333  0.500000  1
  Au  Au8  1  0.333333  0.666667  0.500000  1
