# generated using pymatgen
data_SrTbIr2O7
_symmetry_space_group_name_H-M   'P 1'
_cell_length_a   7.36268560
_cell_length_b   7.33565785
_cell_length_c   7.36268503
_cell_angle_alpha   60.12135813
_cell_angle_beta   59.95027242
_cell_angle_gamma   60.12135277
_symmetry_Int_Tables_number   1
_chemical_formula_structural   SrTbIr2O7
_chemical_formula_sum   'Sr2 Tb2 Ir4 O14'
_cell_volume   281.59611625
_cell_formula_units_Z   2
loop_
 _symmetry_equiv_pos_site_id
 _symmetry_equiv_pos_as_xyz
  1  'x, y, z'
loop_
 _atom_site_type_symbol
 _atom_site_label
 _atom_site_symmetry_multiplicity
 _atom_site_fract_x
 _atom_site_fract_y
 _atom_site_fract_z
 _atom_site_occupancy
  Sr  Sr0  1  0.125000  0.625000  0.125000  1
  Sr  Sr1  1  0.125000  0.125000  0.125000  1
  Tb  Tb2  1  0.625000  0.125000  0.125000  1
  Tb  Tb3  1  0.125000  0.125000  0.625000  1
  Ir  Ir4  1  0.125000  0.625000  0.625000  1
  Ir  Ir5  1  0.625000  0.125000  0.625000  1
  Ir  Ir6  1  0.625000  0.625000  0.125000  1
  Ir  Ir7  1  0.625000  0.625000  0.625000  1
  O  O8  1  0.689826  0.714864  0.298948  1
  O  O9  1  0.298948  0.296362  0.689826  1
  O  O10  1  0.702666  0.297334  0.702666  1
  O  O11  1  0.302106  0.697894  0.302106  1
  O  O12  1  0.298948  0.714864  0.689826  1
  O  O13  1  0.689826  0.296362  0.298948  1
  O  O14  1  0.560174  0.535136  0.951052  1
  O  O15  1  0.951052  0.953638  0.560174  1
  O  O16  1  0.547334  0.952666  0.547334  1
  O  O17  1  0.947894  0.552106  0.947894  1
  O  O18  1  0.951052  0.535136  0.560174  1
  O  O19  1  0.560174  0.953638  0.951052  1
  O  O20  1  0.265180  0.234820  0.265180  1
  O  O21  1  0.984820  0.015180  0.984820  1
