# generated using pymatgen
data_Tb5Pb3S
_symmetry_space_group_name_H-M   'P 1'
_cell_length_a   9.18441000
_cell_length_b   9.18441054
_cell_length_c   6.76175400
_cell_angle_alpha   90.00000000
_cell_angle_beta   90.00000000
_cell_angle_gamma   119.99999806
_symmetry_Int_Tables_number   1
_chemical_formula_structural   Tb5Pb3S
_chemical_formula_sum   'Tb10 Pb6 S2'
_cell_volume   493.96088239
_cell_formula_units_Z   2
loop_
 _symmetry_equiv_pos_site_id
 _symmetry_equiv_pos_as_xyz
  1  'x, y, z'
loop_
 _atom_site_type_symbol
 _atom_site_label
 _atom_site_symmetry_multiplicity
 _atom_site_fract_x
 _atom_site_fract_y
 _atom_site_fract_z
 _atom_site_occupancy
  Tb  Tb0  1  0.242096  0.242096  0.750000  1
  Tb  Tb1  1  0.000000  0.757904  0.750000  1
  Tb  Tb2  1  0.242096  0.000000  0.250000  1
  Tb  Tb3  1  0.757904  0.000000  0.750000  1
  Tb  Tb4  1  0.333333  0.666667  0.500000  1
  Tb  Tb5  1  0.666667  0.333333  0.500000  1
  Tb  Tb6  1  0.757904  0.757904  0.250000  1
  Tb  Tb7  1  0.000000  0.242096  0.250000  1
  Tb  Tb8  1  0.333333  0.666667  0.000000  1
  Tb  Tb9  1  0.666667  0.333333  0.000000  1
  Pb  Pb10  1  0.601749  0.000000  0.250000  1
  Pb  Pb11  1  0.000000  0.601749  0.250000  1
  Pb  Pb12  1  0.601749  0.601749  0.750000  1
  Pb  Pb13  1  0.398251  0.398251  0.250000  1
  Pb  Pb14  1  0.000000  0.398251  0.750000  1
  Pb  Pb15  1  0.398251  0.000000  0.750000  1
  S  S16  1  0.000000  0.000000  0.000000  1
  S  S17  1  0.000000  0.000000  0.500000  1
