# generated using pymatgen
data_TbY5Al24(Os3Ru)2
_symmetry_space_group_name_H-M   'P 1'
_cell_length_a   8.83183404
_cell_length_b   8.83183485
_cell_length_c   9.56422700
_cell_angle_alpha   90.00000000
_cell_angle_beta   90.00000000
_cell_angle_gamma   119.98945549
_symmetry_Int_Tables_number   1
_chemical_formula_structural   TbY5Al24(Os3Ru)2
_chemical_formula_sum   'Tb1 Y5 Al24 Os6 Ru2'
_cell_volume   646.14275835
_cell_formula_units_Z   1
loop_
 _symmetry_equiv_pos_site_id
 _symmetry_equiv_pos_as_xyz
  1  'x, y, z'
loop_
 _atom_site_type_symbol
 _atom_site_label
 _atom_site_symmetry_multiplicity
 _atom_site_fract_x
 _atom_site_fract_y
 _atom_site_fract_z
 _atom_site_occupancy
  Tb  Tb0  1  0.806849  0.193151  0.750000  1
  Y  Y1  1  0.193156  0.386292  0.250000  1
  Y  Y2  1  0.806831  0.613658  0.750000  1
  Y  Y3  1  0.613708  0.806844  0.250000  1
  Y  Y4  1  0.386342  0.193169  0.750000  1
  Y  Y5  1  0.193139  0.806861  0.250000  1
  Al  Al6  1  0.333337  0.666663  0.014490  1
  Al  Al7  1  0.666655  0.333345  0.985500  1
  Al  Al8  1  0.666655  0.333345  0.514500  1
  Al  Al9  1  0.333337  0.666663  0.485510  1
  Al  Al10  1  0.162231  0.324422  0.575982  1
  Al  Al11  1  0.837783  0.675587  0.424022  1
  Al  Al12  1  0.675578  0.837769  0.575982  1
  Al  Al13  1  0.837783  0.675587  0.075978  1
  Al  Al14  1  0.324413  0.162217  0.424022  1
  Al  Al15  1  0.162231  0.324422  0.924018  1
  Al  Al16  1  0.162215  0.837785  0.575966  1
  Al  Al17  1  0.324413  0.162217  0.075978  1
  Al  Al18  1  0.837794  0.162206  0.424007  1
  Al  Al19  1  0.675578  0.837769  0.924018  1
  Al  Al20  1  0.837794  0.162206  0.075993  1
  Al  Al21  1  0.162215  0.837785  0.924034  1
  Al  Al22  1  0.560530  0.121069  0.250000  1
  Al  Al23  1  0.439421  0.878870  0.750000  1
  Al  Al24  1  0.878931  0.439470  0.250000  1
  Al  Al25  1  0.121130  0.560579  0.750000  1
  Al  Al26  1  0.560538  0.439462  0.250000  1
  Al  Al27  1  0.439465  0.560535  0.750000  1
  Al  Al28  1  0.999999  0.000001  0.250000  1
  Al  Al29  1  0.999988  0.000012  0.750000  1
  Os  Os30  1  0.499977  0.999989  0.000014  1
  Os  Os31  1  0.000011  0.500023  0.000014  1
  Os  Os32  1  0.499977  0.999989  0.499986  1
  Os  Os33  1  0.499988  0.500012  0.000014  1
  Os  Os34  1  0.000011  0.500023  0.499986  1
  Os  Os35  1  0.499988  0.500012  0.499986  1
  Ru  Ru36  1  0.000004  0.999996  0.000024  1
  Ru  Ru37  1  0.000004  0.999996  0.499976  1
