# generated using pymatgen
data_Pa2AlRh5
_symmetry_space_group_name_H-M   'P 1'
_cell_length_a   5.76379744
_cell_length_b   5.76379690
_cell_length_c   8.32593001
_cell_angle_alpha   90.00301609
_cell_angle_beta   90.00301738
_cell_angle_gamma   97.65075998
_symmetry_Int_Tables_number   1
_chemical_formula_structural   Pa2AlRh5
_chemical_formula_sum   'Pa4 Al2 Rh10'
_cell_volume   274.13641236
_cell_formula_units_Z   2
loop_
 _symmetry_equiv_pos_site_id
 _symmetry_equiv_pos_as_xyz
  1  'x, y, z'
loop_
 _atom_site_type_symbol
 _atom_site_label
 _atom_site_symmetry_multiplicity
 _atom_site_fract_x
 _atom_site_fract_y
 _atom_site_fract_z
 _atom_site_occupancy
  Pa  Pa0  1  0.781755  0.218245  0.500000  1
  Pa  Pa1  1  0.218248  0.781752  0.000000  1
  Pa  Pa2  1  0.218245  0.781755  0.500000  1
  Pa  Pa3  1  0.781752  0.218248  0.000000  1
  Al  Al4  1  0.500444  0.500444  0.749996  1
  Al  Al5  1  0.499556  0.499556  0.250004  1
  Rh  Rh6  1  0.714900  0.714900  0.000099  1
  Rh  Rh7  1  0.714900  0.714900  0.499911  1
  Rh  Rh8  1  0.285100  0.285100  0.999901  1
  Rh  Rh9  1  0.285100  0.285100  0.500089  1
  Rh  Rh10  1  0.499916  0.000009  0.749991  1
  Rh  Rh11  1  0.500084  0.999991  0.250009  1
  Rh  Rh12  1  0.000072  0.000072  0.250005  1
  Rh  Rh13  1  0.999928  0.999928  0.749995  1
  Rh  Rh14  1  0.000009  0.499916  0.749991  1
  Rh  Rh15  1  0.999991  0.500084  0.250009  1
