# generated using pymatgen
data_Sr8PdAu7
_symmetry_space_group_name_H-M   'P 1'
_cell_length_a   4.80906100
_cell_length_b   6.21197722
_cell_length_c   16.13544781
_cell_angle_alpha   90.01201255
_cell_angle_beta   90.00000000
_cell_angle_gamma   90.00000000
_symmetry_Int_Tables_number   1
_chemical_formula_structural   Sr8PdAu7
_chemical_formula_sum   'Sr8 Pd1 Au7'
_cell_volume   482.02676479
_cell_formula_units_Z   1
loop_
 _symmetry_equiv_pos_site_id
 _symmetry_equiv_pos_as_xyz
  1  'x, y, z'
loop_
 _atom_site_type_symbol
 _atom_site_label
 _atom_site_symmetry_multiplicity
 _atom_site_fract_x
 _atom_site_fract_y
 _atom_site_fract_z
 _atom_site_occupancy
  Sr  Sr0  1  0.250000  0.760409  0.533034  1
  Sr  Sr1  1  0.750000  0.242018  0.465019  1
  Sr  Sr2  1  0.750000  0.256345  0.965345  1
  Sr  Sr3  1  0.250000  0.743684  0.033878  1
  Sr  Sr4  1  0.250000  0.985608  0.784444  1
  Sr  Sr5  1  0.750000  0.014278  0.217539  1
  Sr  Sr6  1  0.750000  0.485656  0.715082  1
  Sr  Sr7  1  0.250000  0.512977  0.285695  1
  Pd  Pd8  1  0.250000  0.011958  0.356510  1
  Au  Au9  1  0.250000  0.258366  0.606354  1
  Au  Au10  1  0.750000  0.748207  0.392653  1
  Au  Au11  1  0.750000  0.759022  0.893455  1
  Au  Au12  1  0.250000  0.240092  0.106106  1
  Au  Au13  1  0.250000  0.482843  0.854948  1
  Au  Au14  1  0.750000  0.517201  0.144838  1
  Au  Au15  1  0.750000  0.981339  0.645099  1
