# generated using pymatgen
data_Mg2GePRu2
_symmetry_space_group_name_H-M   'P 1'
_cell_length_a   3.97244000
_cell_length_b   6.66460800
_cell_length_c   7.14383800
_cell_angle_alpha   90.00000000
_cell_angle_beta   90.00000000
_cell_angle_gamma   90.00000000
_symmetry_Int_Tables_number   1
_chemical_formula_structural   Mg2GePRu2
_chemical_formula_sum   'Mg4 Ge2 P2 Ru4'
_cell_volume   189.13136369
_cell_formula_units_Z   2
loop_
 _symmetry_equiv_pos_site_id
 _symmetry_equiv_pos_as_xyz
  1  'x, y, z'
loop_
 _atom_site_type_symbol
 _atom_site_label
 _atom_site_symmetry_multiplicity
 _atom_site_fract_x
 _atom_site_fract_y
 _atom_site_fract_z
 _atom_site_occupancy
  Mg  Mg0  1  0.250000  0.018011  0.335149  1
  Mg  Mg1  1  0.250000  0.518011  0.164851  1
  Mg  Mg2  1  0.750000  0.986310  0.666484  1
  Mg  Mg3  1  0.750000  0.486310  0.833516  1
  Ge  Ge4  1  0.750000  0.711022  0.367886  1
  Ge  Ge5  1  0.750000  0.211022  0.132114  1
  P  P6  1  0.250000  0.297100  0.634309  1
  P  P7  1  0.250000  0.797100  0.865691  1
  Ru  Ru8  1  0.250000  0.146030  0.933909  1
  Ru  Ru9  1  0.250000  0.646030  0.566091  1
  Ru  Ru10  1  0.750000  0.841527  0.033472  1
  Ru  Ru11  1  0.750000  0.341527  0.466528  1
