# generated using pymatgen
data_Sr2Tb2YbGe4
_symmetry_space_group_name_H-M   'P 1'
_cell_length_a   7.65504300
_cell_length_b   8.07859300
_cell_length_c   15.61007500
_cell_angle_alpha   90.00000000
_cell_angle_beta   90.00000000
_cell_angle_gamma   90.00000000
_symmetry_Int_Tables_number   1
_chemical_formula_structural   Sr2Tb2YbGe4
_chemical_formula_sum   'Sr8 Tb8 Yb4 Ge16'
_cell_volume   965.35789591
_cell_formula_units_Z   4
loop_
 _symmetry_equiv_pos_site_id
 _symmetry_equiv_pos_as_xyz
  1  'x, y, z'
loop_
 _atom_site_type_symbol
 _atom_site_label
 _atom_site_symmetry_multiplicity
 _atom_site_fract_x
 _atom_site_fract_y
 _atom_site_fract_z
 _atom_site_occupancy
  Sr  Sr0  1  0.980124  0.819230  0.404135  1
  Sr  Sr1  1  0.480124  0.680770  0.095865  1
  Sr  Sr2  1  0.519876  0.319230  0.595865  1
  Sr  Sr3  1  0.019876  0.180770  0.904135  1
  Sr  Sr4  1  0.019876  0.180770  0.595865  1
  Sr  Sr5  1  0.519876  0.319230  0.904135  1
  Sr  Sr6  1  0.480124  0.680770  0.404135  1
  Sr  Sr7  1  0.980124  0.819230  0.095865  1
  Tb  Tb8  1  0.318532  0.174183  0.121811  1
  Tb  Tb9  1  0.818532  0.325817  0.378189  1
  Tb  Tb10  1  0.181468  0.674183  0.878189  1
  Tb  Tb11  1  0.681468  0.825817  0.621811  1
  Tb  Tb12  1  0.318532  0.174183  0.378189  1
  Tb  Tb13  1  0.818532  0.325817  0.121811  1
  Tb  Tb14  1  0.181468  0.674183  0.621811  1
  Tb  Tb15  1  0.681468  0.825817  0.878189  1
  Yb  Yb16  1  0.347897  0.014831  0.750000  1
  Yb  Yb17  1  0.847897  0.485169  0.750000  1
  Yb  Yb18  1  0.152103  0.514831  0.250000  1
  Yb  Yb19  1  0.652103  0.985169  0.250000  1
  Ge  Ge20  1  0.852617  0.538856  0.539956  1
  Ge  Ge21  1  0.352617  0.961144  0.960044  1
  Ge  Ge22  1  0.647383  0.038856  0.460044  1
  Ge  Ge23  1  0.147383  0.461144  0.039956  1
  Ge  Ge24  1  0.147383  0.461144  0.460044  1
  Ge  Ge25  1  0.647383  0.038856  0.039956  1
  Ge  Ge26  1  0.352617  0.961144  0.539956  1
  Ge  Ge27  1  0.852617  0.538856  0.960044  1
  Ge  Ge28  1  0.976522  0.873914  0.750000  1
  Ge  Ge29  1  0.476522  0.626086  0.750000  1
  Ge  Ge30  1  0.523478  0.373914  0.250000  1
  Ge  Ge31  1  0.023478  0.126086  0.250000  1
  Ge  Ge32  1  0.235612  0.395668  0.750000  1
  Ge  Ge33  1  0.735612  0.104332  0.750000  1
  Ge  Ge34  1  0.264388  0.895668  0.250000  1
  Ge  Ge35  1  0.764388  0.604332  0.250000  1
