# generated using pymatgen
data_Tb5Nd(Ir5Rh)3
_symmetry_space_group_name_H-M   'P 1'
_cell_length_a   5.32607101
_cell_length_b   5.32565039
_cell_length_c   17.50082400
_cell_angle_alpha   90.00000000
_cell_angle_beta   90.00000000
_cell_angle_gamma   120.00248552
_symmetry_Int_Tables_number   1
_chemical_formula_structural   Tb5Nd(Ir5Rh)3
_chemical_formula_sum   'Tb5 Nd1 Ir15 Rh3'
_cell_volume   429.89050886
_cell_formula_units_Z   1
loop_
 _symmetry_equiv_pos_site_id
 _symmetry_equiv_pos_as_xyz
  1  'x, y, z'
loop_
 _atom_site_type_symbol
 _atom_site_label
 _atom_site_symmetry_multiplicity
 _atom_site_fract_x
 _atom_site_fract_y
 _atom_site_fract_z
 _atom_site_occupancy
  Tb  Tb0  1  0.333331  0.666649  0.541226  1
  Tb  Tb1  1  0.666668  0.333336  0.040520  1
  Tb  Tb2  1  0.666668  0.333336  0.459480  1
  Tb  Tb3  1  0.333331  0.666649  0.958774  1
  Tb  Tb4  1  0.333356  0.666685  0.750000  1
  Nd  Nd5  1  0.666646  0.333334  0.250000  1
  Ir  Ir6  1  0.167438  0.334890  0.125279  1
  Ir  Ir7  1  0.832393  0.664768  0.626346  1
  Ir  Ir8  1  0.665147  0.832598  0.125315  1
  Ir  Ir9  1  0.167435  0.832597  0.125325  1
  Ir  Ir10  1  0.832385  0.167569  0.626414  1
  Ir  Ir11  1  0.335209  0.167575  0.626427  1
  Ir  Ir12  1  0.832393  0.664768  0.873654  1
  Ir  Ir13  1  0.832385  0.167569  0.873586  1
  Ir  Ir14  1  0.335209  0.167575  0.873573  1
  Ir  Ir15  1  0.665147  0.832598  0.374685  1
  Ir  Ir16  1  0.167435  0.832597  0.374675  1
  Ir  Ir17  1  0.167438  0.334890  0.374721  1
  Ir  Ir18  1  0.999775  0.999622  0.750000  1
  Ir  Ir19  1  0.000030  0.000021  0.999854  1
  Ir  Ir20  1  0.000030  0.000021  0.500146  1
  Rh  Rh21  1  0.000061  0.000278  0.250000  1
  Rh  Rh22  1  0.333255  0.666492  0.250000  1
  Rh  Rh23  1  0.666838  0.333581  0.750000  1
