# generated using pymatgen
data_Dy6Ga3Tc13O
_symmetry_space_group_name_H-M   'P 1'
_cell_length_a   8.06649955
_cell_length_b   8.04657142
_cell_length_c   8.06650000
_cell_angle_alpha   108.45052154
_cell_angle_beta   108.89164631
_cell_angle_gamma   111.18679812
_symmetry_Int_Tables_number   1
_chemical_formula_structural   Dy6Ga3Tc13O
_chemical_formula_sum   'Dy6 Ga3 Tc13 O1'
_cell_volume   402.27611020
_cell_formula_units_Z   1
loop_
 _symmetry_equiv_pos_site_id
 _symmetry_equiv_pos_as_xyz
  1  'x, y, z'
loop_
 _atom_site_type_symbol
 _atom_site_label
 _atom_site_symmetry_multiplicity
 _atom_site_fract_x
 _atom_site_fract_y
 _atom_site_fract_z
 _atom_site_occupancy
  Dy  Dy0  1  0.263011  0.003826  0.261173  1
  Dy  Dy1  1  0.000644  0.258217  0.257573  1
  Dy  Dy2  1  0.002433  0.742205  0.739772  1
  Dy  Dy3  1  0.275759  0.275747  0.999987  1
  Dy  Dy4  1  0.732319  0.730833  0.998515  1
  Dy  Dy5  1  0.742653  0.003826  0.740815  1
  Ga  Ga6  1  0.346420  0.998482  0.652062  1
  Ga  Ga7  1  0.686437  0.342687  0.344587  1
  Ga  Ga8  1  0.998099  0.342687  0.656250  1
  Tc  Tc9  1  0.997295  0.996781  0.483027  1
  Tc  Tc10  1  0.513754  0.996781  0.999486  1
  Tc  Tc11  1  0.001028  0.508902  0.999643  1
  Tc  Tc12  1  0.509259  0.508902  0.507874  1
  Tc  Tc13  1  0.651056  0.655679  0.318600  1
  Tc  Tc14  1  0.337078  0.655679  0.004623  1
  Tc  Tc15  1  0.336721  0.686632  0.349910  1
  Tc  Tc16  1  0.656259  0.316369  0.660111  1
  Tc  Tc17  1  0.331118  0.333219  0.675587  1
  Tc  Tc18  1  0.311382  0.654273  0.660374  1
  Tc  Tc19  1  0.657633  0.333219  0.002101  1
  Tc  Tc20  1  0.993899  0.654273  0.342890  1
  Tc  Tc21  1  0.650756  0.996982  0.346227  1
  O  O22  1  0.004988  0.003797  0.998810  1
