# generated using pymatgen
data_TmInSnI6
_symmetry_space_group_name_H-M   'P 1'
_cell_length_a   8.82288976
_cell_length_b   8.82278080
_cell_length_c   8.82304671
_cell_angle_alpha   54.62124411
_cell_angle_beta   54.62012542
_cell_angle_gamma   54.62063002
_symmetry_Int_Tables_number   1
_chemical_formula_structural   TmInSnI6
_chemical_formula_sum   'Tm1 In1 Sn1 I6'
_cell_volume   424.76960433
_cell_formula_units_Z   1
loop_
 _symmetry_equiv_pos_site_id
 _symmetry_equiv_pos_as_xyz
  1  'x, y, z'
loop_
 _atom_site_type_symbol
 _atom_site_label
 _atom_site_symmetry_multiplicity
 _atom_site_fract_x
 _atom_site_fract_y
 _atom_site_fract_z
 _atom_site_occupancy
  Tm  Tm0  1  0.999716  0.999709  0.999717  1
  In  In1  1  0.669821  0.669802  0.669879  1
  Sn  Sn2  1  0.331194  0.331224  0.331138  1
  I  I3  1  0.211234  0.609833  0.941062  1
  I  I4  1  0.609822  0.941076  0.211233  1
  I  I5  1  0.941062  0.211242  0.609823  1
  I  I6  1  0.761067  0.360343  0.115716  1
  I  I7  1  0.360370  0.115710  0.761068  1
  I  I8  1  0.115716  0.761060  0.360364  1
