# generated using pymatgen
data_Nb3SiGe2Ru3
_symmetry_space_group_name_H-M   'P 1'
_cell_length_a   6.56758000
_cell_length_b   6.56757903
_cell_length_c   3.72331800
_cell_angle_alpha   90.00000000
_cell_angle_beta   90.00000000
_cell_angle_gamma   120.00000489
_symmetry_Int_Tables_number   1
_chemical_formula_structural   Nb3SiGe2Ru3
_chemical_formula_sum   'Nb3 Si1 Ge2 Ru3'
_cell_volume   139.08215758
_cell_formula_units_Z   1
loop_
 _symmetry_equiv_pos_site_id
 _symmetry_equiv_pos_as_xyz
  1  'x, y, z'
loop_
 _atom_site_type_symbol
 _atom_site_label
 _atom_site_symmetry_multiplicity
 _atom_site_fract_x
 _atom_site_fract_y
 _atom_site_fract_z
 _atom_site_occupancy
  Nb  Nb0  1  0.000000  0.412731  0.500000  1
  Nb  Nb1  1  0.587269  0.587269  0.500000  1
  Nb  Nb2  1  0.412731  0.000000  0.500000  1
  Si  Si3  1  0.000000  0.000000  0.500000  1
  Ge  Ge4  1  0.333333  0.666667  0.000000  1
  Ge  Ge5  1  0.666667  0.333333  0.000000  1
  Ru  Ru6  1  0.000000  0.758795  0.000000  1
  Ru  Ru7  1  0.241205  0.241205  0.000000  1
  Ru  Ru8  1  0.758795  0.000000  0.000000  1
