# generated using pymatgen
data_Lu3Sc5Cr2(FeB12)2
_symmetry_space_group_name_H-M   'P 1'
_cell_length_a   3.39382800
_cell_length_b   8.88976837
_cell_length_c   11.22945132
_cell_angle_alpha   89.84310893
_cell_angle_beta   90.00000000
_cell_angle_gamma   90.00000000
_symmetry_Int_Tables_number   1
_chemical_formula_structural   Lu3Sc5Cr2(FeB12)2
_chemical_formula_sum   'Lu3 Sc5 Cr2 Fe2 B24'
_cell_volume   338.79514808
_cell_formula_units_Z   1
loop_
 _symmetry_equiv_pos_site_id
 _symmetry_equiv_pos_as_xyz
  1  'x, y, z'
loop_
 _atom_site_type_symbol
 _atom_site_label
 _atom_site_symmetry_multiplicity
 _atom_site_fract_x
 _atom_site_fract_y
 _atom_site_fract_z
 _atom_site_occupancy
  Lu  Lu0  1  0.000000  0.821832  0.085429  1
  Lu  Lu1  1  0.000000  0.178142  0.914349  1
  Lu  Lu2  1  0.000000  0.321973  0.414478  1
  Sc  Sc3  1  0.000000  0.677989  0.585410  1
  Sc  Sc4  1  0.000000  0.443392  0.129564  1
  Sc  Sc5  1  0.000000  0.557340  0.869802  1
  Sc  Sc6  1  0.000000  0.943181  0.371134  1
  Sc  Sc7  1  0.000000  0.055459  0.629517  1
  Cr  Cr8  1  0.000000  0.640568  0.319079  1
  Cr  Cr9  1  0.000000  0.360275  0.681388  1
  Fe  Fe10  1  0.000000  0.140238  0.180968  1
  Fe  Fe11  1  0.000000  0.859240  0.818243  1
  B  B12  1  0.500000  0.054891  0.067518  1
  B  B13  1  0.500000  0.944826  0.932223  1
  B  B14  1  0.500000  0.554184  0.434343  1
  B  B15  1  0.500000  0.447864  0.566905  1
  B  B16  1  0.500000  0.250690  0.082132  1
  B  B17  1  0.500000  0.749307  0.917366  1
  B  B18  1  0.500000  0.751533  0.420773  1
  B  B19  1  0.500000  0.248330  0.581167  1
  B  B20  1  0.500000  0.292205  0.234868  1
  B  B21  1  0.500000  0.707497  0.764041  1
  B  B22  1  0.500000  0.795153  0.264589  1
  B  B23  1  0.500000  0.204962  0.735930  1
  B  B24  1  0.500000  0.129637  0.315429  1
  B  B25  1  0.500000  0.869031  0.683781  1
  B  B26  1  0.500000  0.630415  0.183241  1
  B  B27  1  0.500000  0.370330  0.816704  1
  B  B28  1  0.500000  0.480713  0.287107  1
  B  B29  1  0.500000  0.521032  0.712279  1
  B  B30  1  0.500000  0.983556  0.212503  1
  B  B31  1  0.500000  0.015884  0.787316  1
  B  B32  1  0.500000  0.098727  0.472701  1
  B  B33  1  0.500000  0.899285  0.528012  1
  B  B34  1  0.500000  0.599319  0.026369  1
  B  B35  1  0.500000  0.401002  0.973339  1
