# generated using pymatgen
data_LiPr8Sc10Si16Tc
_symmetry_space_group_name_H-M   'P 1'
_cell_length_a   7.15423806
_cell_length_b   7.56502903
_cell_length_c   14.14015600
_cell_angle_alpha   90.00000000
_cell_angle_beta   90.00000000
_cell_angle_gamma   89.87735853
_symmetry_Int_Tables_number   1
_chemical_formula_structural   LiPr8Sc10Si16Tc
_chemical_formula_sum   'Li1 Pr8 Sc10 Si16 Tc1'
_cell_volume   765.29203311
_cell_formula_units_Z   1
loop_
 _symmetry_equiv_pos_site_id
 _symmetry_equiv_pos_as_xyz
  1  'x, y, z'
loop_
 _atom_site_type_symbol
 _atom_site_label
 _atom_site_symmetry_multiplicity
 _atom_site_fract_x
 _atom_site_fract_y
 _atom_site_fract_z
 _atom_site_occupancy
  Li  Li0  1  0.847034  0.506356  0.250000  1
  Pr  Pr1  1  0.010642  0.181585  0.400849  1
  Pr  Pr2  1  0.520538  0.326244  0.401271  1
  Pr  Pr3  1  0.492842  0.678532  0.899042  1
  Pr  Pr4  1  0.492842  0.678532  0.600958  1
  Pr  Pr5  1  0.985165  0.832406  0.601039  1
  Pr  Pr6  1  0.985165  0.832406  0.898961  1
  Pr  Pr7  1  0.520538  0.326244  0.098729  1
  Pr  Pr8  1  0.010642  0.181585  0.099151  1
  Sc  Sc9  1  0.326364  0.170337  0.627023  1
  Sc  Sc10  1  0.675689  0.816058  0.376918  1
  Sc  Sc11  1  0.166302  0.672292  0.374849  1
  Sc  Sc12  1  0.824180  0.319428  0.872751  1
  Sc  Sc13  1  0.824180  0.319428  0.627249  1
  Sc  Sc14  1  0.343436  0.996853  0.250000  1
  Sc  Sc15  1  0.326364  0.170337  0.872977  1
  Sc  Sc16  1  0.166302  0.672292  0.125151  1
  Sc  Sc17  1  0.675689  0.816058  0.123082  1
  Sc  Sc18  1  0.159830  0.495826  0.750000  1
  Si  Si19  1  0.297063  0.885374  0.750000  1
  Si  Si20  1  0.463464  0.623386  0.250000  1
  Si  Si21  1  0.019734  0.116229  0.750000  1
  Si  Si22  1  0.530086  0.365885  0.750000  1
  Si  Si23  1  0.153266  0.465638  0.541162  1
  Si  Si24  1  0.970435  0.884497  0.250000  1
  Si  Si25  1  0.710839  0.098508  0.250000  1
  Si  Si26  1  0.851026  0.541005  0.031048  1
  Si  Si27  1  0.346345  0.964467  0.038946  1
  Si  Si28  1  0.153266  0.465638  0.958838  1
  Si  Si29  1  0.646591  0.037455  0.546682  1
  Si  Si30  1  0.346345  0.964467  0.461054  1
  Si  Si31  1  0.851026  0.541005  0.468952  1
  Si  Si32  1  0.792037  0.609456  0.750000  1
  Si  Si33  1  0.224137  0.384139  0.250000  1
  Si  Si34  1  0.646591  0.037455  0.953318  1
  Tc  Tc35  1  0.644009  0.022602  0.750000  1
