# generated using pymatgen
data_Fe7ReTc5
_symmetry_space_group_name_H-M   'P 1'
_cell_length_a   8.97683365
_cell_length_b   8.97683425
_cell_length_c   8.97683346
_cell_angle_alpha   30.13870517
_cell_angle_beta   30.13870098
_cell_angle_gamma   30.13870163
_symmetry_Int_Tables_number   1
_chemical_formula_structural   Fe7ReTc5
_chemical_formula_sum   'Fe7 Re1 Tc5'
_cell_volume   161.56887759
_cell_formula_units_Z   1
loop_
 _symmetry_equiv_pos_site_id
 _symmetry_equiv_pos_as_xyz
  1  'x, y, z'
loop_
 _atom_site_type_symbol
 _atom_site_label
 _atom_site_symmetry_multiplicity
 _atom_site_fract_x
 _atom_site_fract_y
 _atom_site_fract_z
 _atom_site_occupancy
  Fe  Fe0  1  0.588407  0.091908  0.091908  1
  Fe  Fe1  1  0.091908  0.091908  0.588407  1
  Fe  Fe2  1  0.908031  0.908031  0.411944  1
  Fe  Fe3  1  0.908031  0.411944  0.908031  1
  Fe  Fe4  1  0.999965  0.999965  0.999965  1
  Fe  Fe5  1  0.091908  0.588407  0.091908  1
  Fe  Fe6  1  0.411944  0.908031  0.908031  1
  Re  Re7  1  0.347204  0.347204  0.347204  1
  Tc  Tc8  1  0.167123  0.167123  0.167123  1
  Tc  Tc9  1  0.547475  0.547475  0.547475  1
  Tc  Tc10  1  0.652588  0.652588  0.652588  1
  Tc  Tc11  1  0.452612  0.452612  0.452612  1
  Tc  Tc12  1  0.832802  0.832802  0.832802  1
