# generated using pymatgen
data_Dy3In4NiPt
_symmetry_space_group_name_H-M   'P 1'
_cell_length_a   7.87341200
_cell_length_b   7.87341167
_cell_length_c   3.77921500
_cell_angle_alpha   90.00000000
_cell_angle_beta   90.00000000
_cell_angle_gamma   119.99999299
_symmetry_Int_Tables_number   1
_chemical_formula_structural   Dy3In4NiPt
_chemical_formula_sum   'Dy3 In4 Ni1 Pt1'
_cell_volume   202.88885878
_cell_formula_units_Z   1
loop_
 _symmetry_equiv_pos_site_id
 _symmetry_equiv_pos_as_xyz
  1  'x, y, z'
loop_
 _atom_site_type_symbol
 _atom_site_label
 _atom_site_symmetry_multiplicity
 _atom_site_fract_x
 _atom_site_fract_y
 _atom_site_fract_z
 _atom_site_occupancy
  Dy  Dy0  1  0.697385  0.953529  0.500000  1
  Dy  Dy1  1  0.256142  0.302615  0.500000  1
  Dy  Dy2  1  0.046471  0.743858  0.500000  1
  In  In3  1  0.917609  0.339008  0.000000  1
  In  In4  1  0.421399  0.082391  0.000000  1
  In  In5  1  0.660992  0.578601  0.000000  1
  In  In6  1  0.333333  0.666667  0.000000  1
  Ni  Ni7  1  0.666667  0.333333  0.500000  1
  Pt  Pt8  1  0.000000  0.000000  0.000000  1
