# generated using pymatgen
data_Ta3Ti9Al8Pt2(RhC2)2
_symmetry_space_group_name_H-M   'P 1'
_cell_length_a   8.24537454
_cell_length_b   8.22380833
_cell_length_c   8.23716100
_cell_angle_alpha   60.11966909
_cell_angle_beta   59.85986321
_cell_angle_gamma   60.01620171
_symmetry_Int_Tables_number   1
_chemical_formula_structural   Ta3Ti9Al8Pt2(RhC2)2
_chemical_formula_sum   'Ta3 Ti9 Al8 Pt2 Rh2 C4'
_cell_volume   394.93661358
_cell_formula_units_Z   1
loop_
 _symmetry_equiv_pos_site_id
 _symmetry_equiv_pos_as_xyz
  1  'x, y, z'
loop_
 _atom_site_type_symbol
 _atom_site_label
 _atom_site_symmetry_multiplicity
 _atom_site_fract_x
 _atom_site_fract_y
 _atom_site_fract_z
 _atom_site_occupancy
  Ta  Ta0  1  0.935794  0.935177  0.563843  1
  Ta  Ta1  1  0.685912  0.314786  0.312116  1
  Ta  Ta2  1  0.316355  0.684345  0.685471  1
  Ti  Ti3  1  0.684834  0.685858  0.314971  1
  Ti  Ti4  1  0.684677  0.315616  0.686705  1
  Ti  Ti5  1  0.315400  0.685640  0.313417  1
  Ti  Ti6  1  0.565562  0.934736  0.562954  1
  Ti  Ti7  1  0.564308  0.935884  0.936868  1
  Ti  Ti8  1  0.934808  0.565679  0.563654  1
  Ti  Ti9  1  0.935343  0.564403  0.936455  1
  Ti  Ti10  1  0.313825  0.314273  0.686496  1
  Ti  Ti11  1  0.564442  0.563669  0.935693  1
  Al  Al12  1  0.914458  0.255796  0.916547  1
  Al  Al13  1  0.337912  0.328125  0.995816  1
  Al  Al14  1  0.994498  0.335767  0.334689  1
  Al  Al15  1  0.334787  0.334999  0.335055  1
  Al  Al16  1  0.256741  0.917388  0.916226  1
  Al  Al17  1  0.909243  0.916301  0.919773  1
  Al  Al18  1  0.913058  0.916116  0.253698  1
  Al  Al19  1  0.338684  0.995128  0.328592  1
  Pt  Pt20  1  0.126595  0.624848  0.122775  1
  Pt  Pt21  1  0.125228  0.123244  0.625084  1
  Rh  Rh22  1  0.624782  0.126893  0.126134  1
  Rh  Rh23  1  0.122291  0.125120  0.127499  1
  C  C24  1  0.621345  0.125918  0.627920  1
  C  C25  1  0.624685  0.628338  0.122751  1
  C  C26  1  0.125883  0.621235  0.624628  1
  C  C27  1  0.628548  0.624715  0.624169  1
