# generated using pymatgen
data_PrDyBeSi4Ni
_symmetry_space_group_name_H-M   'P 1'
_cell_length_a   8.49573853
_cell_length_b   8.49574013
_cell_length_c   3.98253500
_cell_angle_alpha   90.00000000
_cell_angle_beta   90.00000000
_cell_angle_gamma   152.20809612
_symmetry_Int_Tables_number   1
_chemical_formula_structural   PrDyBeSi4Ni
_chemical_formula_sum   'Pr1 Dy1 Be1 Si4 Ni1'
_cell_volume   134.02679929
_cell_formula_units_Z   1
loop_
 _symmetry_equiv_pos_site_id
 _symmetry_equiv_pos_as_xyz
  1  'x, y, z'
loop_
 _atom_site_type_symbol
 _atom_site_label
 _atom_site_symmetry_multiplicity
 _atom_site_fract_x
 _atom_site_fract_y
 _atom_site_fract_z
 _atom_site_occupancy
  Pr  Pr0  1  0.107672  0.892328  0.250000  1
  Dy  Dy1  1  0.897203  0.102797  0.750000  1
  Be  Be2  1  0.674687  0.325313  0.750000  1
  Si  Si3  1  0.753450  0.246550  0.250000  1
  Si  Si4  1  0.251792  0.748208  0.750000  1
  Si  Si5  1  0.535926  0.464074  0.750000  1
  Si  Si6  1  0.457914  0.542086  0.250000  1
  Ni  Ni7  1  0.321355  0.678645  0.250000  1
