# generated using pymatgen
data_Sm2Zr3Si7Pt9
_symmetry_space_group_name_H-M   'P 1'
_cell_length_a   10.06479700
_cell_length_b   10.06479735
_cell_length_c   4.05350300
_cell_angle_alpha   90.00000000
_cell_angle_beta   90.00000000
_cell_angle_gamma   120.00000214
_symmetry_Int_Tables_number   1
_chemical_formula_structural   Sm2Zr3Si7Pt9
_chemical_formula_sum   'Sm2 Zr3 Si7 Pt9'
_cell_volume   355.60771616
_cell_formula_units_Z   1
loop_
 _symmetry_equiv_pos_site_id
 _symmetry_equiv_pos_as_xyz
  1  'x, y, z'
loop_
 _atom_site_type_symbol
 _atom_site_label
 _atom_site_symmetry_multiplicity
 _atom_site_fract_x
 _atom_site_fract_y
 _atom_site_fract_z
 _atom_site_occupancy
  Sm  Sm0  1  0.000000  0.000000  0.000000  1
  Sm  Sm1  1  0.333333  0.666667  0.500000  1
  Zr  Zr2  1  0.892093  0.455988  0.500000  1
  Zr  Zr3  1  0.563894  0.107907  0.500000  1
  Zr  Zr4  1  0.544012  0.436106  0.500000  1
  Si  Si5  1  0.249050  0.198996  0.500000  1
  Si  Si6  1  0.801004  0.050056  0.500000  1
  Si  Si7  1  0.949944  0.750950  0.500000  1
  Si  Si8  1  0.558835  0.647012  0.000000  1
  Si  Si9  1  0.352988  0.911823  0.000000  1
  Si  Si10  1  0.088177  0.441165  0.000000  1
  Si  Si11  1  0.666667  0.333333  0.000000  1
  Pt  Pt12  1  0.219444  0.937225  0.500000  1
  Pt  Pt13  1  0.062775  0.282218  0.500000  1
  Pt  Pt14  1  0.717782  0.780556  0.500000  1
  Pt  Pt15  1  0.312314  0.411560  0.000000  1
  Pt  Pt16  1  0.588440  0.900754  0.000000  1
  Pt  Pt17  1  0.099246  0.687686  0.000000  1
  Pt  Pt18  1  0.384438  0.172622  0.000000  1
  Pt  Pt19  1  0.827378  0.211817  0.000000  1
  Pt  Pt20  1  0.788183  0.615562  0.000000  1
