# generated using pymatgen
data_Ho2CrCo11As7
_symmetry_space_group_name_H-M   'P 1'
_cell_length_a   3.73538800
_cell_length_b   9.34639707
_cell_length_c   9.36982204
_cell_angle_alpha   119.82833492
_cell_angle_beta   90.00000000
_cell_angle_gamma   90.00000000
_symmetry_Int_Tables_number   1
_chemical_formula_structural   Ho2CrCo11As7
_chemical_formula_sum   'Ho2 Cr1 Co11 As7'
_cell_volume   283.78574241
_cell_formula_units_Z   1
loop_
 _symmetry_equiv_pos_site_id
 _symmetry_equiv_pos_as_xyz
  1  'x, y, z'
loop_
 _atom_site_type_symbol
 _atom_site_label
 _atom_site_symmetry_multiplicity
 _atom_site_fract_x
 _atom_site_fract_y
 _atom_site_fract_z
 _atom_site_occupancy
  Ho  Ho0  1  0.000000  0.667994  0.337189  1
  Ho  Ho1  1  0.500000  0.331710  0.665862  1
  Cr  Cr2  1  0.500000  0.781000  0.897864  1
  Co  Co3  1  0.000000  0.567750  0.941065  1
  Co  Co4  1  0.000000  0.373167  0.430628  1
  Co  Co5  1  0.000000  0.058707  0.625458  1
  Co  Co6  1  0.500000  0.122761  0.222714  1
  Co  Co7  1  0.500000  0.098443  0.875296  1
  Co  Co8  1  0.000000  0.878806  0.157446  1
  Co  Co9  1  0.000000  0.278924  0.122120  1
  Co  Co10  1  0.000000  0.845088  0.724367  1
  Co  Co11  1  0.500000  0.948532  0.381702  1
  Co  Co12  1  0.500000  0.431420  0.050292  1
  Co  Co13  1  0.500000  0.618320  0.566500  1
  As  As14  1  0.000000  0.003773  0.002699  1
  As  As15  1  0.500000  0.706099  0.117688  1
  As  As16  1  0.500000  0.404900  0.290941  1
  As  As17  1  0.500000  0.886875  0.594861  1
  As  As18  1  0.000000  0.586919  0.702576  1
  As  As19  1  0.000000  0.115278  0.409024  1
  As  As20  1  0.000000  0.293530  0.883709  1
