# generated using pymatgen
data_Nd2TmCd(Ir2O7)2
_symmetry_space_group_name_H-M   'P 1'
_cell_length_a   7.35645667
_cell_length_b   7.25790683
_cell_length_c   7.40782600
_cell_angle_alpha   59.31432057
_cell_angle_beta   59.76873778
_cell_angle_gamma   59.23612341
_symmetry_Int_Tables_number   1
_chemical_formula_structural   Nd2TmCd(Ir2O7)2
_chemical_formula_sum   'Nd2 Tm1 Cd1 Ir4 O14'
_cell_volume   276.09725188
_cell_formula_units_Z   1
loop_
 _symmetry_equiv_pos_site_id
 _symmetry_equiv_pos_as_xyz
  1  'x, y, z'
loop_
 _atom_site_type_symbol
 _atom_site_label
 _atom_site_symmetry_multiplicity
 _atom_site_fract_x
 _atom_site_fract_y
 _atom_site_fract_z
 _atom_site_occupancy
  Nd  Nd0  1  0.125000  0.125000  0.625000  1
  Nd  Nd1  1  0.125000  0.125000  0.125000  1
  Tm  Tm2  1  0.625000  0.125000  0.125000  1
  Cd  Cd3  1  0.125000  0.625000  0.125000  1
  Ir  Ir4  1  0.125000  0.625000  0.625000  1
  Ir  Ir5  1  0.625000  0.125000  0.625000  1
  Ir  Ir6  1  0.625000  0.625000  0.125000  1
  Ir  Ir7  1  0.625000  0.625000  0.625000  1
  O  O8  1  0.683024  0.718730  0.299123  1
  O  O9  1  0.291381  0.287585  0.710516  1
  O  O10  1  0.698463  0.288807  0.720488  1
  O  O11  1  0.298227  0.700491  0.296734  1
  O  O12  1  0.298227  0.700491  0.704548  1
  O  O13  1  0.698463  0.288807  0.292241  1
  O  O14  1  0.566976  0.531270  0.950877  1
  O  O15  1  0.958619  0.962415  0.539484  1
  O  O16  1  0.551537  0.961193  0.529512  1
  O  O17  1  0.951773  0.549509  0.953266  1
  O  O18  1  0.951773  0.549509  0.545452  1
  O  O19  1  0.551537  0.961193  0.957759  1
  O  O20  1  0.262653  0.253232  0.242058  1
  O  O21  1  0.987347  0.996768  0.007942  1
