# generated using pymatgen
data_SmY3(Ga3Pt4)2
_symmetry_space_group_name_H-M   'P 1'
_cell_length_a   8.20206091
_cell_length_b   8.20206078
_cell_length_c   7.64786800
_cell_angle_alpha   90.15472279
_cell_angle_beta   89.84527721
_cell_angle_gamma   140.19517317
_symmetry_Int_Tables_number   1
_chemical_formula_structural   SmY3(Ga3Pt4)2
_chemical_formula_sum   'Sm1 Y3 Ga6 Pt8'
_cell_volume   329.36912256
_cell_formula_units_Z   1
loop_
 _symmetry_equiv_pos_site_id
 _symmetry_equiv_pos_as_xyz
  1  'x, y, z'
loop_
 _atom_site_type_symbol
 _atom_site_label
 _atom_site_symmetry_multiplicity
 _atom_site_fract_x
 _atom_site_fract_y
 _atom_site_fract_z
 _atom_site_occupancy
  Sm  Sm0  1  0.107358  0.892642  0.591759  1
  Y  Y1  1  0.607750  0.392250  0.907660  1
  Y  Y2  1  0.392615  0.607385  0.093808  1
  Y  Y3  1  0.891454  0.108546  0.408003  1
  Ga  Ga4  1  0.497464  0.502536  0.496547  1
  Ga  Ga5  1  0.999150  0.000850  0.999614  1
  Ga  Ga6  1  0.521742  0.977340  0.751321  1
  Ga  Ga7  1  0.978546  0.521206  0.250281  1
  Ga  Ga8  1  0.478794  0.021454  0.250281  1
  Ga  Ga9  1  0.022660  0.478258  0.751321  1
  Pt  Pt10  1  0.690127  0.808745  0.750509  1
  Pt  Pt11  1  0.808683  0.690720  0.247660  1
  Pt  Pt12  1  0.309280  0.191317  0.247660  1
  Pt  Pt13  1  0.191255  0.309873  0.750509  1
  Pt  Pt14  1  0.684401  0.315599  0.527274  1
  Pt  Pt15  1  0.317837  0.682163  0.473342  1
  Pt  Pt16  1  0.817892  0.182108  0.027399  1
  Pt  Pt17  1  0.182993  0.817007  0.975054  1
