# generated using pymatgen
data_Zr18CoCuRe8
_symmetry_space_group_name_H-M   'P 1'
_cell_length_a   8.68104500
_cell_length_b   8.68104432
_cell_length_c   8.63022600
_cell_angle_alpha   90.00000000
_cell_angle_beta   90.00000000
_cell_angle_gamma   119.99999880
_symmetry_Int_Tables_number   1
_chemical_formula_structural   Zr18CoCuRe8
_chemical_formula_sum   'Zr18 Co1 Cu1 Re8'
_cell_volume   563.24427544
_cell_formula_units_Z   1
loop_
 _symmetry_equiv_pos_site_id
 _symmetry_equiv_pos_as_xyz
  1  'x, y, z'
loop_
 _atom_site_type_symbol
 _atom_site_label
 _atom_site_symmetry_multiplicity
 _atom_site_fract_x
 _atom_site_fract_y
 _atom_site_fract_z
 _atom_site_occupancy
  Zr  Zr0  1  0.194577  0.805423  0.446004  1
  Zr  Zr1  1  0.194577  0.389152  0.446004  1
  Zr  Zr2  1  0.610848  0.805423  0.446004  1
  Zr  Zr3  1  0.800517  0.199483  0.558346  1
  Zr  Zr4  1  0.800517  0.601035  0.558346  1
  Zr  Zr5  1  0.398965  0.199483  0.558346  1
  Zr  Zr6  1  0.800517  0.199483  0.941654  1
  Zr  Zr7  1  0.800517  0.601035  0.941654  1
  Zr  Zr8  1  0.398965  0.199483  0.941654  1
  Zr  Zr9  1  0.194577  0.805423  0.053996  1
  Zr  Zr10  1  0.194577  0.389152  0.053996  1
  Zr  Zr11  1  0.610848  0.805423  0.053996  1
  Zr  Zr12  1  0.542355  0.457645  0.250000  1
  Zr  Zr13  1  0.542355  0.084708  0.250000  1
  Zr  Zr14  1  0.915292  0.457645  0.250000  1
  Zr  Zr15  1  0.457931  0.542069  0.750000  1
  Zr  Zr16  1  0.457931  0.915862  0.750000  1
  Zr  Zr17  1  0.084138  0.542069  0.750000  1
  Co  Co18  1  0.666667  0.333333  0.750000  1
  Cu  Cu19  1  0.333333  0.666667  0.250000  1
  Re  Re20  1  0.891606  0.108394  0.250000  1
  Re  Re21  1  0.891606  0.783212  0.250000  1
  Re  Re22  1  0.216788  0.108394  0.250000  1
  Re  Re23  1  0.107924  0.892076  0.750000  1
  Re  Re24  1  0.107924  0.215847  0.750000  1
  Re  Re25  1  0.784153  0.892076  0.750000  1
  Re  Re26  1  0.000000  0.000000  0.500464  1
  Re  Re27  1  0.000000  0.000000  0.999536  1
