# generated using pymatgen
data_Ce2HoPa5O16
_symmetry_space_group_name_H-M   'P 1'
_cell_length_a   7.72485935
_cell_length_b   7.73187328
_cell_length_c   5.45254351
_cell_angle_alpha   90.02230896
_cell_angle_beta   89.99501694
_cell_angle_gamma   89.76998872
_symmetry_Int_Tables_number   1
_chemical_formula_structural   Ce2HoPa5O16
_chemical_formula_sum   'Ce2 Ho1 Pa5 O16'
_cell_volume   325.66487077
_cell_formula_units_Z   1
loop_
 _symmetry_equiv_pos_site_id
 _symmetry_equiv_pos_as_xyz
  1  'x, y, z'
loop_
 _atom_site_type_symbol
 _atom_site_label
 _atom_site_symmetry_multiplicity
 _atom_site_fract_x
 _atom_site_fract_y
 _atom_site_fract_z
 _atom_site_occupancy
  Ce  Ce0  1  0.623845  0.376135  0.749983  1
  Ce  Ce1  1  0.373640  0.626335  0.250002  1
  Ho  Ho2  1  0.126238  0.873803  0.749990  1
  Pa  Pa3  1  0.624230  0.874627  0.750013  1
  Pa  Pa4  1  0.372740  0.122590  0.249873  1
  Pa  Pa5  1  0.125371  0.375750  0.749926  1
  Pa  Pa6  1  0.877411  0.627236  0.250192  1
  Pa  Pa7  1  0.876793  0.123217  0.250025  1
  O  O8  1  0.366416  0.365003  0.999445  1
  O  O9  1  0.634939  0.633778  0.999993  1
  O  O10  1  0.635010  0.633777  0.500210  1
  O  O11  1  0.366330  0.364880  0.500312  1
  O  O12  1  0.377449  0.884223  0.996385  1
  O  O13  1  0.627185  0.118260  0.006814  1
  O  O14  1  0.627090  0.118482  0.493106  1
  O  O15  1  0.377560  0.884039  0.503614  1
  O  O16  1  0.881363  0.373015  0.006617  1
  O  O17  1  0.115964  0.622227  0.996734  1
  O  O18  1  0.115968  0.622448  0.503214  1
  O  O19  1  0.881582  0.372866  0.493498  1
  O  O20  1  0.874449  0.877791  0.004226  1
  O  O21  1  0.122028  0.125928  0.003008  1
  O  O22  1  0.122171  0.125726  0.495489  1
  O  O23  1  0.874226  0.877865  0.497332  1
