# generated using pymatgen
data_Tb3HoGa4PdRh3
_symmetry_space_group_name_H-M   'P 1'
_cell_length_a   4.36671800
_cell_length_b   6.86164652
_cell_length_c   7.79911100
_cell_angle_alpha   90.21546779
_cell_angle_beta   90.00000000
_cell_angle_gamma   90.00000000
_symmetry_Int_Tables_number   1
_chemical_formula_structural   Tb3HoGa4PdRh3
_chemical_formula_sum   'Tb3 Ho1 Ga4 Pd1 Rh3'
_cell_volume   233.68213846
_cell_formula_units_Z   1
loop_
 _symmetry_equiv_pos_site_id
 _symmetry_equiv_pos_as_xyz
  1  'x, y, z'
loop_
 _atom_site_type_symbol
 _atom_site_label
 _atom_site_symmetry_multiplicity
 _atom_site_fract_x
 _atom_site_fract_y
 _atom_site_fract_z
 _atom_site_occupancy
  Tb  Tb0  1  0.250000  0.032271  0.811283  1
  Tb  Tb1  1  0.250000  0.524135  0.683963  1
  Tb  Tb2  1  0.750000  0.977238  0.193923  1
  Ho  Ho3  1  0.750000  0.474696  0.310874  1
  Ga  Ga4  1  0.250000  0.155365  0.429982  1
  Ga  Ga5  1  0.250000  0.652290  0.071407  1
  Ga  Ga6  1  0.750000  0.846897  0.567555  1
  Ga  Ga7  1  0.750000  0.340615  0.931144  1
  Pd  Pd8  1  0.750000  0.727690  0.890318  1
  Rh  Rh9  1  0.250000  0.766772  0.390684  1
  Rh  Rh10  1  0.250000  0.269308  0.110208  1
  Rh  Rh11  1  0.750000  0.232724  0.608661  1
