# generated using pymatgen
data_Sm2EuAgO6
_symmetry_space_group_name_H-M   'P 1'
_cell_length_a   3.71343619
_cell_length_b   5.66100698
_cell_length_c   7.17050900
_cell_angle_alpha   90.74570312
_cell_angle_beta   102.86927497
_cell_angle_gamma   90.96884805
_symmetry_Int_Tables_number   1
_chemical_formula_structural   Sm2EuAgO6
_chemical_formula_sum   'Sm2 Eu1 Ag1 O6'
_cell_volume   146.90774325
_cell_formula_units_Z   1
loop_
 _symmetry_equiv_pos_site_id
 _symmetry_equiv_pos_as_xyz
  1  'x, y, z'
loop_
 _atom_site_type_symbol
 _atom_site_label
 _atom_site_symmetry_multiplicity
 _atom_site_fract_x
 _atom_site_fract_y
 _atom_site_fract_z
 _atom_site_occupancy
  Sm  Sm0  1  0.613163  0.530193  0.766924  1
  Sm  Sm1  1  0.386837  0.469807  0.233076  1
  Eu  Eu2  1  0.000000  0.000000  0.500000  1
  Ag  Ag3  1  0.000000  0.000000  0.000000  1
  O  O4  1  0.163240  0.308350  0.890077  1
  O  O5  1  0.873453  0.206159  0.209847  1
  O  O6  1  0.126547  0.793841  0.790153  1
  O  O7  1  0.483106  0.744227  0.477994  1
  O  O8  1  0.836760  0.691650  0.109923  1
  O  O9  1  0.516894  0.255773  0.522006  1
