# generated using pymatgen
data_TbHo3ZrIr3
_symmetry_space_group_name_H-M   'P 1'
_cell_length_a   10.84867200
_cell_length_b   10.82352600
_cell_length_c   6.26090900
_cell_angle_alpha   90.00000000
_cell_angle_beta   90.00000000
_cell_angle_gamma   90.00000000
_symmetry_Int_Tables_number   1
_chemical_formula_structural   TbHo3ZrIr3
_chemical_formula_sum   'Tb4 Ho12 Zr4 Ir12'
_cell_volume   735.16146603
_cell_formula_units_Z   4
loop_
 _symmetry_equiv_pos_site_id
 _symmetry_equiv_pos_as_xyz
  1  'x, y, z'
loop_
 _atom_site_type_symbol
 _atom_site_label
 _atom_site_symmetry_multiplicity
 _atom_site_fract_x
 _atom_site_fract_y
 _atom_site_fract_z
 _atom_site_occupancy
  Tb  Tb0  1  0.289625  0.087841  0.372353  1
  Tb  Tb1  1  0.289625  0.912159  0.872353  1
  Tb  Tb2  1  0.710375  0.087841  0.872353  1
  Tb  Tb3  1  0.710375  0.912159  0.372353  1
  Ho  Ho4  1  0.586688  0.789683  0.873312  1
  Ho  Ho5  1  0.586688  0.210317  0.373312  1
  Ho  Ho6  1  0.413312  0.789683  0.373312  1
  Ho  Ho7  1  0.413312  0.210317  0.873312  1
  Ho  Ho8  1  0.209731  0.413712  0.626358  1
  Ho  Ho9  1  0.209731  0.586288  0.126358  1
  Ho  Ho10  1  0.790269  0.413712  0.126358  1
  Ho  Ho11  1  0.790269  0.586288  0.626358  1
  Ho  Ho12  1  0.914178  0.709227  0.126043  1
  Ho  Ho13  1  0.914178  0.290773  0.626043  1
  Ho  Ho14  1  0.085822  0.709227  0.626043  1
  Ho  Ho15  1  0.085822  0.290773  0.126043  1
  Zr  Zr16  1  0.000000  0.000000  0.501459  1
  Zr  Zr17  1  0.000000  0.000000  0.001459  1
  Zr  Zr18  1  0.500000  0.500000  0.000774  1
  Zr  Zr19  1  0.500000  0.500000  0.500774  1
  Ir  Ir20  1  0.855982  0.146384  0.251022  1
  Ir  Ir21  1  0.855982  0.853616  0.751022  1
  Ir  Ir22  1  0.144018  0.146384  0.751022  1
  Ir  Ir23  1  0.144018  0.853616  0.251022  1
  Ir  Ir24  1  0.645132  0.355576  0.749742  1
  Ir  Ir25  1  0.645132  0.644424  0.249742  1
  Ir  Ir26  1  0.354868  0.355576  0.249742  1
  Ir  Ir27  1  0.354868  0.644424  0.749742  1
  Ir  Ir28  1  0.500000  0.000000  0.118361  1
  Ir  Ir29  1  0.500000  0.000000  0.618361  1
  Ir  Ir30  1  0.000000  0.500000  0.881749  1
  Ir  Ir31  1  0.000000  0.500000  0.381749  1
