# generated using pymatgen
data_Cr2Te4Au
_symmetry_space_group_name_H-M   'P 1'
_cell_length_a   8.11007167
_cell_length_b   8.11007273
_cell_length_c   8.11007200
_cell_angle_alpha   60.00000299
_cell_angle_beta   59.99999866
_cell_angle_gamma   60.00000343
_symmetry_Int_Tables_number   1
_chemical_formula_structural   Cr2Te4Au
_chemical_formula_sum   'Cr4 Te8 Au2'
_cell_volume   377.18913122
_cell_formula_units_Z   2
loop_
 _symmetry_equiv_pos_site_id
 _symmetry_equiv_pos_as_xyz
  1  'x, y, z'
loop_
 _atom_site_type_symbol
 _atom_site_label
 _atom_site_symmetry_multiplicity
 _atom_site_fract_x
 _atom_site_fract_y
 _atom_site_fract_z
 _atom_site_occupancy
  Cr  Cr0  1  0.125000  0.125000  0.125000  1
  Cr  Cr1  1  0.625000  0.125000  0.125000  1
  Cr  Cr2  1  0.125000  0.125000  0.625000  1
  Cr  Cr3  1  0.125000  0.625000  0.125000  1
  Te  Te4  1  0.337444  0.887519  0.887519  1
  Te  Te5  1  0.362481  0.362481  0.362481  1
  Te  Te6  1  0.887519  0.887519  0.337444  1
  Te  Te7  1  0.887519  0.337444  0.887519  1
  Te  Te8  1  0.362481  0.362481  0.912556  1
  Te  Te9  1  0.362481  0.912556  0.362481  1
  Te  Te10  1  0.912556  0.362481  0.362481  1
  Te  Te11  1  0.887519  0.887519  0.887519  1
  Au  Au12  1  0.750000  0.750000  0.750000  1
  Au  Au13  1  0.500000  0.500000  0.500000  1
