# generated using pymatgen
data_ErTmZr2(SiMo)4
_symmetry_space_group_name_H-M   'P 1'
_cell_length_a   3.58914900
_cell_length_b   7.12444907
_cell_length_c   8.35946408
_cell_angle_alpha   90.01566031
_cell_angle_beta   90.00000000
_cell_angle_gamma   90.00000000
_symmetry_Int_Tables_number   1
_chemical_formula_structural   ErTmZr2(SiMo)4
_chemical_formula_sum   'Er1 Tm1 Zr2 Si4 Mo4'
_cell_volume   213.75741738
_cell_formula_units_Z   1
loop_
 _symmetry_equiv_pos_site_id
 _symmetry_equiv_pos_as_xyz
  1  'x, y, z'
loop_
 _atom_site_type_symbol
 _atom_site_label
 _atom_site_symmetry_multiplicity
 _atom_site_fract_x
 _atom_site_fract_y
 _atom_site_fract_z
 _atom_site_occupancy
  Er  Er0  1  0.250000  0.042680  0.335644  1
  Tm  Tm1  1  0.250000  0.542754  0.164338  1
  Zr  Zr2  1  0.750000  0.956875  0.670160  1
  Zr  Zr3  1  0.750000  0.456910  0.830072  1
  Si  Si4  1  0.250000  0.258864  0.637841  1
  Si  Si5  1  0.250000  0.758796  0.862332  1
  Si  Si6  1  0.750000  0.737313  0.367755  1
  Si  Si7  1  0.750000  0.238005  0.132007  1
  Mo  Mo8  1  0.250000  0.129089  0.936072  1
  Mo  Mo9  1  0.250000  0.628870  0.563848  1
  Mo  Mo10  1  0.750000  0.874645  0.054784  1
  Mo  Mo11  1  0.750000  0.375199  0.445147  1
