# generated using pymatgen
data_LaNd6Dy9(CdPt)4
_symmetry_space_group_name_H-M   'P 1'
_cell_length_a   9.82281307
_cell_length_b   9.82281333
_cell_length_c   9.82281289
_cell_angle_alpha   60.23075833
_cell_angle_beta   60.23075642
_cell_angle_gamma   60.23075351
_symmetry_Int_Tables_number   1
_chemical_formula_structural   LaNd6Dy9(CdPt)4
_chemical_formula_sum   'La1 Nd6 Dy9 Cd4 Pt4'
_cell_volume   673.68295420
_cell_formula_units_Z   1
loop_
 _symmetry_equiv_pos_site_id
 _symmetry_equiv_pos_as_xyz
  1  'x, y, z'
loop_
 _atom_site_type_symbol
 _atom_site_label
 _atom_site_symmetry_multiplicity
 _atom_site_fract_x
 _atom_site_fract_y
 _atom_site_fract_z
 _atom_site_occupancy
  La  La0  1  0.349933  0.349933  0.349933  1
  Nd  Nd1  1  0.938946  0.562441  0.562441  1
  Nd  Nd2  1  0.561395  0.937660  0.937660  1
  Nd  Nd3  1  0.562441  0.938946  0.562441  1
  Nd  Nd4  1  0.937660  0.561395  0.937660  1
  Nd  Nd5  1  0.562441  0.562441  0.938946  1
  Nd  Nd6  1  0.937660  0.937660  0.561395  1
  Dy  Dy7  1  0.350974  0.350974  0.946244  1
  Dy  Dy8  1  0.350974  0.946244  0.350974  1
  Dy  Dy9  1  0.946244  0.350974  0.350974  1
  Dy  Dy10  1  0.814458  0.187576  0.187576  1
  Dy  Dy11  1  0.188875  0.811380  0.811380  1
  Dy  Dy12  1  0.187576  0.814458  0.187576  1
  Dy  Dy13  1  0.811380  0.188875  0.811380  1
  Dy  Dy14  1  0.187576  0.187576  0.814458  1
  Dy  Dy15  1  0.811380  0.811380  0.188875  1
  Cd  Cd16  1  0.580032  0.580032  0.580032  1
  Cd  Cd17  1  0.582362  0.582362  0.259415  1
  Cd  Cd18  1  0.582362  0.259415  0.582362  1
  Cd  Cd19  1  0.259415  0.582362  0.582362  1
  Pt  Pt20  1  0.143246  0.143246  0.143246  1
  Pt  Pt21  1  0.139143  0.139143  0.574383  1
  Pt  Pt22  1  0.139143  0.574383  0.139143  1
  Pt  Pt23  1  0.574383  0.139143  0.139143  1
