# generated using pymatgen
data_Er7Sn22BiRh6
_symmetry_space_group_name_H-M   'P 1'
_cell_length_a   9.82491000
_cell_length_b   9.82490944
_cell_length_c   10.15697800
_cell_angle_alpha   90.00000000
_cell_angle_beta   90.00000000
_cell_angle_gamma   120.00000189
_symmetry_Int_Tables_number   1
_chemical_formula_structural   Er7Sn22BiRh6
_chemical_formula_sum   'Er7 Sn22 Bi1 Rh6'
_cell_volume   849.08715675
_cell_formula_units_Z   1
loop_
 _symmetry_equiv_pos_site_id
 _symmetry_equiv_pos_as_xyz
  1  'x, y, z'
loop_
 _atom_site_type_symbol
 _atom_site_label
 _atom_site_symmetry_multiplicity
 _atom_site_fract_x
 _atom_site_fract_y
 _atom_site_fract_z
 _atom_site_occupancy
  Er  Er0  1  0.479932  0.520068  0.307539  1
  Er  Er1  1  0.520068  0.479932  0.692461  1
  Er  Er2  1  0.479932  0.959867  0.307539  1
  Er  Er3  1  0.520068  0.040133  0.692461  1
  Er  Er4  1  0.040133  0.520068  0.307539  1
  Er  Er5  1  0.959867  0.479932  0.692461  1
  Er  Er6  1  0.000000  0.000000  0.000000  1
  Sn  Sn7  1  0.122493  0.877507  0.276608  1
  Sn  Sn8  1  0.877507  0.122493  0.723392  1
  Sn  Sn9  1  0.122493  0.244985  0.276608  1
  Sn  Sn10  1  0.877507  0.755015  0.723392  1
  Sn  Sn11  1  0.755015  0.877507  0.276608  1
  Sn  Sn12  1  0.244985  0.122493  0.723392  1
  Sn  Sn13  1  0.776719  0.223281  0.456308  1
  Sn  Sn14  1  0.223281  0.776719  0.543692  1
  Sn  Sn15  1  0.776719  0.553437  0.456308  1
  Sn  Sn16  1  0.223281  0.446563  0.543692  1
  Sn  Sn17  1  0.446563  0.223281  0.456308  1
  Sn  Sn18  1  0.553437  0.776719  0.543692  1
  Sn  Sn19  1  0.349647  0.000000  0.000000  1
  Sn  Sn20  1  0.650353  0.000000  0.000000  1
  Sn  Sn21  1  0.000000  0.349647  0.000000  1
  Sn  Sn22  1  0.000000  0.650353  0.000000  1
  Sn  Sn23  1  0.650353  0.650353  0.000000  1
  Sn  Sn24  1  0.349647  0.349647  0.000000  1
  Sn  Sn25  1  0.333333  0.666667  0.124301  1
  Sn  Sn26  1  0.666667  0.333333  0.875699  1
  Sn  Sn27  1  0.333333  0.666667  0.822677  1
  Sn  Sn28  1  0.666667  0.333333  0.177323  1
  Bi  Bi29  1  0.000000  0.000000  0.500000  1
  Rh  Rh30  1  0.830929  0.169071  0.200603  1
  Rh  Rh31  1  0.169071  0.830929  0.799397  1
  Rh  Rh32  1  0.830929  0.661861  0.200603  1
  Rh  Rh33  1  0.169071  0.338139  0.799397  1
  Rh  Rh34  1  0.338139  0.169071  0.200603  1
  Rh  Rh35  1  0.661861  0.830929  0.799397  1
