# generated using pymatgen
data_Dy4Lu12MgNi4Hg3
_symmetry_space_group_name_H-M   'P 1'
_cell_length_a   9.39444337
_cell_length_b   9.37020075
_cell_length_c   9.37020100
_cell_angle_alpha   60.00000266
_cell_angle_beta   60.08532916
_cell_angle_gamma   60.08532985
_symmetry_Int_Tables_number   1
_chemical_formula_structural   Dy4Lu12MgNi4Hg3
_chemical_formula_sum   'Dy4 Lu12 Mg1 Ni4 Hg3'
_cell_volume   583.99993333
_cell_formula_units_Z   1
loop_
 _symmetry_equiv_pos_site_id
 _symmetry_equiv_pos_as_xyz
  1  'x, y, z'
loop_
 _atom_site_type_symbol
 _atom_site_label
 _atom_site_symmetry_multiplicity
 _atom_site_fract_x
 _atom_site_fract_y
 _atom_site_fract_z
 _atom_site_occupancy
  Dy  Dy0  1  0.599205  0.598163  0.598163  1
  Dy  Dy1  1  0.599205  0.598163  0.204468  1
  Dy  Dy2  1  0.599205  0.204468  0.598163  1
  Dy  Dy3  1  0.194458  0.601847  0.601847  1
  Lu  Lu4  1  0.059940  0.439213  0.439213  1
  Lu  Lu5  1  0.434870  0.063849  0.063849  1
  Lu  Lu6  1  0.434870  0.063849  0.437432  1
  Lu  Lu7  1  0.059940  0.439213  0.061634  1
  Lu  Lu8  1  0.434870  0.437432  0.063849  1
  Lu  Lu9  1  0.059940  0.061634  0.439213  1
  Lu  Lu10  1  0.185091  0.814520  0.814520  1
  Lu  Lu11  1  0.814240  0.185570  0.185570  1
  Lu  Lu12  1  0.814240  0.185570  0.814621  1
  Lu  Lu13  1  0.185091  0.814520  0.185869  1
  Lu  Lu14  1  0.814240  0.814621  0.185570  1
  Lu  Lu15  1  0.185091  0.185869  0.814520  1
  Mg  Mg16  1  0.533737  0.822088  0.822088  1
  Ni  Ni17  1  0.387264  0.392973  0.392973  1
  Ni  Ni18  1  0.387264  0.392973  0.826790  1
  Ni  Ni19  1  0.387264  0.826790  0.392973  1
  Ni  Ni20  1  0.826704  0.391099  0.391099  1
  Hg  Hg21  1  0.834424  0.837467  0.837467  1
  Hg  Hg22  1  0.834424  0.837467  0.490641  1
  Hg  Hg23  1  0.834424  0.490641  0.837467  1
