# generated using pymatgen
data_Yb10Cd2CuPdPt2
_symmetry_space_group_name_H-M   'P 1'
_cell_length_a   9.03624438
_cell_length_b   9.03624477
_cell_length_c   9.05285376
_cell_angle_alpha   128.92846513
_cell_angle_beta   128.93795613
_cell_angle_gamma   74.98105654
_symmetry_Int_Tables_number   1
_chemical_formula_structural   Yb10Cd2CuPdPt2
_chemical_formula_sum   'Yb10 Cd2 Cu1 Pd1 Pt2'
_cell_volume   435.88220376
_cell_formula_units_Z   1
loop_
 _symmetry_equiv_pos_site_id
 _symmetry_equiv_pos_as_xyz
  1  'x, y, z'
loop_
 _atom_site_type_symbol
 _atom_site_label
 _atom_site_symmetry_multiplicity
 _atom_site_fract_x
 _atom_site_fract_y
 _atom_site_fract_z
 _atom_site_occupancy
  Yb  Yb0  1  0.505005  0.502611  0.007615  1
  Yb  Yb1  1  0.994312  0.001683  0.995996  1
  Yb  Yb2  1  0.537329  0.033643  0.835676  1
  Yb  Yb3  1  0.202011  0.698076  0.167324  1
  Yb  Yb4  1  0.030870  0.203513  0.497594  1
  Yb  Yb5  1  0.700418  0.535875  0.497676  1
  Yb  Yb6  1  0.469250  0.965315  0.167324  1
  Yb  Yb7  1  0.802031  0.298346  0.835676  1
  Yb  Yb8  1  0.961800  0.797258  0.497676  1
  Yb  Yb9  1  0.294081  0.466724  0.497594  1
  Cd  Cd10  1  0.250833  0.249370  0.000246  1
  Cd  Cd11  1  0.750876  0.749413  0.000246  1
  Cu  Cu12  1  0.377776  0.122131  0.499906  1
  Pd  Pd13  1  0.132586  0.632084  0.764672  1
  Pt  Pt14  1  0.867992  0.367603  0.235593  1
  Pt  Pt15  1  0.622831  0.876357  0.499187  1
