# generated using pymatgen
data_Er5Tm3(Nb3Si4)4
_symmetry_space_group_name_H-M   'P 1'
_cell_length_a   7.03737257
_cell_length_b   7.03785244
_cell_length_c   13.01088294
_cell_angle_alpha   90.01140486
_cell_angle_beta   89.99901448
_cell_angle_gamma   89.99586469
_symmetry_Int_Tables_number   1
_chemical_formula_structural   Er5Tm3(Nb3Si4)4
_chemical_formula_sum   'Er5 Tm3 Nb12 Si16'
_cell_volume   644.40286180
_cell_formula_units_Z   1
loop_
 _symmetry_equiv_pos_site_id
 _symmetry_equiv_pos_as_xyz
  1  'x, y, z'
loop_
 _atom_site_type_symbol
 _atom_site_label
 _atom_site_symmetry_multiplicity
 _atom_site_fract_x
 _atom_site_fract_y
 _atom_site_fract_z
 _atom_site_occupancy
  Er  Er0  1  0.998942  0.340672  0.218327  1
  Er  Er1  1  0.001054  0.659323  0.718153  1
  Er  Er2  1  0.159202  0.498933  0.468253  1
  Er  Er3  1  0.501229  0.840775  0.031805  1
  Er  Er4  1  0.840756  0.501104  0.968216  1
  Tm  Tm5  1  0.499315  0.158995  0.531670  1
  Tm  Tm6  1  0.340907  0.999528  0.781596  1
  Tm  Tm7  1  0.659022  0.000503  0.281761  1
  Nb  Nb8  1  0.171594  0.171484  0.999960  1
  Nb  Nb9  1  0.828361  0.828632  0.499984  1
  Nb  Nb10  1  0.328599  0.671409  0.250093  1
  Nb  Nb11  1  0.671312  0.328519  0.749861  1
  Nb  Nb12  1  0.151846  0.993628  0.376146  1
  Nb  Nb13  1  0.848259  0.006506  0.875935  1
  Nb  Nb14  1  0.506233  0.652093  0.626069  1
  Nb  Nb15  1  0.348098  0.493462  0.873899  1
  Nb  Nb16  1  0.493699  0.347794  0.126179  1
  Nb  Nb17  1  0.651642  0.506330  0.374090  1
  Nb  Nb18  1  0.993456  0.151907  0.623961  1
  Nb  Nb19  1  0.006541  0.848129  0.124117  1
  Si  Si20  1  0.295525  0.045498  0.186728  1
  Si  Si21  1  0.704282  0.954702  0.686493  1
  Si  Si22  1  0.454546  0.795721  0.436532  1
  Si  Si23  1  0.205042  0.545659  0.063478  1
  Si  Si24  1  0.545549  0.204702  0.936407  1
  Si  Si25  1  0.794785  0.454179  0.563420  1
  Si  Si26  1  0.045862  0.294978  0.813357  1
  Si  Si27  1  0.954169  0.705001  0.313520  1
  Si  Si28  1  0.365767  0.294517  0.317898  1
  Si  Si29  1  0.634137  0.705418  0.817675  1
  Si  Si30  1  0.205338  0.865879  0.567816  1
  Si  Si31  1  0.134937  0.795325  0.932127  1
  Si  Si32  1  0.794975  0.134409  0.067768  1
  Si  Si33  1  0.864742  0.204651  0.432157  1
  Si  Si34  1  0.295289  0.364973  0.682080  1
  Si  Si35  1  0.704990  0.634662  0.182471  1
