# generated using pymatgen
data_Nd3Th3(Al3Ru)8
_symmetry_space_group_name_H-M   'P 1'
_cell_length_a   8.94737900
_cell_length_b   8.94737967
_cell_length_c   9.64160600
_cell_angle_alpha   90.00000000
_cell_angle_beta   90.00000000
_cell_angle_gamma   120.00000121
_symmetry_Int_Tables_number   1
_chemical_formula_structural   Nd3Th3(Al3Ru)8
_chemical_formula_sum   'Nd3 Th3 Al24 Ru8'
_cell_volume   668.45427819
_cell_formula_units_Z   1
loop_
 _symmetry_equiv_pos_site_id
 _symmetry_equiv_pos_as_xyz
  1  'x, y, z'
loop_
 _atom_site_type_symbol
 _atom_site_label
 _atom_site_symmetry_multiplicity
 _atom_site_fract_x
 _atom_site_fract_y
 _atom_site_fract_z
 _atom_site_occupancy
  Nd  Nd0  1  0.616788  0.808394  0.750000  1
  Nd  Nd1  1  0.191606  0.808394  0.750000  1
  Nd  Nd2  1  0.191606  0.383212  0.750000  1
  Th  Th3  1  0.393499  0.196749  0.250000  1
  Th  Th4  1  0.803251  0.196749  0.250000  1
  Th  Th5  1  0.803251  0.606501  0.250000  1
  Al  Al6  1  0.435129  0.870258  0.250000  1
  Al  Al7  1  0.129742  0.564871  0.250000  1
  Al  Al8  1  0.435129  0.564871  0.250000  1
  Al  Al9  1  0.561016  0.122033  0.750000  1
  Al  Al10  1  0.877967  0.438984  0.750000  1
  Al  Al11  1  0.561016  0.438984  0.750000  1
  Al  Al12  1  0.163002  0.836998  0.424269  1
  Al  Al13  1  0.163002  0.326005  0.424269  1
  Al  Al14  1  0.673995  0.836998  0.424269  1
  Al  Al15  1  0.837725  0.162275  0.579365  1
  Al  Al16  1  0.837725  0.675449  0.579365  1
  Al  Al17  1  0.324551  0.162275  0.579365  1
  Al  Al18  1  0.837725  0.162275  0.920635  1
  Al  Al19  1  0.837725  0.675449  0.920635  1
  Al  Al20  1  0.324551  0.162275  0.920635  1
  Al  Al21  1  0.163002  0.836998  0.075731  1
  Al  Al22  1  0.163002  0.326005  0.075731  1
  Al  Al23  1  0.673995  0.836998  0.075731  1
  Al  Al24  1  0.333333  0.666667  0.512695  1
  Al  Al25  1  0.666667  0.333333  0.494097  1
  Al  Al26  1  0.666667  0.333333  0.005903  1
  Al  Al27  1  0.333333  0.666667  0.987305  1
  Al  Al28  1  0.000000  0.000000  0.250000  1
  Al  Al29  1  0.000000  0.000000  0.750000  1
  Ru  Ru30  1  0.000000  0.000000  0.500554  1
  Ru  Ru31  1  0.000000  0.000000  0.999446  1
  Ru  Ru32  1  0.501326  0.002652  0.495300  1
  Ru  Ru33  1  0.997348  0.498674  0.495300  1
  Ru  Ru34  1  0.501326  0.498674  0.495300  1
  Ru  Ru35  1  0.501326  0.002652  0.004700  1
  Ru  Ru36  1  0.997348  0.498674  0.004700  1
  Ru  Ru37  1  0.501326  0.498674  0.004700  1
