# generated using pymatgen
data_Ho3Lu5(ZnCo)2
_symmetry_space_group_name_H-M   'P 1'
_cell_length_a   9.21503576
_cell_length_b   9.21503628
_cell_length_c   9.21503600
_cell_angle_alpha   60.00000101
_cell_angle_beta   59.99999915
_cell_angle_gamma   60.00000544
_symmetry_Int_Tables_number   1
_chemical_formula_structural   Ho3Lu5(ZnCo)2
_chemical_formula_sum   'Ho6 Lu10 Zn4 Co4'
_cell_volume   553.31969808
_cell_formula_units_Z   2
loop_
 _symmetry_equiv_pos_site_id
 _symmetry_equiv_pos_as_xyz
  1  'x, y, z'
loop_
 _atom_site_type_symbol
 _atom_site_label
 _atom_site_symmetry_multiplicity
 _atom_site_fract_x
 _atom_site_fract_y
 _atom_site_fract_z
 _atom_site_occupancy
  Ho  Ho0  1  0.939394  0.560606  0.560606  1
  Ho  Ho1  1  0.560606  0.939394  0.939394  1
  Ho  Ho2  1  0.560606  0.939394  0.560606  1
  Ho  Ho3  1  0.939394  0.560606  0.939394  1
  Ho  Ho4  1  0.560606  0.560606  0.939394  1
  Ho  Ho5  1  0.939394  0.939394  0.560606  1
  Lu  Lu6  1  0.349715  0.349715  0.349715  1
  Lu  Lu7  1  0.349715  0.349715  0.950853  1
  Lu  Lu8  1  0.349715  0.950853  0.349715  1
  Lu  Lu9  1  0.950853  0.349715  0.349715  1
  Lu  Lu10  1  0.810852  0.189148  0.189148  1
  Lu  Lu11  1  0.189148  0.810852  0.810852  1
  Lu  Lu12  1  0.189148  0.810852  0.189148  1
  Lu  Lu13  1  0.810852  0.189148  0.810852  1
  Lu  Lu14  1  0.189148  0.189148  0.810852  1
  Lu  Lu15  1  0.810852  0.810852  0.189148  1
  Zn  Zn16  1  0.576991  0.576991  0.576991  1
  Zn  Zn17  1  0.576991  0.576991  0.269027  1
  Zn  Zn18  1  0.576991  0.269027  0.576991  1
  Zn  Zn19  1  0.269027  0.576991  0.576991  1
  Co  Co20  1  0.141912  0.141912  0.141912  1
  Co  Co21  1  0.141912  0.141912  0.574261  1
  Co  Co22  1  0.141912  0.574261  0.141912  1
  Co  Co23  1  0.574261  0.141912  0.141912  1
