# generated using pymatgen
data_Er5Si6P6Ru9Rh10
_symmetry_space_group_name_H-M   'P 1'
_cell_length_a   12.68258200
_cell_length_b   12.68258319
_cell_length_c   3.94575600
_cell_angle_alpha   90.00000000
_cell_angle_beta   90.00000000
_cell_angle_gamma   120.00000210
_symmetry_Int_Tables_number   1
_chemical_formula_structural   Er5Si6P6Ru9Rh10
_chemical_formula_sum   'Er5 Si6 P6 Ru9 Rh10'
_cell_volume   549.63736249
_cell_formula_units_Z   1
loop_
 _symmetry_equiv_pos_site_id
 _symmetry_equiv_pos_as_xyz
  1  'x, y, z'
loop_
 _atom_site_type_symbol
 _atom_site_label
 _atom_site_symmetry_multiplicity
 _atom_site_fract_x
 _atom_site_fract_y
 _atom_site_fract_z
 _atom_site_occupancy
  Er  Er0  1  0.185494  0.185494  0.500000  1
  Er  Er1  1  0.814506  0.000000  0.500000  1
  Er  Er2  1  0.000000  0.814506  0.500000  1
  Er  Er3  1  0.333333  0.666667  0.000000  1
  Er  Er4  1  0.666667  0.333333  0.000000  1
  Si  Si5  1  0.165365  0.478592  0.500000  1
  Si  Si6  1  0.521408  0.686773  0.500000  1
  Si  Si7  1  0.313227  0.834635  0.500000  1
  Si  Si8  1  0.686773  0.521408  0.500000  1
  Si  Si9  1  0.834635  0.313227  0.500000  1
  Si  Si10  1  0.478592  0.165365  0.500000  1
  P  P11  1  0.818943  0.818943  0.000000  1
  P  P12  1  0.181057  0.000000  0.000000  1
  P  P13  1  0.000000  0.181057  0.000000  1
  P  P14  1  0.375558  0.375558  0.000000  1
  P  P15  1  0.624442  0.000000  0.000000  1
  P  P16  1  0.000000  0.624442  0.000000  1
  Ru  Ru17  1  0.725322  0.725322  0.500000  1
  Ru  Ru18  1  0.274678  0.000000  0.500000  1
  Ru  Ru19  1  0.000000  0.274678  0.500000  1
  Ru  Ru20  1  0.360345  0.483720  0.500000  1
  Ru  Ru21  1  0.516280  0.876626  0.500000  1
  Ru  Ru22  1  0.123374  0.639655  0.500000  1
  Ru  Ru23  1  0.876626  0.516280  0.500000  1
  Ru  Ru24  1  0.639655  0.123374  0.500000  1
  Ru  Ru25  1  0.483720  0.360345  0.500000  1
  Rh  Rh26  1  0.557345  0.557345  0.000000  1
  Rh  Rh27  1  0.442655  0.000000  0.000000  1
  Rh  Rh28  1  0.000000  0.442655  0.000000  1
  Rh  Rh29  1  0.184561  0.371710  0.000000  1
  Rh  Rh30  1  0.628290  0.812850  0.000000  1
  Rh  Rh31  1  0.187150  0.815439  0.000000  1
  Rh  Rh32  1  0.812850  0.628290  0.000000  1
  Rh  Rh33  1  0.815439  0.187150  0.000000  1
  Rh  Rh34  1  0.371710  0.184561  0.000000  1
  Rh  Rh35  1  0.000000  0.000000  0.000000  1
