# generated using pymatgen
data_La2BeB3IrRh4
_symmetry_space_group_name_H-M   'P 1'
_cell_length_a   7.70606942
_cell_length_b   6.47003819
_cell_length_c   5.72162580
_cell_angle_alpha   77.30568711
_cell_angle_beta   55.22114300
_cell_angle_gamma   46.65919155
_symmetry_Int_Tables_number   1
_chemical_formula_structural   La2BeB3IrRh4
_chemical_formula_sum   'La2 Be1 B3 Ir1 Rh4'
_cell_volume   163.21579159
_cell_formula_units_Z   1
loop_
 _symmetry_equiv_pos_site_id
 _symmetry_equiv_pos_as_xyz
  1  'x, y, z'
loop_
 _atom_site_type_symbol
 _atom_site_label
 _atom_site_symmetry_multiplicity
 _atom_site_fract_x
 _atom_site_fract_y
 _atom_site_fract_z
 _atom_site_occupancy
  La  La0  1  0.864371  0.862627  0.137636  1
  La  La1  1  0.144404  0.144224  0.854699  1
  Be  Be2  1  0.782560  0.479421  0.524036  1
  B  B3  1  0.199783  0.537016  0.469424  1
  B  B4  1  0.541467  0.204981  0.789463  1
  B  B5  1  0.471903  0.785374  0.207333  1
  Ir  Ir6  1  0.749575  0.754771  0.757716  1
  Rh  Rh7  1  0.496542  0.498719  0.006032  1
  Rh  Rh8  1  0.486511  0.493663  0.506056  1
  Rh  Rh9  1  0.003851  0.994111  0.499419  1
  Rh  Rh10  1  0.259031  0.245092  0.248188  1
