# generated using pymatgen
data_Pu3Hf(PN3)4
_symmetry_space_group_name_H-M   'P 1'
_cell_length_a   6.82463213
_cell_length_b   6.82463217
_cell_length_c   5.39622435
_cell_angle_alpha   78.97483849
_cell_angle_beta   78.97484340
_cell_angle_gamma   86.20285111
_symmetry_Int_Tables_number   1
_chemical_formula_structural   Pu3Hf(PN3)4
_chemical_formula_sum   'Pu3 Hf1 P4 N12'
_cell_volume   242.02578368
_cell_formula_units_Z   1
loop_
 _symmetry_equiv_pos_site_id
 _symmetry_equiv_pos_as_xyz
  1  'x, y, z'
loop_
 _atom_site_type_symbol
 _atom_site_label
 _atom_site_symmetry_multiplicity
 _atom_site_fract_x
 _atom_site_fract_y
 _atom_site_fract_z
 _atom_site_occupancy
  Pu  Pu0  1  0.674874  0.325126  0.750000  1
  Pu  Pu1  1  0.904840  0.095160  0.250000  1
  Pu  Pu2  1  0.322825  0.677175  0.250000  1
  Hf  Hf3  1  0.110900  0.889100  0.750000  1
  P  P4  1  0.199092  0.376484  0.764197  1
  P  P5  1  0.374756  0.203275  0.267101  1
  P  P6  1  0.796725  0.625244  0.232899  1
  P  P7  1  0.623516  0.800908  0.735803  1
  N  N8  1  0.317511  0.373242  0.014248  1
  N  N9  1  0.024970  0.211038  0.840507  1
  N  N10  1  0.980425  0.779873  0.145051  1
  N  N11  1  0.373141  0.327723  0.509356  1
  N  N12  1  0.603602  0.141588  0.159194  1
  N  N13  1  0.395721  0.869433  0.833117  1
  N  N14  1  0.858412  0.396398  0.340806  1
  N  N15  1  0.672277  0.626859  0.990644  1
  N  N16  1  0.788962  0.975030  0.659493  1
  N  N17  1  0.130567  0.604279  0.666883  1
  N  N18  1  0.220127  0.019575  0.354949  1
  N  N19  1  0.626758  0.682489  0.485752  1
