# generated using pymatgen
data_Rb2Ba(TaBr3)6
_symmetry_space_group_name_H-M   'P 1'
_cell_length_a   11.06653143
_cell_length_b   11.06653105
_cell_length_c   11.06653000
_cell_angle_alpha   54.99963623
_cell_angle_beta   54.99963129
_cell_angle_gamma   54.99963679
_symmetry_Int_Tables_number   1
_chemical_formula_structural   Rb2Ba(TaBr3)6
_chemical_formula_sum   'Rb2 Ba1 Ta6 Br18'
_cell_volume   846.84301801
_cell_formula_units_Z   1
loop_
 _symmetry_equiv_pos_site_id
 _symmetry_equiv_pos_as_xyz
  1  'x, y, z'
loop_
 _atom_site_type_symbol
 _atom_site_label
 _atom_site_symmetry_multiplicity
 _atom_site_fract_x
 _atom_site_fract_y
 _atom_site_fract_z
 _atom_site_occupancy
  Rb  Rb0  1  0.276459  0.276459  0.276459  1
  Rb  Rb1  1  0.723541  0.723541  0.723541  1
  Ba  Ba2  1  0.000000  0.000000  0.000000  1
  Ta  Ta3  1  0.432930  0.305604  0.634045  1
  Ta  Ta4  1  0.365955  0.567070  0.694396  1
  Ta  Ta5  1  0.694396  0.365955  0.567070  1
  Ta  Ta6  1  0.634045  0.432930  0.305604  1
  Ta  Ta7  1  0.567070  0.694396  0.365955  1
  Ta  Ta8  1  0.305604  0.634045  0.432930  1
  Br  Br9  1  0.654464  0.094502  0.754979  1
  Br  Br10  1  0.754979  0.654464  0.094502  1
  Br  Br11  1  0.094502  0.754979  0.654464  1
  Br  Br12  1  0.816445  0.346204  0.031229  1
  Br  Br13  1  0.175551  0.424312  0.582240  1
  Br  Br14  1  0.653796  0.968771  0.183555  1
  Br  Br15  1  0.905498  0.245021  0.345536  1
  Br  Br16  1  0.575688  0.417760  0.824449  1
  Br  Br17  1  0.417760  0.824449  0.575688  1
  Br  Br18  1  0.968771  0.183555  0.653796  1
  Br  Br19  1  0.183555  0.653796  0.968771  1
  Br  Br20  1  0.031229  0.816445  0.346204  1
  Br  Br21  1  0.346204  0.031229  0.816445  1
  Br  Br22  1  0.245021  0.345536  0.905498  1
  Br  Br23  1  0.582240  0.175551  0.424312  1
  Br  Br24  1  0.424312  0.582240  0.175551  1
  Br  Br25  1  0.345536  0.905498  0.245021  1
  Br  Br26  1  0.824449  0.575688  0.417760  1
