# generated using pymatgen
data_Cs12K3Rb3(TlSb4)2
_symmetry_space_group_name_H-M   'P 1'
_cell_length_a   11.28037034
_cell_length_b   11.31934484
_cell_length_c   11.97980800
_cell_angle_alpha   90.00000000
_cell_angle_beta   90.00000000
_cell_angle_gamma   119.64082107
_symmetry_Int_Tables_number   1
_chemical_formula_structural   Cs12K3Rb3(TlSb4)2
_chemical_formula_sum   'Cs12 K3 Rb3 Tl2 Sb8'
_cell_volume   1329.49173064
_cell_formula_units_Z   1
loop_
 _symmetry_equiv_pos_site_id
 _symmetry_equiv_pos_as_xyz
  1  'x, y, z'
loop_
 _atom_site_type_symbol
 _atom_site_label
 _atom_site_symmetry_multiplicity
 _atom_site_fract_x
 _atom_site_fract_y
 _atom_site_fract_z
 _atom_site_occupancy
  Cs  Cs0  1  0.208104  0.416187  0.545518  1
  Cs  Cs1  1  0.791911  0.582863  0.044522  1
  Cs  Cs2  1  0.583180  0.792134  0.544907  1
  Cs  Cs3  1  0.208157  0.792911  0.543462  1
  Cs  Cs4  1  0.791926  0.208074  0.042351  1
  Cs  Cs5  1  0.415560  0.207248  0.043067  1
  Cs  Cs6  1  0.791911  0.582863  0.455479  1
  Cs  Cs7  1  0.791926  0.208074  0.457648  1
  Cs  Cs8  1  0.415560  0.207248  0.456934  1
  Cs  Cs9  1  0.583180  0.792134  0.955093  1
  Cs  Cs10  1  0.208157  0.792911  0.956539  1
  Cs  Cs11  1  0.208104  0.416187  0.954482  1
  K  K12  1  0.120232  0.880589  0.250001  1
  K  K13  1  0.881538  0.119593  0.750000  1
  K  K14  1  0.239866  0.120064  0.750000  1
  Rb  Rb15  1  0.120440  0.240449  0.250001  1
  Rb  Rb16  1  0.880449  0.760295  0.750000  1
  Rb  Rb17  1  0.761983  0.881086  0.250001  1
  Tl  Tl18  1  0.333096  0.666721  0.250001  1
  Tl  Tl19  1  0.666343  0.332915  0.750000  1
  Sb  Sb20  1  0.003096  0.001769  0.997461  1
  Sb  Sb21  1  0.003096  0.001769  0.502538  1
  Sb  Sb22  1  0.483230  0.518535  0.250001  1
  Sb  Sb23  1  0.513307  0.477776  0.750000  1
  Sb  Sb24  1  0.477242  0.963296  0.250001  1
  Sb  Sb25  1  0.035684  0.523369  0.250001  1
  Sb  Sb26  1  0.963377  0.476266  0.750000  1
  Sb  Sb27  1  0.519346  0.036675  0.750000  1
