# generated using pymatgen
data_Y6Al16Os7
_symmetry_space_group_name_H-M   'P 1'
_cell_length_a   8.95476427
_cell_length_b   8.95476343
_cell_length_c   8.95476500
_cell_angle_alpha   60.00000529
_cell_angle_beta   60.00000839
_cell_angle_gamma   60.00000249
_symmetry_Int_Tables_number   1
_chemical_formula_structural   Y6Al16Os7
_chemical_formula_sum   'Y6 Al16 Os7'
_cell_volume   507.74718378
_cell_formula_units_Z   1
loop_
 _symmetry_equiv_pos_site_id
 _symmetry_equiv_pos_as_xyz
  1  'x, y, z'
loop_
 _atom_site_type_symbol
 _atom_site_label
 _atom_site_symmetry_multiplicity
 _atom_site_fract_x
 _atom_site_fract_y
 _atom_site_fract_z
 _atom_site_occupancy
  Y  Y0  1  0.711944  0.711944  0.288056  1
  Y  Y1  1  0.288056  0.711944  0.288056  1
  Y  Y2  1  0.711944  0.288056  0.288056  1
  Y  Y3  1  0.288056  0.288056  0.711944  1
  Y  Y4  1  0.711944  0.288056  0.711944  1
  Y  Y5  1  0.288056  0.711944  0.711944  1
  Al  Al6  1  0.878930  0.878930  0.363209  1
  Al  Al7  1  0.878930  0.363209  0.878930  1
  Al  Al8  1  0.363209  0.878930  0.878930  1
  Al  Al9  1  0.878930  0.878930  0.878930  1
  Al  Al10  1  0.121070  0.121070  0.636791  1
  Al  Al11  1  0.121070  0.636791  0.121070  1
  Al  Al12  1  0.636791  0.121070  0.121070  1
  Al  Al13  1  0.121070  0.121070  0.121070  1
  Al  Al14  1  0.667592  0.667592  0.997225  1
  Al  Al15  1  0.667592  0.997225  0.667592  1
  Al  Al16  1  0.997225  0.667592  0.667592  1
  Al  Al17  1  0.667592  0.667592  0.667592  1
  Al  Al18  1  0.332408  0.332408  0.002775  1
  Al  Al19  1  0.332408  0.002775  0.332408  1
  Al  Al20  1  0.002775  0.332408  0.332408  1
  Al  Al21  1  0.332408  0.332408  0.332408  1
  Os  Os22  1  0.000000  0.000000  0.000000  1
  Os  Os23  1  0.000000  0.000000  0.500000  1
  Os  Os24  1  0.500000  0.000000  0.500000  1
  Os  Os25  1  0.000000  0.500000  0.500000  1
  Os  Os26  1  0.500000  0.500000  0.000000  1
  Os  Os27  1  0.000000  0.500000  0.000000  1
  Os  Os28  1  0.500000  0.000000  0.000000  1
