# generated using pymatgen
data_MnTcP
_symmetry_space_group_name_H-M   'P 1'
_cell_length_a   3.76618900
_cell_length_b   5.78278981
_cell_length_c   6.67041705
_cell_angle_alpha   89.97671376
_cell_angle_beta   90.00000000
_cell_angle_gamma   90.00000000
_symmetry_Int_Tables_number   1
_chemical_formula_structural   MnTcP
_chemical_formula_sum   'Mn4 Tc4 P4'
_cell_volume   145.27553040
_cell_formula_units_Z   4
loop_
 _symmetry_equiv_pos_site_id
 _symmetry_equiv_pos_as_xyz
  1  'x, y, z'
loop_
 _atom_site_type_symbol
 _atom_site_label
 _atom_site_symmetry_multiplicity
 _atom_site_fract_x
 _atom_site_fract_y
 _atom_site_fract_z
 _atom_site_occupancy
  Mn  Mn0  1  0.750000  0.362727  0.061450  1
  Mn  Mn1  1  0.250000  0.637300  0.938543  1
  Mn  Mn2  1  0.750000  0.862684  0.438581  1
  Mn  Mn3  1  0.250000  0.137250  0.561455  1
  Tc  Tc4  1  0.750000  0.975468  0.830374  1
  Tc  Tc5  1  0.250000  0.524569  0.330494  1
  Tc  Tc6  1  0.250000  0.024466  0.169543  1
  Tc  Tc7  1  0.750000  0.475463  0.669570  1
  P  P8  1  0.250000  0.757508  0.621063  1
  P  P9  1  0.750000  0.242518  0.378970  1
  P  P10  1  0.250000  0.257410  0.878776  1
  P  P11  1  0.750000  0.742637  0.121183  1
