# generated using pymatgen
data_Nd5ErNiBr10
_symmetry_space_group_name_H-M   'P 1'
_cell_length_a   7.48172777
_cell_length_b   9.48476531
_cell_length_c   9.50171419
_cell_angle_alpha   108.60966616
_cell_angle_beta   96.06323303
_cell_angle_gamma   105.42925073
_symmetry_Int_Tables_number   1
_chemical_formula_structural   Nd5ErNiBr10
_chemical_formula_sum   'Nd5 Er1 Ni1 Br10'
_cell_volume   602.43541391
_cell_formula_units_Z   1
loop_
 _symmetry_equiv_pos_site_id
 _symmetry_equiv_pos_as_xyz
  1  'x, y, z'
loop_
 _atom_site_type_symbol
 _atom_site_label
 _atom_site_symmetry_multiplicity
 _atom_site_fract_x
 _atom_site_fract_y
 _atom_site_fract_z
 _atom_site_occupancy
  Nd  Nd0  1  0.465509  0.796585  0.595326  1
  Nd  Nd1  1  0.528992  0.202202  0.401608  1
  Nd  Nd2  1  0.365723  0.450334  0.743956  1
  Nd  Nd3  1  0.626454  0.545744  0.254415  1
  Nd  Nd4  1  0.857286  0.632672  0.677725  1
  Er  Er5  1  0.153294  0.373368  0.329786  1
  Ni  Ni6  1  0.499353  0.499566  0.500725  1
  Br  Br7  1  0.409386  0.130985  0.669515  1
  Br  Br8  1  0.585412  0.866044  0.326003  1
  Br  Br9  1  0.050852  0.670158  0.411859  1
  Br  Br10  1  0.951286  0.319714  0.574815  1
  Br  Br11  1  0.281647  0.754523  0.851879  1
  Br  Br12  1  0.743183  0.253054  0.160902  1
  Br  Br13  1  0.243666  0.415226  0.054937  1
  Br  Br14  1  0.744938  0.575639  0.950977  1
  Br  Br15  1  0.851360  0.953034  0.767899  1
  Br  Br16  1  0.141657  0.061151  0.227672  1
