# generated using pymatgen
data_CoTc4IrO16
_symmetry_space_group_name_H-M   'P 1'
_cell_length_a   5.63756732
_cell_length_b   9.77182083
_cell_length_c   6.49087600
_cell_angle_alpha   90.01694513
_cell_angle_beta   89.96085131
_cell_angle_gamma   89.98362933
_symmetry_Int_Tables_number   1
_chemical_formula_structural   CoTc4IrO16
_chemical_formula_sum   'Co1 Tc4 Ir1 O16'
_cell_volume   357.57768664
_cell_formula_units_Z   1
loop_
 _symmetry_equiv_pos_site_id
 _symmetry_equiv_pos_as_xyz
  1  'x, y, z'
loop_
 _atom_site_type_symbol
 _atom_site_label
 _atom_site_symmetry_multiplicity
 _atom_site_fract_x
 _atom_site_fract_y
 _atom_site_fract_z
 _atom_site_occupancy
  Co  Co0  1  0.999994  0.000665  0.000447  1
  Tc  Tc1  1  0.999225  0.343529  0.270144  1
  Tc  Tc2  1  0.497167  0.837184  0.272276  1
  Tc  Tc3  1  0.502956  0.162672  0.727559  1
  Tc  Tc4  1  0.000773  0.656567  0.730145  1
  Ir  Ir5  1  0.500038  0.499777  0.000096  1
  O  O6  1  0.502199  0.189726  0.466188  1
  O  O7  1  0.009743  0.685619  0.469185  1
  O  O8  1  0.989793  0.313610  0.530800  1
  O  O9  1  0.497575  0.810187  0.533587  1
  O  O10  1  0.743108  0.058286  0.792497  1
  O  O11  1  0.241267  0.546298  0.799053  1
  O  O12  1  0.980813  0.189055  0.130824  1
  O  O13  1  0.479457  0.682581  0.129140  1
  O  O14  1  0.270043  0.430241  0.210969  1
  O  O15  1  0.756944  0.923382  0.205481  1
  O  O16  1  0.758875  0.454375  0.201320  1
  O  O17  1  0.257164  0.941500  0.206928  1
  O  O18  1  0.520634  0.317077  0.871097  1
  O  O19  1  0.018687  0.811182  0.868308  1
  O  O20  1  0.243333  0.076253  0.794340  1
  O  O21  1  0.730211  0.570234  0.789616  1
