# generated using pymatgen
data_Ca5Hf3(Ni4As3)4
_symmetry_space_group_name_H-M   'P 1'
_cell_length_a   12.80872800
_cell_length_b   12.80872727
_cell_length_c   3.92852600
_cell_angle_alpha   90.00000000
_cell_angle_beta   90.00000000
_cell_angle_gamma   120.00000187
_symmetry_Int_Tables_number   1
_chemical_formula_structural   Ca5Hf3(Ni4As3)4
_chemical_formula_sum   'Ca5 Hf3 Ni16 As12'
_cell_volume   558.17738562
_cell_formula_units_Z   1
loop_
 _symmetry_equiv_pos_site_id
 _symmetry_equiv_pos_as_xyz
  1  'x, y, z'
loop_
 _atom_site_type_symbol
 _atom_site_label
 _atom_site_symmetry_multiplicity
 _atom_site_fract_x
 _atom_site_fract_y
 _atom_site_fract_z
 _atom_site_occupancy
  Ca  Ca0  1  0.184344  0.184344  0.500000  1
  Ca  Ca1  1  0.815656  0.000000  0.500000  1
  Ca  Ca2  1  0.000000  0.815656  0.500000  1
  Ca  Ca3  1  0.333333  0.666667  0.000000  1
  Ca  Ca4  1  0.666667  0.333333  0.000000  1
  Hf  Hf5  1  0.564749  0.564749  0.000000  1
  Hf  Hf6  1  0.435251  0.000000  0.000000  1
  Hf  Hf7  1  0.000000  0.435251  0.000000  1
  Ni  Ni8  1  0.721539  0.721539  0.500000  1
  Ni  Ni9  1  0.278461  0.000000  0.500000  1
  Ni  Ni10  1  0.000000  0.278461  0.500000  1
  Ni  Ni11  1  0.182977  0.377843  0.000000  1
  Ni  Ni12  1  0.622157  0.805134  0.000000  1
  Ni  Ni13  1  0.194866  0.817023  0.000000  1
  Ni  Ni14  1  0.805134  0.622157  0.000000  1
  Ni  Ni15  1  0.817023  0.194866  0.000000  1
  Ni  Ni16  1  0.377843  0.182977  0.000000  1
  Ni  Ni17  1  0.363371  0.483370  0.500000  1
  Ni  Ni18  1  0.516630  0.880003  0.500000  1
  Ni  Ni19  1  0.119997  0.636629  0.500000  1
  Ni  Ni20  1  0.880003  0.516630  0.500000  1
  Ni  Ni21  1  0.636629  0.119997  0.500000  1
  Ni  Ni22  1  0.483370  0.363371  0.500000  1
  Ni  Ni23  1  0.000000  0.000000  0.000000  1
  As  As24  1  0.821390  0.821390  0.000000  1
  As  As25  1  0.178610  0.000000  0.000000  1
  As  As26  1  0.000000  0.178610  0.000000  1
  As  As27  1  0.171448  0.478216  0.500000  1
  As  As28  1  0.521784  0.693233  0.500000  1
  As  As29  1  0.306767  0.828552  0.500000  1
  As  As30  1  0.693233  0.521784  0.500000  1
  As  As31  1  0.828552  0.306767  0.500000  1
  As  As32  1  0.478216  0.171448  0.500000  1
  As  As33  1  0.356613  0.356613  0.000000  1
  As  As34  1  0.643387  0.000000  0.000000  1
  As  As35  1  0.000000  0.643387  0.000000  1
