# generated using pymatgen
data_Tb3Cd3AgHg2
_symmetry_space_group_name_H-M   'P 1'
_cell_length_a   8.03050500
_cell_length_b   8.03050633
_cell_length_c   3.93405500
_cell_angle_alpha   90.00000000
_cell_angle_beta   90.00000000
_cell_angle_gamma   120.00000690
_symmetry_Int_Tables_number   1
_chemical_formula_structural   Tb3Cd3AgHg2
_chemical_formula_sum   'Tb3 Cd3 Ag1 Hg2'
_cell_volume   219.71353631
_cell_formula_units_Z   1
loop_
 _symmetry_equiv_pos_site_id
 _symmetry_equiv_pos_as_xyz
  1  'x, y, z'
loop_
 _atom_site_type_symbol
 _atom_site_label
 _atom_site_symmetry_multiplicity
 _atom_site_fract_x
 _atom_site_fract_y
 _atom_site_fract_z
 _atom_site_occupancy
  Tb  Tb0  1  0.597579  0.000000  0.000000  1
  Tb  Tb1  1  0.000000  0.597579  0.000000  1
  Tb  Tb2  1  0.402421  0.402421  0.000000  1
  Cd  Cd3  1  0.258775  0.000000  0.500000  1
  Cd  Cd4  1  0.000000  0.258775  0.500000  1
  Cd  Cd5  1  0.741225  0.741225  0.500000  1
  Ag  Ag6  1  0.000000  0.000000  0.000000  1
  Hg  Hg7  1  0.333333  0.666667  0.500000  1
  Hg  Hg8  1  0.666667  0.333333  0.500000  1
