# generated using pymatgen
data_Ba6ScAlP6
_symmetry_space_group_name_H-M   'P 1'
_cell_length_a   10.45928155
_cell_length_b   10.45928163
_cell_length_c   13.11636500
_cell_angle_alpha   90.00000000
_cell_angle_beta   90.00000000
_cell_angle_gamma   141.46987644
_symmetry_Int_Tables_number   1
_chemical_formula_structural   Ba6ScAlP6
_chemical_formula_sum   'Ba12 Sc2 Al2 P12'
_cell_volume   893.82741361
_cell_formula_units_Z   2
loop_
 _symmetry_equiv_pos_site_id
 _symmetry_equiv_pos_as_xyz
  1  'x, y, z'
loop_
 _atom_site_type_symbol
 _atom_site_label
 _atom_site_symmetry_multiplicity
 _atom_site_fract_x
 _atom_site_fract_y
 _atom_site_fract_z
 _atom_site_occupancy
  Ba  Ba0  1  0.843203  0.847306  0.342528  1
  Ba  Ba1  1  0.152694  0.156797  0.657472  1
  Ba  Ba2  1  0.652694  0.656797  0.842528  1
  Ba  Ba3  1  0.343203  0.347306  0.157472  1
  Ba  Ba4  1  0.855215  0.492978  0.132680  1
  Ba  Ba5  1  0.507022  0.144785  0.867320  1
  Ba  Ba6  1  0.007022  0.644785  0.632680  1
  Ba  Ba7  1  0.355215  0.992978  0.367320  1
  Ba  Ba8  1  0.139443  0.491298  0.870289  1
  Ba  Ba9  1  0.508702  0.860557  0.129711  1
  Ba  Ba10  1  0.008702  0.360557  0.370289  1
  Ba  Ba11  1  0.639443  0.991298  0.629711  1
  Sc  Sc12  1  0.081502  0.918498  0.000000  1
  Sc  Sc13  1  0.581502  0.418498  0.500000  1
  Al  Al14  1  0.918092  0.081908  0.000000  1
  Al  Al15  1  0.418092  0.581908  0.500000  1
  P  P16  1  0.787109  0.797818  0.094623  1
  P  P17  1  0.202182  0.212891  0.905377  1
  P  P18  1  0.702182  0.712891  0.594623  1
  P  P19  1  0.287109  0.297818  0.405377  1
  P  P20  1  0.032907  0.341068  0.115807  1
  P  P21  1  0.658932  0.967093  0.884193  1
  P  P22  1  0.158932  0.467093  0.615807  1
  P  P23  1  0.532907  0.841068  0.384193  1
  P  P24  1  0.956290  0.643293  0.880528  1
  P  P25  1  0.356707  0.043710  0.119472  1
  P  P26  1  0.856707  0.543710  0.380528  1
  P  P27  1  0.456290  0.143293  0.619472  1
