# generated using pymatgen
data_Sc24Tc7Ni
_symmetry_space_group_name_H-M   'P 1'
_cell_length_a   5.82691633
_cell_length_b   8.58521800
_cell_length_c   13.70926544
_cell_angle_alpha   90.00000000
_cell_angle_beta   90.60037484
_cell_angle_gamma   90.00000000
_symmetry_Int_Tables_number   1
_chemical_formula_structural   Sc24Tc7Ni
_chemical_formula_sum   'Sc24 Tc7 Ni1'
_cell_volume   685.77311017
_cell_formula_units_Z   1
loop_
 _symmetry_equiv_pos_site_id
 _symmetry_equiv_pos_as_xyz
  1  'x, y, z'
loop_
 _atom_site_type_symbol
 _atom_site_label
 _atom_site_symmetry_multiplicity
 _atom_site_fract_x
 _atom_site_fract_y
 _atom_site_fract_z
 _atom_site_occupancy
  Sc  Sc0  1  0.534244  0.750000  0.354933  1
  Sc  Sc1  1  0.031523  0.250000  0.145453  1
  Sc  Sc2  1  0.470527  0.250000  0.645958  1
  Sc  Sc3  1  0.971360  0.750000  0.850243  1
  Sc  Sc4  1  0.794875  0.750000  0.110226  1
  Sc  Sc5  1  0.292083  0.250000  0.390290  1
  Sc  Sc6  1  0.205229  0.250000  0.887591  1
  Sc  Sc7  1  0.715052  0.750000  0.613240  1
  Sc  Sc8  1  0.429277  0.938328  0.786409  1
  Sc  Sc9  1  0.925015  0.065674  0.710508  1
  Sc  Sc10  1  0.564264  0.437312  0.209950  1
  Sc  Sc11  1  0.066186  0.563276  0.290385  1
  Sc  Sc12  1  0.564264  0.062688  0.209950  1
  Sc  Sc13  1  0.066186  0.936724  0.290385  1
  Sc  Sc14  1  0.429277  0.561672  0.786409  1
  Sc  Sc15  1  0.925015  0.434326  0.710508  1
  Sc  Sc16  1  0.248115  0.941015  0.538564  1
  Sc  Sc17  1  0.745882  0.058813  0.965306  1
  Sc  Sc18  1  0.753567  0.440369  0.466988  1
  Sc  Sc19  1  0.254962  0.559825  0.031903  1
  Sc  Sc20  1  0.753567  0.059631  0.466988  1
  Sc  Sc21  1  0.254962  0.940175  0.031903  1
  Sc  Sc22  1  0.248115  0.558985  0.538564  1
  Sc  Sc23  1  0.745882  0.441187  0.965306  1
  Tc  Tc24  1  0.935951  0.750000  0.448577  1
  Tc  Tc25  1  0.430519  0.250000  0.057178  1
  Tc  Tc26  1  0.072769  0.250000  0.560098  1
  Tc  Tc27  1  0.572150  0.750000  0.937492  1
  Tc  Tc28  1  0.354447  0.750000  0.179989  1
  Tc  Tc29  1  0.856360  0.250000  0.320048  1
  Tc  Tc30  1  0.645765  0.250000  0.819517  1
  Ni  Ni31  1  0.142608  0.750000  0.679136  1
