# generated using pymatgen
data_Nd2Th3Bi3Se
_symmetry_space_group_name_H-M   'P 1'
_cell_length_a   9.58276846
_cell_length_b   9.60481270
_cell_length_c   6.76205600
_cell_angle_alpha   90.00000000
_cell_angle_beta   90.00000000
_cell_angle_gamma   120.07611680
_symmetry_Int_Tables_number   1
_chemical_formula_structural   Nd2Th3Bi3Se
_chemical_formula_sum   'Nd4 Th6 Bi6 Se2'
_cell_volume   538.58676017
_cell_formula_units_Z   2
loop_
 _symmetry_equiv_pos_site_id
 _symmetry_equiv_pos_as_xyz
  1  'x, y, z'
loop_
 _atom_site_type_symbol
 _atom_site_label
 _atom_site_symmetry_multiplicity
 _atom_site_fract_x
 _atom_site_fract_y
 _atom_site_fract_z
 _atom_site_occupancy
  Nd  Nd0  1  0.000000  0.260567  0.750000  1
  Nd  Nd1  1  0.261309  0.260782  0.250000  1
  Nd  Nd2  1  0.738691  0.999472  0.250000  1
  Nd  Nd3  1  0.000000  0.736469  0.250000  1
  Th  Th4  1  0.664717  0.334541  0.998449  1
  Th  Th5  1  0.335283  0.669824  0.998449  1
  Th  Th6  1  0.335283  0.669824  0.501551  1
  Th  Th7  1  0.664717  0.334541  0.501551  1
  Th  Th8  1  0.739788  0.738902  0.750000  1
  Th  Th9  1  0.260212  0.999114  0.750000  1
  Bi  Bi10  1  0.387183  0.388952  0.750000  1
  Bi  Bi11  1  0.612817  0.001769  0.750000  1
  Bi  Bi12  1  0.000000  0.608942  0.750000  1
  Bi  Bi13  1  0.610782  0.611155  0.250000  1
  Bi  Bi14  1  0.389218  0.000373  0.250000  1
  Bi  Bi15  1  0.000000  0.389328  0.250000  1
  Se  Se16  1  0.000000  0.997722  0.999415  1
  Se  Se17  1  0.000000  0.997722  0.500585  1
