# generated using pymatgen
data_InSb7Au4
_symmetry_space_group_name_H-M   'P 1'
_cell_length_a   6.79558793
_cell_length_b   6.79558793
_cell_length_c   6.79558793
_cell_angle_alpha   90.34363370
_cell_angle_beta   89.65636630
_cell_angle_gamma   90.34363370
_symmetry_Int_Tables_number   1
_chemical_formula_structural   InSb7Au4
_chemical_formula_sum   'In1 Sb7 Au4'
_cell_volume   313.80348948
_cell_formula_units_Z   1
loop_
 _symmetry_equiv_pos_site_id
 _symmetry_equiv_pos_as_xyz
  1  'x, y, z'
loop_
 _atom_site_type_symbol
 _atom_site_label
 _atom_site_symmetry_multiplicity
 _atom_site_fract_x
 _atom_site_fract_y
 _atom_site_fract_z
 _atom_site_occupancy
  In  In0  1  0.376875  0.123125  0.876875  1
  Sb  Sb1  1  0.123362  0.879032  0.374515  1
  Sb  Sb2  1  0.874515  0.376638  0.120968  1
  Sb  Sb3  1  0.620968  0.625485  0.623362  1
  Sb  Sb4  1  0.378708  0.372935  0.377511  1
  Sb  Sb5  1  0.127065  0.622489  0.878708  1
  Sb  Sb6  1  0.877511  0.121292  0.627065  1
  Sb  Sb7  1  0.623550  0.876450  0.123550  1
  Au  Au8  1  0.000021  0.499979  0.500021  1
  Au  Au9  1  0.499524  0.502692  0.000593  1
  Au  Au10  1  0.500593  0.000476  0.497308  1
  Au  Au11  1  0.997308  0.999407  0.999524  1
