# generated using pymatgen
data_Tb6Nd2Cd2PdPt
_symmetry_space_group_name_H-M   'P 1'
_cell_length_a   9.80786108
_cell_length_b   9.78532897
_cell_length_c   9.76329829
_cell_angle_alpha   60.22707433
_cell_angle_beta   59.99779220
_cell_angle_gamma   60.08912055
_symmetry_Int_Tables_number   1
_chemical_formula_structural   Tb6Nd2Cd2PdPt
_chemical_formula_sum   'Tb12 Nd4 Cd4 Pd2 Pt2'
_cell_volume   664.13511310
_cell_formula_units_Z   2
loop_
 _symmetry_equiv_pos_site_id
 _symmetry_equiv_pos_as_xyz
  1  'x, y, z'
loop_
 _atom_site_type_symbol
 _atom_site_label
 _atom_site_symmetry_multiplicity
 _atom_site_fract_x
 _atom_site_fract_y
 _atom_site_fract_z
 _atom_site_occupancy
  Tb  Tb0  1  0.352654  0.351101  0.348325  1
  Tb  Tb1  1  0.351101  0.352654  0.947919  1
  Tb  Tb2  1  0.354275  0.941760  0.352713  1
  Tb  Tb3  1  0.941760  0.354275  0.351251  1
  Tb  Tb4  1  0.808793  0.190098  0.189494  1
  Tb  Tb5  1  0.190098  0.808793  0.811615  1
  Tb  Tb6  1  0.189883  0.809962  0.189509  1
  Tb  Tb7  1  0.809962  0.189883  0.810646  1
  Tb  Tb8  1  0.190693  0.190693  0.809307  1
  Tb  Tb9  1  0.810925  0.810925  0.189075  1
  Tb  Tb10  1  0.941431  0.560736  0.557968  1
  Tb  Tb11  1  0.560736  0.941431  0.939865  1
  Nd  Nd12  1  0.564625  0.935459  0.566493  1
  Nd  Nd13  1  0.935459  0.564625  0.933423  1
  Nd  Nd14  1  0.565301  0.565301  0.934699  1
  Nd  Nd15  1  0.934871  0.934871  0.565129  1
  Cd  Cd16  1  0.583380  0.578869  0.579418  1
  Cd  Cd17  1  0.578869  0.583380  0.258334  1
  Cd  Cd18  1  0.578495  0.258366  0.583062  1
  Cd  Cd19  1  0.258366  0.578495  0.580078  1
  Pd  Pd20  1  0.144987  0.142268  0.144005  1
  Pd  Pd21  1  0.142268  0.144987  0.568740  1
  Pt  Pt22  1  0.140272  0.570796  0.147285  1
  Pt  Pt23  1  0.570796  0.140272  0.141647  1
