# generated using pymatgen
data_FeMoP4Pb3O16
_symmetry_space_group_name_H-M   'P 1'
_cell_length_a   9.34114000
_cell_length_b   9.29697048
_cell_length_c   9.52353810
_cell_angle_alpha   62.80424694
_cell_angle_beta   90.00000000
_cell_angle_gamma   90.00000000
_symmetry_Int_Tables_number   1
_chemical_formula_structural   FeMoP4Pb3O16
_chemical_formula_sum   'Fe2 Mo2 P8 Pb6 O32'
_cell_volume   735.63319681
_cell_formula_units_Z   2
loop_
 _symmetry_equiv_pos_site_id
 _symmetry_equiv_pos_as_xyz
  1  'x, y, z'
loop_
 _atom_site_type_symbol
 _atom_site_label
 _atom_site_symmetry_multiplicity
 _atom_site_fract_x
 _atom_site_fract_y
 _atom_site_fract_z
 _atom_site_occupancy
  Fe  Fe0  1  0.633583  0.245301  0.756197  1
  Fe  Fe1  1  0.133583  0.754699  0.743803  1
  Mo  Mo2  1  0.367218  0.752333  0.243157  1
  Mo  Mo3  1  0.867218  0.247667  0.256843  1
  P  P4  1  0.087623  0.576438  0.138889  1
  P  P5  1  0.639445  0.019974  0.154551  1
  P  P6  1  0.361929  0.986198  0.836386  1
  P  P7  1  0.410609  0.574110  0.645761  1
  P  P8  1  0.910609  0.425890  0.854239  1
  P  P9  1  0.587623  0.423562  0.361111  1
  P  P10  1  0.861929  0.013802  0.663614  1
  P  P11  1  0.139445  0.980026  0.345449  1
  Pb  Pb12  1  0.211647  0.298948  0.462012  1
  Pb  Pb13  1  0.711647  0.701052  0.037988  1
  Pb  Pb14  1  0.788473  0.701159  0.538487  1
  Pb  Pb15  1  0.999862  0.998755  0.002607  1
  Pb  Pb16  1  0.288473  0.298841  0.961513  1
  Pb  Pb17  1  0.499862  0.001245  0.497393  1
  O  O18  1  0.917029  0.150148  0.505975  1
  O  O19  1  0.791769  0.084774  0.768369  1
  O  O20  1  0.960097  0.605586  0.751547  1
  O  O21  1  0.699807  0.089166  0.264056  1
  O  O22  1  0.489985  0.090013  0.734492  1
  O  O23  1  0.548766  0.606783  0.262910  1
  O  O24  1  0.597631  0.155660  0.989843  1
  O  O25  1  0.005580  0.071594  0.248876  1
  O  O26  1  0.711578  0.414343  0.256136  1
  O  O27  1  0.460097  0.394414  0.748453  1
  O  O28  1  0.248062  0.097945  0.362486  1
  O  O29  1  0.417029  0.849852  0.994025  1
  O  O30  1  0.845254  0.404642  0.010327  1
  O  O31  1  0.097631  0.844340  0.510157  1
  O  O32  1  0.505580  0.928406  0.251124  1
  O  O33  1  0.345254  0.595358  0.489673  1
  O  O34  1  0.645732  0.386629  0.524544  1
  O  O35  1  0.752584  0.904018  0.633746  1
  O  O36  1  0.960204  0.686156  0.129804  1
  O  O37  1  0.289134  0.592969  0.749462  1
  O  O38  1  0.252584  0.095982  0.866254  1
  O  O39  1  0.789134  0.407031  0.750538  1
  O  O40  1  0.291769  0.915226  0.731631  1
  O  O41  1  0.748062  0.902055  0.137514  1
  O  O42  1  0.211578  0.585657  0.243864  1
  O  O43  1  0.145732  0.613371  0.975456  1
  O  O44  1  0.460204  0.313844  0.370196  1
  O  O45  1  0.036399  0.308118  0.879196  1
  O  O46  1  0.048766  0.393217  0.237090  1
  O  O47  1  0.199807  0.910834  0.235944  1
  O  O48  1  0.536399  0.691882  0.620804  1
  O  O49  1  0.989985  0.909987  0.765508  1
