# generated using pymatgen
data_Dy2Ho7Tm(In2Ni)4
_symmetry_space_group_name_H-M   'P 1'
_cell_length_a   3.58622100
_cell_length_b   7.97679400
_cell_length_c   17.88181002
_cell_angle_alpha   90.00349169
_cell_angle_beta   90.00000000
_cell_angle_gamma   90.00000000
_symmetry_Int_Tables_number   1
_chemical_formula_structural   Dy2Ho7Tm(In2Ni)4
_chemical_formula_sum   'Dy2 Ho7 Tm1 In8 Ni4'
_cell_volume   511.53682270
_cell_formula_units_Z   1
loop_
 _symmetry_equiv_pos_site_id
 _symmetry_equiv_pos_as_xyz
  1  'x, y, z'
loop_
 _atom_site_type_symbol
 _atom_site_label
 _atom_site_symmetry_multiplicity
 _atom_site_fract_x
 _atom_site_fract_y
 _atom_site_fract_z
 _atom_site_occupancy
  Dy  Dy0  1  0.500000  0.500396  0.999900  1
  Dy  Dy1  1  0.500000  0.999226  0.500414  1
  Ho  Ho2  1  0.500000  0.882478  0.911242  1
  Ho  Ho3  1  0.500000  0.118308  0.088695  1
  Ho  Ho4  1  0.500000  0.753696  0.720398  1
  Ho  Ho5  1  0.500000  0.254513  0.778368  1
  Ho  Ho6  1  0.500000  0.746539  0.221778  1
  Ho  Ho7  1  0.500000  0.246276  0.279324  1
  Ho  Ho8  1  0.500000  0.616361  0.411777  1
  Tm  Tm9  1  0.500000  0.381838  0.588953  1
  In  In10  1  0.000000  0.796276  0.069468  1
  In  In11  1  0.000000  0.925860  0.347932  1
  In  In12  1  0.000000  0.074154  0.652214  1
  In  In13  1  0.000000  0.573699  0.846854  1
  In  In14  1  0.000000  0.701768  0.567946  1
  In  In15  1  0.000000  0.204285  0.930851  1
  In  In16  1  0.000000  0.294746  0.432369  1
  In  In17  1  0.000000  0.427154  0.152867  1
  Ni  Ni18  1  0.000000  0.977595  0.803746  1
  Ni  Ni19  1  0.000000  0.525933  0.304107  1
  Ni  Ni20  1  0.000000  0.472586  0.694381  1
  Ni  Ni21  1  0.000000  0.026315  0.196416  1
