# generated using pymatgen
data_Tb3Ho5Cd2IrPt
_symmetry_space_group_name_H-M   'P 1'
_cell_length_a   9.63821649
_cell_length_b   9.63821731
_cell_length_c   9.61668300
_cell_angle_alpha   60.07388478
_cell_angle_beta   60.07388196
_cell_angle_gamma   60.27550575
_symmetry_Int_Tables_number   1
_chemical_formula_structural   Tb3Ho5Cd2IrPt
_chemical_formula_sum   'Tb6 Ho10 Cd4 Ir2 Pt2'
_cell_volume   633.70323081
_cell_formula_units_Z   2
loop_
 _symmetry_equiv_pos_site_id
 _symmetry_equiv_pos_as_xyz
  1  'x, y, z'
loop_
 _atom_site_type_symbol
 _atom_site_label
 _atom_site_symmetry_multiplicity
 _atom_site_fract_x
 _atom_site_fract_y
 _atom_site_fract_z
 _atom_site_occupancy
  Tb  Tb0  1  0.188767  0.813717  0.810626  1
  Tb  Tb1  1  0.813717  0.188767  0.186891  1
  Tb  Tb2  1  0.813717  0.188767  0.810626  1
  Tb  Tb3  1  0.188767  0.813717  0.186891  1
  Tb  Tb4  1  0.813249  0.813249  0.186751  1
  Tb  Tb5  1  0.188336  0.188336  0.811664  1
  Ho  Ho6  1  0.600655  0.600655  0.595880  1
  Ho  Ho7  1  0.600655  0.600655  0.202810  1
  Ho  Ho8  1  0.606217  0.193389  0.600197  1
  Ho  Ho9  1  0.193389  0.606217  0.600197  1
  Ho  Ho10  1  0.057567  0.439545  0.439660  1
  Ho  Ho11  1  0.439545  0.057567  0.063228  1
  Ho  Ho12  1  0.439545  0.057567  0.439660  1
  Ho  Ho13  1  0.057567  0.439545  0.063228  1
  Ho  Ho14  1  0.440551  0.440551  0.059449  1
  Ho  Ho15  1  0.062054  0.062054  0.437946  1
  Cd  Cd16  1  0.830531  0.830531  0.832184  1
  Cd  Cd17  1  0.830531  0.830531  0.506755  1
  Cd  Cd18  1  0.830236  0.506279  0.831743  1
  Cd  Cd19  1  0.506279  0.830236  0.831743  1
  Ir  Ir20  1  0.390617  0.823138  0.393123  1
  Ir  Ir21  1  0.823138  0.390617  0.393123  1
  Pt  Pt22  1  0.392186  0.392186  0.395481  1
  Pt  Pt23  1  0.392186  0.392186  0.820147  1
