# generated using pymatgen
data_Tm4Th6Sn5BiC2
_symmetry_space_group_name_H-M   'P 1'
_cell_length_a   9.21819851
_cell_length_b   9.21290495
_cell_length_c   6.46786500
_cell_angle_alpha   90.00000000
_cell_angle_beta   90.00000000
_cell_angle_gamma   119.98099579
_symmetry_Int_Tables_number   1
_chemical_formula_structural   Tm4Th6Sn5BiC2
_chemical_formula_sum   'Tm4 Th6 Sn5 Bi1 C2'
_cell_volume   475.79224577
_cell_formula_units_Z   1
loop_
 _symmetry_equiv_pos_site_id
 _symmetry_equiv_pos_as_xyz
  1  'x, y, z'
loop_
 _atom_site_type_symbol
 _atom_site_label
 _atom_site_symmetry_multiplicity
 _atom_site_fract_x
 _atom_site_fract_y
 _atom_site_fract_z
 _atom_site_occupancy
  Tm  Tm0  1  0.663483  0.332564  0.998852  1
  Tm  Tm1  1  0.336517  0.669082  0.998852  1
  Tm  Tm2  1  0.336517  0.669082  0.501148  1
  Tm  Tm3  1  0.663483  0.332564  0.501148  1
  Th  Th4  1  0.776246  0.776029  0.750000  1
  Th  Th5  1  0.223754  0.999783  0.750000  1
  Th  Th6  1  0.000000  0.221368  0.750000  1
  Th  Th7  1  0.225162  0.222013  0.250000  1
  Th  Th8  1  0.774838  0.996851  0.250000  1
  Th  Th9  1  0.000000  0.779004  0.250000  1
  Sn  Sn10  1  0.406631  0.406868  0.750000  1
  Sn  Sn11  1  0.593369  0.000237  0.750000  1
  Sn  Sn12  1  0.000000  0.593938  0.750000  1
  Sn  Sn13  1  0.592122  0.591984  0.250000  1
  Sn  Sn14  1  0.407878  0.999862  0.250000  1
  Bi  Bi15  1  0.000000  0.407630  0.250000  1
  C  C16  1  0.000000  0.000571  0.000089  1
  C  C17  1  0.000000  0.000571  0.499911  1
