# generated using pymatgen
data_Nd2ErHf(Al3Ir)6
_symmetry_space_group_name_H-M   'P 1'
_cell_length_a   7.56238200
_cell_length_b   7.55348389
_cell_length_c   9.46536900
_cell_angle_alpha   90.00000000
_cell_angle_beta   90.00000000
_cell_angle_gamma   119.50438000
_symmetry_Int_Tables_number   1
_chemical_formula_structural   Nd2ErHf(Al3Ir)6
_chemical_formula_sum   'Nd2 Er1 Hf1 Al18 Ir6'
_cell_volume   470.56699019
_cell_formula_units_Z   1
loop_
 _symmetry_equiv_pos_site_id
 _symmetry_equiv_pos_as_xyz
  1  'x, y, z'
loop_
 _atom_site_type_symbol
 _atom_site_label
 _atom_site_symmetry_multiplicity
 _atom_site_fract_x
 _atom_site_fract_y
 _atom_site_fract_z
 _atom_site_occupancy
  Nd  Nd0  1  0.004752  0.326831  0.250000  1
  Nd  Nd1  1  0.329304  0.006291  0.250000  1
  Er  Er2  1  0.671222  0.996008  0.750000  1
  Hf  Hf3  1  0.998261  0.674857  0.750000  1
  Al  Al4  1  0.125198  0.123144  0.750000  1
  Al  Al5  1  0.868130  0.866607  0.250000  1
  Al  Al6  1  0.999747  0.338654  0.581615  1
  Al  Al7  1  0.997796  0.664891  0.433816  1
  Al  Al8  1  0.997796  0.664891  0.066184  1
  Al  Al9  1  0.332823  0.997779  0.918374  1
  Al  Al10  1  0.999747  0.338654  0.918385  1
  Al  Al11  1  0.664482  0.996181  0.070211  1
  Al  Al12  1  0.664482  0.996181  0.429789  1
  Al  Al13  1  0.332823  0.997779  0.581626  1
  Al  Al14  1  0.334550  0.334795  0.043162  1
  Al  Al15  1  0.669415  0.667215  0.941328  1
  Al  Al16  1  0.669415  0.667215  0.558672  1
  Al  Al17  1  0.334550  0.334795  0.456838  1
  Al  Al18  1  0.336665  0.550723  0.750000  1
  Al  Al19  1  0.660839  0.454612  0.250000  1
  Al  Al20  1  0.556863  0.344931  0.750000  1
  Al  Al21  1  0.453005  0.659329  0.250000  1
  Ir  Ir22  1  0.672810  0.328966  0.503209  1
  Ir  Ir23  1  0.328598  0.672588  0.504025  1
  Ir  Ir24  1  0.328598  0.672588  0.995975  1
  Ir  Ir25  1  0.672810  0.328966  0.996791  1
  Ir  Ir26  1  0.997660  0.997262  0.504074  1
  Ir  Ir27  1  0.997660  0.997262  0.995926  1
