# generated using pymatgen
data_LiCa2IrO6
_symmetry_space_group_name_H-M   'P 1'
_cell_length_a   5.66415900
_cell_length_b   5.43387246
_cell_length_c   9.42076757
_cell_angle_alpha   54.37602599
_cell_angle_beta   90.00046826
_cell_angle_gamma   89.99967042
_symmetry_Int_Tables_number   1
_chemical_formula_structural   LiCa2IrO6
_chemical_formula_sum   'Li2 Ca4 Ir2 O12'
_cell_volume   235.69229062
_cell_formula_units_Z   2
loop_
 _symmetry_equiv_pos_site_id
 _symmetry_equiv_pos_as_xyz
  1  'x, y, z'
loop_
 _atom_site_type_symbol
 _atom_site_label
 _atom_site_symmetry_multiplicity
 _atom_site_fract_x
 _atom_site_fract_y
 _atom_site_fract_z
 _atom_site_occupancy
  Li  Li0  1  0.000000  0.000000  0.500000  1
  Li  Li1  1  0.500000  0.000000  0.000000  1
  Ca  Ca2  1  0.564913  0.737991  0.746418  1
  Ca  Ca3  1  0.064934  0.261990  0.753617  1
  Ca  Ca4  1  0.935066  0.738010  0.246383  1
  Ca  Ca5  1  0.435087  0.262009  0.253582  1
  Ir  Ir6  1  0.000000  0.500000  0.000000  1
  Ir  Ir7  1  0.500000  0.500000  0.500000  1
  O  O8  1  0.027909  0.163375  0.240677  1
  O  O9  1  0.310143  0.740270  0.547608  1
  O  O10  1  0.282296  0.369831  0.947156  1
  O  O11  1  0.782287  0.630165  0.552845  1
  O  O12  1  0.810158  0.259733  0.952395  1
  O  O13  1  0.527919  0.836654  0.259304  1
  O  O14  1  0.472081  0.163346  0.740696  1
  O  O15  1  0.189842  0.740267  0.047605  1
  O  O16  1  0.217713  0.369835  0.447155  1
  O  O17  1  0.689857  0.259730  0.452392  1
  O  O18  1  0.717704  0.630169  0.052844  1
  O  O19  1  0.972091  0.836625  0.759323  1
