# generated using pymatgen
data_NdIn(ReH9)2
_symmetry_space_group_name_H-M   'P 1'
_cell_length_a   5.08331725
_cell_length_b   5.08331753
_cell_length_c   9.48851962
_cell_angle_alpha   88.49675065
_cell_angle_beta   91.50325204
_cell_angle_gamma   122.00895774
_symmetry_Int_Tables_number   1
_chemical_formula_structural   NdIn(ReH9)2
_chemical_formula_sum   'Nd1 In1 Re2 H18'
_cell_volume   207.81434944
_cell_formula_units_Z   1
loop_
 _symmetry_equiv_pos_site_id
 _symmetry_equiv_pos_as_xyz
  1  'x, y, z'
loop_
 _atom_site_type_symbol
 _atom_site_label
 _atom_site_symmetry_multiplicity
 _atom_site_fract_x
 _atom_site_fract_y
 _atom_site_fract_z
 _atom_site_occupancy
  Nd  Nd0  1  0.000000  0.000000  0.000000  1
  In  In1  1  0.000000  0.000000  0.500000  1
  Re  Re2  1  0.327318  0.672682  0.786525  1
  Re  Re3  1  0.672682  0.327318  0.213475  1
  H  H4  1  0.413375  0.586625  0.632407  1
  H  H5  1  0.586625  0.413375  0.367593  1
  H  H6  1  0.417909  0.582091  0.946567  1
  H  H7  1  0.582091  0.417909  0.053433  1
  H  H8  1  0.517023  0.003465  0.884212  1
  H  H9  1  0.003465  0.517023  0.115788  1
  H  H10  1  0.496737  0.981827  0.674593  1
  H  H11  1  0.981827  0.496737  0.325407  1
  H  H12  1  0.482977  0.996535  0.115788  1
  H  H13  1  0.996535  0.482977  0.884212  1
  H  H14  1  0.503263  0.018173  0.325407  1
  H  H15  1  0.018173  0.503263  0.674593  1
  H  H16  1  0.707266  0.773802  0.780924  1
  H  H17  1  0.773802  0.707266  0.219076  1
  H  H18  1  0.292734  0.226198  0.219076  1
  H  H19  1  0.226198  0.292734  0.780924  1
  H  H20  1  0.138746  0.861254  0.771030  1
  H  H21  1  0.861254  0.138746  0.228970  1
