# generated using pymatgen
data_Dy12Co3NiSnRu
_symmetry_space_group_name_H-M   'P 1'
_cell_length_a   8.31065818
_cell_length_b   8.31065793
_cell_length_c   8.31065871
_cell_angle_alpha   106.65473797
_cell_angle_beta   110.75123747
_cell_angle_gamma   111.04401185
_symmetry_Int_Tables_number   1
_chemical_formula_structural   Dy12Co3NiSnRu
_chemical_formula_sum   'Dy12 Co3 Ni1 Sn1 Ru1'
_cell_volume   441.06085612
_cell_formula_units_Z   1
loop_
 _symmetry_equiv_pos_site_id
 _symmetry_equiv_pos_as_xyz
  1  'x, y, z'
loop_
 _atom_site_type_symbol
 _atom_site_label
 _atom_site_symmetry_multiplicity
 _atom_site_fract_x
 _atom_site_fract_y
 _atom_site_fract_z
 _atom_site_occupancy
  Dy  Dy0  1  0.472588  0.286123  0.183117  1
  Dy  Dy1  1  0.103006  0.286123  0.813536  1
  Dy  Dy2  1  0.896994  0.710530  0.183117  1
  Dy  Dy3  1  0.527412  0.710530  0.813536  1
  Dy  Dy4  1  0.304653  0.621948  0.317295  1
  Dy  Dy5  1  0.306574  0.992843  0.686268  1
  Dy  Dy6  1  0.693426  0.379694  0.686268  1
  Dy  Dy7  1  0.695347  0.012641  0.317295  1
  Dy  Dy8  1  0.193454  0.212694  0.406147  1
  Dy  Dy9  1  0.806806  0.786917  0.593724  1
  Dy  Dy10  1  0.193194  0.786917  0.980110  1
  Dy  Dy11  1  0.806546  0.212694  0.019241  1
  Co  Co12  1  0.500000  0.387307  0.887307  1
  Co  Co13  1  0.375626  0.999175  0.374801  1
  Co  Co14  1  0.624374  0.999175  0.623549  1
  Ni  Ni15  1  0.500000  0.615826  0.115826  1
  Sn  Sn16  1  0.000000  0.499661  0.499661  1
  Ru  Ru17  1  0.000000  0.999202  0.999202  1
