# generated using pymatgen
data_Pu2PaF12
_symmetry_space_group_name_H-M   'P 1'
_cell_length_a   8.43545128
_cell_length_b   8.43545114
_cell_length_c   8.32042356
_cell_angle_alpha   63.74047389
_cell_angle_beta   63.74047744
_cell_angle_gamma   80.65768944
_symmetry_Int_Tables_number   1
_chemical_formula_structural   Pu2PaF12
_chemical_formula_sum   'Pu4 Pa2 F24'
_cell_volume   475.74830185
_cell_formula_units_Z   2
loop_
 _symmetry_equiv_pos_site_id
 _symmetry_equiv_pos_as_xyz
  1  'x, y, z'
loop_
 _atom_site_type_symbol
 _atom_site_label
 _atom_site_symmetry_multiplicity
 _atom_site_fract_x
 _atom_site_fract_y
 _atom_site_fract_z
 _atom_site_occupancy
  Pu  Pu0  1  0.627666  0.775443  0.667529  1
  Pu  Pu1  1  0.372334  0.224557  0.332471  1
  Pu  Pu2  1  0.224557  0.372334  0.832471  1
  Pu  Pu3  1  0.775443  0.627666  0.167529  1
  Pa  Pa4  1  0.787122  0.212878  0.750000  1
  Pa  Pa5  1  0.212878  0.787122  0.250000  1
  F  F6  1  0.314134  0.261326  0.606561  1
  F  F7  1  0.685866  0.738674  0.393439  1
  F  F8  1  0.738674  0.685866  0.893439  1
  F  F9  1  0.261326  0.314134  0.106561  1
  F  F10  1  0.820993  0.946474  0.950376  1
  F  F11  1  0.179007  0.053526  0.049624  1
  F  F12  1  0.053526  0.179007  0.549624  1
  F  F13  1  0.946474  0.820993  0.450376  1
  F  F14  1  0.402967  0.597033  0.750000  1
  F  F15  1  0.597033  0.402967  0.250000  1
  F  F16  1  0.500000  0.000000  0.500000  1
  F  F17  1  0.000000  0.500000  0.000000  1
  F  F18  1  0.511977  0.254171  0.781160  1
  F  F19  1  0.488023  0.745829  0.218840  1
  F  F20  1  0.745829  0.488023  0.718840  1
  F  F21  1  0.254171  0.511977  0.281160  1
  F  F22  1  0.396183  0.818041  0.936653  1
  F  F23  1  0.603817  0.181959  0.063347  1
  F  F24  1  0.181959  0.603817  0.563347  1
  F  F25  1  0.818041  0.396183  0.436653  1
  F  F26  1  0.729088  0.030456  0.652465  1
  F  F27  1  0.270912  0.969544  0.347535  1
  F  F28  1  0.969544  0.270912  0.847535  1
  F  F29  1  0.030456  0.729088  0.152465  1
