# generated using pymatgen
data_Tb20Co3Bi8Os
_symmetry_space_group_name_H-M   'P 1'
_cell_length_a   8.04709005
_cell_length_b   8.94352900
_cell_length_c   12.48706053
_cell_angle_alpha   90.00000000
_cell_angle_beta   90.25461653
_cell_angle_gamma   90.00000000
_symmetry_Int_Tables_number   1
_chemical_formula_structural   Tb20Co3Bi8Os
_chemical_formula_sum   'Tb20 Co3 Bi8 Os1'
_cell_volume   898.67717155
_cell_formula_units_Z   1
loop_
 _symmetry_equiv_pos_site_id
 _symmetry_equiv_pos_as_xyz
  1  'x, y, z'
loop_
 _atom_site_type_symbol
 _atom_site_label
 _atom_site_symmetry_multiplicity
 _atom_site_fract_x
 _atom_site_fract_y
 _atom_site_fract_z
 _atom_site_occupancy
  Tb  Tb0  1  0.847692  0.750000  0.800010  1
  Tb  Tb1  1  0.151886  0.250000  0.198793  1
  Tb  Tb2  1  0.348583  0.250000  0.699142  1
  Tb  Tb3  1  0.653172  0.750000  0.294613  1
  Tb  Tb4  1  0.378099  0.750000  0.694160  1
  Tb  Tb5  1  0.619013  0.250000  0.309685  1
  Tb  Tb6  1  0.880642  0.250000  0.810610  1
  Tb  Tb7  1  0.118349  0.750000  0.187900  1
  Tb  Tb8  1  0.946776  0.750000  0.503647  1
  Tb  Tb9  1  0.048661  0.250000  0.496651  1
  Tb  Tb10  1  0.452529  0.250000  0.997189  1
  Tb  Tb11  1  0.547350  0.750000  0.002524  1
  Tb  Tb12  1  0.677802  0.040545  0.565054  1
  Tb  Tb13  1  0.323594  0.965813  0.436638  1
  Tb  Tb14  1  0.176355  0.966438  0.936994  1
  Tb  Tb15  1  0.323594  0.534187  0.436638  1
  Tb  Tb16  1  0.823005  0.035574  0.063045  1
  Tb  Tb17  1  0.677802  0.459455  0.565054  1
  Tb  Tb18  1  0.823005  0.464426  0.063045  1
  Tb  Tb19  1  0.176355  0.533562  0.936994  1
  Co  Co20  1  0.435067  0.250000  0.490912  1
  Co  Co21  1  0.060484  0.250000  0.991907  1
  Co  Co22  1  0.938070  0.750000  0.007478  1
  Bi  Bi23  1  0.572159  0.492085  0.827311  1
  Bi  Bi24  1  0.427017  0.507309  0.173147  1
  Bi  Bi25  1  0.072268  0.507333  0.674383  1
  Bi  Bi26  1  0.427017  0.992691  0.173147  1
  Bi  Bi27  1  0.929494  0.492326  0.325762  1
  Bi  Bi28  1  0.572159  0.007915  0.827311  1
  Bi  Bi29  1  0.929494  0.007674  0.325762  1
  Bi  Bi30  1  0.072268  0.992667  0.674383  1
  Os  Os31  1  0.570236  0.750000  0.510110  1
