# generated using pymatgen
data_Hf3GaSn2Ir2Rh
_symmetry_space_group_name_H-M   'P 1'
_cell_length_a   7.46074412
_cell_length_b   7.46074404
_cell_length_c   3.47957500
_cell_angle_alpha   90.00000000
_cell_angle_beta   90.00000000
_cell_angle_gamma   120.79052818
_symmetry_Int_Tables_number   1
_chemical_formula_structural   Hf3GaSn2Ir2Rh
_chemical_formula_sum   'Hf3 Ga1 Sn2 Ir2 Rh1'
_cell_volume   166.38193331
_cell_formula_units_Z   1
loop_
 _symmetry_equiv_pos_site_id
 _symmetry_equiv_pos_as_xyz
  1  'x, y, z'
loop_
 _atom_site_type_symbol
 _atom_site_label
 _atom_site_symmetry_multiplicity
 _atom_site_fract_x
 _atom_site_fract_y
 _atom_site_fract_z
 _atom_site_occupancy
  Hf  Hf0  1  0.396940  0.020233  0.500000  1
  Hf  Hf1  1  0.020233  0.396940  0.500000  1
  Hf  Hf2  1  0.588195  0.588195  0.500000  1
  Ga  Ga3  1  0.271057  0.271057  0.000000  1
  Sn  Sn4  1  0.729854  0.998880  0.000000  1
  Sn  Sn5  1  0.998880  0.729854  0.000000  1
  Ir  Ir6  1  0.328033  0.655177  0.000000  1
  Ir  Ir7  1  0.655177  0.328033  0.000000  1
  Rh  Rh8  1  0.011630  0.011630  0.500000  1
