# generated using pymatgen
data_Zr9(PaPd4)5
_symmetry_space_group_name_H-M   'P 1'
_cell_length_a   8.32776762
_cell_length_b   8.32776709
_cell_length_c   9.82096136
_cell_angle_alpha   90.28268352
_cell_angle_beta   90.28268440
_cell_angle_gamma   107.32816962
_symmetry_Int_Tables_number   1
_chemical_formula_structural   Zr9(PaPd4)5
_chemical_formula_sum   'Zr9 Pa5 Pd20'
_cell_volume   650.16581659
_cell_formula_units_Z   1
loop_
 _symmetry_equiv_pos_site_id
 _symmetry_equiv_pos_as_xyz
  1  'x, y, z'
loop_
 _atom_site_type_symbol
 _atom_site_label
 _atom_site_symmetry_multiplicity
 _atom_site_fract_x
 _atom_site_fract_y
 _atom_site_fract_z
 _atom_site_occupancy
  Zr  Zr0  1  0.812150  0.187850  0.000000  1
  Zr  Zr1  1  0.995986  0.504526  0.750192  1
  Zr  Zr2  1  0.007755  0.493390  0.249168  1
  Zr  Zr3  1  0.812965  0.816006  0.806057  1
  Zr  Zr4  1  0.495474  0.004014  0.249808  1
  Zr  Zr5  1  0.305014  0.694986  0.500000  1
  Zr  Zr6  1  0.506610  0.992245  0.750832  1
  Zr  Zr7  1  0.183994  0.187035  0.193943  1
  Zr  Zr8  1  0.000423  0.999577  0.500000  1
  Pa  Pa9  1  0.186692  0.813308  0.000000  1
  Pa  Pa10  1  0.694614  0.305386  0.500000  1
  Pa  Pa11  1  0.305260  0.309191  0.685626  1
  Pa  Pa12  1  0.690809  0.694740  0.314374  1
  Pa  Pa13  1  0.502158  0.497842  0.000000  1
  Pd  Pd14  1  0.891872  0.894754  0.103360  1
  Pd  Pd15  1  0.649039  0.351632  0.208042  1
  Pd  Pd16  1  0.061774  0.354270  0.498510  1
  Pd  Pd17  1  0.648368  0.350961  0.791958  1
  Pd  Pd18  1  0.851567  0.141961  0.292280  1
  Pd  Pd19  1  0.142285  0.850524  0.291431  1
  Pd  Pd20  1  0.600325  0.602921  0.605519  1
  Pd  Pd21  1  0.437185  0.144075  0.995400  1
  Pd  Pd22  1  0.351752  0.645642  0.792598  1
  Pd  Pd23  1  0.149476  0.857715  0.708569  1
  Pd  Pd24  1  0.145184  0.438506  0.996750  1
  Pd  Pd25  1  0.561494  0.854816  0.003250  1
  Pd  Pd26  1  0.938905  0.645507  0.500548  1
  Pd  Pd27  1  0.645730  0.938226  0.501490  1
  Pd  Pd28  1  0.105246  0.108128  0.896640  1
  Pd  Pd29  1  0.397079  0.399675  0.394481  1
  Pd  Pd30  1  0.855925  0.562815  0.004600  1
  Pd  Pd31  1  0.354493  0.061095  0.499452  1
  Pd  Pd32  1  0.858039  0.148433  0.707720  1
  Pd  Pd33  1  0.354358  0.648248  0.207402  1
