# generated using pymatgen
data_Th4Al24IrPt8
_symmetry_space_group_name_H-M   'P 1'
_cell_length_a   7.62635233
_cell_length_b   7.63953611
_cell_length_c   13.22763291
_cell_angle_alpha   84.53632676
_cell_angle_beta   78.96043430
_cell_angle_gamma   59.95445763
_symmetry_Int_Tables_number   1
_chemical_formula_structural   Th4Al24IrPt8
_chemical_formula_sum   'Th4 Al24 Ir1 Pt8'
_cell_volume   654.76457465
_cell_formula_units_Z   1
loop_
 _symmetry_equiv_pos_site_id
 _symmetry_equiv_pos_as_xyz
  1  'x, y, z'
loop_
 _atom_site_type_symbol
 _atom_site_label
 _atom_site_symmetry_multiplicity
 _atom_site_fract_x
 _atom_site_fract_y
 _atom_site_fract_z
 _atom_site_occupancy
  Th  Th0  1  0.394878  0.167831  0.807261  1
  Th  Th1  1  0.605122  0.832169  0.192739  1
  Th  Th2  1  0.733599  0.498588  0.807120  1
  Th  Th3  1  0.266401  0.501412  0.192880  1
  Al  Al4  1  0.689683  0.830592  0.946356  1
  Al  Al5  1  0.310317  0.169408  0.053644  1
  Al  Al6  1  0.145956  0.833198  0.560724  1
  Al  Al7  1  0.854044  0.166802  0.439276  1
  Al  Al8  1  0.481698  0.166587  0.557540  1
  Al  Al9  1  0.518302  0.833413  0.442460  1
  Al  Al10  1  0.211449  0.165724  0.334816  1
  Al  Al11  1  0.788551  0.834276  0.665184  1
  Al  Al12  1  0.435040  0.510474  0.665187  1
  Al  Al13  1  0.564960  0.489526  0.334813  1
  Al  Al14  1  0.112012  0.155831  0.663272  1
  Al  Al15  1  0.887988  0.844169  0.336728  1
  Al  Al16  1  0.346052  0.502476  0.946377  1
  Al  Al17  1  0.653948  0.497524  0.053623  1
  Al  Al18  1  0.014213  0.168033  0.957438  1
  Al  Al19  1  0.985787  0.831967  0.042562  1
  Al  Al20  1  0.186636  0.499441  0.442723  1
  Al  Al21  1  0.813364  0.500559  0.557277  1
  Al  Al22  1  0.738879  0.163018  0.183246  1
  Al  Al23  1  0.261121  0.836982  0.816754  1
  Al  Al24  1  0.060844  0.633463  0.816993  1
  Al  Al25  1  0.939156  0.366537  0.183007  1
  Al  Al26  1  0.860417  0.037616  0.816324  1
  Al  Al27  1  0.139583  0.962384  0.183677  1
  Ir  Ir28  1  0.000000  0.500000  0.000000  1
  Pt  Pt29  1  0.120078  0.491192  0.639222  1
  Pt  Pt30  1  0.879922  0.508808  0.360778  1
  Pt  Pt31  1  0.656268  0.171902  0.999851  1
  Pt  Pt32  1  0.343732  0.828098  0.000149  1
  Pt  Pt33  1  0.536871  0.166856  0.361255  1
  Pt  Pt34  1  0.463129  0.833144  0.638745  1
  Pt  Pt35  1  0.778371  0.175549  0.637580  1
  Pt  Pt36  1  0.221629  0.824451  0.362420  1
