# generated using pymatgen
data_YHo4Zr3(As3Rh4)4
_symmetry_space_group_name_H-M   'P 1'
_cell_length_a   13.34117700
_cell_length_b   13.34117708
_cell_length_c   4.01307600
_cell_angle_alpha   90.00000000
_cell_angle_beta   90.00000000
_cell_angle_gamma   120.00000229
_symmetry_Int_Tables_number   1
_chemical_formula_structural   YHo4Zr3(As3Rh4)4
_chemical_formula_sum   'Y1 Ho4 Zr3 As12 Rh16'
_cell_volume   618.58060773
_cell_formula_units_Z   1
loop_
 _symmetry_equiv_pos_site_id
 _symmetry_equiv_pos_as_xyz
  1  'x, y, z'
loop_
 _atom_site_type_symbol
 _atom_site_label
 _atom_site_symmetry_multiplicity
 _atom_site_fract_x
 _atom_site_fract_y
 _atom_site_fract_z
 _atom_site_occupancy
  Y  Y0  1  0.666667  0.333333  0.000000  1
  Ho  Ho1  1  0.187596  0.187612  0.500000  1
  Ho  Ho2  1  0.812388  0.999984  0.500000  1
  Ho  Ho3  1  0.000016  0.812404  0.500000  1
  Ho  Ho4  1  0.333333  0.666667  0.000000  1
  Zr  Zr5  1  0.556381  0.556432  0.000000  1
  Zr  Zr6  1  0.443568  0.999949  0.000000  1
  Zr  Zr7  1  0.000051  0.443619  0.000000  1
  As  As8  1  0.824878  0.824882  0.000000  1
  As  As9  1  0.175118  0.999996  0.000000  1
  As  As10  1  0.000004  0.175122  0.000000  1
  As  As11  1  0.170855  0.485974  0.500000  1
  As  As12  1  0.514026  0.684881  0.500000  1
  As  As13  1  0.315119  0.829145  0.500000  1
  As  As14  1  0.684899  0.514298  0.500000  1
  As  As15  1  0.829399  0.315101  0.500000  1
  As  As16  1  0.485702  0.170601  0.500000  1
  As  As17  1  0.354079  0.354044  0.000000  1
  As  As18  1  0.645956  0.000035  0.000000  1
  As  As19  1  0.999965  0.645921  0.000000  1
  Rh  Rh20  1  0.719458  0.719477  0.500000  1
  Rh  Rh21  1  0.280523  0.999980  0.500000  1
  Rh  Rh22  1  0.000020  0.280542  0.500000  1
  Rh  Rh23  1  0.176544  0.373728  0.000000  1
  Rh  Rh24  1  0.626272  0.802817  0.000000  1
  Rh  Rh25  1  0.197183  0.823456  0.000000  1
  Rh  Rh26  1  0.802872  0.626407  0.000000  1
  Rh  Rh27  1  0.823535  0.197128  0.000000  1
  Rh  Rh28  1  0.373593  0.176465  0.000000  1
  Rh  Rh29  1  0.354817  0.482428  0.500000  1
  Rh  Rh30  1  0.517572  0.872390  0.500000  1
  Rh  Rh31  1  0.127610  0.645183  0.500000  1
  Rh  Rh32  1  0.872693  0.517847  0.500000  1
  Rh  Rh33  1  0.645155  0.127307  0.500000  1
  Rh  Rh34  1  0.482153  0.354845  0.500000  1
  Rh  Rh35  1  0.000000  0.000000  0.000000  1
