# generated using pymatgen
data_HoNiP3Rh4
_symmetry_space_group_name_H-M   'P 1'
_cell_length_a   3.86372200
_cell_length_b   10.74444300
_cell_length_c   12.44470000
_cell_angle_alpha   90.00000000
_cell_angle_beta   90.00000000
_cell_angle_gamma   90.00000000
_symmetry_Int_Tables_number   1
_chemical_formula_structural   HoNiP3Rh4
_chemical_formula_sum   'Ho4 Ni4 P12 Rh16'
_cell_volume   516.62356115
_cell_formula_units_Z   4
loop_
 _symmetry_equiv_pos_site_id
 _symmetry_equiv_pos_as_xyz
  1  'x, y, z'
loop_
 _atom_site_type_symbol
 _atom_site_label
 _atom_site_symmetry_multiplicity
 _atom_site_fract_x
 _atom_site_fract_y
 _atom_site_fract_z
 _atom_site_occupancy
  Ho  Ho0  1  0.250000  0.586579  0.707455  1
  Ho  Ho1  1  0.250000  0.913421  0.207455  1
  Ho  Ho2  1  0.750000  0.413421  0.292545  1
  Ho  Ho3  1  0.750000  0.086579  0.792545  1
  Ni  Ni4  1  0.250000  0.463495  0.935594  1
  Ni  Ni5  1  0.250000  0.036505  0.435594  1
  Ni  Ni6  1  0.750000  0.536505  0.064406  1
  Ni  Ni7  1  0.750000  0.963495  0.564406  1
  P  P8  1  0.250000  0.418742  0.108687  1
  P  P9  1  0.250000  0.081258  0.608687  1
  P  P10  1  0.750000  0.581258  0.891313  1
  P  P11  1  0.750000  0.918742  0.391313  1
  P  P12  1  0.250000  0.270541  0.872231  1
  P  P13  1  0.250000  0.229459  0.372231  1
  P  P14  1  0.750000  0.729459  0.127769  1
  P  P15  1  0.750000  0.770541  0.627769  1
  P  P16  1  0.250000  0.597341  0.386447  1
  P  P17  1  0.250000  0.902659  0.886447  1
  P  P18  1  0.750000  0.402659  0.613553  1
  P  P19  1  0.750000  0.097341  0.113553  1
  Rh  Rh20  1  0.250000  0.712189  0.978937  1
  Rh  Rh21  1  0.250000  0.787811  0.478937  1
  Rh  Rh22  1  0.750000  0.287811  0.021063  1
  Rh  Rh23  1  0.750000  0.212189  0.521063  1
  Rh  Rh24  1  0.250000  0.407405  0.479724  1
  Rh  Rh25  1  0.250000  0.092595  0.979724  1
  Rh  Rh26  1  0.750000  0.592595  0.520276  1
  Rh  Rh27  1  0.750000  0.907405  0.020276  1
  Rh  Rh28  1  0.250000  0.224874  0.180585  1
  Rh  Rh29  1  0.250000  0.275126  0.680585  1
  Rh  Rh30  1  0.750000  0.775126  0.819415  1
  Rh  Rh31  1  0.750000  0.724874  0.319415  1
  Rh  Rh32  1  0.250000  0.888306  0.696323  1
  Rh  Rh33  1  0.250000  0.611694  0.196323  1
  Rh  Rh34  1  0.750000  0.111694  0.303677  1
  Rh  Rh35  1  0.750000  0.388306  0.803677  1
