# generated using pymatgen
data_ZrNb8InSe16
_symmetry_space_group_name_H-M   'P 1'
_cell_length_a   7.02368839
_cell_length_b   7.02241630
_cell_length_c   14.64308195
_cell_angle_alpha   89.99999799
_cell_angle_beta   89.96393193
_cell_angle_gamma   119.99407455
_symmetry_Int_Tables_number   1
_chemical_formula_structural   ZrNb8InSe16
_chemical_formula_sum   'Zr1 Nb8 In1 Se16'
_cell_volume   625.51934487
_cell_formula_units_Z   1
loop_
 _symmetry_equiv_pos_site_id
 _symmetry_equiv_pos_as_xyz
  1  'x, y, z'
loop_
 _atom_site_type_symbol
 _atom_site_label
 _atom_site_symmetry_multiplicity
 _atom_site_fract_x
 _atom_site_fract_y
 _atom_site_fract_z
 _atom_site_occupancy
  Zr  Zr0  1  0.000000  0.000000  0.500000  1
  Nb  Nb1  1  0.989796  0.494898  0.267785  1
  Nb  Nb2  1  0.010204  0.505102  0.732215  1
  Nb  Nb3  1  0.494975  0.505211  0.731968  1
  Nb  Nb4  1  0.505025  0.010237  0.268032  1
  Nb  Nb5  1  0.999805  0.999902  0.728192  1
  Nb  Nb6  1  0.000195  0.000098  0.271808  1
  Nb  Nb7  1  0.505025  0.494789  0.268032  1
  Nb  Nb8  1  0.494975  0.989763  0.731968  1
  In  In9  1  0.000000  0.000000  0.000000  1
  Se  Se10  1  0.333117  0.666559  0.615766  1
  Se  Se11  1  0.666495  0.333247  0.151858  1
  Se  Se12  1  0.666883  0.333441  0.384234  1
  Se  Se13  1  0.333505  0.666753  0.848142  1
  Se  Se14  1  0.170516  0.341557  0.383863  1
  Se  Se15  1  0.834461  0.164798  0.843438  1
  Se  Se16  1  0.330001  0.164999  0.843135  1
  Se  Se17  1  0.658607  0.829304  0.383934  1
  Se  Se18  1  0.170516  0.828960  0.383863  1
  Se  Se19  1  0.834461  0.669663  0.843438  1
  Se  Se20  1  0.165539  0.330337  0.156562  1
  Se  Se21  1  0.829484  0.171040  0.616137  1
  Se  Se22  1  0.341393  0.170696  0.616066  1
  Se  Se23  1  0.669999  0.835001  0.156865  1
  Se  Se24  1  0.165539  0.835202  0.156562  1
  Se  Se25  1  0.829484  0.658443  0.616137  1
