# generated using pymatgen
data_Pr2Si2BIr2
_symmetry_space_group_name_H-M   'P 1'
_cell_length_a   6.02234391
_cell_length_b   6.02234354
_cell_length_c   7.21041783
_cell_angle_alpha   126.25890587
_cell_angle_beta   126.25890562
_cell_angle_gamma   40.73800510
_symmetry_Int_Tables_number   1
_chemical_formula_structural   Pr2Si2BIr2
_chemical_formula_sum   'Pr2 Si2 B1 Ir2'
_cell_volume   132.41352969
_cell_formula_units_Z   1
loop_
 _symmetry_equiv_pos_site_id
 _symmetry_equiv_pos_as_xyz
  1  'x, y, z'
loop_
 _atom_site_type_symbol
 _atom_site_label
 _atom_site_symmetry_multiplicity
 _atom_site_fract_x
 _atom_site_fract_y
 _atom_site_fract_z
 _atom_site_occupancy
  Pr  Pr0  1  0.566580  0.566580  0.308640  1
  Pr  Pr1  1  0.433420  0.433420  0.691358  1
  Si  Si2  1  0.833684  0.833684  0.285304  1
  Si  Si3  1  0.166316  0.166316  0.714696  1
  B  B4  1  0.000000  0.000000  0.000000  1
  Ir  Ir5  1  0.205296  0.205296  0.091131  1
  Ir  Ir6  1  0.794705  0.794705  0.908869  1
