# generated using pymatgen
data_Ho2Tc2B4Ru3
_symmetry_space_group_name_H-M   'P 1'
_cell_length_a   3.09132400
_cell_length_b   8.77955901
_cell_length_c   10.17716500
_cell_angle_alpha   89.99743949
_cell_angle_beta   90.00000000
_cell_angle_gamma   90.00000000
_symmetry_Int_Tables_number   1
_chemical_formula_structural   Ho2Tc2B4Ru3
_chemical_formula_sum   'Ho4 Tc4 B8 Ru6'
_cell_volume   276.21295430
_cell_formula_units_Z   2
loop_
 _symmetry_equiv_pos_site_id
 _symmetry_equiv_pos_as_xyz
  1  'x, y, z'
loop_
 _atom_site_type_symbol
 _atom_site_label
 _atom_site_symmetry_multiplicity
 _atom_site_fract_x
 _atom_site_fract_y
 _atom_site_fract_z
 _atom_site_occupancy
  Ho  Ho0  1  0.500000  0.839269  0.182218  1
  Ho  Ho1  1  0.500000  0.160731  0.817782  1
  Ho  Ho2  1  0.500000  0.660806  0.682112  1
  Ho  Ho3  1  0.500000  0.339194  0.317888  1
  Tc  Tc4  1  0.000000  0.658620  0.953953  1
  Tc  Tc5  1  0.000000  0.341380  0.046047  1
  Tc  Tc6  1  0.000000  0.841404  0.453951  1
  Tc  Tc7  1  0.000000  0.158596  0.546049  1
  B  B8  1  0.500000  0.967150  0.586661  1
  B  B9  1  0.500000  0.032850  0.413339  1
  B  B10  1  0.500000  0.849293  0.902017  1
  B  B11  1  0.500000  0.150707  0.097983  1
  B  B12  1  0.500000  0.650759  0.402014  1
  B  B13  1  0.500000  0.349241  0.597986  1
  B  B14  1  0.500000  0.467165  0.913320  1
  B  B15  1  0.500000  0.532835  0.086680  1
  Ru  Ru16  1  0.000000  0.000000  0.000000  1
  Ru  Ru17  1  0.000000  0.407936  0.760235  1
  Ru  Ru18  1  0.000000  0.592064  0.239765  1
  Ru  Ru19  1  0.000000  0.500000  0.500000  1
  Ru  Ru20  1  0.000000  0.907921  0.739752  1
  Ru  Ru21  1  0.000000  0.092079  0.260248  1
