# generated using pymatgen
data_Ti16CuIr(Rh3O2)2
_symmetry_space_group_name_H-M   'P 1'
_cell_length_a   8.23077828
_cell_length_b   8.20462547
_cell_length_c   8.21045500
_cell_angle_alpha   59.97640468
_cell_angle_beta   60.08181432
_cell_angle_gamma   60.00421390
_symmetry_Int_Tables_number   1
_chemical_formula_structural   Ti16CuIr(Rh3O2)2
_chemical_formula_sum   'Ti16 Cu1 Ir1 Rh6 O4'
_cell_volume   392.24366870
_cell_formula_units_Z   1
loop_
 _symmetry_equiv_pos_site_id
 _symmetry_equiv_pos_as_xyz
  1  'x, y, z'
loop_
 _atom_site_type_symbol
 _atom_site_label
 _atom_site_symmetry_multiplicity
 _atom_site_fract_x
 _atom_site_fract_y
 _atom_site_fract_z
 _atom_site_occupancy
  Ti  Ti0  1  0.818473  0.181785  0.817375  1
  Ti  Ti1  1  0.182064  0.817768  0.182924  1
  Ti  Ti2  1  0.432204  0.067531  0.431965  1
  Ti  Ti3  1  0.432206  0.067532  0.068300  1
  Ti  Ti4  1  0.067561  0.431808  0.431683  1
  Ti  Ti5  1  0.067562  0.431809  0.068950  1
  Ti  Ti6  1  0.181458  0.181951  0.818294  1
  Ti  Ti7  1  0.432075  0.431867  0.068027  1
  Ti  Ti8  1  0.125851  0.624022  0.625060  1
  Ti  Ti9  1  0.625233  0.626413  0.121239  1
  Ti  Ti10  1  0.625239  0.626414  0.627113  1
  Ti  Ti11  1  0.624207  0.122146  0.626824  1
  Ti  Ti12  1  0.182064  0.817770  0.817242  1
  Ti  Ti13  1  0.818470  0.181781  0.182368  1
  Ti  Ti14  1  0.067820  0.068028  0.432078  1
  Ti  Ti15  1  0.817299  0.816660  0.183022  1
  Cu  Cu16  1  0.761459  0.413117  0.412717  1
  Ir  Ir17  1  0.409612  0.774928  0.407730  1
  Rh  Rh18  1  0.843410  0.840964  0.474397  1
  Rh  Rh19  1  0.843412  0.840964  0.841232  1
  Rh  Rh20  1  0.476841  0.840918  0.841123  1
  Rh  Rh21  1  0.410287  0.409235  0.407951  1
  Rh  Rh22  1  0.410293  0.409235  0.772519  1
  Rh  Rh23  1  0.843811  0.473427  0.841381  1
  O  O24  1  0.125141  0.125813  0.624196  1
  O  O25  1  0.625381  0.125675  0.124472  1
  O  O26  1  0.125142  0.125815  0.124847  1
  O  O27  1  0.125423  0.624625  0.124973  1
