# generated using pymatgen
data_Lu3Hf(Ni4As3)2
_symmetry_space_group_name_H-M   'P 1'
_cell_length_a   3.90121300
_cell_length_b   11.11442700
_cell_length_c   12.77640600
_cell_angle_alpha   90.00000000
_cell_angle_beta   90.00000000
_cell_angle_gamma   90.00000000
_symmetry_Int_Tables_number   1
_chemical_formula_structural   Lu3Hf(Ni4As3)2
_chemical_formula_sum   'Lu6 Hf2 Ni16 As12'
_cell_volume   553.98173301
_cell_formula_units_Z   2
loop_
 _symmetry_equiv_pos_site_id
 _symmetry_equiv_pos_as_xyz
  1  'x, y, z'
loop_
 _atom_site_type_symbol
 _atom_site_label
 _atom_site_symmetry_multiplicity
 _atom_site_fract_x
 _atom_site_fract_y
 _atom_site_fract_z
 _atom_site_occupancy
  Lu  Lu0  1  0.000000  0.500000  0.530193  1
  Lu  Lu1  1  0.500000  0.000000  0.469807  1
  Lu  Lu2  1  0.500000  0.822854  0.205547  1
  Lu  Lu3  1  0.500000  0.177146  0.205547  1
  Lu  Lu4  1  0.000000  0.677146  0.794453  1
  Lu  Lu5  1  0.000000  0.322854  0.794453  1
  Hf  Hf6  1  0.500000  0.500000  0.152648  1
  Hf  Hf7  1  0.000000  0.000000  0.847352  1
  Ni  Ni8  1  0.000000  0.500000  0.984392  1
  Ni  Ni9  1  0.500000  0.000000  0.015608  1
  Ni  Ni10  1  0.500000  0.300976  0.429239  1
  Ni  Ni11  1  0.500000  0.699024  0.429239  1
  Ni  Ni12  1  0.000000  0.199024  0.570761  1
  Ni  Ni13  1  0.000000  0.800976  0.570761  1
  Ni  Ni14  1  0.500000  0.879267  0.705233  1
  Ni  Ni15  1  0.500000  0.120733  0.705233  1
  Ni  Ni16  1  0.000000  0.620733  0.294767  1
  Ni  Ni17  1  0.000000  0.379267  0.294767  1
  Ni  Ni18  1  0.500000  0.336367  0.992799  1
  Ni  Ni19  1  0.500000  0.663633  0.992799  1
  Ni  Ni20  1  0.000000  0.163633  0.007201  1
  Ni  Ni21  1  0.000000  0.836367  0.007201  1
  Ni  Ni22  1  0.500000  0.500000  0.699773  1
  Ni  Ni23  1  0.000000  0.000000  0.300227  1
  As  As24  1  0.500000  0.314763  0.615923  1
  As  As25  1  0.500000  0.685237  0.615923  1
  As  As26  1  0.000000  0.185237  0.384077  1
  As  As27  1  0.000000  0.814763  0.384077  1
  As  As28  1  0.500000  0.500000  0.877676  1
  As  As29  1  0.000000  0.000000  0.122324  1
  As  As30  1  0.500000  0.835592  0.889603  1
  As  As31  1  0.500000  0.164408  0.889603  1
  As  As32  1  0.000000  0.664408  0.110397  1
  As  As33  1  0.000000  0.335592  0.110397  1
  As  As34  1  0.500000  0.500000  0.361161  1
  As  As35  1  0.000000  0.000000  0.638839  1
