# generated using pymatgen
data_Pr10Al4IrRu5
_symmetry_space_group_name_H-M   'P 1'
_cell_length_a   8.61867360
_cell_length_b   8.64434722
_cell_length_c   8.64434715
_cell_angle_alpha   109.55355468
_cell_angle_beta   109.64095609
_cell_angle_gamma   109.33975422
_symmetry_Int_Tables_number   1
_chemical_formula_structural   Pr10Al4IrRu5
_chemical_formula_sum   'Pr10 Al4 Ir1 Ru5'
_cell_volume   495.03108642
_cell_formula_units_Z   1
loop_
 _symmetry_equiv_pos_site_id
 _symmetry_equiv_pos_as_xyz
  1  'x, y, z'
loop_
 _atom_site_type_symbol
 _atom_site_label
 _atom_site_symmetry_multiplicity
 _atom_site_fract_x
 _atom_site_fract_y
 _atom_site_fract_z
 _atom_site_occupancy
  Pr  Pr0  1  0.250000  0.684258  0.434258  1
  Pr  Pr1  1  0.750000  0.815283  0.065283  1
  Pr  Pr2  1  0.436817  0.251289  0.683255  1
  Pr  Pr3  1  0.684544  0.434872  0.250101  1
  Pr  Pr4  1  0.063183  0.746438  0.814472  1
  Pr  Pr5  1  0.815456  0.065557  0.750328  1
  Pr  Pr6  1  0.213605  0.214671  0.215480  1
  Pr  Pr7  1  0.500287  0.999821  0.286791  1
  Pr  Pr8  1  0.286395  0.501876  0.001066  1
  Pr  Pr9  1  0.999713  0.286503  0.499534  1
  Al  Al10  1  0.590706  0.590699  0.590464  1
  Al  Al11  1  0.500062  0.999600  0.908949  1
  Al  Al12  1  0.909294  0.499758  0.999993  1
  Al  Al13  1  0.999938  0.908887  0.499537  1
  Ir  Ir14  1  0.250000  0.117339  0.867339  1
  Ru  Ru15  1  0.750000  0.382078  0.632078  1
  Ru  Ru16  1  0.867288  0.250056  0.117600  1
  Ru  Ru17  1  0.118376  0.868674  0.250406  1
  Ru  Ru18  1  0.632711  0.750311  0.382767  1
  Ru  Ru19  1  0.381624  0.632029  0.750298  1
