# generated using pymatgen
data_Li3La2PrSi2Pb
_symmetry_space_group_name_H-M   'P 1'
_cell_length_a   7.50068500
_cell_length_b   7.48669276
_cell_length_c   4.50857100
_cell_angle_alpha   90.00000000
_cell_angle_beta   90.00000000
_cell_angle_gamma   120.06185687
_symmetry_Int_Tables_number   1
_chemical_formula_structural   Li3La2PrSi2Pb
_chemical_formula_sum   'Li3 La2 Pr1 Si2 Pb1'
_cell_volume   219.12374646
_cell_formula_units_Z   1
loop_
 _symmetry_equiv_pos_site_id
 _symmetry_equiv_pos_as_xyz
  1  'x, y, z'
loop_
 _atom_site_type_symbol
 _atom_site_label
 _atom_site_symmetry_multiplicity
 _atom_site_fract_x
 _atom_site_fract_y
 _atom_site_fract_z
 _atom_site_occupancy
  Li  Li0  1  0.753705  0.755741  0.500000  1
  Li  Li1  1  0.246649  0.000000  0.500000  1
  Li  Li2  1  0.997964  0.244259  0.500000  1
  La  La3  1  0.000329  0.561798  0.000000  1
  La  La4  1  0.438531  0.438202  0.000000  1
  Pr  Pr5  1  0.563701  0.000000  0.000000  1
  Si  Si6  1  0.335647  0.669980  0.500000  1
  Si  Si7  1  0.665668  0.330020  0.500000  1
  Pb  Pb8  1  0.997807  0.000000  0.000000  1
