# generated using pymatgen
data_Dy13Lu3(CoAg)4
_symmetry_space_group_name_H-M   'P 1'
_cell_length_a   9.35799770
_cell_length_b   9.33766979
_cell_length_c   9.33831800
_cell_angle_alpha   59.99771071
_cell_angle_beta   60.06954881
_cell_angle_gamma   59.94506062
_symmetry_Int_Tables_number   1
_chemical_formula_structural   Dy13Lu3(CoAg)4
_chemical_formula_sum   'Dy13 Lu3 Co4 Ag4'
_cell_volume   577.05141207
_cell_formula_units_Z   1
loop_
 _symmetry_equiv_pos_site_id
 _symmetry_equiv_pos_as_xyz
  1  'x, y, z'
loop_
 _atom_site_type_symbol
 _atom_site_label
 _atom_site_symmetry_multiplicity
 _atom_site_fract_x
 _atom_site_fract_y
 _atom_site_fract_z
 _atom_site_occupancy
  Dy  Dy0  1  0.936971  0.562225  0.562189  1
  Dy  Dy1  1  0.545439  0.152744  0.150908  1
  Dy  Dy2  1  0.150495  0.152872  0.544422  1
  Dy  Dy3  1  0.936200  0.939054  0.562373  1
  Dy  Dy4  1  0.311915  0.687548  0.310543  1
  Dy  Dy5  1  0.562987  0.937996  0.936764  1
  Dy  Dy6  1  0.562987  0.937996  0.562254  1
  Dy  Dy7  1  0.690235  0.685891  0.311937  1
  Dy  Dy8  1  0.562305  0.561405  0.938145  1
  Dy  Dy9  1  0.936971  0.562225  0.938615  1
  Dy  Dy10  1  0.311915  0.687548  0.689994  1
  Dy  Dy11  1  0.150495  0.152872  0.152211  1
  Dy  Dy12  1  0.313966  0.311029  0.687502  1
  Lu  Lu13  1  0.152384  0.542224  0.152696  1
  Lu  Lu14  1  0.688251  0.311816  0.686724  1
  Lu  Lu15  1  0.688251  0.311816  0.313210  1
  Co  Co16  1  0.358404  0.360179  0.923328  1
  Co  Co17  1  0.358909  0.923077  0.359007  1
  Co  Co18  1  0.922998  0.360157  0.358422  1
  Co  Co19  1  0.358404  0.360179  0.358089  1
  Ag  Ag20  1  0.918469  0.243248  0.919142  1
  Ag  Ag21  1  0.919194  0.918765  0.919207  1
  Ag  Ag22  1  0.919194  0.918765  0.242835  1
  Ag  Ag23  1  0.242662  0.918369  0.919485  1
