# generated using pymatgen
data_Ce2Pr(BN2)2
_symmetry_space_group_name_H-M   'P 1'
_cell_length_a   6.38663561
_cell_length_b   6.38663637
_cell_length_c   6.38663591
_cell_angle_alpha   147.47291344
_cell_angle_beta   121.25110960
_cell_angle_gamma   68.78140447
_symmetry_Int_Tables_number   1
_chemical_formula_structural   Ce2Pr(BN2)2
_chemical_formula_sum   'Ce2 Pr1 B2 N4'
_cell_volume   118.12331054
_cell_formula_units_Z   1
loop_
 _symmetry_equiv_pos_site_id
 _symmetry_equiv_pos_as_xyz
  1  'x, y, z'
loop_
 _atom_site_type_symbol
 _atom_site_label
 _atom_site_symmetry_multiplicity
 _atom_site_fract_x
 _atom_site_fract_y
 _atom_site_fract_z
 _atom_site_occupancy
  Ce  Ce0  1  0.697984  0.197984  0.500000  1
  Ce  Ce1  1  0.302016  0.802016  0.500000  1
  Pr  Pr2  1  0.000000  0.000000  0.000000  1
  B  B3  1  0.359112  0.500000  0.859112  1
  B  B4  1  0.640888  0.500000  0.140888  1
  N  N5  1  0.368318  0.623806  0.744511  1
  N  N6  1  0.879294  0.623806  0.255489  1
  N  N7  1  0.120706  0.376194  0.744511  1
  N  N8  1  0.631682  0.376194  0.255489  1
