# generated using pymatgen
data_Ac5LaIn10
_symmetry_space_group_name_H-M   'P 1'
_cell_length_a   6.95833952
_cell_length_b   6.95833876
_cell_length_c   10.90632700
_cell_angle_alpha   90.00000000
_cell_angle_beta   90.00000000
_cell_angle_gamma   102.29503301
_symmetry_Int_Tables_number   1
_chemical_formula_structural   Ac5LaIn10
_chemical_formula_sum   'Ac5 La1 In10'
_cell_volume   515.95607145
_cell_formula_units_Z   1
loop_
 _symmetry_equiv_pos_site_id
 _symmetry_equiv_pos_as_xyz
  1  'x, y, z'
loop_
 _atom_site_type_symbol
 _atom_site_label
 _atom_site_symmetry_multiplicity
 _atom_site_fract_x
 _atom_site_fract_y
 _atom_site_fract_z
 _atom_site_occupancy
  Ac  Ac0  1  0.637206  0.637206  0.250000  1
  Ac  Ac1  1  0.203996  0.794044  0.500983  1
  Ac  Ac2  1  0.203996  0.794044  0.999017  1
  Ac  Ac3  1  0.794044  0.203996  0.500983  1
  Ac  Ac4  1  0.794044  0.203996  0.999017  1
  La  La5  1  0.357548  0.357548  0.750000  1
  In  In6  1  0.024068  0.024068  0.250000  1
  In  In7  1  0.981893  0.981893  0.750000  1
  In  In8  1  0.307660  0.307660  0.048684  1
  In  In9  1  0.688844  0.688844  0.932584  1
  In  In10  1  0.307660  0.307660  0.451316  1
  In  In11  1  0.688844  0.688844  0.567416  1
  In  In12  1  0.481121  0.083424  0.250000  1
  In  In13  1  0.934584  0.511068  0.750000  1
  In  In14  1  0.511068  0.934584  0.750000  1
  In  In15  1  0.083424  0.481121  0.250000  1
