# generated using pymatgen
data_Ho8B24OsRu3
_symmetry_space_group_name_H-M   'P 1'
_cell_length_a   3.64404700
_cell_length_b   9.13021922
_cell_length_c   11.50397627
_cell_angle_alpha   89.97510697
_cell_angle_beta   90.00000000
_cell_angle_gamma   90.00000000
_symmetry_Int_Tables_number   1
_chemical_formula_structural   Ho8B24OsRu3
_chemical_formula_sum   'Ho8 B24 Os1 Ru3'
_cell_volume   382.74815952
_cell_formula_units_Z   1
loop_
 _symmetry_equiv_pos_site_id
 _symmetry_equiv_pos_as_xyz
  1  'x, y, z'
loop_
 _atom_site_type_symbol
 _atom_site_label
 _atom_site_symmetry_multiplicity
 _atom_site_fract_x
 _atom_site_fract_y
 _atom_site_fract_z
 _atom_site_occupancy
  Ho  Ho0  1  0.000000  0.322765  0.414011  1
  Ho  Ho1  1  0.000000  0.677347  0.585877  1
  Ho  Ho2  1  0.000000  0.822485  0.086252  1
  Ho  Ho3  1  0.000000  0.177184  0.914028  1
  Ho  Ho4  1  0.000000  0.944520  0.372751  1
  Ho  Ho5  1  0.000000  0.056061  0.627646  1
  Ho  Ho6  1  0.000000  0.443812  0.127024  1
  Ho  Ho7  1  0.000000  0.555961  0.872333  1
  B  B8  1  0.500000  0.553941  0.433277  1
  B  B9  1  0.500000  0.445804  0.566961  1
  B  B10  1  0.500000  0.054184  0.066847  1
  B  B11  1  0.500000  0.945818  0.933114  1
  B  B12  1  0.500000  0.748102  0.419941  1
  B  B13  1  0.500000  0.252039  0.580058  1
  B  B14  1  0.500000  0.247756  0.079968  1
  B  B15  1  0.500000  0.752062  0.919986  1
  B  B16  1  0.500000  0.791795  0.266325  1
  B  B17  1  0.500000  0.208471  0.733710  1
  B  B18  1  0.500000  0.291524  0.233591  1
  B  B19  1  0.500000  0.708496  0.766332  1
  B  B20  1  0.500000  0.632190  0.185264  1
  B  B21  1  0.500000  0.367685  0.814824  1
  B  B22  1  0.500000  0.132401  0.314796  1
  B  B23  1  0.500000  0.867737  0.685200  1
  B  B24  1  0.500000  0.983677  0.212945  1
  B  B25  1  0.500000  0.016352  0.787070  1
  B  B26  1  0.500000  0.483378  0.286975  1
  B  B27  1  0.500000  0.516323  0.712971  1
  B  B28  1  0.500000  0.608865  0.029908  1
  B  B29  1  0.500000  0.390902  0.969779  1
  B  B30  1  0.500000  0.109072  0.470040  1
  B  B31  1  0.500000  0.891204  0.530133  1
  Os  Os32  1  0.000000  0.638011  0.321267  1
  Ru  Ru33  1  0.000000  0.362011  0.678714  1
  Ru  Ru34  1  0.000000  0.138090  0.178880  1
  Ru  Ru35  1  0.000000  0.861975  0.821203  1
