# generated using pymatgen
data_NdSm2MoO7
_symmetry_space_group_name_H-M   'P 1'
_cell_length_a   6.59437129
_cell_length_b   6.59437191
_cell_length_c   7.69830000
_cell_angle_alpha   90.00000000
_cell_angle_beta   90.00000000
_cell_angle_gamma   109.36761511
_symmetry_Int_Tables_number   1
_chemical_formula_structural   NdSm2MoO7
_chemical_formula_sum   'Nd2 Sm4 Mo2 O14'
_cell_volume   315.82190991
_cell_formula_units_Z   2
loop_
 _symmetry_equiv_pos_site_id
 _symmetry_equiv_pos_as_xyz
  1  'x, y, z'
loop_
 _atom_site_type_symbol
 _atom_site_label
 _atom_site_symmetry_multiplicity
 _atom_site_fract_x
 _atom_site_fract_y
 _atom_site_fract_z
 _atom_site_occupancy
  Nd  Nd0  1  0.501296  0.501296  0.500000  1
  Nd  Nd1  1  0.498704  0.498704  0.000000  1
  Sm  Sm2  1  0.463730  0.000073  0.249931  1
  Sm  Sm3  1  0.999927  0.536270  0.250069  1
  Sm  Sm4  1  0.536270  0.999927  0.749931  1
  Sm  Sm5  1  0.000073  0.463730  0.750069  1
  Mo  Mo6  1  0.000315  0.000315  0.500000  1
  Mo  Mo7  1  0.999685  0.999685  0.000000  1
  O  O8  1  0.316463  0.071730  0.528849  1
  O  O9  1  0.928270  0.683537  0.971151  1
  O  O10  1  0.683537  0.928270  0.028849  1
  O  O11  1  0.071730  0.316463  0.471151  1
  O  O12  1  0.927940  0.683527  0.529064  1
  O  O13  1  0.316473  0.072060  0.970936  1
  O  O14  1  0.072060  0.316473  0.029064  1
  O  O15  1  0.683527  0.927940  0.470936  1
  O  O16  1  0.632641  0.367359  0.250000  1
  O  O17  1  0.367359  0.632641  0.750000  1
  O  O18  1  0.636691  0.363309  0.750000  1
  O  O19  1  0.363309  0.636691  0.250000  1
  O  O20  1  0.067590  0.932410  0.250000  1
  O  O21  1  0.932410  0.067590  0.750000  1
