# generated using pymatgen
data_Tb8Co(Si4Au)3
_symmetry_space_group_name_H-M   'P 1'
_cell_length_a   8.16563000
_cell_length_b   8.16562962
_cell_length_c   8.23273500
_cell_angle_alpha   90.00000000
_cell_angle_beta   90.00000000
_cell_angle_gamma   120.00000965
_symmetry_Int_Tables_number   1
_chemical_formula_structural   Tb8Co(Si4Au)3
_chemical_formula_sum   'Tb8 Co1 Si12 Au3'
_cell_volume   475.39444226
_cell_formula_units_Z   1
loop_
 _symmetry_equiv_pos_site_id
 _symmetry_equiv_pos_as_xyz
  1  'x, y, z'
loop_
 _atom_site_type_symbol
 _atom_site_label
 _atom_site_symmetry_multiplicity
 _atom_site_fract_x
 _atom_site_fract_y
 _atom_site_fract_z
 _atom_site_occupancy
  Tb  Tb0  1  0.496439  0.992877  0.244122  1
  Tb  Tb1  1  0.495756  0.991512  0.756166  1
  Tb  Tb2  1  0.007123  0.503561  0.244122  1
  Tb  Tb3  1  0.008488  0.504244  0.756166  1
  Tb  Tb4  1  0.496439  0.503561  0.244122  1
  Tb  Tb5  1  0.495756  0.504244  0.756166  1
  Tb  Tb6  1  0.000000  0.000000  0.248064  1
  Tb  Tb7  1  0.000000  0.000000  0.751240  1
  Co  Co8  1  0.333333  0.666667  0.001334  1
  Si  Si9  1  0.174529  0.349056  0.001337  1
  Si  Si10  1  0.839446  0.678892  0.998504  1
  Si  Si11  1  0.650944  0.825471  0.001337  1
  Si  Si12  1  0.836370  0.672740  0.496679  1
  Si  Si13  1  0.321108  0.160554  0.998504  1
  Si  Si14  1  0.163010  0.326020  0.502967  1
  Si  Si15  1  0.174529  0.825471  0.001337  1
  Si  Si16  1  0.327260  0.163630  0.496679  1
  Si  Si17  1  0.839446  0.160554  0.998504  1
  Si  Si18  1  0.673980  0.836990  0.502967  1
  Si  Si19  1  0.836370  0.163630  0.496679  1
  Si  Si20  1  0.163010  0.836990  0.502967  1
  Au  Au21  1  0.666667  0.333333  0.999750  1
  Au  Au22  1  0.666667  0.333333  0.502164  1
  Au  Au23  1  0.333333  0.666667  0.498124  1
