# generated using pymatgen
data_DyHoTc3Ru
_symmetry_space_group_name_H-M   'P 1'
_cell_length_a   5.25816100
_cell_length_b   5.25815994
_cell_length_c   9.20317200
_cell_angle_alpha   90.00059273
_cell_angle_beta   89.99921551
_cell_angle_gamma   119.99318013
_symmetry_Int_Tables_number   1
_chemical_formula_structural   DyHoTc3Ru
_chemical_formula_sum   'Dy2 Ho2 Tc6 Ru2'
_cell_volume   220.37670408
_cell_formula_units_Z   2
loop_
 _symmetry_equiv_pos_site_id
 _symmetry_equiv_pos_as_xyz
  1  'x, y, z'
loop_
 _atom_site_type_symbol
 _atom_site_label
 _atom_site_symmetry_multiplicity
 _atom_site_fract_x
 _atom_site_fract_y
 _atom_site_fract_z
 _atom_site_occupancy
  Dy  Dy0  1  0.666689  0.333311  0.562478  1
  Dy  Dy1  1  0.333311  0.666689  0.437522  1
  Ho  Ho2  1  0.333313  0.666686  0.062432  1
  Ho  Ho3  1  0.666687  0.333314  0.937568  1
  Tc  Tc4  1  0.171054  0.342025  0.750383  1
  Tc  Tc5  1  0.171017  0.828985  0.750384  1
  Tc  Tc6  1  0.657974  0.828947  0.750384  1
  Tc  Tc7  1  0.828946  0.657975  0.249617  1
  Tc  Tc8  1  0.828983  0.171015  0.249616  1
  Tc  Tc9  1  0.342026  0.171053  0.249616  1
  Ru  Ru10  1  0.000000  0.000000  0.500000  1
  Ru  Ru11  1  0.000000  0.000000  0.000000  1
