# generated using pymatgen
data_CaEuY(GeO3)4
_symmetry_space_group_name_H-M   'P 1'
_cell_length_a   10.15341329
_cell_length_b   10.15341306
_cell_length_c   5.16462700
_cell_angle_alpha   90.00000000
_cell_angle_beta   90.00000000
_cell_angle_gamma   89.74493008
_symmetry_Int_Tables_number   1
_chemical_formula_structural   CaEuY(GeO3)4
_chemical_formula_sum   'Ca2 Eu2 Y2 Ge8 O24'
_cell_volume   532.42541305
_cell_formula_units_Z   2
loop_
 _symmetry_equiv_pos_site_id
 _symmetry_equiv_pos_as_xyz
  1  'x, y, z'
loop_
 _atom_site_type_symbol
 _atom_site_label
 _atom_site_symmetry_multiplicity
 _atom_site_fract_x
 _atom_site_fract_y
 _atom_site_fract_z
 _atom_site_occupancy
  Ca  Ca0  1  0.500000  0.500000  0.500000  1
  Ca  Ca1  1  0.000000  0.000000  0.500000  1
  Eu  Eu2  1  0.000000  0.500000  0.500000  1
  Eu  Eu3  1  0.500000  0.000000  0.500000  1
  Y  Y4  1  0.750000  0.750000  0.500000  1
  Y  Y5  1  0.250000  0.250000  0.500000  1
  Ge  Ge6  1  0.751863  0.021615  0.995677  1
  Ge  Ge7  1  0.248137  0.978385  0.004323  1
  Ge  Ge8  1  0.251863  0.521615  0.004323  1
  Ge  Ge9  1  0.748137  0.478385  0.995677  1
  Ge  Ge10  1  0.021615  0.751863  0.004323  1
  Ge  Ge11  1  0.978385  0.248137  0.995677  1
  Ge  Ge12  1  0.521615  0.251863  0.995677  1
  Ge  Ge13  1  0.478385  0.748137  0.004323  1
  O  O14  1  0.566952  0.677741  0.256648  1
  O  O15  1  0.058818  0.325849  0.254306  1
  O  O16  1  0.441182  0.174151  0.254306  1
  O  O17  1  0.933048  0.822259  0.256648  1
  O  O18  1  0.433048  0.322259  0.743352  1
  O  O19  1  0.941182  0.674151  0.745694  1
  O  O20  1  0.558818  0.825849  0.745694  1
  O  O21  1  0.066952  0.177741  0.743352  1
  O  O22  1  0.677741  0.566952  0.743352  1
  O  O23  1  0.325849  0.058818  0.745694  1
  O  O24  1  0.174151  0.441182  0.745694  1
  O  O25  1  0.822259  0.933048  0.743352  1
  O  O26  1  0.322259  0.433048  0.256648  1
  O  O27  1  0.674151  0.941182  0.254306  1
  O  O28  1  0.825849  0.558818  0.254306  1
  O  O29  1  0.177741  0.066952  0.256648  1
  O  O30  1  0.872537  0.127463  0.150173  1
  O  O31  1  0.372969  0.872969  0.159267  1
  O  O32  1  0.127031  0.627031  0.159267  1
  O  O33  1  0.627463  0.372537  0.150173  1
  O  O34  1  0.127463  0.872537  0.849827  1
  O  O35  1  0.627031  0.127031  0.840733  1
  O  O36  1  0.872969  0.372969  0.840733  1
  O  O37  1  0.372537  0.627463  0.849827  1
