# generated using pymatgen
data_NpSc4Ru7
_symmetry_space_group_name_H-M   'P 1'
_cell_length_a   5.37391200
_cell_length_b   5.16389170
_cell_length_c   8.72658100
_cell_angle_alpha   90.00000000
_cell_angle_beta   90.00000000
_cell_angle_gamma   121.35475663
_symmetry_Int_Tables_number   1
_chemical_formula_structural   NpSc4Ru7
_chemical_formula_sum   'Np1 Sc4 Ru7'
_cell_volume   206.79989681
_cell_formula_units_Z   1
loop_
 _symmetry_equiv_pos_site_id
 _symmetry_equiv_pos_as_xyz
  1  'x, y, z'
loop_
 _atom_site_type_symbol
 _atom_site_label
 _atom_site_symmetry_multiplicity
 _atom_site_fract_x
 _atom_site_fract_y
 _atom_site_fract_z
 _atom_site_occupancy
  Np  Np0  1  0.148537  0.297074  0.750000  1
  Sc  Sc1  1  0.340448  0.680897  0.425663  1
  Sc  Sc2  1  0.671817  0.343633  0.552707  1
  Sc  Sc3  1  0.671817  0.343633  0.947293  1
  Sc  Sc4  1  0.340448  0.680897  0.074337  1
  Ru  Ru5  1  0.155226  0.788935  0.750000  1
  Ru  Ru6  1  0.347158  0.180739  0.250000  1
  Ru  Ru7  1  0.832232  0.664464  0.250000  1
  Ru  Ru8  1  0.633709  0.788935  0.750000  1
  Ru  Ru9  1  0.012513  0.025026  0.002521  1
  Ru  Ru10  1  0.833582  0.180739  0.250000  1
  Ru  Ru11  1  0.012513  0.025026  0.497479  1
