# generated using pymatgen
data_Cs4K2AlCrH12
_symmetry_space_group_name_H-M   'P 1'
_cell_length_a   6.33153410
_cell_length_b   6.32973717
_cell_length_c   8.94812201
_cell_angle_alpha   89.99942399
_cell_angle_beta   90.00817689
_cell_angle_gamma   89.98858573
_symmetry_Int_Tables_number   1
_chemical_formula_structural   Cs4K2AlCrH12
_chemical_formula_sum   'Cs4 K2 Al1 Cr1 H12'
_cell_volume   358.61339830
_cell_formula_units_Z   1
loop_
 _symmetry_equiv_pos_site_id
 _symmetry_equiv_pos_as_xyz
  1  'x, y, z'
loop_
 _atom_site_type_symbol
 _atom_site_label
 _atom_site_symmetry_multiplicity
 _atom_site_fract_x
 _atom_site_fract_y
 _atom_site_fract_z
 _atom_site_occupancy
  Cs  Cs0  1  0.050040  0.550100  0.245651  1
  Cs  Cs1  1  0.550175  0.050039  0.245640  1
  Cs  Cs2  1  0.049986  0.550084  0.754510  1
  Cs  Cs3  1  0.550105  0.050016  0.754543  1
  K  K4  1  0.550178  0.549950  0.000110  1
  K  K5  1  0.049879  0.050053  0.500122  1
  Al  Al6  1  0.050326  0.050002  0.000140  1
  Cr  Cr7  1  0.549503  0.549844  0.499540  1
  H  H8  1  0.848745  0.850889  0.000362  1
  H  H9  1  0.249332  0.848260  0.000492  1
  H  H10  1  0.050276  0.050598  0.200587  1
  H  H11  1  0.549980  0.549496  0.302080  1
  H  H12  1  0.355126  0.750072  0.499501  1
  H  H13  1  0.749370  0.744596  0.499857  1
  H  H14  1  0.349648  0.355215  0.500061  1
  H  H15  1  0.744216  0.349988  0.500437  1
  H  H16  1  0.549405  0.550534  0.697023  1
  H  H17  1  0.050394  0.049431  0.799673  1
  H  H18  1  0.851335  0.251764  0.999771  1
  H  H19  1  0.251986  0.249076  0.999898  1
