# generated using pymatgen
data_Nd3Mn2W3O14
_symmetry_space_group_name_H-M   'P 1'
_cell_length_a   7.30758329
_cell_length_b   7.30756852
_cell_length_c   7.30758408
_cell_angle_alpha   117.10095610
_cell_angle_beta   62.89899186
_cell_angle_gamma   117.10111358
_symmetry_Int_Tables_number   1
_chemical_formula_structural   Nd3Mn2W3O14
_chemical_formula_sum   'Nd3 Mn2 W3 O14'
_cell_volume   293.70680676
_cell_formula_units_Z   1
loop_
 _symmetry_equiv_pos_site_id
 _symmetry_equiv_pos_as_xyz
  1  'x, y, z'
loop_
 _atom_site_type_symbol
 _atom_site_label
 _atom_site_symmetry_multiplicity
 _atom_site_fract_x
 _atom_site_fract_y
 _atom_site_fract_z
 _atom_site_occupancy
  Nd  Nd0  1  0.000064  0.500060  0.999982  1
  Nd  Nd1  1  0.499977  0.999915  0.999984  1
  Nd  Nd2  1  0.499989  0.500045  0.500071  1
  Mn  Mn3  1  0.499870  0.499851  0.999965  1
  Mn  Mn4  1  0.999976  0.999891  0.499888  1
  W  W5  1  0.500010  0.000018  0.500003  1
  W  W6  1  0.999990  0.500032  0.499991  1
  W  W7  1  0.000020  0.000002  0.000026  1
  O  O8  1  0.617953  0.382038  0.117970  1
  O  O9  1  0.382029  0.617971  0.882027  1
  O  O10  1  0.081075  0.320864  0.179170  1
  O  O11  1  0.679170  0.918973  0.179174  1
  O  O12  1  0.679177  0.320853  0.581054  1
  O  O13  1  0.918972  0.679179  0.820856  1
  O  O14  1  0.320851  0.081078  0.820861  1
  O  O15  1  0.320852  0.679172  0.418950  1
  O  O16  1  0.647146  0.908047  0.591969  1
  O  O17  1  0.091986  0.352854  0.591973  1
  O  O18  1  0.091977  0.908053  0.147129  1
  O  O19  1  0.352879  0.091994  0.408037  1
  O  O20  1  0.908022  0.647106  0.408035  1
  O  O21  1  0.908016  0.092005  0.852885  1
