# generated using pymatgen
data_KY6(CI6)2
_symmetry_space_group_name_H-M   'P 1'
_cell_length_a   9.47427920
_cell_length_b   9.46368098
_cell_length_c   9.90532324
_cell_angle_alpha   72.42124806
_cell_angle_beta   71.39484647
_cell_angle_gamma   73.10274489
_symmetry_Int_Tables_number   1
_chemical_formula_structural   KY6(CI6)2
_chemical_formula_sum   'K1 Y6 C2 I12'
_cell_volume   783.63224740
_cell_formula_units_Z   1
loop_
 _symmetry_equiv_pos_site_id
 _symmetry_equiv_pos_as_xyz
  1  'x, y, z'
loop_
 _atom_site_type_symbol
 _atom_site_label
 _atom_site_symmetry_multiplicity
 _atom_site_fract_x
 _atom_site_fract_y
 _atom_site_fract_z
 _atom_site_occupancy
  K  K0  1  0.000000  0.500001  0.999996  1
  Y  Y1  1  0.474770  0.107250  0.195738  1
  Y  Y2  1  0.763472  0.031166  0.412589  1
  Y  Y3  1  0.586882  0.739078  0.476489  1
  Y  Y4  1  0.413120  0.260921  0.523511  1
  Y  Y5  1  0.236527  0.968834  0.587412  1
  Y  Y6  1  0.525233  0.892750  0.804260  1
  C  C7  1  0.493506  0.024662  0.426529  1
  C  C8  1  0.506494  0.975336  0.573470  1
  I  I9  1  0.799229  0.159518  0.079857  1
  I  I10  1  0.585502  0.781126  0.139558  1
  I  I11  1  0.352284  0.432718  0.221296  1
  I  I12  1  0.136524  0.068446  0.293917  1
  I  I13  1  0.923071  0.720178  0.355591  1
  I  I14  1  0.715057  0.363542  0.431945  1
  I  I15  1  0.284944  0.636458  0.568056  1
  I  I16  1  0.076930  0.279823  0.644411  1
  I  I17  1  0.863476  0.931554  0.706084  1
  I  I18  1  0.647717  0.567282  0.778705  1
  I  I19  1  0.414495  0.218873  0.860443  1
  I  I20  1  0.200772  0.840483  0.920143  1
