# generated using pymatgen
data_Dy3In3AgRh2
_symmetry_space_group_name_H-M   'P 1'
_cell_length_a   7.80017100
_cell_length_b   7.80017227
_cell_length_c   3.80645000
_cell_angle_alpha   90.00000000
_cell_angle_beta   90.00000000
_cell_angle_gamma   119.99999035
_symmetry_Int_Tables_number   1
_chemical_formula_structural   Dy3In3AgRh2
_chemical_formula_sum   'Dy3 In3 Ag1 Rh2'
_cell_volume   200.56683516
_cell_formula_units_Z   1
loop_
 _symmetry_equiv_pos_site_id
 _symmetry_equiv_pos_as_xyz
  1  'x, y, z'
loop_
 _atom_site_type_symbol
 _atom_site_label
 _atom_site_symmetry_multiplicity
 _atom_site_fract_x
 _atom_site_fract_y
 _atom_site_fract_z
 _atom_site_occupancy
  Dy  Dy0  1  0.026957  0.612177  0.500000  1
  Dy  Dy1  1  0.585220  0.973043  0.500000  1
  Dy  Dy2  1  0.387823  0.414780  0.500000  1
  In  In3  1  0.997252  0.257214  0.000000  1
  In  In4  1  0.259962  0.002748  0.000000  1
  In  In5  1  0.742786  0.740038  0.000000  1
  Ag  Ag6  1  0.666667  0.333333  0.000000  1
  Rh  Rh7  1  0.000000  0.000000  0.500000  1
  Rh  Rh8  1  0.333333  0.666667  0.000000  1
