# generated using pymatgen
data_Dy2Si2Ir3Ru
_symmetry_space_group_name_H-M   'P 1'
_cell_length_a   8.90135700
_cell_length_b   8.90135521
_cell_length_c   4.11650800
_cell_angle_alpha   90.00000000
_cell_angle_beta   90.00000000
_cell_angle_gamma   153.80015367
_symmetry_Int_Tables_number   1
_chemical_formula_structural   Dy2Si2Ir3Ru
_chemical_formula_sum   'Dy2 Si2 Ir3 Ru1'
_cell_volume   144.00428420
_cell_formula_units_Z   1
loop_
 _symmetry_equiv_pos_site_id
 _symmetry_equiv_pos_as_xyz
  1  'x, y, z'
loop_
 _atom_site_type_symbol
 _atom_site_label
 _atom_site_symmetry_multiplicity
 _atom_site_fract_x
 _atom_site_fract_y
 _atom_site_fract_z
 _atom_site_occupancy
  Dy  Dy0  1  0.099669  0.900331  0.750000  1
  Dy  Dy1  1  0.900854  0.099146  0.250000  1
  Si  Si2  1  0.321982  0.678018  0.750000  1
  Si  Si3  1  0.677815  0.322185  0.250000  1
  Ir  Ir4  1  0.542199  0.457801  0.250000  1
  Ir  Ir5  1  0.457537  0.542463  0.750000  1
  Ir  Ir6  1  0.250018  0.749982  0.250000  1
  Ru  Ru7  1  0.749927  0.250073  0.750000  1
