# generated using pymatgen
data_Dy3Ho2Tm3(CdPt)2
_symmetry_space_group_name_H-M   'P 1'
_cell_length_a   9.62870153
_cell_length_b   9.62870183
_cell_length_c   9.62870100
_cell_angle_alpha   59.99999942
_cell_angle_beta   59.99999840
_cell_angle_gamma   59.99999797
_symmetry_Int_Tables_number   1
_chemical_formula_structural   Dy3Ho2Tm3(CdPt)2
_chemical_formula_sum   'Dy6 Ho4 Tm6 Cd4 Pt4'
_cell_volume   631.23075748
_cell_formula_units_Z   2
loop_
 _symmetry_equiv_pos_site_id
 _symmetry_equiv_pos_as_xyz
  1  'x, y, z'
loop_
 _atom_site_type_symbol
 _atom_site_label
 _atom_site_symmetry_multiplicity
 _atom_site_fract_x
 _atom_site_fract_y
 _atom_site_fract_z
 _atom_site_occupancy
  Dy  Dy0  1  0.935622  0.564378  0.564378  1
  Dy  Dy1  1  0.564378  0.935622  0.935622  1
  Dy  Dy2  1  0.564378  0.935622  0.564378  1
  Dy  Dy3  1  0.935622  0.564377  0.935622  1
  Dy  Dy4  1  0.564378  0.564378  0.935622  1
  Dy  Dy5  1  0.935622  0.935622  0.564377  1
  Ho  Ho6  1  0.352240  0.352240  0.352240  1
  Ho  Ho7  1  0.352240  0.352240  0.943283  1
  Ho  Ho8  1  0.352240  0.943283  0.352240  1
  Ho  Ho9  1  0.943283  0.352240  0.352240  1
  Tm  Tm10  1  0.811200  0.188800  0.188800  1
  Tm  Tm11  1  0.188800  0.811200  0.811200  1
  Tm  Tm12  1  0.188800  0.811200  0.188800  1
  Tm  Tm13  1  0.811200  0.188800  0.811200  1
  Tm  Tm14  1  0.188800  0.188800  0.811200  1
  Tm  Tm15  1  0.811200  0.811200  0.188800  1
  Cd  Cd16  1  0.581628  0.581628  0.581628  1
  Cd  Cd17  1  0.581628  0.581628  0.255114  1
  Cd  Cd18  1  0.581628  0.255114  0.581628  1
  Cd  Cd19  1  0.255114  0.581628  0.581628  1
  Pt  Pt20  1  0.142665  0.142665  0.142665  1
  Pt  Pt21  1  0.142665  0.142665  0.572007  1
  Pt  Pt22  1  0.142665  0.572007  0.142665  1
  Pt  Pt23  1  0.572007  0.142665  0.142665  1
