# generated using pymatgen
data_Ba6Y2(WO6)3
_symmetry_space_group_name_H-M   'P 1'
_cell_length_a   5.97338283
_cell_length_b   5.97338193
_cell_length_c   14.95471457
_cell_angle_alpha   90.00000040
_cell_angle_beta   78.47966771
_cell_angle_gamma   120.00001872
_symmetry_Int_Tables_number   1
_chemical_formula_structural   Ba6Y2(WO6)3
_chemical_formula_sum   'Ba6 Y2 W3 O18'
_cell_volume   449.65829234
_cell_formula_units_Z   1
loop_
 _symmetry_equiv_pos_site_id
 _symmetry_equiv_pos_as_xyz
  1  'x, y, z'
loop_
 _atom_site_type_symbol
 _atom_site_label
 _atom_site_symmetry_multiplicity
 _atom_site_fract_x
 _atom_site_fract_y
 _atom_site_fract_z
 _atom_site_occupancy
  Ba  Ba0  1  0.272442  0.636221  0.091338  1
  Ba  Ba1  1  0.821930  0.910965  0.267105  1
  Ba  Ba2  1  0.372650  0.186325  0.441025  1
  Ba  Ba3  1  0.627349  0.813674  0.558976  1
  Ba  Ba4  1  0.178070  0.089035  0.732895  1
  Ba  Ba5  1  0.727558  0.363779  0.908662  1
  Y  Y6  1  0.550722  0.275361  0.173916  1
  Y  Y7  1  0.449278  0.724639  0.826083  1
  W  W8  1  0.000000  0.000000  0.000000  1
  W  W9  1  0.103531  0.551765  0.344704  1
  W  W10  1  0.896469  0.448235  0.655296  1
  O  O11  1  0.259586  0.129793  0.077048  1
  O  O12  1  0.793158  0.129794  0.077048  1
  O  O13  1  0.793159  0.663365  0.077048  1
  O  O14  1  0.317037  0.428217  0.254746  1
  O  O15  1  0.856436  0.428218  0.254746  1
  O  O16  1  0.317035  0.888818  0.254746  1
  O  O17  1  0.902326  0.213415  0.408765  1
  O  O18  1  0.902326  0.688908  0.408765  1
  O  O19  1  0.377819  0.688909  0.408765  1
  O  O20  1  0.097675  0.311090  0.591235  1
  O  O21  1  0.622181  0.311091  0.591235  1
  O  O22  1  0.097675  0.786584  0.591235  1
  O  O23  1  0.682963  0.111182  0.745254  1
  O  O24  1  0.143565  0.571781  0.745254  1
  O  O25  1  0.682964  0.571782  0.745254  1
  O  O26  1  0.206840  0.336634  0.922952  1
  O  O27  1  0.206840  0.870207  0.922952  1
  O  O28  1  0.740414  0.870207  0.922952  1
