# generated using pymatgen
data_Ho5Er7Rh4
_symmetry_space_group_name_H-M   'P 1'
_cell_length_a   6.28300651
_cell_length_b   7.14239017
_cell_length_c   9.32617362
_cell_angle_alpha   90.01040206
_cell_angle_beta   89.95959538
_cell_angle_gamma   89.97734885
_symmetry_Int_Tables_number   1
_chemical_formula_structural   Ho5Er7Rh4
_chemical_formula_sum   'Ho5 Er7 Rh4'
_cell_volume   418.51827609
_cell_formula_units_Z   1
loop_
 _symmetry_equiv_pos_site_id
 _symmetry_equiv_pos_as_xyz
  1  'x, y, z'
loop_
 _atom_site_type_symbol
 _atom_site_label
 _atom_site_symmetry_multiplicity
 _atom_site_fract_x
 _atom_site_fract_y
 _atom_site_fract_z
 _atom_site_occupancy
  Ho  Ho0  1  0.672768  0.178522  0.063075  1
  Ho  Ho1  1  0.866813  0.966042  0.749797  1
  Ho  Ho2  1  0.366494  0.534149  0.250113  1
  Ho  Ho3  1  0.633162  0.466069  0.749787  1
  Ho  Ho4  1  0.133453  0.033771  0.250158  1
  Er  Er5  1  0.172707  0.321647  0.936450  1
  Er  Er6  1  0.827204  0.678483  0.436558  1
  Er  Er7  1  0.327224  0.821677  0.563301  1
  Er  Er8  1  0.327066  0.821541  0.936624  1
  Er  Er9  1  0.827421  0.678309  0.063540  1
  Er  Er10  1  0.172624  0.321568  0.563383  1
  Er  Er11  1  0.672837  0.178247  0.436868  1
  Rh  Rh12  1  0.053816  0.615760  0.750001  1
  Rh  Rh13  1  0.554002  0.883886  0.250379  1
  Rh  Rh14  1  0.445869  0.115794  0.749723  1
  Rh  Rh15  1  0.946541  0.384534  0.250242  1
