# generated using pymatgen
data_Tb5NdSc2(Co4P3)4
_symmetry_space_group_name_H-M   'P 1'
_cell_length_a   3.73706000
_cell_length_b   10.67956600
_cell_length_c   12.38101700
_cell_angle_alpha   90.00000000
_cell_angle_beta   90.00000000
_cell_angle_gamma   90.00000000
_symmetry_Int_Tables_number   1
_chemical_formula_structural   Tb5NdSc2(Co4P3)4
_chemical_formula_sum   'Tb5 Nd1 Sc2 Co16 P12'
_cell_volume   494.12860363
_cell_formula_units_Z   1
loop_
 _symmetry_equiv_pos_site_id
 _symmetry_equiv_pos_as_xyz
  1  'x, y, z'
loop_
 _atom_site_type_symbol
 _atom_site_label
 _atom_site_symmetry_multiplicity
 _atom_site_fract_x
 _atom_site_fract_y
 _atom_site_fract_z
 _atom_site_occupancy
  Tb  Tb0  1  0.500000  0.000000  0.472954  1
  Tb  Tb1  1  0.500000  0.822287  0.205761  1
  Tb  Tb2  1  0.500000  0.177713  0.205761  1
  Tb  Tb3  1  0.000000  0.678337  0.794635  1
  Tb  Tb4  1  0.000000  0.321663  0.794635  1
  Nd  Nd5  1  0.000000  0.500000  0.528208  1
  Sc  Sc6  1  0.500000  0.500000  0.154737  1
  Sc  Sc7  1  0.000000  0.000000  0.843536  1
  Co  Co8  1  0.500000  0.500000  0.707801  1
  Co  Co9  1  0.000000  0.000000  0.294507  1
  Co  Co10  1  0.000000  0.500000  0.987566  1
  Co  Co11  1  0.500000  0.000000  0.012677  1
  Co  Co12  1  0.500000  0.330932  0.994662  1
  Co  Co13  1  0.500000  0.669068  0.994662  1
  Co  Co14  1  0.000000  0.168542  0.005363  1
  Co  Co15  1  0.000000  0.831458  0.005363  1
  Co  Co16  1  0.500000  0.293295  0.432074  1
  Co  Co17  1  0.500000  0.706705  0.432074  1
  Co  Co18  1  0.000000  0.202178  0.567458  1
  Co  Co19  1  0.000000  0.797822  0.567458  1
  Co  Co20  1  0.500000  0.879146  0.703928  1
  Co  Co21  1  0.500000  0.120854  0.703928  1
  Co  Co22  1  0.000000  0.622252  0.295728  1
  Co  Co23  1  0.000000  0.377748  0.295728  1
  P  P24  1  0.500000  0.500000  0.886645  1
  P  P25  1  0.000000  0.000000  0.114117  1
  P  P26  1  0.500000  0.500000  0.355899  1
  P  P27  1  0.000000  0.000000  0.641113  1
  P  P28  1  0.500000  0.305426  0.615970  1
  P  P29  1  0.500000  0.694574  0.615970  1
  P  P30  1  0.000000  0.190513  0.384573  1
  P  P31  1  0.000000  0.809487  0.384573  1
  P  P32  1  0.500000  0.840099  0.893509  1
  P  P33  1  0.500000  0.159901  0.893509  1
  P  P34  1  0.000000  0.660617  0.106459  1
  P  P35  1  0.000000  0.339383  0.106459  1
