# generated using pymatgen
data_Tb15ErIn3AgRh4
_symmetry_space_group_name_H-M   'P 1'
_cell_length_a   9.68261554
_cell_length_b   9.65325645
_cell_length_c   9.68261601
_cell_angle_alpha   59.95865105
_cell_angle_beta   59.93529447
_cell_angle_gamma   59.95865869
_symmetry_Int_Tables_number   1
_chemical_formula_structural   Tb15ErIn3AgRh4
_chemical_formula_sum   'Tb15 Er1 In3 Ag1 Rh4'
_cell_volume   639.23419112
_cell_formula_units_Z   1
loop_
 _symmetry_equiv_pos_site_id
 _symmetry_equiv_pos_as_xyz
  1  'x, y, z'
loop_
 _atom_site_type_symbol
 _atom_site_label
 _atom_site_symmetry_multiplicity
 _atom_site_fract_x
 _atom_site_fract_y
 _atom_site_fract_z
 _atom_site_occupancy
  Tb  Tb0  1  0.190008  0.190856  0.811914  1
  Tb  Tb1  1  0.438015  0.056804  0.066057  1
  Tb  Tb2  1  0.435950  0.058649  0.435950  1
  Tb  Tb3  1  0.062554  0.437151  0.062554  1
  Tb  Tb4  1  0.648817  0.049736  0.648817  1
  Tb  Tb5  1  0.189465  0.810359  0.812303  1
  Tb  Tb6  1  0.066057  0.056804  0.438015  1
  Tb  Tb7  1  0.811914  0.190856  0.190008  1
  Tb  Tb8  1  0.812303  0.810359  0.189465  1
  Tb  Tb9  1  0.646819  0.648224  0.052408  1
  Tb  Tb10  1  0.652021  0.651200  0.652021  1
  Tb  Tb11  1  0.063456  0.435723  0.436350  1
  Tb  Tb12  1  0.052408  0.648224  0.646819  1
  Tb  Tb13  1  0.809569  0.191790  0.809569  1
  Tb  Tb14  1  0.436350  0.435723  0.063456  1
  Er  Er15  1  0.188580  0.813514  0.188580  1
  In  In16  1  0.417568  0.421955  0.744495  1
  In  In17  1  0.744495  0.421955  0.417568  1
  In  In18  1  0.417590  0.420289  0.417590  1
  Ag  Ag19  1  0.416471  0.749830  0.416471  1
  Rh  Rh20  1  0.857271  0.427811  0.857271  1
  Rh  Rh21  1  0.859898  0.857297  0.425425  1
  Rh  Rh22  1  0.425425  0.857297  0.859898  1
  Rh  Rh23  1  0.856992  0.857594  0.856992  1
