# generated using pymatgen
data_Li2Hf3Co6Ni3As7
_symmetry_space_group_name_H-M   'P 1'
_cell_length_a   9.54306997
_cell_length_b   9.51419018
_cell_length_c   3.76224900
_cell_angle_alpha   90.00000000
_cell_angle_beta   90.00000000
_cell_angle_gamma   119.65815724
_symmetry_Int_Tables_number   1
_chemical_formula_structural   Li2Hf3Co6Ni3As7
_chemical_formula_sum   'Li2 Hf3 Co6 Ni3 As7'
_cell_volume   296.84094578
_cell_formula_units_Z   1
loop_
 _symmetry_equiv_pos_site_id
 _symmetry_equiv_pos_as_xyz
  1  'x, y, z'
loop_
 _atom_site_type_symbol
 _atom_site_label
 _atom_site_symmetry_multiplicity
 _atom_site_fract_x
 _atom_site_fract_y
 _atom_site_fract_z
 _atom_site_occupancy
  Li  Li0  1  0.785367  0.218878  0.500000  1
  Li  Li1  1  0.994394  0.002765  0.500000  1
  Hf  Hf2  1  0.779213  0.563728  0.500000  1
  Hf  Hf3  1  0.438483  0.211058  0.500000  1
  Hf  Hf4  1  0.319140  0.651573  0.000000  1
  Co  Co5  1  0.275698  0.388913  0.500000  1
  Co  Co6  1  0.624498  0.893040  0.500000  1
  Co  Co7  1  0.114284  0.727266  0.500000  1
  Co  Co8  1  0.497610  0.454571  0.000000  1
  Co  Co9  1  0.541417  0.037614  0.000000  1
  Co  Co10  1  0.962341  0.511598  0.000000  1
  Ni  Ni11  1  0.726543  0.759326  0.000000  1
  Ni  Ni12  1  0.245502  0.973333  0.000000  1
  Ni  Ni13  1  0.031341  0.277916  0.000000  1
  As  As14  1  0.984243  0.771712  0.000000  1
  As  As15  1  0.233551  0.218042  0.000000  1
  As  As16  1  0.784376  0.028443  0.000000  1
  As  As17  1  0.675314  0.327967  0.000000  1
  As  As18  1  0.527682  0.620570  0.500000  1
  As  As19  1  0.386554  0.903120  0.500000  1
  As  As20  1  0.072452  0.458568  0.500000  1
