# generated using pymatgen
data_U2CrP4Ru3
_symmetry_space_group_name_H-M   'P 1'
_cell_length_a   4.14378500
_cell_length_b   7.29754819
_cell_length_c   10.25901105
_cell_angle_alpha   89.77375304
_cell_angle_beta   90.00000000
_cell_angle_gamma   90.00000000
_symmetry_Int_Tables_number   1
_chemical_formula_structural   U2CrP4Ru3
_chemical_formula_sum   'U4 Cr2 P8 Ru6'
_cell_volume   310.22464548
_cell_formula_units_Z   2
loop_
 _symmetry_equiv_pos_site_id
 _symmetry_equiv_pos_as_xyz
  1  'x, y, z'
loop_
 _atom_site_type_symbol
 _atom_site_label
 _atom_site_symmetry_multiplicity
 _atom_site_fract_x
 _atom_site_fract_y
 _atom_site_fract_z
 _atom_site_occupancy
  U  U0  1  0.250000  0.265304  0.664888  1
  U  U1  1  0.750000  0.734696  0.335112  1
  U  U2  1  0.250000  0.776229  0.821548  1
  U  U3  1  0.750000  0.223771  0.178452  1
  Cr  Cr4  1  0.750000  0.094462  0.446073  1
  Cr  Cr5  1  0.250000  0.905538  0.553927  1
  P  P6  1  0.250000  0.089996  0.968184  1
  P  P7  1  0.750000  0.910004  0.031816  1
  P  P8  1  0.250000  0.601676  0.531511  1
  P  P9  1  0.750000  0.398324  0.468489  1
  P  P10  1  0.250000  0.524988  0.163037  1
  P  P11  1  0.750000  0.475012  0.836963  1
  P  P12  1  0.250000  0.020815  0.340292  1
  P  P13  1  0.750000  0.979185  0.659708  1
  Ru  Ru14  1  0.750000  0.604376  0.053714  1
  Ru  Ru15  1  0.250000  0.395624  0.946286  1
  Ru  Ru16  1  0.250000  0.857967  0.134957  1
  Ru  Ru17  1  0.750000  0.142033  0.865043  1
  Ru  Ru18  1  0.250000  0.361904  0.362875  1
  Ru  Ru19  1  0.750000  0.638096  0.637125  1
