# generated using pymatgen
data_Na4Cd3SnAu4
_symmetry_space_group_name_H-M   'P 1'
_cell_length_a   4.48190300
_cell_length_b   7.63734666
_cell_length_c   8.49430767
_cell_angle_alpha   89.06874173
_cell_angle_beta   90.00000000
_cell_angle_gamma   90.00000000
_symmetry_Int_Tables_number   1
_chemical_formula_structural   Na4Cd3SnAu4
_chemical_formula_sum   'Na4 Cd3 Sn1 Au4'
_cell_volume   290.72044630
_cell_formula_units_Z   1
loop_
 _symmetry_equiv_pos_site_id
 _symmetry_equiv_pos_as_xyz
  1  'x, y, z'
loop_
 _atom_site_type_symbol
 _atom_site_label
 _atom_site_symmetry_multiplicity
 _atom_site_fract_x
 _atom_site_fract_y
 _atom_site_fract_z
 _atom_site_occupancy
  Na  Na0  1  0.250000  0.012284  0.825069  1
  Na  Na1  1  0.250000  0.521574  0.673053  1
  Na  Na2  1  0.750000  0.481442  0.326178  1
  Na  Na3  1  0.750000  0.979946  0.174683  1
  Cd  Cd4  1  0.250000  0.663037  0.066331  1
  Cd  Cd5  1  0.250000  0.153058  0.432911  1
  Cd  Cd6  1  0.750000  0.852925  0.566808  1
  Sn  Sn7  1  0.750000  0.344864  0.937876  1
  Au  Au8  1  0.750000  0.711654  0.870995  1
  Au  Au9  1  0.250000  0.277868  0.117656  1
  Au  Au10  1  0.250000  0.777563  0.374647  1
  Au  Au11  1  0.750000  0.223786  0.633792  1
