# generated using pymatgen
data_Sc5V3Si2(P5Ir8)2
_symmetry_space_group_name_H-M   'P 1'
_cell_length_a   12.65043138
_cell_length_b   12.60675899
_cell_length_c   3.89706200
_cell_angle_alpha   90.00000000
_cell_angle_beta   90.00000000
_cell_angle_gamma   120.08644855
_symmetry_Int_Tables_number   1
_chemical_formula_structural   Sc5V3Si2(P5Ir8)2
_chemical_formula_sum   'Sc5 V3 Si2 P10 Ir16'
_cell_volume   537.77146423
_cell_formula_units_Z   1
loop_
 _symmetry_equiv_pos_site_id
 _symmetry_equiv_pos_as_xyz
  1  'x, y, z'
loop_
 _atom_site_type_symbol
 _atom_site_label
 _atom_site_symmetry_multiplicity
 _atom_site_fract_x
 _atom_site_fract_y
 _atom_site_fract_z
 _atom_site_occupancy
  Sc  Sc0  1  0.333331  0.666671  0.000000  1
  Sc  Sc1  1  0.667494  0.333656  0.000000  1
  Sc  Sc2  1  0.808080  0.998801  0.500000  1
  Sc  Sc3  1  0.001103  0.811202  0.500000  1
  Sc  Sc4  1  0.189240  0.190062  0.500000  1
  V  V5  1  0.449173  0.003281  0.000000  1
  V  V6  1  0.997761  0.447265  0.000000  1
  V  V7  1  0.555262  0.550584  0.000000  1
  Si  Si8  1  0.168563  0.483378  0.500000  1
  Si  Si9  1  0.515398  0.682625  0.500000  1
  P  P10  1  0.176436  0.001641  0.000000  1
  P  P11  1  0.998306  0.175264  0.000000  1
  P  P12  1  0.823575  0.824857  0.000000  1
  P  P13  1  0.315147  0.831841  0.500000  1
  P  P14  1  0.687364  0.517996  0.500000  1
  P  P15  1  0.831629  0.314515  0.500000  1
  P  P16  1  0.483447  0.168797  0.500000  1
  P  P17  1  0.634191  0.997427  0.000000  1
  P  P18  1  0.002480  0.637724  0.000000  1
  P  P19  1  0.361583  0.365104  0.000000  1
  Ir  Ir20  1  0.358901  0.481727  0.500000  1
  Ir  Ir21  1  0.509027  0.870865  0.500000  1
  Ir  Ir22  1  0.130617  0.643895  0.500000  1
  Ir  Ir23  1  0.866135  0.506836  0.500000  1
  Ir  Ir24  1  0.640864  0.135276  0.500000  1
  Ir  Ir25  1  0.496809  0.358739  0.500000  1
  Ir  Ir26  1  0.176852  0.370878  0.000000  1
  Ir  Ir27  1  0.627434  0.806929  0.000000  1
  Ir  Ir28  1  0.193981  0.822909  0.000000  1
  Ir  Ir29  1  0.810915  0.628973  0.000000  1
  Ir  Ir30  1  0.817071  0.189685  0.000000  1
  Ir  Ir31  1  0.370383  0.181919  0.000000  1
  Ir  Ir32  1  0.282194  0.001639  0.500000  1
  Ir  Ir33  1  0.995596  0.276311  0.500000  1
  Ir  Ir34  1  0.723297  0.720603  0.500000  1
  Ir  Ir35  1  0.000365  0.000126  0.000000  1
