# generated using pymatgen
data_Pr2PaCo2Ge7
_symmetry_space_group_name_H-M   'P 1'
_cell_length_a   12.78864142
_cell_length_b   12.78864099
_cell_length_c   4.23858800
_cell_angle_alpha   90.00000000
_cell_angle_beta   90.00000000
_cell_angle_gamma   160.56525470
_symmetry_Int_Tables_number   1
_chemical_formula_structural   Pr2PaCo2Ge7
_chemical_formula_sum   'Pr2 Pa1 Co2 Ge7'
_cell_volume   230.65664139
_cell_formula_units_Z   1
loop_
 _symmetry_equiv_pos_site_id
 _symmetry_equiv_pos_as_xyz
  1  'x, y, z'
loop_
 _atom_site_type_symbol
 _atom_site_label
 _atom_site_symmetry_multiplicity
 _atom_site_fract_x
 _atom_site_fract_y
 _atom_site_fract_z
 _atom_site_occupancy
  Pr  Pr0  1  0.900484  0.099516  0.500000  1
  Pr  Pr1  1  0.533614  0.466386  0.500000  1
  Pa  Pa2  1  0.217028  0.782972  0.000000  1
  Co  Co3  1  0.342915  0.657085  0.000000  1
  Co  Co4  1  0.091312  0.908688  0.000000  1
  Ge  Ge5  1  0.630083  0.369917  0.000000  1
  Ge  Ge6  1  0.437632  0.562368  0.000000  1
  Ge  Ge7  1  0.130473  0.869527  0.500000  1
  Ge  Ge8  1  0.996587  0.003413  0.000000  1
  Ge  Ge9  1  0.803803  0.196197  0.000000  1
  Ge  Ge10  1  0.715939  0.284061  0.500000  1
  Ge  Ge11  1  0.303430  0.696570  0.500000  1
