# generated using pymatgen
data_CsVPdSe4
_symmetry_space_group_name_H-M   'P 1'
_cell_length_a   8.58859500
_cell_length_b   8.58859500
_cell_length_c   13.77737200
_cell_angle_alpha   90.00000000
_cell_angle_beta   90.00000000
_cell_angle_gamma   90.00000000
_symmetry_Int_Tables_number   1
_chemical_formula_structural   CsVPdSe4
_chemical_formula_sum   'Cs4 V4 Pd4 Se16'
_cell_volume   1016.27357324
_cell_formula_units_Z   4
loop_
 _symmetry_equiv_pos_site_id
 _symmetry_equiv_pos_as_xyz
  1  'x, y, z'
loop_
 _atom_site_type_symbol
 _atom_site_label
 _atom_site_symmetry_multiplicity
 _atom_site_fract_x
 _atom_site_fract_y
 _atom_site_fract_z
 _atom_site_occupancy
  Cs  Cs0  1  0.000000  0.500000  0.750000  1
  Cs  Cs1  1  0.500000  0.000000  0.750000  1
  Cs  Cs2  1  0.500000  0.000000  0.250000  1
  Cs  Cs3  1  0.000000  0.500000  0.250000  1
  V  V4  1  0.750610  0.750610  0.000000  1
  V  V5  1  0.249390  0.249390  0.000000  1
  V  V6  1  0.250610  0.749390  0.500000  1
  V  V7  1  0.749390  0.250610  0.500000  1
  Pd  Pd8  1  0.500000  0.500000  0.500000  1
  Pd  Pd9  1  0.000000  0.000000  0.000000  1
  Pd  Pd10  1  0.500000  0.500000  0.000000  1
  Pd  Pd11  1  0.000000  0.000000  0.500000  1
  Se  Se12  1  0.363502  0.363502  0.133550  1
  Se  Se13  1  0.636498  0.636498  0.133550  1
  Se  Se14  1  0.136498  0.863502  0.366450  1
  Se  Se15  1  0.863502  0.136498  0.366450  1
  Se  Se16  1  0.636498  0.636498  0.866450  1
  Se  Se17  1  0.363502  0.363502  0.866450  1
  Se  Se18  1  0.136498  0.863502  0.633550  1
  Se  Se19  1  0.863502  0.136498  0.633550  1
  Se  Se20  1  0.485508  0.211758  0.500000  1
  Se  Se21  1  0.514492  0.788242  0.500000  1
  Se  Se22  1  0.014492  0.711758  0.000000  1
  Se  Se23  1  0.985508  0.288242  0.000000  1
  Se  Se24  1  0.788242  0.514492  0.500000  1
  Se  Se25  1  0.211758  0.485508  0.500000  1
  Se  Se26  1  0.288242  0.985508  0.000000  1
  Se  Se27  1  0.711758  0.014492  0.000000  1
