# generated using pymatgen
data_Er2Lu2MnRe7
_symmetry_space_group_name_H-M   'P 1'
_cell_length_a   5.34634103
_cell_length_b   5.34632832
_cell_length_c   8.83325201
_cell_angle_alpha   89.99423806
_cell_angle_beta   90.00566290
_cell_angle_gamma   120.00518859
_symmetry_Int_Tables_number   1
_chemical_formula_structural   Er2Lu2MnRe7
_chemical_formula_sum   'Er2 Lu2 Mn1 Re7'
_cell_volume   218.64564120
_cell_formula_units_Z   1
loop_
 _symmetry_equiv_pos_site_id
 _symmetry_equiv_pos_as_xyz
  1  'x, y, z'
loop_
 _atom_site_type_symbol
 _atom_site_label
 _atom_site_symmetry_multiplicity
 _atom_site_fract_x
 _atom_site_fract_y
 _atom_site_fract_z
 _atom_site_occupancy
  Er  Er0  1  0.666621  0.333374  0.063659  1
  Er  Er1  1  0.333379  0.666626  0.936341  1
  Lu  Lu2  1  0.333395  0.666614  0.561367  1
  Lu  Lu3  1  0.666605  0.333386  0.438633  1
  Mn  Mn4  1  0.000000  0.000000  0.500000  1
  Re  Re5  1  0.000000  0.000000  0.000000  1
  Re  Re6  1  0.170160  0.340522  0.253524  1
  Re  Re7  1  0.170107  0.829883  0.253460  1
  Re  Re8  1  0.659477  0.829835  0.253530  1
  Re  Re9  1  0.829840  0.659478  0.746476  1
  Re  Re10  1  0.829893  0.170117  0.746540  1
  Re  Re11  1  0.340523  0.170165  0.746470  1
