# generated using pymatgen
data_Er10Ir4OsRh
_symmetry_space_group_name_H-M   'P 1'
_cell_length_a   10.75657200
_cell_length_b   10.75657200
_cell_length_c   6.35759300
_cell_angle_alpha   90.00000000
_cell_angle_beta   90.00000000
_cell_angle_gamma   90.00000000
_symmetry_Int_Tables_number   1
_chemical_formula_structural   Er10Ir4OsRh
_chemical_formula_sum   'Er20 Ir8 Os2 Rh2'
_cell_volume   735.59793083
_cell_formula_units_Z   2
loop_
 _symmetry_equiv_pos_site_id
 _symmetry_equiv_pos_as_xyz
  1  'x, y, z'
loop_
 _atom_site_type_symbol
 _atom_site_label
 _atom_site_symmetry_multiplicity
 _atom_site_fract_x
 _atom_site_fract_y
 _atom_site_fract_z
 _atom_site_occupancy
  Er  Er0  1  0.290030  0.087919  0.377900  1
  Er  Er1  1  0.290030  0.912081  0.877900  1
  Er  Er2  1  0.709970  0.087919  0.877900  1
  Er  Er3  1  0.709970  0.912081  0.377900  1
  Er  Er4  1  0.587919  0.790030  0.877900  1
  Er  Er5  1  0.587919  0.209970  0.377900  1
  Er  Er6  1  0.412081  0.790030  0.377900  1
  Er  Er7  1  0.412081  0.209970  0.877900  1
  Er  Er8  1  0.206014  0.413845  0.623279  1
  Er  Er9  1  0.206014  0.586155  0.123279  1
  Er  Er10  1  0.793986  0.413845  0.123279  1
  Er  Er11  1  0.793986  0.586155  0.623279  1
  Er  Er12  1  0.913845  0.706014  0.123279  1
  Er  Er13  1  0.913845  0.293986  0.623279  1
  Er  Er14  1  0.086155  0.706014  0.623279  1
  Er  Er15  1  0.086155  0.293986  0.123279  1
  Er  Er16  1  0.000000  0.000000  0.500367  1
  Er  Er17  1  0.000000  0.000000  0.000367  1
  Er  Er18  1  0.500000  0.500000  0.000367  1
  Er  Er19  1  0.500000  0.500000  0.500367  1
  Ir  Ir20  1  0.845424  0.151166  0.249366  1
  Ir  Ir21  1  0.845424  0.848834  0.749366  1
  Ir  Ir22  1  0.154576  0.151166  0.749366  1
  Ir  Ir23  1  0.154576  0.848834  0.249366  1
  Ir  Ir24  1  0.651166  0.345424  0.749366  1
  Ir  Ir25  1  0.651166  0.654576  0.249366  1
  Ir  Ir26  1  0.348834  0.345424  0.249366  1
  Ir  Ir27  1  0.348834  0.654576  0.749366  1
  Os  Os28  1  0.000000  0.500000  0.875483  1
  Os  Os29  1  0.000000  0.500000  0.375483  1
  Rh  Rh30  1  0.500000  0.000000  0.121607  1
  Rh  Rh31  1  0.500000  0.000000  0.621607  1
