# generated using pymatgen
data_Pr6PtCl10
_symmetry_space_group_name_H-M   'P 1'
_cell_length_a   7.46733099
_cell_length_b   9.33141974
_cell_length_c   9.37320302
_cell_angle_alpha   109.48345389
_cell_angle_beta   96.67849770
_cell_angle_gamma   107.51112528
_symmetry_Int_Tables_number   1
_chemical_formula_structural   Pr6PtCl10
_chemical_formula_sum   'Pr6 Pt1 Cl10'
_cell_volume   569.89348334
_cell_formula_units_Z   1
loop_
 _symmetry_equiv_pos_site_id
 _symmetry_equiv_pos_as_xyz
  1  'x, y, z'
loop_
 _atom_site_type_symbol
 _atom_site_label
 _atom_site_symmetry_multiplicity
 _atom_site_fract_x
 _atom_site_fract_y
 _atom_site_fract_z
 _atom_site_occupancy
  Pr  Pr0  1  0.140590  0.054189  0.748231  1
  Pr  Pr1  1  0.621034  0.846889  0.802973  1
  Pr  Pr2  1  0.859410  0.945811  0.251769  1
  Pr  Pr3  1  0.025848  0.685227  0.896332  1
  Pr  Pr4  1  0.378966  0.153111  0.197027  1
  Pr  Pr5  1  0.974152  0.314773  0.103668  1
  Pt  Pt6  1  0.000000  0.000000  0.000000  1
  Cl  Cl7  1  0.197408  0.745659  0.653486  1
  Cl  Cl8  1  0.641133  0.538336  0.727038  1
  Cl  Cl9  1  0.243927  0.078840  0.446785  1
  Cl  Cl10  1  0.802592  0.254341  0.346514  1
  Cl  Cl11  1  0.550603  0.167128  0.924462  1
  Cl  Cl12  1  0.756073  0.921160  0.553215  1
  Cl  Cl13  1  0.910359  0.635194  0.164596  1
  Cl  Cl14  1  0.358867  0.461664  0.272962  1
  Cl  Cl15  1  0.089641  0.364806  0.835404  1
  Cl  Cl16  1  0.449397  0.832872  0.075538  1
