# generated using pymatgen
data_Dy7Er9In2(AgPd2)2
_symmetry_space_group_name_H-M   'P 1'
_cell_length_a   9.54563962
_cell_length_b   9.54564060
_cell_length_c   9.55772500
_cell_angle_alpha   59.95811700
_cell_angle_beta   59.95811360
_cell_angle_gamma   60.02404039
_symmetry_Int_Tables_number   1
_chemical_formula_structural   Dy7Er9In2(AgPd2)2
_chemical_formula_sum   'Dy7 Er9 In2 Ag2 Pd4'
_cell_volume   615.53556622
_cell_formula_units_Z   1
loop_
 _symmetry_equiv_pos_site_id
 _symmetry_equiv_pos_as_xyz
  1  'x, y, z'
loop_
 _atom_site_type_symbol
 _atom_site_label
 _atom_site_symmetry_multiplicity
 _atom_site_fract_x
 _atom_site_fract_y
 _atom_site_fract_z
 _atom_site_occupancy
  Dy  Dy0  1  0.062233  0.062233  0.437767  1
  Dy  Dy1  1  0.180864  0.812632  0.816949  1
  Dy  Dy2  1  0.812632  0.180864  0.189553  1
  Dy  Dy3  1  0.812632  0.180864  0.816949  1
  Dy  Dy4  1  0.180864  0.812632  0.189553  1
  Dy  Dy5  1  0.813241  0.813241  0.186759  1
  Dy  Dy6  1  0.184666  0.184666  0.815334  1
  Er  Er7  1  0.604442  0.604442  0.603864  1
  Er  Er8  1  0.604442  0.604442  0.187251  1
  Er  Er9  1  0.606755  0.183141  0.605052  1
  Er  Er10  1  0.183141  0.606755  0.605052  1
  Er  Er11  1  0.060639  0.440313  0.440415  1
  Er  Er12  1  0.440313  0.060639  0.058635  1
  Er  Er13  1  0.440313  0.060639  0.440415  1
  Er  Er14  1  0.060639  0.440313  0.058635  1
  Er  Er15  1  0.441312  0.441312  0.058688  1
  In  In16  1  0.833566  0.507132  0.829652  1
  In  In17  1  0.507132  0.833566  0.829652  1
  Ag  Ag18  1  0.834205  0.834205  0.832482  1
  Ag  Ag19  1  0.834205  0.834205  0.499110  1
  Pd  Pd20  1  0.394690  0.394690  0.394638  1
  Pd  Pd21  1  0.394690  0.394690  0.815984  1
  Pd  Pd22  1  0.396324  0.816062  0.393808  1
  Pd  Pd23  1  0.816062  0.396324  0.393808  1
