# generated using pymatgen
data_CaSc2Ni4Ir5
_symmetry_space_group_name_H-M   'P 1'
_cell_length_a   5.25263509
_cell_length_b   5.16597433
_cell_length_c   8.62715284
_cell_angle_alpha   71.73557121
_cell_angle_beta   72.27645320
_cell_angle_gamma   59.44350363
_symmetry_Int_Tables_number   1
_chemical_formula_structural   CaSc2Ni4Ir5
_chemical_formula_sum   'Ca1 Sc2 Ni4 Ir5'
_cell_volume   188.39465634
_cell_formula_units_Z   1
loop_
 _symmetry_equiv_pos_site_id
 _symmetry_equiv_pos_as_xyz
  1  'x, y, z'
loop_
 _atom_site_type_symbol
 _atom_site_label
 _atom_site_symmetry_multiplicity
 _atom_site_fract_x
 _atom_site_fract_y
 _atom_site_fract_z
 _atom_site_occupancy
  Ca  Ca0  1  0.000559  0.999117  0.999764  1
  Sc  Sc1  1  0.140182  0.141989  0.577647  1
  Sc  Sc2  1  0.860468  0.858936  0.420128  1
  Ni  Ni3  1  0.415870  0.915682  0.252576  1
  Ni  Ni4  1  0.335446  0.326489  0.002619  1
  Ni  Ni5  1  0.665712  0.667119  0.001456  1
  Ni  Ni6  1  0.496868  0.508804  0.497460  1
  Ir  Ir7  1  0.080270  0.587910  0.746314  1
  Ir  Ir8  1  0.585508  0.587910  0.746314  1
  Ir  Ir9  1  0.583935  0.085048  0.747083  1
  Ir  Ir10  1  0.920773  0.410497  0.254319  1
  Ir  Ir11  1  0.414409  0.410497  0.254319  1
