# generated using pymatgen
data_La12Ni3PdI12
_symmetry_space_group_name_H-M   'P 1'
_cell_length_a   10.86727947
_cell_length_b   10.93240642
_cell_length_c   10.93240658
_cell_angle_alpha   109.59158266
_cell_angle_beta   109.35059506
_cell_angle_gamma   109.35058748
_symmetry_Int_Tables_number   1
_chemical_formula_structural   La12Ni3PdI12
_chemical_formula_sum   'La12 Ni3 Pd1 I12'
_cell_volume   1001.32453324
_cell_formula_units_Z   1
loop_
 _symmetry_equiv_pos_site_id
 _symmetry_equiv_pos_as_xyz
  1  'x, y, z'
loop_
 _atom_site_type_symbol
 _atom_site_label
 _atom_site_symmetry_multiplicity
 _atom_site_fract_x
 _atom_site_fract_y
 _atom_site_fract_z
 _atom_site_occupancy
  La  La0  1  0.462711  0.477756  0.235813  1
  La  La1  1  0.750000  0.228176  0.271824  1
  La  La2  1  0.750000  0.022220  0.477780  1
  La  La3  1  0.227780  0.455558  0.477780  1
  La  La4  1  0.273101  0.758057  0.235813  1
  La  La5  1  0.037289  0.264187  0.022244  1
  La  La6  1  0.021824  0.043651  0.271824  1
  La  La7  1  0.484956  0.758057  0.022244  1
  La  La8  1  0.478176  0.228176  0.456349  1
  La  La9  1  0.015044  0.477756  0.741943  1
  La  La10  1  0.272220  0.022220  0.044442  1
  La  La11  1  0.226899  0.264187  0.741943  1
  Ni  Ni12  1  0.250000  0.251110  0.248890  1
  Ni  Ni13  1  0.498890  0.997781  0.248890  1
  Ni  Ni14  1  0.001110  0.251110  0.502219  1
  Pd  Pd15  1  0.250000  0.500000  0.000000  1
  I  I16  1  0.250000  0.760997  0.739003  1
  I  I17  1  0.520682  0.509115  0.759245  1
  I  I18  1  0.979318  0.740755  0.990885  1
  I  I19  1  0.738564  0.250131  0.759245  1
  I  I20  1  0.989003  0.978006  0.739003  1
  I  I21  1  0.250000  0.988631  0.511369  1
  I  I22  1  0.761369  0.522738  0.511369  1
  I  I23  1  0.511567  0.250131  0.990885  1
  I  I24  1  0.761436  0.740755  0.249869  1
  I  I25  1  0.738631  0.988631  0.977262  1
  I  I26  1  0.988433  0.509115  0.249869  1
  I  I27  1  0.510997  0.760997  0.521994  1
