# generated using pymatgen
data_Nd5Ge9P3Ir19
_symmetry_space_group_name_H-M   'P 1'
_cell_length_a   13.12551700
_cell_length_b   13.12551575
_cell_length_c   4.03681700
_cell_angle_alpha   90.00000000
_cell_angle_beta   90.00000000
_cell_angle_gamma   120.00000064
_symmetry_Int_Tables_number   1
_chemical_formula_structural   Nd5Ge9P3Ir19
_chemical_formula_sum   'Nd5 Ge9 P3 Ir19'
_cell_volume   602.28561014
_cell_formula_units_Z   1
loop_
 _symmetry_equiv_pos_site_id
 _symmetry_equiv_pos_as_xyz
  1  'x, y, z'
loop_
 _atom_site_type_symbol
 _atom_site_label
 _atom_site_symmetry_multiplicity
 _atom_site_fract_x
 _atom_site_fract_y
 _atom_site_fract_z
 _atom_site_occupancy
  Nd  Nd0  1  0.666667  0.333333  0.000000  1
  Nd  Nd1  1  0.333333  0.666667  0.000000  1
  Nd  Nd2  1  0.816512  0.816512  0.500000  1
  Nd  Nd3  1  0.183488  0.000000  0.500000  1
  Nd  Nd4  1  0.000000  0.183488  0.500000  1
  Ge  Ge5  1  0.682905  0.163753  0.500000  1
  Ge  Ge6  1  0.836247  0.519153  0.500000  1
  Ge  Ge7  1  0.480847  0.317095  0.500000  1
  Ge  Ge8  1  0.163753  0.682905  0.500000  1
  Ge  Ge9  1  0.519153  0.836247  0.500000  1
  Ge  Ge10  1  0.317095  0.480847  0.500000  1
  Ge  Ge11  1  0.635140  0.635140  0.000000  1
  Ge  Ge12  1  0.364860  0.000000  0.000000  1
  Ge  Ge13  1  0.000000  0.364860  0.000000  1
  P  P14  1  0.179117  0.179117  0.000000  1
  P  P15  1  0.820883  0.000000  0.000000  1
  P  P16  1  0.000000  0.820883  0.000000  1
  Ir  Ir17  1  0.806116  0.174908  0.000000  1
  Ir  Ir18  1  0.825092  0.631208  0.000000  1
  Ir  Ir19  1  0.368792  0.193884  0.000000  1
  Ir  Ir20  1  0.174908  0.806116  0.000000  1
  Ir  Ir21  1  0.631208  0.825092  0.000000  1
  Ir  Ir22  1  0.193884  0.368792  0.000000  1
  Ir  Ir23  1  0.446026  0.446026  0.000000  1
  Ir  Ir24  1  0.553974  0.000000  0.000000  1
  Ir  Ir25  1  0.000000  0.553974  0.000000  1
  Ir  Ir26  1  0.273361  0.273361  0.500000  1
  Ir  Ir27  1  0.726639  0.000000  0.500000  1
  Ir  Ir28  1  0.000000  0.726639  0.500000  1
  Ir  Ir29  1  0.873480  0.355985  0.500000  1
  Ir  Ir30  1  0.644015  0.517496  0.500000  1
  Ir  Ir31  1  0.482504  0.126520  0.500000  1
  Ir  Ir32  1  0.355985  0.873480  0.500000  1
  Ir  Ir33  1  0.517496  0.644015  0.500000  1
  Ir  Ir34  1  0.126520  0.482504  0.500000  1
  Ir  Ir35  1  0.000000  0.000000  0.000000  1
