# generated using pymatgen
data_Hf6Ti3Nb(GaSi)3
_symmetry_space_group_name_H-M   'P 1'
_cell_length_a   7.82732587
_cell_length_b   7.82750892
_cell_length_c   5.37053782
_cell_angle_alpha   90.08455324
_cell_angle_beta   89.99411547
_cell_angle_gamma   120.05298237
_symmetry_Int_Tables_number   1
_chemical_formula_structural   Hf6Ti3Nb(GaSi)3
_chemical_formula_sum   'Hf6 Ti3 Nb1 Ga3 Si3'
_cell_volume   284.80833558
_cell_formula_units_Z   1
loop_
 _symmetry_equiv_pos_site_id
 _symmetry_equiv_pos_as_xyz
  1  'x, y, z'
loop_
 _atom_site_type_symbol
 _atom_site_label
 _atom_site_symmetry_multiplicity
 _atom_site_fract_x
 _atom_site_fract_y
 _atom_site_fract_z
 _atom_site_occupancy
  Hf  Hf0  1  0.749913  0.755120  0.248645  1
  Hf  Hf1  1  0.751460  0.998975  0.751530  1
  Hf  Hf2  1  0.997223  0.246514  0.247884  1
  Hf  Hf3  1  0.245695  0.251109  0.751557  1
  Hf  Hf4  1  0.248361  0.998535  0.247925  1
  Hf  Hf5  1  0.997001  0.749800  0.752405  1
  Ti  Ti6  1  0.669304  0.333375  0.998851  1
  Ti  Ti7  1  0.669113  0.333306  0.501443  1
  Ti  Ti8  1  0.335792  0.666695  0.500403  1
  Nb  Nb9  1  0.335482  0.666558  0.998308  1
  Ga  Ga10  1  0.998192  0.601592  0.252934  1
  Ga  Ga11  1  0.399562  0.395594  0.252818  1
  Ga  Ga12  1  0.397327  0.002793  0.747099  1
  Si  Si13  1  0.602265  0.001759  0.251530  1
  Si  Si14  1  0.603987  0.601244  0.748425  1
  Si  Si15  1  0.999321  0.397034  0.748242  1
