# generated using pymatgen
data_La3Tm3(SbO7)2
_symmetry_space_group_name_H-M   'P 1'
_cell_length_a   6.51004200
_cell_length_b   6.59842703
_cell_length_c   7.64768300
_cell_angle_alpha   90.00000000
_cell_angle_beta   90.00000000
_cell_angle_gamma   109.91521371
_symmetry_Int_Tables_number   1
_chemical_formula_structural   La3Tm3(SbO7)2
_chemical_formula_sum   'La3 Tm3 Sb2 O14'
_cell_volume   308.86825676
_cell_formula_units_Z   1
loop_
 _symmetry_equiv_pos_site_id
 _symmetry_equiv_pos_as_xyz
  1  'x, y, z'
loop_
 _atom_site_type_symbol
 _atom_site_label
 _atom_site_symmetry_multiplicity
 _atom_site_fract_x
 _atom_site_fract_y
 _atom_site_fract_z
 _atom_site_occupancy
  La  La0  1  0.520388  0.062701  0.250000  1
  La  La1  1  0.999273  0.996247  0.996612  1
  La  La2  1  0.999273  0.996247  0.503388  1
  Tm  Tm3  1  0.954126  0.488071  0.750000  1
  Tm  Tm4  1  0.486443  0.975872  0.750000  1
  Tm  Tm5  1  0.051256  0.509844  0.250000  1
  Sb  Sb6  1  0.498371  0.502951  0.995874  1
  Sb  Sb7  1  0.498371  0.502951  0.504126  1
  O  O8  1  0.899709  0.155030  0.250000  1
  O  O9  1  0.840874  0.133044  0.750000  1
  O  O10  1  0.810384  0.536649  0.041781  1
  O  O11  1  0.810384  0.536649  0.458219  1
  O  O12  1  0.418190  0.179547  0.966803  1
  O  O13  1  0.418190  0.179547  0.533197  1
  O  O14  1  0.610319  0.541788  0.750000  1
  O  O15  1  0.404224  0.448451  0.250000  1
  O  O16  1  0.570296  0.823540  0.004817  1
  O  O17  1  0.181095  0.453218  0.535418  1
  O  O18  1  0.181095  0.453218  0.964582  1
  O  O19  1  0.570296  0.823540  0.495183  1
  O  O20  1  0.123965  0.837912  0.750000  1
  O  O21  1  0.153481  0.862984  0.250000  1
