# generated using pymatgen
data_HfZr9AlZn(SnSb2)2
_symmetry_space_group_name_H-M   'P 1'
_cell_length_a   8.67698930
_cell_length_b   8.67795018
_cell_length_c   5.85616700
_cell_angle_alpha   89.99304761
_cell_angle_beta   90.01502885
_cell_angle_gamma   119.93681099
_symmetry_Int_Tables_number   1
_chemical_formula_structural   HfZr9AlZn(SnSb2)2
_chemical_formula_sum   'Hf1 Zr9 Al1 Zn1 Sn2 Sb4'
_cell_volume   382.12588901
_cell_formula_units_Z   1
loop_
 _symmetry_equiv_pos_site_id
 _symmetry_equiv_pos_as_xyz
  1  'x, y, z'
loop_
 _atom_site_type_symbol
 _atom_site_label
 _atom_site_symmetry_multiplicity
 _atom_site_fract_x
 _atom_site_fract_y
 _atom_site_fract_z
 _atom_site_occupancy
  Hf  Hf0  1  0.666347  0.333767  0.001238  1
  Zr  Zr1  1  0.334006  0.666315  0.000796  1
  Zr  Zr2  1  0.334072  0.666381  0.499054  1
  Zr  Zr3  1  0.666363  0.334140  0.499342  1
  Zr  Zr4  1  0.730505  0.730010  0.749768  1
  Zr  Zr5  1  0.269543  0.000656  0.749388  1
  Zr  Zr6  1  0.999813  0.269194  0.749321  1
  Zr  Zr7  1  0.272378  0.272171  0.250630  1
  Zr  Zr8  1  0.728890  0.999337  0.250258  1
  Zr  Zr9  1  0.998641  0.728656  0.250190  1
  Al  Al10  1  0.000940  0.000970  0.002368  1
  Zn  Zn11  1  0.000955  0.000924  0.497713  1
  Sn  Sn12  1  0.384144  0.000365  0.249353  1
  Sn  Sn13  1  0.999400  0.383689  0.249363  1
  Sb  Sb14  1  0.385788  0.385247  0.750799  1
  Sb  Sb15  1  0.613407  0.001093  0.750590  1
  Sb  Sb16  1  0.000134  0.612923  0.750630  1
  Sb  Sb17  1  0.614674  0.614160  0.249200  1
