# generated using pymatgen
data_DyEr4(SiBi)2
_symmetry_space_group_name_H-M   'P 1'
_cell_length_a   8.61335864
_cell_length_b   8.59478807
_cell_length_c   7.87384974
_cell_angle_alpha   89.87035214
_cell_angle_beta   89.93709603
_cell_angle_gamma   125.65205248
_symmetry_Int_Tables_number   1
_chemical_formula_structural   DyEr4(SiBi)2
_chemical_formula_sum   'Dy2 Er8 Si4 Bi4'
_cell_volume   473.64550315
_cell_formula_units_Z   2
loop_
 _symmetry_equiv_pos_site_id
 _symmetry_equiv_pos_as_xyz
  1  'x, y, z'
loop_
 _atom_site_type_symbol
 _atom_site_label
 _atom_site_symmetry_multiplicity
 _atom_site_fract_x
 _atom_site_fract_y
 _atom_site_fract_z
 _atom_site_occupancy
  Dy  Dy0  1  0.042592  0.286781  0.335784  1
  Dy  Dy1  1  0.957408  0.713219  0.664216  1
  Er  Er2  1  0.457344  0.214090  0.835960  1
  Er  Er3  1  0.785721  0.542424  0.164000  1
  Er  Er4  1  0.542656  0.785910  0.164040  1
  Er  Er5  1  0.214279  0.457576  0.836000  1
  Er  Er6  1  0.714209  0.957518  0.663944  1
  Er  Er7  1  0.285791  0.042482  0.336056  1
  Er  Er8  1  0.000000  0.000000  0.000000  1
  Er  Er9  1  0.500000  0.500000  0.500000  1
  Si  Si10  1  0.365771  0.364597  0.133376  1
  Si  Si11  1  0.634229  0.635403  0.866624  1
  Si  Si12  1  0.136365  0.136454  0.635271  1
  Si  Si13  1  0.863635  0.863546  0.364729  1
  Bi  Bi14  1  0.791582  0.207498  0.998192  1
  Bi  Bi15  1  0.208419  0.792502  0.001808  1
  Bi  Bi16  1  0.704865  0.290491  0.499369  1
  Bi  Bi17  1  0.295135  0.709509  0.500631  1
