# generated using pymatgen
data_Hf4Al4Mo3Pt
_symmetry_space_group_name_H-M   'P 1'
_cell_length_a   5.26619903
_cell_length_b   5.26619837
_cell_length_c   8.71253500
_cell_angle_alpha   90.00000000
_cell_angle_beta   90.00000000
_cell_angle_gamma   119.57613073
_symmetry_Int_Tables_number   1
_chemical_formula_structural   Hf4Al4Mo3Pt
_chemical_formula_sum   'Hf4 Al4 Mo3 Pt1'
_cell_volume   210.14003615
_cell_formula_units_Z   1
loop_
 _symmetry_equiv_pos_site_id
 _symmetry_equiv_pos_as_xyz
  1  'x, y, z'
loop_
 _atom_site_type_symbol
 _atom_site_label
 _atom_site_symmetry_multiplicity
 _atom_site_fract_x
 _atom_site_fract_y
 _atom_site_fract_z
 _atom_site_occupancy
  Hf  Hf0  1  0.334290  0.665710  0.187313  1
  Hf  Hf1  1  0.665323  0.334677  0.316522  1
  Hf  Hf2  1  0.665323  0.334677  0.683478  1
  Hf  Hf3  1  0.334290  0.665710  0.812687  1
  Al  Al4  1  0.996812  0.003188  0.244712  1
  Al  Al5  1  0.996812  0.003188  0.755288  1
  Al  Al6  1  0.833361  0.650918  0.000000  1
  Al  Al7  1  0.349082  0.166639  0.000000  1
  Mo  Mo8  1  0.165370  0.342682  0.500000  1
  Mo  Mo9  1  0.657318  0.834630  0.500000  1
  Mo  Mo10  1  0.167337  0.832663  0.500000  1
  Pt  Pt11  1  0.834773  0.165227  0.000000  1
