# generated using pymatgen
data_YbMnFe(Sb6Pt)2
_symmetry_space_group_name_H-M   'P 1'
_cell_length_a   8.11784049
_cell_length_b   8.12077266
_cell_length_c   8.11750313
_cell_angle_alpha   109.35052601
_cell_angle_beta   109.54027600
_cell_angle_gamma   109.33778944
_symmetry_Int_Tables_number   1
_chemical_formula_structural   YbMnFe(Sb6Pt)2
_chemical_formula_sum   'Yb1 Mn1 Fe1 Sb12 Pt2'
_cell_volume   412.88123799
_cell_formula_units_Z   1
loop_
 _symmetry_equiv_pos_site_id
 _symmetry_equiv_pos_as_xyz
  1  'x, y, z'
loop_
 _atom_site_type_symbol
 _atom_site_label
 _atom_site_symmetry_multiplicity
 _atom_site_fract_x
 _atom_site_fract_y
 _atom_site_fract_z
 _atom_site_occupancy
  Yb  Yb0  1  0.000000  0.000000  0.000000  1
  Mn  Mn1  1  0.000000  0.500000  0.000000  1
  Fe  Fe2  1  0.500000  0.500000  0.500000  1
  Sb  Sb3  1  0.832175  0.652109  0.505187  1
  Sb  Sb4  1  0.167825  0.347891  0.494813  1
  Sb  Sb5  1  0.147189  0.652590  0.819854  1
  Sb  Sb6  1  0.852811  0.347410  0.180146  1
  Sb  Sb7  1  0.672515  0.509587  0.836718  1
  Sb  Sb8  1  0.327485  0.490413  0.163282  1
  Sb  Sb9  1  0.654325  0.804228  0.150257  1
  Sb  Sb10  1  0.345675  0.195772  0.849743  1
  Sb  Sb11  1  0.506728  0.833226  0.653374  1
  Sb  Sb12  1  0.493272  0.166774  0.346626  1
  Sb  Sb13  1  0.179961  0.833439  0.326724  1
  Sb  Sb14  1  0.820039  0.166561  0.673276  1
  Pt  Pt15  1  0.500000  0.000000  0.000000  1
  Pt  Pt16  1  0.000000  0.000000  0.500000  1
