# generated using pymatgen
data_Er5Al2GeC4
_symmetry_space_group_name_H-M   'P 1'
_cell_length_a   10.68428000
_cell_length_b   10.68428000
_cell_length_c   3.50493600
_cell_angle_alpha   90.00000000
_cell_angle_beta   90.00000000
_cell_angle_gamma   90.00000000
_symmetry_Int_Tables_number   1
_chemical_formula_structural   Er5Al2GeC4
_chemical_formula_sum   'Er10 Al4 Ge2 C8'
_cell_volume   400.10190026
_cell_formula_units_Z   2
loop_
 _symmetry_equiv_pos_site_id
 _symmetry_equiv_pos_as_xyz
  1  'x, y, z'
loop_
 _atom_site_type_symbol
 _atom_site_label
 _atom_site_symmetry_multiplicity
 _atom_site_fract_x
 _atom_site_fract_y
 _atom_site_fract_z
 _atom_site_occupancy
  Er  Er0  1  0.550905  0.726660  0.500000  1
  Er  Er1  1  0.449095  0.273340  0.500000  1
  Er  Er2  1  0.050905  0.773340  0.500000  1
  Er  Er3  1  0.949095  0.226660  0.500000  1
  Er  Er4  1  0.273340  0.550905  0.500000  1
  Er  Er5  1  0.726660  0.449095  0.500000  1
  Er  Er6  1  0.226660  0.050905  0.500000  1
  Er  Er7  1  0.773340  0.949095  0.500000  1
  Er  Er8  1  0.500000  0.000000  0.000000  1
  Er  Er9  1  0.000000  0.500000  0.000000  1
  Al  Al10  1  0.703560  0.203560  0.000000  1
  Al  Al11  1  0.296440  0.796440  0.000000  1
  Al  Al12  1  0.203560  0.296440  0.000000  1
  Al  Al13  1  0.796440  0.703560  0.000000  1
  Ge  Ge14  1  0.500000  0.500000  0.000000  1
  Ge  Ge15  1  0.000000  0.000000  0.000000  1
  C  C16  1  0.632942  0.132942  0.500000  1
  C  C17  1  0.367058  0.867058  0.500000  1
  C  C18  1  0.132942  0.367058  0.500000  1
  C  C19  1  0.867058  0.632942  0.500000  1
  C  C20  1  0.162457  0.662457  0.000000  1
  C  C21  1  0.837543  0.337543  0.000000  1
  C  C22  1  0.662457  0.837543  0.000000  1
  C  C23  1  0.337543  0.162457  0.000000  1
