# generated using pymatgen
data_La2Nd4RuI10
_symmetry_space_group_name_H-M   'P 1'
_cell_length_a   8.07649155
_cell_length_b   10.15336717
_cell_length_c   9.97593031
_cell_angle_alpha   107.19232403
_cell_angle_beta   96.35877557
_cell_angle_gamma   105.76557897
_symmetry_Int_Tables_number   1
_chemical_formula_structural   La2Nd4RuI10
_chemical_formula_sum   'La2 Nd4 Ru1 I10'
_cell_volume   735.68966495
_cell_formula_units_Z   1
loop_
 _symmetry_equiv_pos_site_id
 _symmetry_equiv_pos_as_xyz
  1  'x, y, z'
loop_
 _atom_site_type_symbol
 _atom_site_label
 _atom_site_symmetry_multiplicity
 _atom_site_fract_x
 _atom_site_fract_y
 _atom_site_fract_z
 _atom_site_occupancy
  La  La0  1  0.386708  0.958165  0.727453  1
  La  La1  1  0.613292  0.041835  0.272547  1
  Nd  Nd2  1  0.469998  0.293507  0.589468  1
  Nd  Nd3  1  0.530002  0.706493  0.410532  1
  Nd  Nd4  1  0.859190  0.133422  0.675988  1
  Nd  Nd5  1  0.140810  0.866578  0.324012  1
  Ru  Ru6  1  0.500000  0.000000  0.500000  1
  I  I7  1  0.415306  0.628824  0.679030  1
  I  I8  1  0.584694  0.371176  0.320970  1
  I  I9  1  0.290057  0.262234  0.850572  1
  I  I10  1  0.709943  0.737766  0.149428  1
  I  I11  1  0.854572  0.454682  0.770895  1
  I  I12  1  0.145428  0.545318  0.229105  1
  I  I13  1  0.047936  0.179523  0.411787  1
  I  I14  1  0.238024  0.913017  0.040322  1
  I  I15  1  0.761976  0.086983  0.959678  1
  I  I16  1  0.952064  0.820477  0.588213  1
