# generated using pymatgen
data_Dy7Lu3Tl5In3Pd4
_symmetry_space_group_name_H-M   'P 1'
_cell_length_a   3.61478600
_cell_length_b   8.21920131
_cell_length_c   18.25401700
_cell_angle_alpha   89.77690759
_cell_angle_beta   90.00000000
_cell_angle_gamma   90.00000000
_symmetry_Int_Tables_number   1
_chemical_formula_structural   Dy7Lu3Tl5In3Pd4
_chemical_formula_sum   'Dy7 Lu3 Tl5 In3 Pd4'
_cell_volume   542.33466855
_cell_formula_units_Z   1
loop_
 _symmetry_equiv_pos_site_id
 _symmetry_equiv_pos_as_xyz
  1  'x, y, z'
loop_
 _atom_site_type_symbol
 _atom_site_label
 _atom_site_symmetry_multiplicity
 _atom_site_fract_x
 _atom_site_fract_y
 _atom_site_fract_z
 _atom_site_occupancy
  Dy  Dy0  1  0.000000  0.615904  0.084965  1
  Dy  Dy1  1  0.000000  0.241280  0.219965  1
  Dy  Dy2  1  0.000000  0.760876  0.780491  1
  Dy  Dy3  1  0.000000  0.260052  0.717210  1
  Dy  Dy4  1  0.000000  0.739755  0.283547  1
  Dy  Dy5  1  0.000000  0.996566  0.999111  1
  Dy  Dy6  1  0.000000  0.500655  0.500495  1
  Lu  Lu7  1  0.000000  0.116087  0.414883  1
  Lu  Lu8  1  0.000000  0.884956  0.585522  1
  Lu  Lu9  1  0.000000  0.383713  0.912120  1
  Tl  Tl10  1  0.500000  0.417523  0.353304  1
  Tl  Tl11  1  0.500000  0.582547  0.647944  1
  Tl  Tl12  1  0.500000  0.080750  0.850723  1
  Tl  Tl13  1  0.500000  0.918678  0.150257  1
  Tl  Tl14  1  0.500000  0.293167  0.062944  1
  In  In15  1  0.500000  0.701504  0.933789  1
  In  In16  1  0.500000  0.201743  0.563080  1
  In  In17  1  0.500000  0.799619  0.437111  1
  Pd  Pd18  1  0.500000  0.022463  0.306773  1
  Pd  Pd19  1  0.500000  0.979575  0.693440  1
  Pd  Pd20  1  0.500000  0.478441  0.804576  1
  Pd  Pd21  1  0.500000  0.524148  0.197753  1
