# generated using pymatgen
data_Ba7LaLuUSe12
_symmetry_space_group_name_H-M   'P 1'
_cell_length_a   8.99980733
_cell_length_b   8.99980702
_cell_length_c   8.99980832
_cell_angle_alpha   90.70640488
_cell_angle_beta   90.70639824
_cell_angle_gamma   90.70640266
_symmetry_Int_Tables_number   1
_chemical_formula_structural   Ba7LaLuUSe12
_chemical_formula_sum   'Ba7 La1 Lu1 U1 Se12'
_cell_volume   728.78565329
_cell_formula_units_Z   1
loop_
 _symmetry_equiv_pos_site_id
 _symmetry_equiv_pos_as_xyz
  1  'x, y, z'
loop_
 _atom_site_type_symbol
 _atom_site_label
 _atom_site_symmetry_multiplicity
 _atom_site_fract_x
 _atom_site_fract_y
 _atom_site_fract_z
 _atom_site_occupancy
  Ba  Ba0  1  0.871488  0.623484  0.256488  1
  Ba  Ba1  1  0.256488  0.871488  0.623484  1
  Ba  Ba2  1  0.623484  0.256488  0.871488  1
  Ba  Ba3  1  0.743750  0.126020  0.377363  1
  Ba  Ba4  1  0.377363  0.743750  0.126020  1
  Ba  Ba5  1  0.126020  0.377363  0.743750  1
  Ba  Ba6  1  0.746684  0.746684  0.746684  1
  La  La7  1  0.253570  0.253570  0.253570  1
  Lu  Lu8  1  0.499564  0.499564  0.499564  1
  U  U9  1  0.001418  0.001418  0.001418  1
  Se  Se10  1  0.199828  0.547600  0.408416  1
  Se  Se11  1  0.408416  0.199828  0.547600  1
  Se  Se12  1  0.547600  0.408416  0.199828  1
  Se  Se13  1  0.925737  0.059464  0.703143  1
  Se  Se14  1  0.703143  0.925737  0.059464  1
  Se  Se15  1  0.059464  0.703143  0.925737  1
  Se  Se16  1  0.794702  0.435818  0.576080  1
  Se  Se17  1  0.576080  0.794702  0.435818  1
  Se  Se18  1  0.435818  0.576080  0.794702  1
  Se  Se19  1  0.090234  0.956157  0.302991  1
  Se  Se20  1  0.302991  0.090234  0.956157  1
  Se  Se21  1  0.956157  0.302991  0.090234  1
