# generated using pymatgen
data_SmTh7TiS17
_symmetry_space_group_name_H-M   'P 1'
_cell_length_a   8.04874041
_cell_length_b   8.02355684
_cell_length_c   10.64987300
_cell_angle_alpha   80.61245040
_cell_angle_beta   80.59389039
_cell_angle_gamma   64.84094600
_symmetry_Int_Tables_number   1
_chemical_formula_structural   SmTh7TiS17
_chemical_formula_sum   'Sm1 Th7 Ti1 S17'
_cell_volume   610.76098377
_cell_formula_units_Z   1
loop_
 _symmetry_equiv_pos_site_id
 _symmetry_equiv_pos_as_xyz
  1  'x, y, z'
loop_
 _atom_site_type_symbol
 _atom_site_label
 _atom_site_symmetry_multiplicity
 _atom_site_fract_x
 _atom_site_fract_y
 _atom_site_fract_z
 _atom_site_occupancy
  Sm  Sm0  1  0.811776  0.302457  0.298147  1
  Th  Th1  1  0.299654  0.812342  0.293140  1
  Th  Th2  1  0.187289  0.698840  0.703205  1
  Th  Th3  1  0.700009  0.188320  0.703670  1
  Th  Th4  1  0.206361  0.204981  0.543292  1
  Th  Th5  1  0.793135  0.795736  0.453322  1
  Th  Th6  1  0.683078  0.681752  0.979069  1
  Th  Th7  1  0.317712  0.315763  0.024882  1
  Ti  Ti8  1  0.999693  0.002952  0.001445  1
  S  S9  1  0.824581  0.430746  0.533214  1
  S  S10  1  0.431253  0.820414  0.530639  1
  S  S11  1  0.177312  0.568664  0.468177  1
  S  S12  1  0.569897  0.176561  0.471267  1
  S  S13  1  0.943057  0.321323  0.027359  1
  S  S14  1  0.322766  0.942140  0.025534  1
  S  S15  1  0.057836  0.679105  0.971270  1
  S  S16  1  0.677841  0.058845  0.972276  1
  S  S17  1  0.210205  0.204750  0.278103  1
  S  S18  1  0.792275  0.791600  0.722702  1
  S  S19  1  0.061662  0.059499  0.773502  1
  S  S20  1  0.938311  0.940503  0.226820  1
  S  S21  1  0.303166  0.304397  0.756329  1
  S  S22  1  0.693367  0.698527  0.242973  1
  S  S23  1  0.519145  0.521560  0.832818  1
  S  S24  1  0.477197  0.481884  0.164154  1
  S  S25  1  0.001420  0.996343  0.502690  1
