# generated using pymatgen
data_Pr16MgCd3(OsPt)2
_symmetry_space_group_name_H-M   'P 1'
_cell_length_a   10.07220766
_cell_length_b   10.07220805
_cell_length_c   10.15024549
_cell_angle_alpha   59.84095215
_cell_angle_beta   59.84095122
_cell_angle_gamma   59.84305756
_symmetry_Int_Tables_number   1
_chemical_formula_structural   Pr16MgCd3(OsPt)2
_chemical_formula_sum   'Pr16 Mg1 Cd3 Os2 Pt2'
_cell_volume   725.51665295
_cell_formula_units_Z   1
loop_
 _symmetry_equiv_pos_site_id
 _symmetry_equiv_pos_as_xyz
  1  'x, y, z'
loop_
 _atom_site_type_symbol
 _atom_site_label
 _atom_site_symmetry_multiplicity
 _atom_site_fract_x
 _atom_site_fract_y
 _atom_site_fract_z
 _atom_site_occupancy
  Pr  Pr0  1  0.347674  0.347674  0.353824  1
  Pr  Pr1  1  0.347920  0.347920  0.950979  1
  Pr  Pr2  1  0.343549  0.959240  0.347922  1
  Pr  Pr3  1  0.959240  0.343549  0.347922  1
  Pr  Pr4  1  0.814194  0.190236  0.191554  1
  Pr  Pr5  1  0.187563  0.815232  0.805362  1
  Pr  Pr6  1  0.190236  0.814194  0.191554  1
  Pr  Pr7  1  0.815232  0.187563  0.805362  1
  Pr  Pr8  1  0.189884  0.189884  0.810061  1
  Pr  Pr9  1  0.807334  0.807334  0.192093  1
  Pr  Pr10  1  0.938928  0.557097  0.565795  1
  Pr  Pr11  1  0.555738  0.939090  0.941156  1
  Pr  Pr12  1  0.557097  0.938928  0.565795  1
  Pr  Pr13  1  0.939090  0.555738  0.941156  1
  Pr  Pr14  1  0.562327  0.562327  0.939409  1
  Pr  Pr15  1  0.939627  0.939627  0.559317  1
  Mg  Mg16  1  0.575176  0.575176  0.575170  1
  Cd  Cd17  1  0.580370  0.580370  0.259329  1
  Cd  Cd18  1  0.580944  0.258189  0.580427  1
  Cd  Cd19  1  0.258189  0.580944  0.580427  1
  Os  Os20  1  0.143914  0.143914  0.137345  1
  Os  Os21  1  0.144170  0.144170  0.576763  1
  Pt  Pt22  1  0.146729  0.574874  0.140638  1
  Pt  Pt23  1  0.574874  0.146729  0.140638  1
