# generated using pymatgen
data_SmZrB6Ru
_symmetry_space_group_name_H-M   'P 1'
_cell_length_a   3.60066500
_cell_length_b   9.11102300
_cell_length_c   11.48983900
_cell_angle_alpha   90.00000000
_cell_angle_beta   90.00000000
_cell_angle_gamma   90.00000000
_symmetry_Int_Tables_number   1
_chemical_formula_structural   SmZrB6Ru
_chemical_formula_sum   'Sm4 Zr4 B24 Ru4'
_cell_volume   376.93268961
_cell_formula_units_Z   4
loop_
 _symmetry_equiv_pos_site_id
 _symmetry_equiv_pos_as_xyz
  1  'x, y, z'
loop_
 _atom_site_type_symbol
 _atom_site_label
 _atom_site_symmetry_multiplicity
 _atom_site_fract_x
 _atom_site_fract_y
 _atom_site_fract_z
 _atom_site_occupancy
  Sm  Sm0  1  0.000000  0.322522  0.413479  1
  Sm  Sm1  1  0.000000  0.677478  0.586521  1
  Sm  Sm2  1  0.000000  0.822522  0.086521  1
  Sm  Sm3  1  0.000000  0.177478  0.913479  1
  Zr  Zr4  1  0.000000  0.944893  0.373907  1
  Zr  Zr5  1  0.000000  0.055107  0.626093  1
  Zr  Zr6  1  0.000000  0.444893  0.126093  1
  Zr  Zr7  1  0.000000  0.555107  0.873907  1
  B  B8  1  0.500000  0.555039  0.431703  1
  B  B9  1  0.500000  0.444961  0.568297  1
  B  B10  1  0.500000  0.055039  0.068297  1
  B  B11  1  0.500000  0.944961  0.931703  1
  B  B12  1  0.500000  0.752506  0.417394  1
  B  B13  1  0.500000  0.247494  0.582606  1
  B  B14  1  0.500000  0.252506  0.082606  1
  B  B15  1  0.500000  0.747494  0.917394  1
  B  B16  1  0.500000  0.794612  0.265069  1
  B  B17  1  0.500000  0.205388  0.734931  1
  B  B18  1  0.500000  0.294612  0.234931  1
  B  B19  1  0.500000  0.705388  0.765069  1
  B  B20  1  0.500000  0.629689  0.183589  1
  B  B21  1  0.500000  0.370311  0.816411  1
  B  B22  1  0.500000  0.129689  0.316411  1
  B  B23  1  0.500000  0.870311  0.683589  1
  B  B24  1  0.500000  0.983053  0.213539  1
  B  B25  1  0.500000  0.016947  0.786461  1
  B  B26  1  0.500000  0.483053  0.286461  1
  B  B27  1  0.500000  0.516947  0.713539  1
  B  B28  1  0.500000  0.600458  0.026954  1
  B  B29  1  0.500000  0.399542  0.973046  1
  B  B30  1  0.500000  0.100458  0.473046  1
  B  B31  1  0.500000  0.899542  0.526954  1
  Ru  Ru32  1  0.000000  0.642302  0.317581  1
  Ru  Ru33  1  0.000000  0.357698  0.682419  1
  Ru  Ru34  1  0.000000  0.142302  0.182419  1
  Ru  Ru35  1  0.000000  0.857698  0.817581  1
