# generated using pymatgen
data_Sc12Mo(PtI8)2
_symmetry_space_group_name_H-M   'P 1'
_cell_length_a   9.14969987
_cell_length_b   12.04299781
_cell_length_c   12.66905732
_cell_angle_alpha   117.34542271
_cell_angle_beta   101.09260359
_cell_angle_gamma   100.61953671
_symmetry_Int_Tables_number   1
_chemical_formula_structural   Sc12Mo(PtI8)2
_chemical_formula_sum   'Sc12 Mo1 Pt2 I16'
_cell_volume   1155.77001432
_cell_formula_units_Z   1
loop_
 _symmetry_equiv_pos_site_id
 _symmetry_equiv_pos_as_xyz
  1  'x, y, z'
loop_
 _atom_site_type_symbol
 _atom_site_label
 _atom_site_symmetry_multiplicity
 _atom_site_fract_x
 _atom_site_fract_y
 _atom_site_fract_z
 _atom_site_occupancy
  Sc  Sc0  1  0.090556  0.271344  0.359380  1
  Sc  Sc1  1  0.910936  0.728982  0.640840  1
  Sc  Sc2  1  0.779277  0.534925  0.329588  1
  Sc  Sc3  1  0.222288  0.465104  0.670178  1
  Sc  Sc4  1  0.277871  0.729395  0.640609  1
  Sc  Sc5  1  0.723484  0.270272  0.359195  1
  Sc  Sc6  1  0.146107  0.535088  0.330317  1
  Sc  Sc7  1  0.855339  0.464908  0.669936  1
  Sc  Sc8  1  0.404603  0.361972  0.278970  1
  Sc  Sc9  1  0.588752  0.637966  0.720908  1
  Sc  Sc10  1  0.456496  0.312817  0.520822  1
  Sc  Sc11  1  0.537025  0.687219  0.479177  1
  Mo  Mo12  1  0.331428  0.500117  0.499672  1
  Pt  Pt13  1  0.996364  0.499989  0.500035  1
  Pt  Pt14  1  0.660859  0.499837  0.500378  1
  I  I15  1  0.393767  0.741328  0.885209  1
  I  I16  1  0.608191  0.260398  0.117608  1
  I  I17  1  0.186337  0.962589  0.782320  1
  I  I18  1  0.811339  0.037382  0.217703  1
  I  I19  1  0.343604  0.096940  0.252218  1
  I  I20  1  0.666615  0.903180  0.747848  1
  I  I21  1  0.563023  0.438563  0.799228  1
  I  I22  1  0.447064  0.561309  0.200859  1
  I  I23  1  0.304786  0.826502  0.461483  1
  I  I24  1  0.696527  0.175788  0.537945  1
  I  I25  1  0.164019  0.172315  0.534956  1
  I  I26  1  0.836108  0.825338  0.465295  1
  I  I27  1  0.924393  0.573565  0.159524  1
  I  I28  1  0.073289  0.426534  0.840586  1
  I  I29  1  0.926117  0.737856  0.882441  1
  I  I30  1  0.073436  0.260477  0.114773  1
