# generated using pymatgen
data_Tb3Gd7(SiB4)4
_symmetry_space_group_name_H-M   'P 1'
_cell_length_a   7.26634402
_cell_length_b   7.26630301
_cell_length_c   8.20030904
_cell_angle_alpha   90.00563156
_cell_angle_beta   89.99092796
_cell_angle_gamma   89.99736660
_symmetry_Int_Tables_number   1
_chemical_formula_structural   Tb3Gd7(SiB4)4
_chemical_formula_sum   'Tb3 Gd7 Si4 B16'
_cell_volume   432.97186014
_cell_formula_units_Z   1
loop_
 _symmetry_equiv_pos_site_id
 _symmetry_equiv_pos_as_xyz
  1  'x, y, z'
loop_
 _atom_site_type_symbol
 _atom_site_label
 _atom_site_symmetry_multiplicity
 _atom_site_fract_x
 _atom_site_fract_y
 _atom_site_fract_z
 _atom_site_occupancy
  Tb  Tb0  1  0.180351  0.319630  0.223117  1
  Tb  Tb1  1  0.000130  0.000052  0.499990  1
  Tb  Tb2  1  0.499918  0.499881  0.500009  1
  Gd  Gd3  1  0.680547  0.180641  0.225039  1
  Gd  Gd4  1  0.319544  0.819513  0.775252  1
  Gd  Gd5  1  0.319343  0.819429  0.225107  1
  Gd  Gd6  1  0.819561  0.680425  0.224946  1
  Gd  Gd7  1  0.819458  0.680575  0.775211  1
  Gd  Gd8  1  0.680458  0.180438  0.775209  1
  Gd  Gd9  1  0.180552  0.319493  0.775035  1
  Si  Si10  1  0.114661  0.613962  0.499686  1
  Si  Si11  1  0.886083  0.385422  0.499533  1
  Si  Si12  1  0.385230  0.114691  0.499962  1
  Si  Si13  1  0.614127  0.885794  0.499838  1
  B  B14  1  0.172474  0.039414  0.000078  1
  B  B15  1  0.827713  0.960853  0.000149  1
  B  B16  1  0.960825  0.172423  0.000026  1
  B  B17  1  0.327540  0.539231  0.000034  1
  B  B18  1  0.039442  0.827746  0.000197  1
  B  B19  1  0.672225  0.460605  0.000203  1
  B  B20  1  0.539094  0.672333  0.000142  1
  B  B21  1  0.460540  0.327572  0.000105  1
  B  B22  1  0.090252  0.590115  0.000240  1
  B  B23  1  0.909893  0.409753  0.000299  1
  B  B24  1  0.409866  0.090128  0.000029  1
  B  B25  1  0.590028  0.909967  0.999942  1
  B  B26  1  0.000154  0.000214  0.159424  1
  B  B27  1  0.000157  0.999851  0.840876  1
  B  B28  1  0.500022  0.500086  0.840891  1
  B  B29  1  0.499811  0.499763  0.159432  1
