# generated using pymatgen
data_Pr4Nd3ThTe12
_symmetry_space_group_name_H-M   'P 1'
_cell_length_a   4.42640000
_cell_length_b   12.10935436
_cell_length_c   12.36889922
_cell_angle_alpha   89.75208342
_cell_angle_beta   90.00000000
_cell_angle_gamma   90.00000000
_symmetry_Int_Tables_number   1
_chemical_formula_structural   Pr4Nd3ThTe12
_chemical_formula_sum   'Pr4 Nd3 Th1 Te12'
_cell_volume   662.97725767
_cell_formula_units_Z   1
loop_
 _symmetry_equiv_pos_site_id
 _symmetry_equiv_pos_as_xyz
  1  'x, y, z'
loop_
 _atom_site_type_symbol
 _atom_site_label
 _atom_site_symmetry_multiplicity
 _atom_site_fract_x
 _atom_site_fract_y
 _atom_site_fract_z
 _atom_site_occupancy
  Pr  Pr0  1  0.750000  0.505446  0.301430  1
  Pr  Pr1  1  0.750000  0.007197  0.804558  1
  Pr  Pr2  1  0.250000  0.999300  0.195870  1
  Pr  Pr3  1  0.750000  0.813226  0.482573  1
  Nd  Nd4  1  0.250000  0.184885  0.515714  1
  Nd  Nd5  1  0.750000  0.691473  0.982068  1
  Nd  Nd6  1  0.250000  0.309750  0.021753  1
  Th  Th7  1  0.250000  0.489336  0.696460  1
  Te  Te8  1  0.250000  0.877862  0.952782  1
  Te  Te9  1  0.750000  0.123735  0.044895  1
  Te  Te10  1  0.750000  0.375855  0.543186  1
  Te  Te11  1  0.250000  0.621874  0.460517  1
  Te  Te12  1  0.250000  0.209116  0.772623  1
  Te  Te13  1  0.750000  0.798591  0.224993  1
  Te  Te14  1  0.750000  0.686843  0.719990  1
  Te  Te15  1  0.250000  0.304436  0.278423  1
  Te  Te16  1  0.250000  0.555511  0.115863  1
  Te  Te17  1  0.750000  0.445648  0.884005  1
  Te  Te18  1  0.750000  0.056450  0.379566  1
  Te  Te19  1  0.250000  0.943464  0.622731  1
