# generated using pymatgen
data_Er2Ni6Ir
_symmetry_space_group_name_H-M   'P 1'
_cell_length_a   4.90535201
_cell_length_b   4.97271429
_cell_length_c   12.56156830
_cell_angle_alpha   78.46165346
_cell_angle_beta   78.74053368
_cell_angle_gamma   60.44710758
_symmetry_Int_Tables_number   1
_chemical_formula_structural   Er2Ni6Ir
_chemical_formula_sum   'Er4 Ni12 Ir2'
_cell_volume   259.47981698
_cell_formula_units_Z   2
loop_
 _symmetry_equiv_pos_site_id
 _symmetry_equiv_pos_as_xyz
  1  'x, y, z'
loop_
 _atom_site_type_symbol
 _atom_site_label
 _atom_site_symmetry_multiplicity
 _atom_site_fract_x
 _atom_site_fract_y
 _atom_site_fract_z
 _atom_site_occupancy
  Er  Er0  1  0.951158  0.947617  0.150067  1
  Er  Er1  1  0.048842  0.052383  0.849933  1
  Er  Er2  1  0.853408  0.853145  0.440039  1
  Er  Er3  1  0.146592  0.146855  0.559961  1
  Ni  Ni4  1  0.724419  0.716825  0.834339  1
  Ni  Ni5  1  0.275581  0.283175  0.165661  1
  Ni  Ni6  1  0.616781  0.600914  0.165523  1
  Ni  Ni7  1  0.383219  0.399086  0.834477  1
  Ni  Ni8  1  0.000000  0.500000  0.000000  1
  Ni  Ni9  1  0.500000  0.500000  0.000000  1
  Ni  Ni10  1  0.389443  0.389739  0.326842  1
  Ni  Ni11  1  0.893975  0.389739  0.326842  1
  Ni  Ni12  1  0.390456  0.894026  0.325061  1
  Ni  Ni13  1  0.610557  0.610261  0.673158  1
  Ni  Ni14  1  0.106025  0.610261  0.673158  1
  Ni  Ni15  1  0.609544  0.105974  0.674939  1
  Ir  Ir16  1  0.500000  0.500000  0.500000  1
  Ir  Ir17  1  0.500000  0.000000  0.000000  1
