# generated using pymatgen
data_Er10In8CoPt3
_symmetry_space_group_name_H-M   'P 1'
_cell_length_a   3.61531400
_cell_length_b   8.05614301
_cell_length_c   18.07163901
_cell_angle_alpha   90.00472929
_cell_angle_beta   90.00000000
_cell_angle_gamma   90.00000000
_symmetry_Int_Tables_number   1
_chemical_formula_structural   Er10In8CoPt3
_chemical_formula_sum   'Er10 In8 Co1 Pt3'
_cell_volume   526.34527817
_cell_formula_units_Z   1
loop_
 _symmetry_equiv_pos_site_id
 _symmetry_equiv_pos_as_xyz
  1  'x, y, z'
loop_
 _atom_site_type_symbol
 _atom_site_label
 _atom_site_symmetry_multiplicity
 _atom_site_fract_x
 _atom_site_fract_y
 _atom_site_fract_z
 _atom_site_occupancy
  Er  Er0  1  0.000000  0.112466  0.408592  1
  Er  Er1  1  0.000000  0.883539  0.584628  1
  Er  Er2  1  0.000000  0.382998  0.914820  1
  Er  Er3  1  0.000000  0.617501  0.087292  1
  Er  Er4  1  0.000000  0.234259  0.223563  1
  Er  Er5  1  0.000000  0.757450  0.779157  1
  Er  Er6  1  0.000000  0.256560  0.720796  1
  Er  Er7  1  0.000000  0.755882  0.279875  1
  Er  Er8  1  0.000000  0.999799  0.000887  1
  Er  Er9  1  0.000000  0.500407  0.498973  1
  In  In10  1  0.500000  0.421583  0.351184  1
  In  In11  1  0.500000  0.576055  0.648132  1
  In  In12  1  0.500000  0.075851  0.851630  1
  In  In13  1  0.500000  0.928290  0.151987  1
  In  In14  1  0.500000  0.291863  0.067388  1
  In  In15  1  0.500000  0.708198  0.933830  1
  In  In16  1  0.500000  0.207691  0.565433  1
  In  In17  1  0.500000  0.795503  0.430311  1
  Co  Co18  1  0.500000  0.020180  0.304961  1
  Pt  Pt19  1  0.500000  0.975403  0.695918  1
  Pt  Pt20  1  0.500000  0.475624  0.803738  1
  Pt  Pt21  1  0.500000  0.522897  0.196904  1
