# generated using pymatgen
data_CeSmDy2(ReB6)2
_symmetry_space_group_name_H-M   'P 1'
_cell_length_a   3.72524600
_cell_length_b   9.22478375
_cell_length_c   11.62878521
_cell_angle_alpha   90.14629499
_cell_angle_beta   90.00000000
_cell_angle_gamma   90.00000000
_symmetry_Int_Tables_number   1
_chemical_formula_structural   CeSmDy2(ReB6)2
_chemical_formula_sum   'Ce2 Sm2 Dy4 Re4 B24'
_cell_volume   399.61711895
_cell_formula_units_Z   2
loop_
 _symmetry_equiv_pos_site_id
 _symmetry_equiv_pos_as_xyz
  1  'x, y, z'
loop_
 _atom_site_type_symbol
 _atom_site_label
 _atom_site_symmetry_multiplicity
 _atom_site_fract_x
 _atom_site_fract_y
 _atom_site_fract_z
 _atom_site_occupancy
  Ce  Ce0  1  0.000000  0.322573  0.413964  1
  Ce  Ce1  1  0.000000  0.677427  0.586036  1
  Sm  Sm2  1  0.000000  0.823848  0.085776  1
  Sm  Sm3  1  0.000000  0.176152  0.914224  1
  Dy  Dy4  1  0.000000  0.943482  0.370860  1
  Dy  Dy5  1  0.000000  0.056518  0.629140  1
  Dy  Dy6  1  0.000000  0.443003  0.129389  1
  Dy  Dy7  1  0.000000  0.556997  0.870611  1
  Re  Re8  1  0.000000  0.637046  0.322479  1
  Re  Re9  1  0.000000  0.362954  0.677521  1
  Re  Re10  1  0.000000  0.140131  0.181204  1
  Re  Re11  1  0.000000  0.859869  0.818796  1
  B  B12  1  0.500000  0.554131  0.431645  1
  B  B13  1  0.500000  0.445869  0.568355  1
  B  B14  1  0.500000  0.054394  0.068306  1
  B  B15  1  0.500000  0.945606  0.931694  1
  B  B16  1  0.500000  0.748613  0.417723  1
  B  B17  1  0.500000  0.251387  0.582277  1
  B  B18  1  0.500000  0.248822  0.082556  1
  B  B19  1  0.500000  0.751178  0.917444  1
  B  B20  1  0.500000  0.790996  0.266405  1
  B  B21  1  0.500000  0.209004  0.733595  1
  B  B22  1  0.500000  0.291300  0.234281  1
  B  B23  1  0.500000  0.708700  0.765719  1
  B  B24  1  0.500000  0.630375  0.186399  1
  B  B25  1  0.500000  0.369625  0.813601  1
  B  B26  1  0.500000  0.131502  0.314004  1
  B  B27  1  0.500000  0.868498  0.685996  1
  B  B28  1  0.500000  0.984110  0.212724  1
  B  B29  1  0.500000  0.015890  0.787276  1
  B  B30  1  0.500000  0.483657  0.287456  1
  B  B31  1  0.500000  0.516343  0.712544  1
  B  B32  1  0.500000  0.599799  0.027920  1
  B  B33  1  0.500000  0.400201  0.972080  1
  B  B34  1  0.500000  0.103718  0.471237  1
  B  B35  1  0.500000  0.896282  0.528763  1
