# generated using pymatgen
data_LiTi5(AlRh2)6
_symmetry_space_group_name_H-M   'P 1'
_cell_length_a   4.28257800
_cell_length_b   6.21863500
_cell_length_c   12.78719200
_cell_angle_alpha   90.00075414
_cell_angle_beta   89.99917297
_cell_angle_gamma   89.99976903
_symmetry_Int_Tables_number   1
_chemical_formula_structural   LiTi5(AlRh2)6
_chemical_formula_sum   'Li1 Ti5 Al6 Rh12'
_cell_volume   340.54580485
_cell_formula_units_Z   1
loop_
 _symmetry_equiv_pos_site_id
 _symmetry_equiv_pos_as_xyz
  1  'x, y, z'
loop_
 _atom_site_type_symbol
 _atom_site_label
 _atom_site_symmetry_multiplicity
 _atom_site_fract_x
 _atom_site_fract_y
 _atom_site_fract_z
 _atom_site_occupancy
  Li  Li0  1  0.000003  0.000000  0.000012  1
  Ti  Ti1  1  0.500009  0.500001  0.162845  1
  Ti  Ti2  1  0.000010  0.000001  0.331183  1
  Ti  Ti3  1  0.499999  0.499998  0.500005  1
  Ti  Ti4  1  0.999989  0.000001  0.668821  1
  Ti  Ti5  1  0.499995  0.500000  0.837144  1
  Al  Al6  1  0.000000  0.500001  0.000011  1
  Al  Al7  1  0.500003  0.000000  0.162269  1
  Al  Al8  1  0.999992  0.500001  0.330906  1
  Al  Al9  1  0.499995  0.000000  0.499987  1
  Al  Al10  1  0.000008  0.500000  0.669079  1
  Al  Al11  1  0.499995  0.000000  0.837746  1
  Rh  Rh12  1  0.500004  0.252401  0.999998  1
  Rh  Rh13  1  0.500000  0.747594  0.000001  1
  Rh  Rh14  1  0.000016  0.249716  0.168360  1
  Rh  Rh15  1  0.000006  0.750281  0.168356  1
  Rh  Rh16  1  0.500004  0.249187  0.334028  1
  Rh  Rh17  1  0.500009  0.750812  0.334029  1
  Rh  Rh18  1  0.000000  0.250399  0.500001  1
  Rh  Rh19  1  0.999994  0.749598  0.500000  1
  Rh  Rh20  1  0.499994  0.249208  0.665972  1
  Rh  Rh21  1  0.499994  0.750793  0.665971  1
  Rh  Rh22  1  0.999987  0.249731  0.831637  1
  Rh  Rh23  1  0.999986  0.750276  0.831637  1
