# generated using pymatgen
data_Li4Yb(Cu2P3)2
_symmetry_space_group_name_H-M   'P 1'
_cell_length_a   7.99349011
_cell_length_b   7.99349105
_cell_length_c   7.99349104
_cell_angle_alpha   151.56939277
_cell_angle_beta   113.51899075
_cell_angle_gamma   73.83244169
_symmetry_Int_Tables_number   1
_chemical_formula_structural   Li4Yb(Cu2P3)2
_chemical_formula_sum   'Li4 Yb1 Cu4 P6'
_cell_volume   219.87088191
_cell_formula_units_Z   1
loop_
 _symmetry_equiv_pos_site_id
 _symmetry_equiv_pos_as_xyz
  1  'x, y, z'
loop_
 _atom_site_type_symbol
 _atom_site_label
 _atom_site_symmetry_multiplicity
 _atom_site_fract_x
 _atom_site_fract_y
 _atom_site_fract_z
 _atom_site_occupancy
  Li  Li0  1  0.719810  0.719810  0.000000  1
  Li  Li1  1  0.667628  0.500000  0.167628  1
  Li  Li2  1  0.332372  0.500000  0.832372  1
  Li  Li3  1  0.280190  0.280190  0.000000  1
  Yb  Yb4  1  0.000000  0.000000  0.000000  1
  Cu  Cu5  1  0.905237  0.173849  0.731389  1
  Cu  Cu6  1  0.557540  0.826151  0.731389  1
  Cu  Cu7  1  0.442460  0.173849  0.268611  1
  Cu  Cu8  1  0.094763  0.826151  0.268611  1
  P  P9  1  0.975552  0.348970  0.626582  1
  P  P10  1  0.722387  0.348970  0.373418  1
  P  P11  1  0.585631  0.085631  0.500000  1
  P  P12  1  0.414369  0.914369  0.500000  1
  P  P13  1  0.277613  0.651030  0.626582  1
  P  P14  1  0.024448  0.651030  0.373418  1
