# generated using pymatgen
data_Tb9Er(Sn3Cl)2
_symmetry_space_group_name_H-M   'P 1'
_cell_length_a   9.15279600
_cell_length_b   9.15279476
_cell_length_c   6.57180800
_cell_angle_alpha   90.00000000
_cell_angle_beta   90.00000000
_cell_angle_gamma   119.99999724
_symmetry_Int_Tables_number   1
_chemical_formula_structural   Tb9Er(Sn3Cl)2
_chemical_formula_sum   'Tb9 Er1 Sn6 Cl2'
_cell_volume   476.78547605
_cell_formula_units_Z   1
loop_
 _symmetry_equiv_pos_site_id
 _symmetry_equiv_pos_as_xyz
  1  'x, y, z'
loop_
 _atom_site_type_symbol
 _atom_site_label
 _atom_site_symmetry_multiplicity
 _atom_site_fract_x
 _atom_site_fract_y
 _atom_site_fract_z
 _atom_site_occupancy
  Tb  Tb0  1  0.333333  0.666667  0.500000  1
  Tb  Tb1  1  0.666667  0.333333  0.500000  1
  Tb  Tb2  1  0.333333  0.666667  0.000000  1
  Tb  Tb3  1  0.738640  0.000112  0.750147  1
  Tb  Tb4  1  0.738640  0.738528  0.249853  1
  Tb  Tb5  1  0.999888  0.261360  0.249853  1
  Tb  Tb6  1  0.999888  0.738528  0.750147  1
  Tb  Tb7  1  0.261472  0.261360  0.750147  1
  Tb  Tb8  1  0.261472  0.000112  0.249853  1
  Er  Er9  1  0.666667  0.333333  0.000000  1
  Sn  Sn10  1  0.610682  0.610121  0.750395  1
  Sn  Sn11  1  0.999439  0.610121  0.249605  1
  Sn  Sn12  1  0.610682  0.000561  0.249605  1
  Sn  Sn13  1  0.389879  0.000561  0.750395  1
  Sn  Sn14  1  0.999439  0.389318  0.750395  1
  Sn  Sn15  1  0.389879  0.389318  0.249605  1
  Cl  Cl16  1  0.000000  0.000000  0.500000  1
  Cl  Cl17  1  0.000000  0.000000  0.000000  1
