# generated using pymatgen
data_Tb2(NdBi)3
_symmetry_space_group_name_H-M   'P 1'
_cell_length_a   6.53008200
_cell_length_b   9.41735548
_cell_length_c   9.41272215
_cell_angle_alpha   120.01456423
_cell_angle_beta   90.00022970
_cell_angle_gamma   89.99968598
_symmetry_Int_Tables_number   1
_chemical_formula_structural   Tb2(NdBi)3
_chemical_formula_sum   'Tb4 Nd6 Bi6'
_cell_volume   501.22152587
_cell_formula_units_Z   2
loop_
 _symmetry_equiv_pos_site_id
 _symmetry_equiv_pos_as_xyz
  1  'x, y, z'
loop_
 _atom_site_type_symbol
 _atom_site_label
 _atom_site_symmetry_multiplicity
 _atom_site_fract_x
 _atom_site_fract_y
 _atom_site_fract_z
 _atom_site_occupancy
  Tb  Tb0  1  0.499992  0.333353  0.666695  1
  Tb  Tb1  1  0.499991  0.666648  0.333303  1
  Tb  Tb2  1  0.000006  0.666654  0.333311  1
  Tb  Tb3  1  0.000006  0.333344  0.666688  1
  Nd  Nd4  1  0.750009  0.248167  0.999990  1
  Nd  Nd5  1  0.750005  0.752297  0.752074  1
  Nd  Nd6  1  0.750009  0.000216  0.247929  1
  Nd  Nd7  1  0.249990  0.751820  0.000008  1
  Nd  Nd8  1  0.249996  0.247712  0.247937  1
  Nd  Nd9  1  0.249993  0.999787  0.752067  1
  Bi  Bi10  1  0.750004  0.610162  0.000003  1
  Bi  Bi11  1  0.750002  0.390070  0.390059  1
  Bi  Bi12  1  0.750001  0.000023  0.609939  1
  Bi  Bi13  1  0.249994  0.389826  0.999990  1
  Bi  Bi14  1  0.249998  0.609934  0.609946  1
  Bi  Bi15  1  0.249998  0.999986  0.390060  1
