# generated using pymatgen
data_Ho7(AsSe3)2
_symmetry_space_group_name_H-M   'P 1'
_cell_length_a   8.15334940
_cell_length_b   8.15393783
_cell_length_c   8.15335100
_cell_angle_alpha   120.00652439
_cell_angle_beta   89.98216479
_cell_angle_gamma   120.00930071
_symmetry_Int_Tables_number   1
_chemical_formula_structural   Ho7(AsSe3)2
_chemical_formula_sum   'Ho7 As2 Se6'
_cell_volume   383.25539942
_cell_formula_units_Z   1
loop_
 _symmetry_equiv_pos_site_id
 _symmetry_equiv_pos_as_xyz
  1  'x, y, z'
loop_
 _atom_site_type_symbol
 _atom_site_label
 _atom_site_symmetry_multiplicity
 _atom_site_fract_x
 _atom_site_fract_y
 _atom_site_fract_z
 _atom_site_occupancy
  Ho  Ho0  1  0.250004  0.000000  0.250004  1
  Ho  Ho1  1  0.250008  0.500010  0.250008  1
  Ho  Ho2  1  0.749991  0.000000  0.250019  1
  Ho  Ho3  1  0.249972  0.500001  0.749973  1
  Ho  Ho4  1  0.250020  0.000000  0.749991  1
  Ho  Ho5  1  0.750005  0.000000  0.750005  1
  Ho  Ho6  1  0.749997  0.499989  0.749997  1
  As  As7  1  0.999999  0.000000  0.999999  1
  As  As8  1  0.500000  0.000000  0.500000  1
  Se  Se9  1  0.998585  0.997171  0.498595  1
  Se  Se10  1  0.998611  0.500001  0.498613  1
  Se  Se11  1  0.501397  0.499989  0.498584  1
  Se  Se12  1  0.998598  0.500013  0.001409  1
  Se  Se13  1  0.501393  0.500001  0.001394  1
  Se  Se14  1  0.501422  0.002828  0.001416  1
