# generated using pymatgen
data_Zr6SnGeC4
_symmetry_space_group_name_H-M   'P 1'
_cell_length_a   3.37768500
_cell_length_b   3.37768524
_cell_length_c   19.56888700
_cell_angle_alpha   90.00000000
_cell_angle_beta   90.00000000
_cell_angle_gamma   120.00000748
_symmetry_Int_Tables_number   1
_chemical_formula_structural   Zr6SnGeC4
_chemical_formula_sum   'Zr6 Sn1 Ge1 C4'
_cell_volume   193.34593476
_cell_formula_units_Z   1
loop_
 _symmetry_equiv_pos_site_id
 _symmetry_equiv_pos_as_xyz
  1  'x, y, z'
loop_
 _atom_site_type_symbol
 _atom_site_label
 _atom_site_symmetry_multiplicity
 _atom_site_fract_x
 _atom_site_fract_y
 _atom_site_fract_z
 _atom_site_occupancy
  Zr  Zr0  1  0.000000  0.000000  0.993347  1
  Zr  Zr1  1  0.666667  0.333334  0.125468  1
  Zr  Zr2  1  0.666667  0.333334  0.374532  1
  Zr  Zr3  1  0.000000  0.000000  0.506653  1
  Zr  Zr4  1  0.333334  0.666668  0.639564  1
  Zr  Zr5  1  0.333334  0.666668  0.860436  1
  Sn  Sn6  1  0.000000  0.000000  0.250000  1
  Ge  Ge7  1  0.000000  0.000000  0.750000  1
  C  C8  1  0.333334  0.666668  0.065126  1
  C  C9  1  0.333334  0.666668  0.434874  1
  C  C10  1  0.666667  0.333334  0.578254  1
  C  C11  1  0.666667  0.333334  0.921746  1
