# generated using pymatgen
data_EuZnH3
_symmetry_space_group_name_H-M   'P 1'
_cell_length_a   6.27264637
_cell_length_b   6.27264568
_cell_length_c   4.79333200
_cell_angle_alpha   90.00000000
_cell_angle_beta   90.00000000
_cell_angle_gamma   142.86700300
_symmetry_Int_Tables_number   1
_chemical_formula_structural   EuZnH3
_chemical_formula_sum   'Eu2 Zn2 H6'
_cell_volume   113.85095171
_cell_formula_units_Z   2
loop_
 _symmetry_equiv_pos_site_id
 _symmetry_equiv_pos_as_xyz
  1  'x, y, z'
loop_
 _atom_site_type_symbol
 _atom_site_label
 _atom_site_symmetry_multiplicity
 _atom_site_fract_x
 _atom_site_fract_y
 _atom_site_fract_z
 _atom_site_occupancy
  Eu  Eu0  1  0.360818  0.639180  0.250000  1
  Eu  Eu1  1  0.639180  0.360818  0.750000  1
  Zn  Zn2  1  0.075426  0.924572  0.250000  1
  Zn  Zn3  1  0.924572  0.075426  0.750000  1
  H  H4  1  0.183740  0.816258  0.998754  1
  H  H5  1  0.568144  0.431854  0.250000  1
  H  H6  1  0.183740  0.816258  0.501246  1
  H  H7  1  0.816258  0.183740  0.498754  1
  H  H8  1  0.431854  0.568144  0.750000  1
  H  H9  1  0.816258  0.183740  0.001246  1
