# generated using pymatgen
data_V(Zn11Pt)2
_symmetry_space_group_name_H-M   'P 1'
_cell_length_a   7.86259583
_cell_length_b   7.86259578
_cell_length_c   7.83121857
_cell_angle_alpha   71.84952191
_cell_angle_beta   71.84952556
_cell_angle_gamma   57.91591464
_symmetry_Int_Tables_number   1
_chemical_formula_structural   V(Zn11Pt)2
_chemical_formula_sum   'V1 Zn22 Pt2'
_cell_volume   383.31078384
_cell_formula_units_Z   1
loop_
 _symmetry_equiv_pos_site_id
 _symmetry_equiv_pos_as_xyz
  1  'x, y, z'
loop_
 _atom_site_type_symbol
 _atom_site_label
 _atom_site_symmetry_multiplicity
 _atom_site_fract_x
 _atom_site_fract_y
 _atom_site_fract_z
 _atom_site_occupancy
  V  V0  1  0.000000  0.000000  0.500000  1
  Zn  Zn1  1  0.335167  0.749071  0.315467  1
  Zn  Zn2  1  0.664833  0.250929  0.684533  1
  Zn  Zn3  1  0.250929  0.664833  0.684533  1
  Zn  Zn4  1  0.749071  0.335167  0.315467  1
  Zn  Zn5  1  0.681075  0.318925  0.000000  1
  Zn  Zn6  1  0.318925  0.681075  0.000000  1
  Zn  Zn7  1  0.832534  0.832534  0.778533  1
  Zn  Zn8  1  0.167466  0.167466  0.221467  1
  Zn  Zn9  1  0.977056  0.977056  0.176239  1
  Zn  Zn10  1  0.022944  0.022944  0.823761  1
  Zn  Zn11  1  0.348528  0.348528  0.281283  1
  Zn  Zn12  1  0.651472  0.651472  0.718717  1
  Zn  Zn13  1  0.685175  0.685175  0.380170  1
  Zn  Zn14  1  0.314825  0.314825  0.619830  1
  Zn  Zn15  1  0.661030  0.022933  0.463505  1
  Zn  Zn16  1  0.338970  0.977067  0.536495  1
  Zn  Zn17  1  0.977067  0.338970  0.536495  1
  Zn  Zn18  1  0.022933  0.661030  0.463505  1
  Zn  Zn19  1  0.619953  0.997139  0.106622  1
  Zn  Zn20  1  0.380047  0.002861  0.893378  1
  Zn  Zn21  1  0.002861  0.380047  0.893378  1
  Zn  Zn22  1  0.997139  0.619953  0.106622  1
  Pt  Pt23  1  0.656409  0.656409  0.055620  1
  Pt  Pt24  1  0.343591  0.343591  0.944380  1
