# generated using pymatgen
data_Sc8Ta11ReSi16
_symmetry_space_group_name_H-M   'P 1'
_cell_length_a   6.66018004
_cell_length_b   6.86829800
_cell_length_c   13.07548800
_cell_angle_alpha   90.00000000
_cell_angle_beta   90.00000000
_cell_angle_gamma   90.00419083
_symmetry_Int_Tables_number   1
_chemical_formula_structural   Sc8Ta11ReSi16
_chemical_formula_sum   'Sc8 Ta11 Re1 Si16'
_cell_volume   598.12644517
_cell_formula_units_Z   1
loop_
 _symmetry_equiv_pos_site_id
 _symmetry_equiv_pos_as_xyz
  1  'x, y, z'
loop_
 _atom_site_type_symbol
 _atom_site_label
 _atom_site_symmetry_multiplicity
 _atom_site_fract_x
 _atom_site_fract_y
 _atom_site_fract_z
 _atom_site_occupancy
  Sc  Sc0  1  0.499710  0.673481  0.594663  1
  Sc  Sc1  1  0.999893  0.826498  0.905453  1
  Sc  Sc2  1  0.500828  0.326826  0.093907  1
  Sc  Sc3  1  0.003126  0.174194  0.406334  1
  Sc  Sc4  1  0.500828  0.326826  0.406093  1
  Sc  Sc5  1  0.003126  0.174194  0.093666  1
  Sc  Sc6  1  0.499710  0.673481  0.905337  1
  Sc  Sc7  1  0.999893  0.826498  0.594547  1
  Ta  Ta8  1  0.663417  0.173224  0.623877  1
  Ta  Ta9  1  0.163262  0.326541  0.875369  1
  Ta  Ta10  1  0.335680  0.828612  0.126072  1
  Ta  Ta11  1  0.835251  0.671529  0.374177  1
  Ta  Ta12  1  0.335680  0.828612  0.373928  1
  Ta  Ta13  1  0.835251  0.671529  0.125823  1
  Ta  Ta14  1  0.663417  0.173224  0.876123  1
  Ta  Ta15  1  0.163262  0.326541  0.624631  1
  Ta  Ta16  1  0.837833  0.494008  0.750000  1
  Ta  Ta17  1  0.338061  0.006618  0.750000  1
  Ta  Ta18  1  0.161838  0.506191  0.250000  1
  Re  Re19  1  0.660686  0.994980  0.250000  1
  Si  Si20  1  0.670044  0.966381  0.458220  1
  Si  Si21  1  0.170001  0.533145  0.040095  1
  Si  Si22  1  0.329707  0.032885  0.960638  1
  Si  Si23  1  0.829971  0.467667  0.539940  1
  Si  Si24  1  0.329707  0.032885  0.539362  1
  Si  Si25  1  0.829971  0.467667  0.960060  1
  Si  Si26  1  0.670044  0.966381  0.041780  1
  Si  Si27  1  0.170001  0.533145  0.459905  1
  Si  Si28  1  0.461168  0.388155  0.750000  1
  Si  Si29  1  0.960293  0.112504  0.750000  1
  Si  Si30  1  0.539291  0.611198  0.250000  1
  Si  Si31  1  0.032815  0.890776  0.250000  1
  Si  Si32  1  0.704999  0.861419  0.750000  1
  Si  Si33  1  0.204906  0.639043  0.750000  1
  Si  Si34  1  0.301024  0.138956  0.250000  1
  Si  Si35  1  0.795305  0.354185  0.250000  1
