# generated using pymatgen
data_Hf4AlV4AsP2
_symmetry_space_group_name_H-M   'P 1'
_cell_length_a   3.48725500
_cell_length_b   6.77182552
_cell_length_c   8.09265894
_cell_angle_alpha   89.61889297
_cell_angle_beta   90.00000000
_cell_angle_gamma   90.00000000
_symmetry_Int_Tables_number   1
_chemical_formula_structural   Hf4AlV4AsP2
_chemical_formula_sum   'Hf4 Al1 V4 As1 P2'
_cell_volume   191.10458005
_cell_formula_units_Z   1
loop_
 _symmetry_equiv_pos_site_id
 _symmetry_equiv_pos_as_xyz
  1  'x, y, z'
loop_
 _atom_site_type_symbol
 _atom_site_label
 _atom_site_symmetry_multiplicity
 _atom_site_fract_x
 _atom_site_fract_y
 _atom_site_fract_z
 _atom_site_occupancy
  Hf  Hf0  1  0.250000  0.039007  0.825600  1
  Hf  Hf1  1  0.250000  0.540416  0.672660  1
  Hf  Hf2  1  0.750000  0.953665  0.157250  1
  Hf  Hf3  1  0.750000  0.447770  0.338724  1
  Al  Al4  1  0.250000  0.758810  0.364951  1
  V  V5  1  0.250000  0.132291  0.449638  1
  V  V6  1  0.250000  0.628697  0.049250  1
  V  V7  1  0.750000  0.882632  0.568792  1
  V  V8  1  0.750000  0.373563  0.934516  1
  As  As9  1  0.250000  0.259377  0.137115  1
  P  P10  1  0.750000  0.244876  0.639964  1
  P  P11  1  0.750000  0.738894  0.861540  1
