# generated using pymatgen
data_Y3HoAl18Ir5Pd
_symmetry_space_group_name_H-M   'P 1'
_cell_length_a   7.56821262
_cell_length_b   7.56906959
_cell_length_c   9.47445102
_cell_angle_alpha   89.96359113
_cell_angle_beta   89.96648783
_cell_angle_gamma   119.59011897
_symmetry_Int_Tables_number   1
_chemical_formula_structural   Y3HoAl18Ir5Pd
_chemical_formula_sum   'Y3 Ho1 Al18 Ir5 Pd1'
_cell_volume   471.95343372
_cell_formula_units_Z   1
loop_
 _symmetry_equiv_pos_site_id
 _symmetry_equiv_pos_as_xyz
  1  'x, y, z'
loop_
 _atom_site_type_symbol
 _atom_site_label
 _atom_site_symmetry_multiplicity
 _atom_site_fract_x
 _atom_site_fract_y
 _atom_site_fract_z
 _atom_site_occupancy
  Y  Y0  1  0.994969  0.670957  0.251026  1
  Y  Y1  1  0.004708  0.328961  0.749030  1
  Y  Y2  1  0.670976  0.995283  0.250971  1
  Ho  Ho3  1  0.328829  0.004888  0.748969  1
  Al  Al4  1  0.128777  0.127828  0.250413  1
  Al  Al5  1  0.872385  0.871255  0.749578  1
  Al  Al6  1  0.004694  0.335462  0.076475  1
  Al  Al7  1  0.002458  0.668742  0.923748  1
  Al  Al8  1  0.999896  0.665038  0.574322  1
  Al  Al9  1  0.335205  0.000339  0.426063  1
  Al  Al10  1  0.000472  0.334739  0.424932  1
  Al  Al11  1  0.664998  0.999517  0.575184  1
  Al  Al12  1  0.664300  0.995316  0.923384  1
  Al  Al13  1  0.331509  0.997792  0.075892  1
  Al  Al14  1  0.333034  0.332813  0.551169  1
  Al  Al15  1  0.666965  0.666935  0.448990  1
  Al  Al16  1  0.666220  0.669385  0.055321  1
  Al  Al17  1  0.330598  0.333574  0.944490  1
  Al  Al18  1  0.340356  0.549121  0.250448  1
  Al  Al19  1  0.659652  0.452491  0.747537  1
  Al  Al20  1  0.547229  0.339985  0.252459  1
  Al  Al21  1  0.450900  0.659891  0.749556  1
  Ir  Ir22  1  0.328225  0.671820  0.999865  1
  Ir  Ir23  1  0.328307  0.671693  0.500146  1
  Ir  Ir24  1  0.671793  0.328130  0.500153  1
  Ir  Ir25  1  0.999922  0.000337  0.999827  1
  Ir  Ir26  1  0.000365  0.999935  0.500168  1
  Pd  Pd27  1  0.672259  0.327776  0.999885  1
