# generated using pymatgen
data_TbHo3PI6
_symmetry_space_group_name_H-M   'P 1'
_cell_length_a   4.15936900
_cell_length_b   13.87804111
_cell_length_c   14.61263326
_cell_angle_alpha   90.06340912
_cell_angle_beta   90.00000000
_cell_angle_gamma   90.00000000
_symmetry_Int_Tables_number   1
_chemical_formula_structural   TbHo3PI6
_chemical_formula_sum   'Tb2 Ho6 P2 I12'
_cell_volume   843.49757601
_cell_formula_units_Z   2
loop_
 _symmetry_equiv_pos_site_id
 _symmetry_equiv_pos_as_xyz
  1  'x, y, z'
loop_
 _atom_site_type_symbol
 _atom_site_label
 _atom_site_symmetry_multiplicity
 _atom_site_fract_x
 _atom_site_fract_y
 _atom_site_fract_z
 _atom_site_occupancy
  Tb  Tb0  1  0.000000  0.608446  0.927057  1
  Tb  Tb1  1  0.000000  0.391554  0.072943  1
  Ho  Ho2  1  0.500000  0.112582  0.350837  1
  Ho  Ho3  1  0.500000  0.887418  0.649163  1
  Ho  Ho4  1  0.500000  0.612730  0.149294  1
  Ho  Ho5  1  0.500000  0.387270  0.850706  1
  Ho  Ho6  1  0.000000  0.107063  0.571929  1
  Ho  Ho7  1  0.000000  0.892937  0.428071  1
  P  P8  1  0.500000  0.000000  0.500000  1
  P  P9  1  0.500000  0.500000  0.000000  1
  I  I10  1  0.500000  0.245294  0.163647  1
  I  I11  1  0.500000  0.754706  0.836353  1
  I  I12  1  0.500000  0.748169  0.338324  1
  I  I13  1  0.500000  0.251831  0.661676  1
  I  I14  1  0.000000  0.258650  0.415798  1
  I  I15  1  0.000000  0.741350  0.584202  1
  I  I16  1  0.000000  0.759698  0.085886  1
  I  I17  1  0.000000  0.240302  0.914114  1
  I  I18  1  0.000000  0.999378  0.241307  1
  I  I19  1  0.000000  0.000622  0.758693  1
  I  I20  1  0.000000  0.500950  0.260376  1
  I  I21  1  0.000000  0.499050  0.739624  1
