# generated using pymatgen
data_Dy13Lu3In2AgHgRh4
_symmetry_space_group_name_H-M   'P 1'
_cell_length_a   9.60582204
_cell_length_b   9.60582196
_cell_length_c   9.59788800
_cell_angle_alpha   59.97264609
_cell_angle_beta   59.97264636
_cell_angle_gamma   60.00000189
_symmetry_Int_Tables_number   1
_chemical_formula_structural   Dy13Lu3In2AgHgRh4
_chemical_formula_sum   'Dy13 Lu3 In2 Ag1 Hg1 Rh4'
_cell_volume   625.96502998
_cell_formula_units_Z   1
loop_
 _symmetry_equiv_pos_site_id
 _symmetry_equiv_pos_as_xyz
  1  'x, y, z'
loop_
 _atom_site_type_symbol
 _atom_site_label
 _atom_site_symmetry_multiplicity
 _atom_site_fract_x
 _atom_site_fract_y
 _atom_site_fract_z
 _atom_site_occupancy
  Dy  Dy0  1  0.936552  0.937197  0.559293  1
  Dy  Dy1  1  0.149528  0.150493  0.549484  1
  Dy  Dy2  1  0.563230  0.937224  0.562322  1
  Dy  Dy3  1  0.147065  0.148488  0.150167  1
  Dy  Dy4  1  0.312873  0.312392  0.686819  1
  Dy  Dy5  1  0.936552  0.566958  0.559293  1
  Dy  Dy6  1  0.560273  0.565990  0.937874  1
  Dy  Dy7  1  0.560273  0.935864  0.937874  1
  Dy  Dy8  1  0.935896  0.562970  0.938165  1
  Dy  Dy9  1  0.147065  0.554279  0.150167  1
  Dy  Dy10  1  0.312873  0.687917  0.686819  1
  Dy  Dy11  1  0.688993  0.311689  0.687630  1
  Dy  Dy12  1  0.554088  0.147650  0.150612  1
  Lu  Lu13  1  0.686976  0.315353  0.310747  1
  Lu  Lu14  1  0.686976  0.686922  0.310747  1
  Lu  Lu15  1  0.316215  0.686033  0.311718  1
  In  In16  1  0.919358  0.244566  0.919059  1
  In  In17  1  0.919358  0.917015  0.919059  1
  Ag  Ag18  1  0.248133  0.916884  0.918098  1
  Hg  Hg19  1  0.916316  0.914566  0.254552  1
  Rh  Rh20  1  0.359294  0.358904  0.356273  1
  Rh  Rh21  1  0.926153  0.358915  0.356020  1
  Rh  Rh22  1  0.356667  0.356198  0.930936  1
  Rh  Rh23  1  0.359294  0.925532  0.356273  1
