# generated using pymatgen
data_CeMnAl10Tc
_symmetry_space_group_name_H-M   'P 1'
_cell_length_a   6.87590715
_cell_length_b   6.87590662
_cell_length_c   9.14833796
_cell_angle_alpha   89.76262148
_cell_angle_beta   90.23738307
_cell_angle_gamma   97.22870024
_symmetry_Int_Tables_number   1
_chemical_formula_structural   CeMnAl10Tc
_chemical_formula_sum   'Ce2 Mn2 Al20 Tc2'
_cell_volume   429.07172776
_cell_formula_units_Z   2
loop_
 _symmetry_equiv_pos_site_id
 _symmetry_equiv_pos_as_xyz
  1  'x, y, z'
loop_
 _atom_site_type_symbol
 _atom_site_label
 _atom_site_symmetry_multiplicity
 _atom_site_fract_x
 _atom_site_fract_y
 _atom_site_fract_z
 _atom_site_occupancy
  Ce  Ce0  1  0.875594  0.124406  0.753101  1
  Ce  Ce1  1  0.124406  0.875594  0.246899  1
  Mn  Mn2  1  0.500000  0.000000  0.000000  1
  Mn  Mn3  1  0.000000  0.500000  0.000000  1
  Al  Al4  1  0.591284  0.866289  0.246657  1
  Al  Al5  1  0.781465  0.524200  0.247571  1
  Al  Al6  1  0.161186  0.838814  0.901062  1
  Al  Al7  1  0.408716  0.133711  0.753343  1
  Al  Al8  1  0.624035  0.375965  0.953213  1
  Al  Al9  1  0.842218  0.157782  0.400950  1
  Al  Al10  1  0.770578  0.770578  0.000000  1
  Al  Al11  1  0.866289  0.591284  0.753343  1
  Al  Al12  1  0.838814  0.161186  0.098938  1
  Al  Al13  1  0.218535  0.475800  0.752429  1
  Al  Al14  1  0.157782  0.842218  0.599050  1
  Al  Al15  1  0.772645  0.772645  0.500000  1
  Al  Al16  1  0.475800  0.218535  0.247571  1
  Al  Al17  1  0.622934  0.377066  0.547644  1
  Al  Al18  1  0.227355  0.227355  0.500000  1
  Al  Al19  1  0.377066  0.622934  0.452356  1
  Al  Al20  1  0.133711  0.408716  0.246657  1
  Al  Al21  1  0.524200  0.781465  0.752429  1
  Al  Al22  1  0.375965  0.624035  0.046787  1
  Al  Al23  1  0.229422  0.229422  0.000000  1
  Tc  Tc24  1  0.500000  0.000000  0.500000  1
  Tc  Tc25  1  0.000000  0.500000  0.500000  1
