# generated using pymatgen
data_Sc3Sn3Rh10
_symmetry_space_group_name_H-M   'P 1'
_cell_length_a   4.23212300
_cell_length_b   5.57142884
_cell_length_c   10.99118217
_cell_angle_alpha   90.92012988
_cell_angle_beta   90.00000000
_cell_angle_gamma   90.00000000
_symmetry_Int_Tables_number   1
_chemical_formula_structural   Sc3Sn3Rh10
_chemical_formula_sum   'Sc3 Sn3 Rh10'
_cell_volume   259.12736016
_cell_formula_units_Z   1
loop_
 _symmetry_equiv_pos_site_id
 _symmetry_equiv_pos_as_xyz
  1  'x, y, z'
loop_
 _atom_site_type_symbol
 _atom_site_label
 _atom_site_symmetry_multiplicity
 _atom_site_fract_x
 _atom_site_fract_y
 _atom_site_fract_z
 _atom_site_occupancy
  Sc  Sc0  1  0.500000  0.828460  0.357243  1
  Sc  Sc1  1  0.500000  0.670522  0.861674  1
  Sc  Sc2  1  0.500000  0.319913  0.140950  1
  Sn  Sn3  1  0.500000  0.168858  0.643622  1
  Sn  Sn4  1  0.000000  0.527993  0.492666  1
  Sn  Sn5  1  0.000000  0.001004  0.002253  1
  Rh  Rh6  1  0.500000  0.190907  0.886991  1
  Rh  Rh7  1  0.500000  0.803812  0.114753  1
  Rh  Rh8  1  0.500000  0.690486  0.614160  1
  Rh  Rh9  1  0.500000  0.312837  0.388220  1
  Rh  Rh10  1  0.000000  0.415754  0.738826  1
  Rh  Rh11  1  0.000000  0.566455  0.244577  1
  Rh  Rh12  1  0.000000  0.027482  0.505004  1
  Rh  Rh13  1  0.000000  0.500591  0.995735  1
  Rh  Rh14  1  0.000000  0.065246  0.254871  1
  Rh  Rh15  1  0.000000  0.909680  0.758454  1
