# generated using pymatgen
data_Nd4Sm(TcB3)2
_symmetry_space_group_name_H-M   'P 1'
_cell_length_a   8.76636347
_cell_length_b   8.76636307
_cell_length_c   8.76636299
_cell_angle_alpha   37.33690055
_cell_angle_beta   37.33690653
_cell_angle_gamma   37.33689651
_symmetry_Int_Tables_number   1
_chemical_formula_structural   Nd4Sm(TcB3)2
_chemical_formula_sum   'Nd4 Sm1 Tc2 B6'
_cell_volume   222.17751496
_cell_formula_units_Z   1
loop_
 _symmetry_equiv_pos_site_id
 _symmetry_equiv_pos_as_xyz
  1  'x, y, z'
loop_
 _atom_site_type_symbol
 _atom_site_label
 _atom_site_symmetry_multiplicity
 _atom_site_fract_x
 _atom_site_fract_y
 _atom_site_fract_z
 _atom_site_occupancy
  Nd  Nd0  1  0.417815  0.417815  0.417815  1
  Nd  Nd1  1  0.750548  0.750548  0.750548  1
  Nd  Nd2  1  0.249615  0.249615  0.249615  1
  Nd  Nd3  1  0.999735  0.999735  0.999735  1
  Sm  Sm4  1  0.580609  0.580609  0.580609  1
  Tc  Tc5  1  0.886171  0.886171  0.886171  1
  Tc  Tc6  1  0.114293  0.114293  0.114293  1
  B  B7  1  0.500003  0.831376  0.169228  1
  B  B8  1  0.169228  0.500003  0.831376  1
  B  B9  1  0.831376  0.169228  0.500003  1
  B  B10  1  0.500003  0.169228  0.831376  1
  B  B11  1  0.831376  0.500003  0.169228  1
  B  B12  1  0.169228  0.831376  0.500003  1
