# generated using pymatgen
data_Ho9ErOs3Ru
_symmetry_space_group_name_H-M   'P 1'
_cell_length_a   6.32513907
_cell_length_b   7.34188910
_cell_length_c   8.39965602
_cell_angle_alpha   96.86435223
_cell_angle_beta   112.23144448
_cell_angle_gamma   90.04150329
_symmetry_Int_Tables_number   1
_chemical_formula_structural   Ho9ErOs3Ru
_chemical_formula_sum   'Ho9 Er1 Os3 Ru1'
_cell_volume   358.03434166
_cell_formula_units_Z   1
loop_
 _symmetry_equiv_pos_site_id
 _symmetry_equiv_pos_as_xyz
  1  'x, y, z'
loop_
 _atom_site_type_symbol
 _atom_site_label
 _atom_site_symmetry_multiplicity
 _atom_site_fract_x
 _atom_site_fract_y
 _atom_site_fract_z
 _atom_site_occupancy
  Ho  Ho0  1  0.794257  0.583786  0.816577  1
  Ho  Ho1  1  0.975582  0.916309  0.182999  1
  Ho  Ho2  1  0.207778  0.416689  0.186161  1
  Ho  Ho3  1  0.024427  0.084944  0.817522  1
  Ho  Ho4  1  0.203982  0.683470  0.564856  1
  Ho  Ho5  1  0.640607  0.816944  0.436077  1
  Ho  Ho6  1  0.794418  0.315815  0.434400  1
  Ho  Ho7  1  0.360381  0.182230  0.563540  1
  Ho  Ho8  1  0.420875  0.749745  0.000030  1
  Er  Er9  1  0.579944  0.250208  0.000552  1
  Os  Os10  1  0.603827  0.922382  0.780503  1
  Os  Os11  1  0.822003  0.577762  0.219735  1
  Os  Os12  1  0.395921  0.077718  0.218513  1
  Ru  Ru13  1  0.175997  0.421998  0.778536  1
