# generated using pymatgen
data_TmMn3Al8Fe
_symmetry_space_group_name_H-M   'P 1'
_cell_length_a   5.13678942
_cell_length_b   6.68607934
_cell_length_c   6.68848028
_cell_angle_alpha   81.64832166
_cell_angle_beta   67.78313952
_cell_angle_gamma   67.40959598
_symmetry_Int_Tables_number   1
_chemical_formula_structural   TmMn3Al8Fe
_chemical_formula_sum   'Tm1 Mn3 Al8 Fe1'
_cell_volume   196.34494378
_cell_formula_units_Z   1
loop_
 _symmetry_equiv_pos_site_id
 _symmetry_equiv_pos_as_xyz
  1  'x, y, z'
loop_
 _atom_site_type_symbol
 _atom_site_label
 _atom_site_symmetry_multiplicity
 _atom_site_fract_x
 _atom_site_fract_y
 _atom_site_fract_z
 _atom_site_occupancy
  Tm  Tm0  1  0.000000  0.000000  0.000000  1
  Mn  Mn1  1  0.500000  0.500000  0.000000  1
  Mn  Mn2  1  0.000000  0.500000  0.000000  1
  Mn  Mn3  1  0.000000  0.000000  0.500000  1
  Al  Al4  1  0.997653  0.664252  0.337871  1
  Al  Al5  1  0.002347  0.335748  0.662129  1
  Al  Al6  1  0.661905  0.335748  0.337871  1
  Al  Al7  1  0.338095  0.664252  0.662129  1
  Al  Al8  1  0.498275  0.222638  0.774928  1
  Al  Al9  1  0.501725  0.777362  0.225072  1
  Al  Al10  1  0.720913  0.777362  0.774928  1
  Al  Al11  1  0.279087  0.222638  0.225072  1
  Fe  Fe12  1  0.500000  0.000000  0.500000  1
