# generated using pymatgen
data_Tb4Er4Re(B8Ir)3
_symmetry_space_group_name_H-M   'P 1'
_cell_length_a   3.65801200
_cell_length_b   9.17358143
_cell_length_c   11.51667406
_cell_angle_alpha   90.11809315
_cell_angle_beta   90.00000000
_cell_angle_gamma   90.00000000
_symmetry_Int_Tables_number   1
_chemical_formula_structural   Tb4Er4Re(B8Ir)3
_chemical_formula_sum   'Tb4 Er4 Re1 B24 Ir3'
_cell_volume   386.46502746
_cell_formula_units_Z   1
loop_
 _symmetry_equiv_pos_site_id
 _symmetry_equiv_pos_as_xyz
  1  'x, y, z'
loop_
 _atom_site_type_symbol
 _atom_site_label
 _atom_site_symmetry_multiplicity
 _atom_site_fract_x
 _atom_site_fract_y
 _atom_site_fract_z
 _atom_site_occupancy
  Tb  Tb0  1  0.000000  0.321020  0.413595  1
  Tb  Tb1  1  0.000000  0.682640  0.590477  1
  Tb  Tb2  1  0.000000  0.820967  0.083095  1
  Tb  Tb3  1  0.000000  0.175913  0.912080  1
  Er  Er4  1  0.000000  0.943770  0.373190  1
  Er  Er5  1  0.000000  0.053719  0.626209  1
  Er  Er6  1  0.000000  0.443636  0.126059  1
  Er  Er7  1  0.000000  0.557308  0.875022  1
  Re  Re8  1  0.000000  0.862101  0.820965  1
  B  B9  1  0.500000  0.553828  0.433760  1
  B  B10  1  0.500000  0.447326  0.567123  1
  B  B11  1  0.500000  0.053585  0.066800  1
  B  B12  1  0.500000  0.946476  0.932760  1
  B  B13  1  0.500000  0.750539  0.420220  1
  B  B14  1  0.500000  0.250279  0.579461  1
  B  B15  1  0.500000  0.249294  0.079418  1
  B  B16  1  0.500000  0.751718  0.919629  1
  B  B17  1  0.500000  0.791925  0.265588  1
  B  B18  1  0.500000  0.207870  0.732951  1
  B  B19  1  0.500000  0.292773  0.234420  1
  B  B20  1  0.500000  0.708131  0.766537  1
  B  B21  1  0.500000  0.630761  0.184554  1
  B  B22  1  0.500000  0.368682  0.815595  1
  B  B23  1  0.500000  0.131655  0.315377  1
  B  B24  1  0.500000  0.869142  0.685641  1
  B  B25  1  0.500000  0.982106  0.213272  1
  B  B26  1  0.500000  0.017041  0.786163  1
  B  B27  1  0.500000  0.481681  0.287027  1
  B  B28  1  0.500000  0.517725  0.714517  1
  B  B29  1  0.500000  0.607587  0.031003  1
  B  B30  1  0.500000  0.390040  0.970360  1
  B  B31  1  0.500000  0.108693  0.469449  1
  B  B32  1  0.500000  0.892250  0.528482  1
  Ir  Ir33  1  0.000000  0.637604  0.322021  1
  Ir  Ir34  1  0.000000  0.362332  0.678461  1
  Ir  Ir35  1  0.000000  0.137879  0.178721  1
