# generated using pymatgen
data_Yb4In2Pt3
_symmetry_space_group_name_H-M   'P 1'
_cell_length_a   7.50168600
_cell_length_b   7.54117993
_cell_length_c   4.24446900
_cell_angle_alpha   90.00000000
_cell_angle_beta   90.00000000
_cell_angle_gamma   119.82691750
_symmetry_Int_Tables_number   1
_chemical_formula_structural   Yb4In2Pt3
_chemical_formula_sum   'Yb4 In2 Pt3'
_cell_volume   208.30850108
_cell_formula_units_Z   1
loop_
 _symmetry_equiv_pos_site_id
 _symmetry_equiv_pos_as_xyz
  1  'x, y, z'
loop_
 _atom_site_type_symbol
 _atom_site_label
 _atom_site_symmetry_multiplicity
 _atom_site_fract_x
 _atom_site_fract_y
 _atom_site_fract_z
 _atom_site_occupancy
  Yb  Yb0  1  0.392174  0.000000  0.000000  1
  Yb  Yb1  1  0.014586  0.426257  0.000000  1
  Yb  Yb2  1  0.588329  0.573743  0.000000  1
  Yb  Yb3  1  0.751861  0.000000  0.500000  1
  In  In4  1  0.996239  0.742899  0.500000  1
  In  In5  1  0.253341  0.257101  0.500000  1
  Pt  Pt6  1  0.329862  0.665226  0.500000  1
  Pt  Pt7  1  0.664638  0.334774  0.500000  1
  Pt  Pt8  1  0.008970  0.000000  0.000000  1
