# generated using pymatgen
data_Nd4Er3Tm3Pb8
_symmetry_space_group_name_H-M   'P 1'
_cell_length_a   8.26024100
_cell_length_b   8.36630471
_cell_length_c   15.72810200
_cell_angle_alpha   90.05396538
_cell_angle_beta   90.00000000
_cell_angle_gamma   90.00000000
_symmetry_Int_Tables_number   1
_chemical_formula_structural   Nd4Er3Tm3Pb8
_chemical_formula_sum   'Nd8 Er6 Tm6 Pb16'
_cell_volume   1086.93236539
_cell_formula_units_Z   2
loop_
 _symmetry_equiv_pos_site_id
 _symmetry_equiv_pos_as_xyz
  1  'x, y, z'
loop_
 _atom_site_type_symbol
 _atom_site_label
 _atom_site_symmetry_multiplicity
 _atom_site_fract_x
 _atom_site_fract_y
 _atom_site_fract_z
 _atom_site_occupancy
  Nd  Nd0  1  0.473629  0.677865  0.597670  1
  Nd  Nd1  1  0.973629  0.822135  0.902330  1
  Nd  Nd2  1  0.526229  0.322481  0.097638  1
  Nd  Nd3  1  0.026229  0.177519  0.402362  1
  Nd  Nd4  1  0.526308  0.322702  0.401942  1
  Nd  Nd5  1  0.026308  0.177298  0.098058  1
  Nd  Nd6  1  0.473718  0.677741  0.902622  1
  Nd  Nd7  1  0.973718  0.822259  0.597378  1
  Er  Er8  1  0.633261  0.158737  0.622093  1
  Er  Er9  1  0.133261  0.341263  0.877907  1
  Er  Er10  1  0.799799  0.494636  0.750036  1
  Er  Er11  1  0.299799  0.005364  0.749964  1
  Er  Er12  1  0.200240  0.505789  0.250189  1
  Er  Er13  1  0.700240  0.994211  0.249811  1
  Tm  Tm14  1  0.366495  0.841570  0.123153  1
  Tm  Tm15  1  0.866495  0.658430  0.376847  1
  Tm  Tm16  1  0.366519  0.841786  0.377340  1
  Tm  Tm17  1  0.866519  0.658214  0.122660  1
  Tm  Tm18  1  0.633794  0.158428  0.877233  1
  Tm  Tm19  1  0.133794  0.341572  0.622767  1
  Pb  Pb20  1  0.705976  0.958790  0.456237  1
  Pb  Pb21  1  0.205976  0.541210  0.043763  1
  Pb  Pb22  1  0.294859  0.039599  0.957075  1
  Pb  Pb23  1  0.794859  0.460401  0.542925  1
  Pb  Pb24  1  0.292978  0.040541  0.542938  1
  Pb  Pb25  1  0.792978  0.459459  0.957062  1
  Pb  Pb26  1  0.705582  0.959161  0.043176  1
  Pb  Pb27  1  0.205582  0.540839  0.456824  1
  Pb  Pb28  1  0.437527  0.371158  0.750116  1
  Pb  Pb29  1  0.937527  0.128842  0.749884  1
  Pb  Pb30  1  0.562657  0.628863  0.250113  1
  Pb  Pb31  1  0.062657  0.871137  0.249887  1
  Pb  Pb32  1  0.663290  0.849618  0.750064  1
  Pb  Pb33  1  0.163290  0.650382  0.749936  1
  Pb  Pb34  1  0.337139  0.150446  0.250163  1
  Pb  Pb35  1  0.837139  0.349554  0.249837  1
