# generated using pymatgen
data_MgZr2(TaOs2)3
_symmetry_space_group_name_H-M   'P 1'
_cell_length_a   4.53196600
_cell_length_b   6.41290600
_cell_length_c   13.65806100
_cell_angle_alpha   90.00000000
_cell_angle_beta   90.00007149
_cell_angle_gamma   90.00000000
_symmetry_Int_Tables_number   1
_chemical_formula_structural   MgZr2(TaOs2)3
_chemical_formula_sum   'Mg2 Zr4 Ta6 Os12'
_cell_volume   396.94520958
_cell_formula_units_Z   2
loop_
 _symmetry_equiv_pos_site_id
 _symmetry_equiv_pos_as_xyz
  1  'x, y, z'
loop_
 _atom_site_type_symbol
 _atom_site_label
 _atom_site_symmetry_multiplicity
 _atom_site_fract_x
 _atom_site_fract_y
 _atom_site_fract_z
 _atom_site_occupancy
  Mg  Mg0  1  0.000151  0.000000  0.668142  1
  Mg  Mg1  1  0.500151  0.500000  0.831858  1
  Zr  Zr2  1  0.999986  0.000000  0.996132  1
  Zr  Zr3  1  0.499873  0.500000  0.165035  1
  Zr  Zr4  1  0.999869  0.000000  0.334965  1
  Zr  Zr5  1  0.499986  0.500000  0.503868  1
  Ta  Ta6  1  0.999984  0.500000  0.991644  1
  Ta  Ta7  1  0.499869  0.000000  0.164582  1
  Ta  Ta8  1  0.999867  0.500000  0.335415  1
  Ta  Ta9  1  0.499983  0.000000  0.508356  1
  Ta  Ta10  1  0.000123  0.500000  0.672910  1
  Ta  Ta11  1  0.500124  0.000000  0.827092  1
  Os  Os12  1  0.499994  0.250819  0.997911  1
  Os  Os13  1  0.499994  0.749181  0.997911  1
  Os  Os14  1  0.999870  0.249167  0.165480  1
  Os  Os15  1  0.999870  0.750833  0.165480  1
  Os  Os16  1  0.499868  0.250833  0.334523  1
  Os  Os17  1  0.499868  0.749167  0.334523  1
  Os  Os18  1  0.999993  0.249180  0.502090  1
  Os  Os19  1  0.999993  0.750821  0.502090  1
  Os  Os20  1  0.500147  0.248984  0.667926  1
  Os  Os21  1  0.500147  0.751016  0.667926  1
  Os  Os22  1  0.000146  0.251017  0.832071  1
  Os  Os23  1  0.000146  0.748983  0.832071  1
