# generated using pymatgen
data_Tb6CeHo9Tl3CdRu4
_symmetry_space_group_name_H-M   'P 1'
_cell_length_a   9.66849744
_cell_length_b   9.66849895
_cell_length_c   9.66849800
_cell_angle_alpha   59.40131770
_cell_angle_beta   59.40132617
_cell_angle_gamma   59.40131928
_symmetry_Int_Tables_number   1
_chemical_formula_structural   Tb6CeHo9Tl3CdRu4
_chemical_formula_sum   'Tb6 Ce1 Ho9 Tl3 Cd1 Ru4'
_cell_volume   630.38328451
_cell_formula_units_Z   1
loop_
 _symmetry_equiv_pos_site_id
 _symmetry_equiv_pos_as_xyz
  1  'x, y, z'
loop_
 _atom_site_type_symbol
 _atom_site_label
 _atom_site_symmetry_multiplicity
 _atom_site_fract_x
 _atom_site_fract_y
 _atom_site_fract_z
 _atom_site_occupancy
  Tb  Tb0  1  0.559831  0.559831  0.938563  1
  Tb  Tb1  1  0.941452  0.558646  0.941452  1
  Tb  Tb2  1  0.558646  0.941452  0.941452  1
  Tb  Tb3  1  0.941452  0.941452  0.558646  1
  Tb  Tb4  1  0.559831  0.938563  0.559831  1
  Tb  Tb5  1  0.938563  0.559831  0.559831  1
  Ce  Ce6  1  0.341297  0.341297  0.341297  1
  Ho  Ho7  1  0.189709  0.189709  0.812001  1
  Ho  Ho8  1  0.812274  0.187478  0.812274  1
  Ho  Ho9  1  0.187477  0.812275  0.812274  1
  Ho  Ho10  1  0.812274  0.812275  0.187478  1
  Ho  Ho11  1  0.189708  0.812001  0.189708  1
  Ho  Ho12  1  0.812001  0.189709  0.189709  1
  Ho  Ho13  1  0.348373  0.348373  0.954507  1
  Ho  Ho14  1  0.348373  0.954507  0.348373  1
  Ho  Ho15  1  0.954507  0.348373  0.348373  1
  Tl  Tl16  1  0.583851  0.583851  0.247691  1
  Tl  Tl17  1  0.583851  0.247691  0.583851  1
  Tl  Tl18  1  0.247691  0.583851  0.583851  1
  Cd  Cd19  1  0.581142  0.581142  0.581142  1
  Ru  Ru20  1  0.146163  0.146163  0.575202  1
  Ru  Ru21  1  0.146163  0.575202  0.146163  1
  Ru  Ru22  1  0.575202  0.146163  0.146163  1
  Ru  Ru23  1  0.140170  0.140170  0.140170  1
