# generated using pymatgen
data_TbSc7Ti12Si15Ge
_symmetry_space_group_name_H-M   'P 1'
_cell_length_a   6.90362412
_cell_length_b   6.90229371
_cell_length_c   12.65609133
_cell_angle_alpha   89.88649632
_cell_angle_beta   89.95936120
_cell_angle_gamma   89.90842049
_symmetry_Int_Tables_number   1
_chemical_formula_structural   TbSc7Ti12Si15Ge
_chemical_formula_sum   'Tb1 Sc7 Ti12 Si15 Ge1'
_cell_volume   603.07129651
_cell_formula_units_Z   1
loop_
 _symmetry_equiv_pos_site_id
 _symmetry_equiv_pos_as_xyz
  1  'x, y, z'
loop_
 _atom_site_type_symbol
 _atom_site_label
 _atom_site_symmetry_multiplicity
 _atom_site_fract_x
 _atom_site_fract_y
 _atom_site_fract_z
 _atom_site_occupancy
  Tb  Tb0  1  0.994409  0.660736  0.033127  1
  Sc  Sc1  1  0.341846  0.000586  0.466547  1
  Sc  Sc2  1  0.500359  0.840365  0.715975  1
  Sc  Sc3  1  0.499856  0.159684  0.218375  1
  Sc  Sc4  1  0.841266  0.499144  0.284304  1
  Sc  Sc5  1  0.159525  0.501844  0.783087  1
  Sc  Sc6  1  0.657249  0.000189  0.965301  1
  Sc  Sc7  1  0.999272  0.343060  0.532084  1
  Ti  Ti8  1  0.327968  0.326185  0.999910  1
  Ti  Ti9  1  0.173678  0.828442  0.251173  1
  Ti  Ti10  1  0.824128  0.172868  0.749209  1
  Ti  Ti11  1  0.672808  0.672789  0.499937  1
  Ti  Ti12  1  0.152082  0.004946  0.874474  1
  Ti  Ti13  1  0.494005  0.649203  0.126153  1
  Ti  Ti14  1  0.508496  0.352390  0.624739  1
  Ti  Ti15  1  0.650126  0.490446  0.873158  1
  Ti  Ti16  1  0.351344  0.506273  0.376345  1
  Ti  Ti17  1  0.850881  0.994260  0.376761  1
  Ti  Ti18  1  0.007338  0.150868  0.125620  1
  Ti  Ti19  1  0.991268  0.848340  0.623400  1
  Si  Si20  1  0.369508  0.705928  0.928761  1
  Si  Si21  1  0.636679  0.295522  0.430225  1
  Si  Si22  1  0.700163  0.358718  0.069340  1
  Si  Si23  1  0.295391  0.636715  0.570171  1
  Si  Si24  1  0.790701  0.869817  0.184391  1
  Si  Si25  1  0.136608  0.204385  0.321115  1
  Si  Si26  1  0.862685  0.797313  0.816776  1
  Si  Si27  1  0.299702  0.956454  0.065053  1
  Si  Si28  1  0.544996  0.796884  0.316026  1
  Si  Si29  1  0.455803  0.202977  0.815281  1
  Si  Si30  1  0.797198  0.546096  0.684540  1
  Si  Si31  1  0.207164  0.450801  0.187948  1
  Si  Si32  1  0.703119  0.046525  0.564694  1
  Si  Si33  1  0.952424  0.289311  0.933712  1
  Si  Si34  1  0.046573  0.703635  0.435413  1
  Ge  Ge35  1  0.203385  0.136300  0.676874  1
