# generated using pymatgen
data_Tb18Y2Si15Ag
_symmetry_space_group_name_H-M   'P 1'
_cell_length_a   7.49189125
_cell_length_b   7.72330778
_cell_length_c   14.73349528
_cell_angle_alpha   90.21566397
_cell_angle_beta   90.64766630
_cell_angle_gamma   90.15963183
_symmetry_Int_Tables_number   1
_chemical_formula_structural   Tb18Y2Si15Ag
_chemical_formula_sum   'Tb18 Y2 Si15 Ag1'
_cell_volume   852.44826935
_cell_formula_units_Z   1
loop_
 _symmetry_equiv_pos_site_id
 _symmetry_equiv_pos_as_xyz
  1  'x, y, z'
loop_
 _atom_site_type_symbol
 _atom_site_label
 _atom_site_symmetry_multiplicity
 _atom_site_fract_x
 _atom_site_fract_y
 _atom_site_fract_z
 _atom_site_occupancy
  Tb  Tb0  1  0.678951  0.175429  0.624514  1
  Tb  Tb1  1  0.182744  0.321870  0.877546  1
  Tb  Tb2  1  0.317739  0.820104  0.121018  1
  Tb  Tb3  1  0.825837  0.674712  0.376434  1
  Tb  Tb4  1  0.317811  0.825053  0.378178  1
  Tb  Tb5  1  0.817188  0.678716  0.121523  1
  Tb  Tb6  1  0.681116  0.179264  0.877613  1
  Tb  Tb7  1  0.176604  0.321108  0.623433  1
  Tb  Tb8  1  0.524421  0.675931  0.602353  1
  Tb  Tb9  1  0.029179  0.816206  0.900861  1
  Tb  Tb10  1  0.469431  0.318208  0.098463  1
  Tb  Tb11  1  0.979784  0.184805  0.398474  1
  Tb  Tb12  1  0.470777  0.325161  0.399795  1
  Tb  Tb13  1  0.969765  0.183378  0.098189  1
  Tb  Tb14  1  0.531278  0.682998  0.899394  1
  Tb  Tb15  1  0.025979  0.816958  0.601396  1
  Tb  Tb16  1  0.851736  0.507968  0.750098  1
  Tb  Tb17  1  0.349936  0.989072  0.748367  1
  Y  Y18  1  0.150711  0.488704  0.249565  1
  Y  Y19  1  0.651287  0.011317  0.249131  1
  Si  Si20  1  0.144099  0.527936  0.040326  1
  Si  Si21  1  0.354441  0.029232  0.959746  1
  Si  Si22  1  0.848774  0.470929  0.541344  1
  Si  Si23  1  0.342134  0.028495  0.542811  1
  Si  Si24  1  0.855646  0.471592  0.958811  1
  Si  Si25  1  0.643525  0.971000  0.039087  1
  Si  Si26  1  0.149106  0.530673  0.461225  1
  Si  Si27  1  0.477295  0.394569  0.750834  1
  Si  Si28  1  0.976202  0.103904  0.752453  1
  Si  Si29  1  0.523641  0.608723  0.248784  1
  Si  Si30  1  0.024437  0.895855  0.247748  1
  Si  Si31  1  0.734279  0.871266  0.751854  1
  Si  Si32  1  0.233528  0.626559  0.751419  1
  Si  Si33  1  0.268457  0.126444  0.247285  1
  Si  Si34  1  0.765443  0.375005  0.248662  1
  Ag  Ag35  1  0.656718  0.970856  0.461265  1
