# generated using pymatgen
data_Tb5Dy(Sc2Sn3)2
_symmetry_space_group_name_H-M   'P 1'
_cell_length_a   8.83044600
_cell_length_b   8.82673745
_cell_length_c   6.30238400
_cell_angle_alpha   90.00000000
_cell_angle_beta   90.00000000
_cell_angle_gamma   120.01389940
_symmetry_Int_Tables_number   1
_chemical_formula_structural   Tb5Dy(Sc2Sn3)2
_chemical_formula_sum   'Tb5 Dy1 Sc4 Sn6'
_cell_volume   425.36083159
_cell_formula_units_Z   1
loop_
 _symmetry_equiv_pos_site_id
 _symmetry_equiv_pos_as_xyz
  1  'x, y, z'
loop_
 _atom_site_type_symbol
 _atom_site_label
 _atom_site_symmetry_multiplicity
 _atom_site_fract_x
 _atom_site_fract_y
 _atom_site_fract_z
 _atom_site_occupancy
  Tb  Tb0  1  0.760237  0.760309  0.250000  1
  Tb  Tb1  1  0.239895  0.000000  0.250000  1
  Tb  Tb2  1  0.239698  0.239768  0.750000  1
  Tb  Tb3  1  0.999930  0.760232  0.750000  1
  Tb  Tb4  1  0.999927  0.239691  0.250000  1
  Dy  Dy5  1  0.760140  0.000000  0.750000  1
  Sc  Sc6  1  0.333359  0.666673  0.500023  1
  Sc  Sc7  1  0.666687  0.333327  0.999977  1
  Sc  Sc8  1  0.666687  0.333327  0.500023  1
  Sc  Sc9  1  0.333359  0.666673  0.999977  1
  Sn  Sn10  1  0.400636  0.000000  0.750000  1
  Sn  Sn11  1  0.400440  0.400454  0.250000  1
  Sn  Sn12  1  0.999986  0.599546  0.250000  1
  Sn  Sn13  1  0.999817  0.400165  0.750000  1
  Sn  Sn14  1  0.599651  0.599835  0.750000  1
  Sn  Sn15  1  0.599552  0.000000  0.250000  1
