# generated using pymatgen
data_Ho5Lu3Os3WC8
_symmetry_space_group_name_H-M   'P 1'
_cell_length_a   5.05030400
_cell_length_b   6.51163438
_cell_length_c   9.70932839
_cell_angle_alpha   89.81374882
_cell_angle_beta   90.00000000
_cell_angle_gamma   90.00000000
_symmetry_Int_Tables_number   1
_chemical_formula_structural   Ho5Lu3Os3WC8
_chemical_formula_sum   'Ho5 Lu3 Os3 W1 C8'
_cell_volume   319.29669542
_cell_formula_units_Z   1
loop_
 _symmetry_equiv_pos_site_id
 _symmetry_equiv_pos_as_xyz
  1  'x, y, z'
loop_
 _atom_site_type_symbol
 _atom_site_label
 _atom_site_symmetry_multiplicity
 _atom_site_fract_x
 _atom_site_fract_y
 _atom_site_fract_z
 _atom_site_occupancy
  Ho  Ho0  1  0.250000  0.179997  0.943909  1
  Ho  Ho1  1  0.250000  0.533035  0.213934  1
  Ho  Ho2  1  0.750000  0.465587  0.780529  1
  Ho  Ho3  1  0.750000  0.968807  0.714934  1
  Ho  Ho4  1  0.250000  0.030402  0.287620  1
  Lu  Lu5  1  0.250000  0.674756  0.555458  1
  Lu  Lu6  1  0.750000  0.327047  0.443097  1
  Lu  Lu7  1  0.750000  0.827324  0.057371  1
  Os  Os8  1  0.750000  0.279298  0.135143  1
  Os  Os9  1  0.750000  0.778116  0.365865  1
  Os  Os10  1  0.250000  0.222886  0.629845  1
  W  W11  1  0.250000  0.720447  0.868453  1
  C  C12  1  0.250000  0.452727  0.758362  1
  C  C13  1  0.750000  0.544707  0.241416  1
  C  C14  1  0.750000  0.045517  0.260467  1
  C  C15  1  0.250000  0.955211  0.737611  1
  C  C16  1  0.250000  0.827169  0.059174  1
  C  C17  1  0.750000  0.169643  0.949313  1
  C  C18  1  0.750000  0.667433  0.552470  1
  C  C19  1  0.250000  0.329889  0.445027  1
