# generated using pymatgen
data_Ho2Tm10ZnInCo4
_symmetry_space_group_name_H-M   'P 1'
_cell_length_a   8.24233624
_cell_length_b   8.24233779
_cell_length_c   8.23751314
_cell_angle_alpha   110.28289027
_cell_angle_beta   111.49894440
_cell_angle_gamma   106.69503405
_symmetry_Int_Tables_number   1
_chemical_formula_structural   Ho2Tm10ZnInCo4
_chemical_formula_sum   'Ho2 Tm10 Zn1 In1 Co4'
_cell_volume   429.85490599
_cell_formula_units_Z   1
loop_
 _symmetry_equiv_pos_site_id
 _symmetry_equiv_pos_as_xyz
  1  'x, y, z'
loop_
 _atom_site_type_symbol
 _atom_site_label
 _atom_site_symmetry_multiplicity
 _atom_site_fract_x
 _atom_site_fract_y
 _atom_site_fract_z
 _atom_site_occupancy
  Ho  Ho0  1  0.288106  0.185491  0.473597  1
  Ho  Ho1  1  0.711894  0.814509  0.526403  1
  Tm  Tm2  1  0.287848  0.814079  0.101927  1
  Tm  Tm3  1  0.712152  0.185921  0.898073  1
  Tm  Tm4  1  0.618902  0.314557  0.302951  1
  Tm  Tm5  1  0.381098  0.685443  0.697049  1
  Tm  Tm6  1  0.011606  0.315951  0.697049  1
  Tm  Tm7  1  0.988394  0.684049  0.302951  1
  Tm  Tm8  1  0.222521  0.427339  0.203326  1
  Tm  Tm9  1  0.777479  0.572661  0.796674  1
  Tm  Tm10  1  0.224013  0.019196  0.796674  1
  Tm  Tm11  1  0.775987  0.980804  0.203326  1
  Zn  Zn12  1  0.000000  0.000000  0.000000  1
  In  In13  1  0.500000  0.500000  0.000000  1
  Co  Co14  1  0.999076  0.376536  0.375613  1
  Co  Co15  1  0.000924  0.623464  0.624387  1
  Co  Co16  1  0.386227  0.886227  0.500000  1
  Co  Co17  1  0.613773  0.113773  0.500000  1
