# generated using pymatgen
data_Ta2FeSi2Pt
_symmetry_space_group_name_H-M   'P 1'
_cell_length_a   6.35797900
_cell_length_b   3.74716300
_cell_length_c   7.22396200
_cell_angle_alpha   90.00000000
_cell_angle_beta   90.00000000
_cell_angle_gamma   90.00000000
_symmetry_Int_Tables_number   1
_chemical_formula_structural   Ta2FeSi2Pt
_chemical_formula_sum   'Ta4 Fe2 Si4 Pt2'
_cell_volume   172.10644226
_cell_formula_units_Z   2
loop_
 _symmetry_equiv_pos_site_id
 _symmetry_equiv_pos_as_xyz
  1  'x, y, z'
loop_
 _atom_site_type_symbol
 _atom_site_label
 _atom_site_symmetry_multiplicity
 _atom_site_fract_x
 _atom_site_fract_y
 _atom_site_fract_z
 _atom_site_occupancy
  Ta  Ta0  1  0.019172  0.250000  0.320836  1
  Ta  Ta1  1  0.519172  0.250000  0.179164  1
  Ta  Ta2  1  0.976348  0.750000  0.669874  1
  Ta  Ta3  1  0.476348  0.750000  0.830126  1
  Fe  Fe4  1  0.861517  0.750000  0.059936  1
  Fe  Fe5  1  0.361517  0.750000  0.440064  1
  Si  Si6  1  0.267500  0.250000  0.606505  1
  Si  Si7  1  0.767500  0.250000  0.893495  1
  Si  Si8  1  0.728749  0.750000  0.360849  1
  Si  Si9  1  0.228749  0.750000  0.139151  1
  Pt  Pt10  1  0.146714  0.250000  0.931661  1
  Pt  Pt11  1  0.646714  0.250000  0.568339  1
