# generated using pymatgen
data_Sm3Dy2Zr3(Ni4P3)4
_symmetry_space_group_name_H-M   'P 1'
_cell_length_a   12.39643122
_cell_length_b   12.40046823
_cell_length_c   3.82926900
_cell_angle_alpha   90.00000000
_cell_angle_beta   90.00000000
_cell_angle_gamma   120.01077849
_symmetry_Int_Tables_number   1
_chemical_formula_structural   Sm3Dy2Zr3(Ni4P3)4
_chemical_formula_sum   'Sm3 Dy2 Zr3 Ni16 P12'
_cell_volume   509.72283199
_cell_formula_units_Z   1
loop_
 _symmetry_equiv_pos_site_id
 _symmetry_equiv_pos_as_xyz
  1  'x, y, z'
loop_
 _atom_site_type_symbol
 _atom_site_label
 _atom_site_symmetry_multiplicity
 _atom_site_fract_x
 _atom_site_fract_y
 _atom_site_fract_z
 _atom_site_occupancy
  Sm  Sm0  1  0.000000  0.814842  0.500000  1
  Sm  Sm1  1  0.333207  0.666479  0.000000  1
  Sm  Sm2  1  0.666793  0.333271  0.000000  1
  Dy  Dy3  1  0.185733  0.186113  0.500000  1
  Dy  Dy4  1  0.814267  0.000380  0.500000  1
  Zr  Zr5  1  0.562903  0.563240  0.000000  1
  Zr  Zr6  1  0.437097  0.000336  0.000000  1
  Zr  Zr7  1  0.000000  0.435563  0.000000  1
  Ni  Ni8  1  0.726878  0.728296  0.500000  1
  Ni  Ni9  1  0.273122  0.001417  0.500000  1
  Ni  Ni10  1  0.000000  0.271224  0.500000  1
  Ni  Ni11  1  0.185854  0.375474  0.000000  1
  Ni  Ni12  1  0.624093  0.810230  0.000000  1
  Ni  Ni13  1  0.191291  0.813871  0.000000  1
  Ni  Ni14  1  0.808709  0.622580  0.000000  1
  Ni  Ni15  1  0.814146  0.189620  0.000000  1
  Ni  Ni16  1  0.375907  0.186136  0.000000  1
  Ni  Ni17  1  0.361517  0.484052  0.500000  1
  Ni  Ni18  1  0.515667  0.877391  0.500000  1
  Ni  Ni19  1  0.122769  0.637652  0.500000  1
  Ni  Ni20  1  0.877231  0.514882  0.500000  1
  Ni  Ni21  1  0.638483  0.122534  0.500000  1
  Ni  Ni22  1  0.484333  0.361722  0.500000  1
  Ni  Ni23  1  0.000000  0.001165  0.000000  1
  P  P24  1  0.821159  0.823458  0.000000  1
  P  P25  1  0.178841  0.002299  0.000000  1
  P  P26  1  0.000000  0.177604  0.000000  1
  P  P27  1  0.170043  0.472679  0.500000  1
  P  P28  1  0.526379  0.696819  0.500000  1
  P  P29  1  0.302856  0.830214  0.500000  1
  P  P30  1  0.697144  0.527359  0.500000  1
  P  P31  1  0.829957  0.302637  0.500000  1
  P  P32  1  0.473621  0.170441  0.500000  1
  P  P33  1  0.357673  0.357690  0.000000  1
  P  P34  1  0.642327  0.000017  0.000000  1
  P  P35  1  0.000000  0.640317  0.000000  1
