# generated using pymatgen
data_Er12TlCo2Ni2Ag
_symmetry_space_group_name_H-M   'P 1'
_cell_length_a   8.28190997
_cell_length_b   8.28191063
_cell_length_c   8.28191039
_cell_angle_alpha   111.43718872
_cell_angle_beta   109.84178496
_cell_angle_gamma   107.16323532
_symmetry_Int_Tables_number   1
_chemical_formula_structural   Er12TlCo2Ni2Ag
_chemical_formula_sum   'Er12 Tl1 Co2 Ni2 Ag1'
_cell_volume   436.67221714
_cell_formula_units_Z   1
loop_
 _symmetry_equiv_pos_site_id
 _symmetry_equiv_pos_as_xyz
  1  'x, y, z'
loop_
 _atom_site_type_symbol
 _atom_site_label
 _atom_site_symmetry_multiplicity
 _atom_site_fract_x
 _atom_site_fract_y
 _atom_site_fract_z
 _atom_site_occupancy
  Er  Er0  1  0.318281  0.125153  0.806871  1
  Er  Er1  1  0.681719  0.488591  0.806871  1
  Er  Er2  1  0.428722  0.727710  0.701012  1
  Er  Er3  1  0.571278  0.272290  0.298988  1
  Er  Er4  1  0.973302  0.272290  0.701012  1
  Er  Er5  1  0.026698  0.727710  0.298988  1
  Er  Er6  1  0.318281  0.511409  0.193129  1
  Er  Er7  1  0.681719  0.874847  0.193129  1
  Er  Er8  1  0.183295  0.789643  0.972938  1
  Er  Er9  1  0.816705  0.789643  0.606348  1
  Er  Er10  1  0.183295  0.210357  0.393652  1
  Er  Er11  1  0.816705  0.210357  0.027062  1
  Tl  Tl12  1  0.500000  0.000000  0.500000  1
  Co  Co13  1  0.884407  0.884407  0.000000  1
  Co  Co14  1  0.115593  0.115593  0.000000  1
  Ni  Ni15  1  0.640525  0.500000  0.140525  1
  Ni  Ni16  1  0.359475  0.500000  0.859475  1
  Ag  Ag17  1  0.000000  0.500000  0.500000  1
