# generated using pymatgen
data_Dy2Al3Zn3Cu4
_symmetry_space_group_name_H-M   'P 1'
_cell_length_a   4.11202200
_cell_length_b   5.26040569
_cell_length_c   9.04829396
_cell_angle_alpha   90.18269007
_cell_angle_beta   90.00000000
_cell_angle_gamma   90.00000000
_symmetry_Int_Tables_number   1
_chemical_formula_structural   Dy2Al3Zn3Cu4
_chemical_formula_sum   'Dy2 Al3 Zn3 Cu4'
_cell_volume   195.72178228
_cell_formula_units_Z   1
loop_
 _symmetry_equiv_pos_site_id
 _symmetry_equiv_pos_as_xyz
  1  'x, y, z'
loop_
 _atom_site_type_symbol
 _atom_site_label
 _atom_site_symmetry_multiplicity
 _atom_site_fract_x
 _atom_site_fract_y
 _atom_site_fract_z
 _atom_site_occupancy
  Dy  Dy0  1  0.000000  0.001092  0.998133  1
  Dy  Dy1  1  0.000000  0.498877  0.501863  1
  Al  Al2  1  0.500000  0.505114  0.996642  1
  Al  Al3  1  0.500000  0.994856  0.503360  1
  Al  Al4  1  0.500000  0.249958  0.249994  1
  Zn  Zn5  1  0.500000  0.750004  0.750007  1
  Zn  Zn6  1  0.500000  0.749958  0.250013  1
  Zn  Zn7  1  0.500000  0.250006  0.749992  1
  Cu  Cu8  1  0.000000  0.000928  0.335449  1
  Cu  Cu9  1  0.000000  0.500192  0.834220  1
  Cu  Cu10  1  0.000000  0.499019  0.164549  1
  Cu  Cu11  1  0.000000  0.999798  0.665776  1
