# generated using pymatgen
data_KSrPS4
_symmetry_space_group_name_H-M   'P 1'
_cell_length_a   6.72432258
_cell_length_b   6.70472700
_cell_length_c   8.92570109
_cell_angle_alpha   90.00000000
_cell_angle_beta   107.01599948
_cell_angle_gamma   90.00000000
_symmetry_Int_Tables_number   1
_chemical_formula_structural   KSrPS4
_chemical_formula_sum   'K2 Sr2 P2 S8'
_cell_volume   384.79657451
_cell_formula_units_Z   2
loop_
 _symmetry_equiv_pos_site_id
 _symmetry_equiv_pos_as_xyz
  1  'x, y, z'
loop_
 _atom_site_type_symbol
 _atom_site_label
 _atom_site_symmetry_multiplicity
 _atom_site_fract_x
 _atom_site_fract_y
 _atom_site_fract_z
 _atom_site_occupancy
  K  K0  1  0.735436  0.750000  0.435455  1
  K  K1  1  0.264563  0.250000  0.564544  1
  Sr  Sr2  1  0.233697  0.250000  0.047557  1
  Sr  Sr3  1  0.766302  0.750000  0.952442  1
  P  P4  1  0.799242  0.250000  0.192866  1
  P  P5  1  0.200757  0.750000  0.807134  1
  S  S6  1  0.362651  0.750000  0.042195  1
  S  S7  1  0.992612  0.005550  0.237397  1
  S  S8  1  0.992612  0.494449  0.237397  1
  S  S9  1  0.607228  0.250000  0.333477  1
  S  S10  1  0.392772  0.750000  0.666522  1
  S  S11  1  0.007389  0.505551  0.762603  1
  S  S12  1  0.007389  0.994449  0.762603  1
  S  S13  1  0.637348  0.250000  0.957804  1
