# generated using pymatgen
data_Ho12Er4InAg3Rh4
_symmetry_space_group_name_H-M   'P 1'
_cell_length_a   9.50344085
_cell_length_b   9.50081555
_cell_length_c   9.50396132
_cell_angle_alpha   60.16271109
_cell_angle_beta   60.14228720
_cell_angle_gamma   60.16407310
_symmetry_Int_Tables_number   1
_chemical_formula_structural   Ho12Er4InAg3Rh4
_chemical_formula_sum   'Ho12 Er4 In1 Ag3 Rh4'
_cell_volume   608.92908862
_cell_formula_units_Z   1
loop_
 _symmetry_equiv_pos_site_id
 _symmetry_equiv_pos_as_xyz
  1  'x, y, z'
loop_
 _atom_site_type_symbol
 _atom_site_label
 _atom_site_symmetry_multiplicity
 _atom_site_fract_x
 _atom_site_fract_y
 _atom_site_fract_z
 _atom_site_occupancy
  Ho  Ho0  1  0.189683  0.189802  0.810360  1
  Ho  Ho1  1  0.435575  0.063572  0.063399  1
  Ho  Ho2  1  0.435087  0.060892  0.435012  1
  Ho  Ho3  1  0.063572  0.435584  0.063337  1
  Ho  Ho4  1  0.648278  0.053777  0.648321  1
  Ho  Ho5  1  0.188914  0.812006  0.812216  1
  Ho  Ho6  1  0.063351  0.063317  0.435644  1
  Ho  Ho7  1  0.810357  0.189787  0.189642  1
  Ho  Ho8  1  0.812188  0.812244  0.188900  1
  Ho  Ho9  1  0.648083  0.648261  0.053844  1
  Ho  Ho10  1  0.648435  0.648255  0.648523  1
  Ho  Ho11  1  0.060746  0.435212  0.435124  1
  Er  Er12  1  0.053621  0.648313  0.648189  1
  Er  Er13  1  0.812028  0.188979  0.812231  1
  Er  Er14  1  0.435219  0.435279  0.060649  1
  Er  Er15  1  0.189867  0.810155  0.189840  1
  In  In16  1  0.420817  0.421114  0.420918  1
  Ag  Ag17  1  0.417295  0.748747  0.417501  1
  Ag  Ag18  1  0.417359  0.417563  0.748978  1
  Ag  Ag19  1  0.748853  0.417413  0.417462  1
  Rh  Rh20  1  0.856981  0.429228  0.856689  1
  Rh  Rh21  1  0.857465  0.856672  0.429136  1
  Rh  Rh22  1  0.428878  0.856719  0.857332  1
  Rh  Rh23  1  0.857350  0.857110  0.856754  1
