# generated using pymatgen
data_Na13Tl5
_symmetry_space_group_name_H-M   'P 1'
_cell_length_a   18.86944163
_cell_length_b   18.86944073
_cell_length_c   8.00185200
_cell_angle_alpha   95.88449397
_cell_angle_beta   95.88449369
_cell_angle_gamma   11.47330269
_symmetry_Int_Tables_number   1
_chemical_formula_structural   Na13Tl5
_chemical_formula_sum   'Na13 Tl5'
_cell_volume   563.70290033
_cell_formula_units_Z   1
loop_
 _symmetry_equiv_pos_site_id
 _symmetry_equiv_pos_as_xyz
  1  'x, y, z'
loop_
 _atom_site_type_symbol
 _atom_site_label
 _atom_site_symmetry_multiplicity
 _atom_site_fract_x
 _atom_site_fract_y
 _atom_site_fract_z
 _atom_site_occupancy
  Na  Na0  1  0.116955  0.116955  0.089256  1
  Na  Na1  1  0.216139  0.216139  0.132508  1
  Na  Na2  1  0.342001  0.342001  0.209613  1
  Na  Na3  1  0.442957  0.442957  0.202739  1
  Na  Na4  1  0.554104  0.554104  0.265639  1
  Na  Na5  1  0.783408  0.783408  0.414376  1
  Na  Na6  1  0.000000  0.000000  0.500000  1
  Na  Na7  1  0.216592  0.216592  0.585625  1
  Na  Na8  1  0.445896  0.445896  0.734361  1
  Na  Na9  1  0.557043  0.557043  0.797260  1
  Na  Na10  1  0.657998  0.657998  0.790387  1
  Na  Na11  1  0.783860  0.783860  0.867491  1
  Na  Na12  1  0.883046  0.883046  0.910745  1
  Tl  Tl13  1  0.000000  0.000000  0.000000  1
  Tl  Tl14  1  0.662547  0.662547  0.351467  1
  Tl  Tl15  1  0.898836  0.898836  0.451550  1
  Tl  Tl16  1  0.101164  0.101164  0.548451  1
  Tl  Tl17  1  0.337453  0.337453  0.648533  1
