# generated using pymatgen
data_Tb2Ho2HfPd15
_symmetry_space_group_name_H-M   'P 1'
_cell_length_a   4.09970400
_cell_length_b   4.09970400
_cell_length_c   20.49551400
_cell_angle_alpha   90.00000000
_cell_angle_beta   90.00000000
_cell_angle_gamma   90.00000000
_symmetry_Int_Tables_number   1
_chemical_formula_structural   Tb2Ho2HfPd15
_chemical_formula_sum   'Tb2 Ho2 Hf1 Pd15'
_cell_volume   344.47984542
_cell_formula_units_Z   1
loop_
 _symmetry_equiv_pos_site_id
 _symmetry_equiv_pos_as_xyz
  1  'x, y, z'
loop_
 _atom_site_type_symbol
 _atom_site_label
 _atom_site_symmetry_multiplicity
 _atom_site_fract_x
 _atom_site_fract_y
 _atom_site_fract_z
 _atom_site_occupancy
  Tb  Tb0  1  0.000000  0.000000  0.197993  1
  Tb  Tb1  1  0.000000  0.000000  0.399035  1
  Ho  Ho2  1  0.000000  0.000000  0.601131  1
  Ho  Ho3  1  0.000000  0.000000  0.801924  1
  Hf  Hf4  1  0.000000  0.000000  0.999863  1
  Pd  Pd5  1  0.500000  0.500000  0.999997  1
  Pd  Pd6  1  0.500000  0.500000  0.196842  1
  Pd  Pd7  1  0.500000  0.500000  0.399235  1
  Pd  Pd8  1  0.500000  0.500000  0.600710  1
  Pd  Pd9  1  0.500000  0.500000  0.803163  1
  Pd  Pd10  1  0.500000  0.000000  0.094298  1
  Pd  Pd11  1  0.500000  0.000000  0.298097  1
  Pd  Pd12  1  0.500000  0.000000  0.500288  1
  Pd  Pd13  1  0.500000  0.000000  0.701870  1
  Pd  Pd14  1  0.500000  0.000000  0.905499  1
  Pd  Pd15  1  0.000000  0.500000  0.094298  1
  Pd  Pd16  1  0.000000  0.500000  0.298097  1
  Pd  Pd17  1  0.000000  0.500000  0.500288  1
  Pd  Pd18  1  0.000000  0.500000  0.701870  1
  Pd  Pd19  1  0.000000  0.500000  0.905499  1
