# generated using pymatgen
data_Tb3PaAl15(GaIr2)3
_symmetry_space_group_name_H-M   'P 1'
_cell_length_a   7.55973659
_cell_length_b   7.54925231
_cell_length_c   9.47805900
_cell_angle_alpha   90.00000000
_cell_angle_beta   90.00000000
_cell_angle_gamma   119.46824619
_symmetry_Int_Tables_number   1
_chemical_formula_structural   Tb3PaAl15(GaIr2)3
_chemical_formula_sum   'Tb3 Pa1 Al15 Ga3 Ir6'
_cell_volume   470.93706790
_cell_formula_units_Z   1
loop_
 _symmetry_equiv_pos_site_id
 _symmetry_equiv_pos_as_xyz
  1  'x, y, z'
loop_
 _atom_site_type_symbol
 _atom_site_label
 _atom_site_symmetry_multiplicity
 _atom_site_fract_x
 _atom_site_fract_y
 _atom_site_fract_z
 _atom_site_occupancy
  Tb  Tb0  1  0.002083  0.325852  0.750000  1
  Tb  Tb1  1  0.675133  0.995161  0.250000  1
  Tb  Tb2  1  0.329857  0.007463  0.750000  1
  Pa  Pa3  1  0.994392  0.674615  0.250000  1
  Al  Al4  1  0.001643  0.333890  0.074684  1
  Al  Al5  1  0.998846  0.664259  0.922805  1
  Al  Al6  1  0.998846  0.664259  0.577195  1
  Al  Al7  1  0.339205  0.003198  0.425547  1
  Al  Al8  1  0.001643  0.333890  0.425316  1
  Al  Al9  1  0.664170  0.998174  0.574313  1
  Al  Al10  1  0.664170  0.998174  0.925687  1
  Al  Al11  1  0.339205  0.003198  0.074453  1
  Al  Al12  1  0.332765  0.333254  0.554986  1
  Al  Al13  1  0.662500  0.664920  0.445493  1
  Al  Al14  1  0.662500  0.664920  0.054507  1
  Al  Al15  1  0.332765  0.333254  0.945014  1
  Al  Al16  1  0.336945  0.547966  0.250000  1
  Al  Al17  1  0.547501  0.339971  0.250000  1
  Al  Al18  1  0.448967  0.660408  0.750000  1
  Ga  Ga19  1  0.138194  0.137539  0.250000  1
  Ga  Ga20  1  0.870031  0.870927  0.750000  1
  Ga  Ga21  1  0.658754  0.451713  0.750000  1
  Ir  Ir22  1  0.673784  0.329711  0.004232  1
  Ir  Ir23  1  0.327040  0.671029  0.001809  1
  Ir  Ir24  1  0.327040  0.671029  0.498191  1
  Ir  Ir25  1  0.673784  0.329711  0.495768  1
  Ir  Ir26  1  0.999119  0.995755  0.003606  1
  Ir  Ir27  1  0.999119  0.995755  0.496394  1
