# generated using pymatgen
data_Yb6Th2Re13B12
_symmetry_space_group_name_H-M   'P 1'
_cell_length_a   7.77103229
_cell_length_b   7.77103155
_cell_length_c   7.77103200
_cell_angle_alpha   86.15197281
_cell_angle_beta   86.15197318
_cell_angle_gamma   86.15196709
_symmetry_Int_Tables_number   1
_chemical_formula_structural   Yb6Th2Re13B12
_chemical_formula_sum   'Yb6 Th2 Re13 B12'
_cell_volume   466.24602956
_cell_formula_units_Z   1
loop_
 _symmetry_equiv_pos_site_id
 _symmetry_equiv_pos_as_xyz
  1  'x, y, z'
loop_
 _atom_site_type_symbol
 _atom_site_label
 _atom_site_symmetry_multiplicity
 _atom_site_fract_x
 _atom_site_fract_y
 _atom_site_fract_z
 _atom_site_occupancy
  Yb  Yb0  1  0.186847  0.186847  0.693525  1
  Yb  Yb1  1  0.693525  0.186847  0.186847  1
  Yb  Yb2  1  0.186847  0.693525  0.186847  1
  Yb  Yb3  1  0.813153  0.813153  0.306475  1
  Yb  Yb4  1  0.306475  0.813153  0.813153  1
  Yb  Yb5  1  0.813153  0.306475  0.813153  1
  Th  Th6  1  0.646860  0.646860  0.646860  1
  Th  Th7  1  0.353140  0.353140  0.353140  1
  Re  Re8  1  0.000000  0.000000  0.000000  1
  Re  Re9  1  0.596073  0.065380  0.596073  1
  Re  Re10  1  0.596073  0.596073  0.065380  1
  Re  Re11  1  0.065380  0.596073  0.596073  1
  Re  Re12  1  0.403927  0.934620  0.403927  1
  Re  Re13  1  0.403927  0.403927  0.934620  1
  Re  Re14  1  0.934620  0.403927  0.403927  1
  Re  Re15  1  0.926710  0.926710  0.670050  1
  Re  Re16  1  0.670050  0.926710  0.926710  1
  Re  Re17  1  0.926710  0.670050  0.926710  1
  Re  Re18  1  0.073290  0.073290  0.329950  1
  Re  Re19  1  0.329950  0.073290  0.073290  1
  Re  Re20  1  0.073290  0.329950  0.073290  1
  B  B21  1  0.151924  0.848076  0.500000  1
  B  B22  1  0.500000  0.151924  0.848076  1
  B  B23  1  0.848076  0.500000  0.151924  1
  B  B24  1  0.500000  0.848076  0.151924  1
  B  B25  1  0.151924  0.500000  0.848076  1
  B  B26  1  0.848076  0.151924  0.500000  1
  B  B27  1  0.671285  0.500000  0.328715  1
  B  B28  1  0.328715  0.671285  0.500000  1
  B  B29  1  0.500000  0.328715  0.671285  1
  B  B30  1  0.328715  0.500000  0.671285  1
  B  B31  1  0.671285  0.328715  0.500000  1
  B  B32  1  0.500000  0.671285  0.328715  1
