# generated using pymatgen
data_Tm2Zn14Ni3
_symmetry_space_group_name_H-M   'P 1'
_cell_length_a   6.64030550
_cell_length_b   6.64035638
_cell_length_c   6.64050178
_cell_angle_alpha   82.85780191
_cell_angle_beta   97.13369160
_cell_angle_gamma   97.12764266
_symmetry_Int_Tables_number   1
_chemical_formula_structural   Tm2Zn14Ni3
_chemical_formula_sum   'Tm2 Zn14 Ni3'
_cell_volume   286.52484272
_cell_formula_units_Z   1
loop_
 _symmetry_equiv_pos_site_id
 _symmetry_equiv_pos_as_xyz
  1  'x, y, z'
loop_
 _atom_site_type_symbol
 _atom_site_label
 _atom_site_symmetry_multiplicity
 _atom_site_fract_x
 _atom_site_fract_y
 _atom_site_fract_z
 _atom_site_occupancy
  Tm  Tm0  1  0.663534  0.336467  0.336471  1
  Tm  Tm1  1  0.336465  0.663533  0.663528  1
  Zn  Zn2  1  0.295776  0.295767  0.000003  1
  Zn  Zn3  1  0.704224  0.704232  0.999997  1
  Zn  Zn4  1  0.893997  0.106000  0.105993  1
  Zn  Zn5  1  0.348913  0.651099  0.149270  1
  Zn  Zn6  1  0.999999  0.704218  0.295769  1
  Zn  Zn7  1  0.295783  0.000004  0.295761  1
  Zn  Zn8  1  0.651081  0.850725  0.348896  1
  Zn  Zn9  1  0.149274  0.348914  0.348902  1
  Zn  Zn10  1  0.850727  0.651085  0.651097  1
  Zn  Zn11  1  0.348919  0.149275  0.651105  1
  Zn  Zn12  1  0.000001  0.295783  0.704231  1
  Zn  Zn13  1  0.704217  0.999996  0.704238  1
  Zn  Zn14  1  0.651088  0.348901  0.850730  1
  Zn  Zn15  1  0.106002  0.893999  0.894007  1
  Ni  Ni16  1  0.500000  0.999999  0.000000  1
  Ni  Ni17  1  0.000000  0.499999  0.000000  1
  Ni  Ni18  1  0.999999  0.000001  0.500000  1
