# generated using pymatgen
data_Tb4(Ga8Pt3)3
_symmetry_space_group_name_H-M   'P 1'
_cell_length_a   7.51861584
_cell_length_b   7.58966046
_cell_length_c   13.36599360
_cell_angle_alpha   84.74333324
_cell_angle_beta   79.50354490
_cell_angle_gamma   60.16857539
_symmetry_Int_Tables_number   1
_chemical_formula_structural   Tb4(Ga8Pt3)3
_chemical_formula_sum   'Tb4 Ga24 Pt9'
_cell_volume   650.57617152
_cell_formula_units_Z   1
loop_
 _symmetry_equiv_pos_site_id
 _symmetry_equiv_pos_as_xyz
  1  'x, y, z'
loop_
 _atom_site_type_symbol
 _atom_site_label
 _atom_site_symmetry_multiplicity
 _atom_site_fract_x
 _atom_site_fract_y
 _atom_site_fract_z
 _atom_site_occupancy
  Tb  Tb0  1  0.392931  0.168921  0.811430  1
  Tb  Tb1  1  0.607069  0.831079  0.188570  1
  Tb  Tb2  1  0.732364  0.497430  0.811759  1
  Tb  Tb3  1  0.267636  0.502570  0.188241  1
  Ga  Ga4  1  0.685528  0.833824  0.938578  1
  Ga  Ga5  1  0.314472  0.166176  0.061422  1
  Ga  Ga6  1  0.146127  0.832693  0.558912  1
  Ga  Ga7  1  0.853873  0.167307  0.441088  1
  Ga  Ga8  1  0.478301  0.166851  0.556085  1
  Ga  Ga9  1  0.521699  0.833149  0.443915  1
  Ga  Ga10  1  0.220653  0.165467  0.323880  1
  Ga  Ga11  1  0.779347  0.834533  0.676120  1
  Ga  Ga12  1  0.437640  0.503618  0.675124  1
  Ga  Ga13  1  0.562360  0.496382  0.324876  1
  Ga  Ga14  1  0.106658  0.163803  0.674673  1
  Ga  Ga15  1  0.893342  0.836197  0.325327  1
  Ga  Ga16  1  0.357217  0.498221  0.938802  1
  Ga  Ga17  1  0.642783  0.501779  0.061198  1
  Ga  Ga18  1  0.019573  0.169414  0.943754  1
  Ga  Ga19  1  0.980427  0.830586  0.056246  1
  Ga  Ga20  1  0.186909  0.499146  0.443009  1
  Ga  Ga21  1  0.813091  0.500854  0.556991  1
  Ga  Ga22  1  0.734560  0.163689  0.182221  1
  Ga  Ga23  1  0.265440  0.836311  0.817779  1
  Ga  Ga24  1  0.061116  0.631429  0.817138  1
  Ga  Ga25  1  0.938884  0.368571  0.182862  1
  Ga  Ga26  1  0.856339  0.039841  0.817035  1
  Ga  Ga27  1  0.143661  0.960159  0.182966  1
  Pt  Pt28  1  0.117912  0.495960  0.638761  1
  Pt  Pt29  1  0.882088  0.504040  0.361239  1
  Pt  Pt30  1  0.659966  0.169846  0.999442  1
  Pt  Pt31  1  0.340034  0.830154  0.000558  1
  Pt  Pt32  1  0.540620  0.166765  0.360431  1
  Pt  Pt33  1  0.459380  0.833235  0.639569  1
  Pt  Pt34  1  0.779804  0.171746  0.637097  1
  Pt  Pt35  1  0.220196  0.828254  0.362903  1
  Pt  Pt36  1  0.000000  0.500000  0.000000  1
