# generated using pymatgen
data_Pm2MoRu3
_symmetry_space_group_name_H-M   'P 1'
_cell_length_a   5.70331007
_cell_length_b   5.23600185
_cell_length_c   5.70331100
_cell_angle_alpha   57.00100459
_cell_angle_beta   60.00001199
_cell_angle_gamma   57.00100010
_symmetry_Int_Tables_number   1
_chemical_formula_structural   Pm2MoRu3
_chemical_formula_sum   'Pm2 Mo1 Ru3'
_cell_volume   114.67984677
_cell_formula_units_Z   1
loop_
 _symmetry_equiv_pos_site_id
 _symmetry_equiv_pos_as_xyz
  1  'x, y, z'
loop_
 _atom_site_type_symbol
 _atom_site_label
 _atom_site_symmetry_multiplicity
 _atom_site_fract_x
 _atom_site_fract_y
 _atom_site_fract_z
 _atom_site_occupancy
  Pm  Pm0  1  0.751428  0.745719  0.751428  1
  Pm  Pm1  1  0.498572  0.504281  0.498572  1
  Mo  Mo2  1  0.125000  0.625000  0.125000  1
  Ru  Ru3  1  0.125000  0.125000  0.125000  1
  Ru  Ru4  1  0.625000  0.125000  0.125000  1
  Ru  Ru5  1  0.125000  0.125000  0.625000  1
