# generated using pymatgen
data_Ho19Mg(InGa2)4
_symmetry_space_group_name_H-M   'P 1'
_cell_length_a   7.66703200
_cell_length_b   7.66703200
_cell_length_c   14.30201600
_cell_angle_alpha   90.00000000
_cell_angle_beta   90.00000000
_cell_angle_gamma   90.00000000
_symmetry_Int_Tables_number   1
_chemical_formula_structural   Ho19Mg(InGa2)4
_chemical_formula_sum   'Ho19 Mg1 In4 Ga8'
_cell_volume   840.72083685
_cell_formula_units_Z   1
loop_
 _symmetry_equiv_pos_site_id
 _symmetry_equiv_pos_as_xyz
  1  'x, y, z'
loop_
 _atom_site_type_symbol
 _atom_site_label
 _atom_site_symmetry_multiplicity
 _atom_site_fract_x
 _atom_site_fract_y
 _atom_site_fract_z
 _atom_site_occupancy
  Ho  Ho0  1  0.000000  0.500000  0.258141  1
  Ho  Ho1  1  0.500000  0.000000  0.242232  1
  Ho  Ho2  1  0.500000  0.000000  0.741944  1
  Ho  Ho3  1  0.673450  0.659466  0.607903  1
  Ho  Ho4  1  0.672823  0.337345  0.105953  1
  Ho  Ho5  1  0.827236  0.837778  0.394395  1
  Ho  Ho6  1  0.169216  0.834419  0.892049  1
  Ho  Ho7  1  0.326550  0.340534  0.607903  1
  Ho  Ho8  1  0.327177  0.662655  0.105953  1
  Ho  Ho9  1  0.172764  0.162222  0.394395  1
  Ho  Ho10  1  0.830784  0.165581  0.892049  1
  Ho  Ho11  1  0.662222  0.327236  0.394395  1
  Ho  Ho12  1  0.334419  0.330784  0.892049  1
  Ho  Ho13  1  0.159466  0.826550  0.607903  1
  Ho  Ho14  1  0.837345  0.827177  0.105953  1
  Ho  Ho15  1  0.337778  0.672764  0.394395  1
  Ho  Ho16  1  0.665581  0.669216  0.892049  1
  Ho  Ho17  1  0.840534  0.173450  0.607903  1
  Ho  Ho18  1  0.162655  0.172823  0.105953  1
  Mg  Mg19  1  0.000000  0.500000  0.756031  1
  In  In20  1  0.000000  0.500000  0.497138  1
  In  In21  1  0.000000  0.500000  0.995138  1
  In  In22  1  0.500000  0.000000  0.503614  1
  In  In23  1  0.500000  0.000000  0.002487  1
  Ga  Ga24  1  0.873064  0.875155  0.750405  1
  Ga  Ga25  1  0.875955  0.124738  0.250113  1
  Ga  Ga26  1  0.624738  0.624045  0.250113  1
  Ga  Ga27  1  0.375155  0.626936  0.750405  1
  Ga  Ga28  1  0.126936  0.124845  0.750405  1
  Ga  Ga29  1  0.124045  0.875262  0.250113  1
  Ga  Ga30  1  0.375262  0.375955  0.250113  1
  Ga  Ga31  1  0.624845  0.373064  0.750405  1
