# generated using pymatgen
data_LiTi2(AgO2)3
_symmetry_space_group_name_H-M   'P 1'
_cell_length_a   5.27804807
_cell_length_b   5.28345183
_cell_length_c   6.51593956
_cell_angle_alpha   74.37916472
_cell_angle_beta   97.74547579
_cell_angle_gamma   120.03387796
_symmetry_Int_Tables_number   1
_chemical_formula_structural   LiTi2(AgO2)3
_chemical_formula_sum   'Li1 Ti2 Ag3 O6'
_cell_volume   151.49764553
_cell_formula_units_Z   1
loop_
 _symmetry_equiv_pos_site_id
 _symmetry_equiv_pos_as_xyz
  1  'x, y, z'
loop_
 _atom_site_type_symbol
 _atom_site_label
 _atom_site_symmetry_multiplicity
 _atom_site_fract_x
 _atom_site_fract_y
 _atom_site_fract_z
 _atom_site_occupancy
  Li  Li0  1  0.333333  0.166667  0.500000  1
  Ti  Ti1  1  0.999760  0.499880  0.500000  1
  Ti  Ti2  1  0.666907  0.833453  0.500000  1
  Ag  Ag3  1  0.667893  0.333945  0.000000  1
  Ag  Ag4  1  0.333333  0.666667  0.000000  1
  Ag  Ag5  1  0.998774  0.999388  0.000000  1
  O  O6  1  0.333333  0.749546  0.665467  1
  O  O7  1  0.973302  0.112608  0.664649  1
  O  O8  1  0.693365  0.472639  0.664649  1
  O  O9  1  0.693365  0.220725  0.335351  1
  O  O10  1  0.333333  0.583788  0.334533  1
  O  O11  1  0.973302  0.860694  0.335351  1
