# generated using pymatgen
data_Dy4MnTc7
_symmetry_space_group_name_H-M   'P 1'
_cell_length_a   5.33376458
_cell_length_b   5.33322019
_cell_length_c   8.95844302
_cell_angle_alpha   89.99344432
_cell_angle_beta   90.00621366
_cell_angle_gamma   119.99646376
_symmetry_Int_Tables_number   1
_chemical_formula_structural   Dy4MnTc7
_chemical_formula_sum   'Dy4 Mn1 Tc7'
_cell_volume   220.69982862
_cell_formula_units_Z   1
loop_
 _symmetry_equiv_pos_site_id
 _symmetry_equiv_pos_as_xyz
  1  'x, y, z'
loop_
 _atom_site_type_symbol
 _atom_site_label
 _atom_site_symmetry_multiplicity
 _atom_site_fract_x
 _atom_site_fract_y
 _atom_site_fract_z
 _atom_site_occupancy
  Dy  Dy0  1  0.666678  0.333358  0.564276  1
  Dy  Dy1  1  0.333322  0.666642  0.435724  1
  Dy  Dy2  1  0.333339  0.666661  0.063451  1
  Dy  Dy3  1  0.666661  0.333339  0.936549  1
  Mn  Mn4  1  0.000000  0.000000  0.000000  1
  Tc  Tc5  1  0.000000  0.000000  0.500000  1
  Tc  Tc6  1  0.170172  0.340389  0.752935  1
  Tc  Tc7  1  0.170115  0.829844  0.752931  1
  Tc  Tc8  1  0.659570  0.829791  0.752974  1
  Tc  Tc9  1  0.829828  0.659611  0.247065  1
  Tc  Tc10  1  0.829885  0.170156  0.247069  1
  Tc  Tc11  1  0.340430  0.170209  0.247026  1
