# generated using pymatgen
data_Ta6B4Os3Ru7
_symmetry_space_group_name_H-M   'P 1'
_cell_length_a   9.46315007
_cell_length_b   9.53814504
_cell_length_c   3.00823400
_cell_angle_alpha   90.00000000
_cell_angle_beta   90.00000000
_cell_angle_gamma   89.92464471
_symmetry_Int_Tables_number   1
_chemical_formula_structural   Ta6B4Os3Ru7
_chemical_formula_sum   'Ta6 B4 Os3 Ru7'
_cell_volume   271.52566706
_cell_formula_units_Z   1
loop_
 _symmetry_equiv_pos_site_id
 _symmetry_equiv_pos_as_xyz
  1  'x, y, z'
loop_
 _atom_site_type_symbol
 _atom_site_label
 _atom_site_symmetry_multiplicity
 _atom_site_fract_x
 _atom_site_fract_y
 _atom_site_fract_z
 _atom_site_occupancy
  Ta  Ta0  1  0.823742  0.676936  0.000000  1
  Ta  Ta1  1  0.176742  0.323678  0.000000  1
  Ta  Ta2  1  0.323664  0.823381  0.000000  1
  Ta  Ta3  1  0.676180  0.176924  0.000000  1
  Ta  Ta4  1  0.500145  0.499927  0.000000  1
  Ta  Ta5  1  0.999429  0.001908  0.000000  1
  B  B6  1  0.621411  0.878755  0.000000  1
  B  B7  1  0.378798  0.120802  0.000000  1
  B  B8  1  0.120771  0.620963  0.000000  1
  B  B9  1  0.879024  0.378282  0.000000  1
  Os  Os10  1  0.571512  0.719456  0.500000  1
  Os  Os11  1  0.428338  0.280428  0.500000  1
  Os  Os12  1  0.071043  0.780742  0.500000  1
  Ru  Ru13  1  0.928546  0.219393  0.500000  1
  Ru  Ru14  1  0.281599  0.570568  0.500000  1
  Ru  Ru15  1  0.718679  0.428548  0.500000  1
  Ru  Ru16  1  0.218026  0.070521  0.500000  1
  Ru  Ru17  1  0.781999  0.929623  0.500000  1
  Ru  Ru18  1  0.500330  0.000112  0.500000  1
  Ru  Ru19  1  0.000021  0.499054  0.500000  1
