# generated using pymatgen
data_Tb3Y(ZnOs3)2
_symmetry_space_group_name_H-M   'P 1'
_cell_length_a   5.37377807
_cell_length_b   5.37377872
_cell_length_c   8.82738102
_cell_angle_alpha   90.00601556
_cell_angle_beta   89.99398187
_cell_angle_gamma   120.06290125
_symmetry_Int_Tables_number   1
_chemical_formula_structural   Tb3Y(ZnOs3)2
_chemical_formula_sum   'Tb3 Y1 Zn2 Os6'
_cell_volume   220.62076526
_cell_formula_units_Z   1
loop_
 _symmetry_equiv_pos_site_id
 _symmetry_equiv_pos_as_xyz
  1  'x, y, z'
loop_
 _atom_site_type_symbol
 _atom_site_label
 _atom_site_symmetry_multiplicity
 _atom_site_fract_x
 _atom_site_fract_y
 _atom_site_fract_z
 _atom_site_occupancy
  Tb  Tb0  1  0.338602  0.661398  0.430932  1
  Tb  Tb1  1  0.672749  0.327251  0.556980  1
  Tb  Tb2  1  0.672752  0.327248  0.943005  1
  Y  Y3  1  0.338607  0.661393  0.069119  1
  Zn  Zn4  1  0.160199  0.353166  0.750024  1
  Zn  Zn5  1  0.646834  0.839801  0.750024  1
  Os  Os6  1  0.011733  0.988267  0.502245  1
  Os  Os7  1  0.011718  0.988282  0.997794  1
  Os  Os8  1  0.823766  0.176234  0.249954  1
  Os  Os9  1  0.836481  0.666421  0.249971  1
  Os  Os10  1  0.333579  0.163519  0.249971  1
  Os  Os11  1  0.152980  0.847020  0.749983  1
