# generated using pymatgen
data_Yb3Pa5TlPt8Pb3
_symmetry_space_group_name_H-M   'P 1'
_cell_length_a   7.94935431
_cell_length_b   7.94514452
_cell_length_c   7.24378925
_cell_angle_alpha   89.99034990
_cell_angle_beta   90.02878546
_cell_angle_gamma   92.34953340
_symmetry_Int_Tables_number   1
_chemical_formula_structural   Yb3Pa5TlPt8Pb3
_chemical_formula_sum   'Yb3 Pa5 Tl1 Pt8 Pb3'
_cell_volume   457.12413237
_cell_formula_units_Z   1
loop_
 _symmetry_equiv_pos_site_id
 _symmetry_equiv_pos_as_xyz
  1  'x, y, z'
loop_
 _atom_site_type_symbol
 _atom_site_label
 _atom_site_symmetry_multiplicity
 _atom_site_fract_x
 _atom_site_fract_y
 _atom_site_fract_z
 _atom_site_occupancy
  Yb  Yb0  1  0.176155  0.825440  0.501300  1
  Yb  Yb1  1  0.838315  0.160611  0.999579  1
  Yb  Yb2  1  0.161411  0.839260  0.999337  1
  Pa  Pa3  1  0.680472  0.675983  0.999626  1
  Pa  Pa4  1  0.336235  0.336686  0.500248  1
  Pa  Pa5  1  0.826633  0.174640  0.500489  1
  Pa  Pa6  1  0.663301  0.662770  0.500117  1
  Pa  Pa7  1  0.322884  0.320506  0.999565  1
  Tl  Tl8  1  0.492625  0.995104  0.751624  1
  Pt  Pt9  1  0.860781  0.871970  0.731304  1
  Pt  Pt10  1  0.128212  0.138700  0.732611  1
  Pt  Pt11  1  0.628435  0.368001  0.757608  1
  Pt  Pt12  1  0.629941  0.370115  0.241669  1
  Pt  Pt13  1  0.381066  0.619076  0.232909  1
  Pt  Pt14  1  0.128080  0.138158  0.267652  1
  Pt  Pt15  1  0.862387  0.871669  0.268398  1
  Pt  Pt16  1  0.382231  0.619882  0.767636  1
  Pb  Pb17  1  0.493155  0.995473  0.248302  1
  Pb  Pb18  1  0.003792  0.508110  0.753133  1
  Pb  Pb19  1  0.003890  0.507847  0.246890  1
