# generated using pymatgen
data_Dy4Ga4Ru3Pt
_symmetry_space_group_name_H-M   'P 1'
_cell_length_a   6.88236469
_cell_length_b   4.35779000
_cell_length_c   7.72182865
_cell_angle_alpha   90.00000000
_cell_angle_beta   90.18161626
_cell_angle_gamma   90.00000000
_symmetry_Int_Tables_number   1
_chemical_formula_structural   Dy4Ga4Ru3Pt
_chemical_formula_sum   'Dy4 Ga4 Ru3 Pt1'
_cell_volume   231.59114928
_cell_formula_units_Z   1
loop_
 _symmetry_equiv_pos_site_id
 _symmetry_equiv_pos_as_xyz
  1  'x, y, z'
loop_
 _atom_site_type_symbol
 _atom_site_label
 _atom_site_symmetry_multiplicity
 _atom_site_fract_x
 _atom_site_fract_y
 _atom_site_fract_z
 _atom_site_occupancy
  Dy  Dy0  1  0.987413  0.749999  0.196778  1
  Dy  Dy1  1  0.485338  0.749999  0.308302  1
  Dy  Dy2  1  0.514395  0.249999  0.688674  1
  Dy  Dy3  1  0.017734  0.249999  0.806865  1
  Ga  Ga4  1  0.664657  0.249999  0.082499  1
  Ga  Ga5  1  0.170940  0.249999  0.423985  1
  Ga  Ga6  1  0.831012  0.749999  0.572270  1
  Ga  Ga7  1  0.324531  0.749999  0.922637  1
  Ru  Ru8  1  0.278567  0.249999  0.098821  1
  Ru  Ru9  1  0.785525  0.249999  0.399985  1
  Ru  Ru10  1  0.220096  0.749999  0.598617  1
  Pt  Pt11  1  0.719788  0.749999  0.900569  1
