# generated using pymatgen
data_Tb15Y5Pb16
_symmetry_space_group_name_H-M   'P 1'
_cell_length_a   8.21582602
_cell_length_b   8.30301302
_cell_length_c   15.69349501
_cell_angle_alpha   90.00444220
_cell_angle_beta   89.99870143
_cell_angle_gamma   90.00698562
_symmetry_Int_Tables_number   1
_chemical_formula_structural   Tb15Y5Pb16
_chemical_formula_sum   'Tb15 Y5 Pb16'
_cell_volume   1070.54917679
_cell_formula_units_Z   1
loop_
 _symmetry_equiv_pos_site_id
 _symmetry_equiv_pos_as_xyz
  1  'x, y, z'
loop_
 _atom_site_type_symbol
 _atom_site_label
 _atom_site_symmetry_multiplicity
 _atom_site_fract_x
 _atom_site_fract_y
 _atom_site_fract_z
 _atom_site_occupancy
  Tb  Tb0  1  0.876748  0.659360  0.620069  1
  Tb  Tb1  1  0.623233  0.159347  0.379956  1
  Tb  Tb2  1  0.123246  0.340655  0.120020  1
  Tb  Tb3  1  0.623240  0.159398  0.120058  1
  Tb  Tb4  1  0.123223  0.340638  0.379951  1
  Tb  Tb5  1  0.376777  0.840638  0.620073  1
  Tb  Tb6  1  0.876818  0.659358  0.879949  1
  Tb  Tb7  1  0.533812  0.322736  0.899686  1
  Tb  Tb8  1  0.033821  0.177202  0.600329  1
  Tb  Tb9  1  0.466193  0.677215  0.399681  1
  Tb  Tb10  1  0.966173  0.822756  0.100333  1
  Tb  Tb11  1  0.466158  0.677210  0.100299  1
  Tb  Tb12  1  0.966175  0.822793  0.399675  1
  Tb  Tb13  1  0.533821  0.322791  0.600338  1
  Tb  Tb14  1  0.033856  0.177197  0.899672  1
  Y  Y15  1  0.376686  0.840750  0.879902  1
  Y  Y16  1  0.208521  0.503600  0.750035  1
  Y  Y17  1  0.708463  0.996424  0.750010  1
  Y  Y18  1  0.791509  0.496442  0.250002  1
  Y  Y19  1  0.291515  0.003554  0.249988  1
  Pb  Pb20  1  0.281111  0.032319  0.042669  1
  Pb  Pb21  1  0.781094  0.467603  0.457276  1
  Pb  Pb22  1  0.718920  0.967603  0.542727  1
  Pb  Pb23  1  0.218968  0.532451  0.957282  1
  Pb  Pb24  1  0.718810  0.967586  0.957263  1
  Pb  Pb25  1  0.218899  0.532400  0.542729  1
  Pb  Pb26  1  0.281096  0.032398  0.457267  1
  Pb  Pb27  1  0.781097  0.467606  0.042732  1
  Pb  Pb28  1  0.572006  0.626987  0.749989  1
  Pb  Pb29  1  0.072053  0.873060  0.750014  1
  Pb  Pb30  1  0.427962  0.373061  0.249994  1
  Pb  Pb31  1  0.927962  0.126937  0.250002  1
  Pb  Pb32  1  0.344313  0.150909  0.750018  1
  Pb  Pb33  1  0.844309  0.349025  0.750012  1
  Pb  Pb34  1  0.655718  0.849042  0.250001  1
  Pb  Pb35  1  0.155696  0.650947  0.250000  1
