# generated using pymatgen
data_Nd6Mg(SiSe7)2
_symmetry_space_group_name_H-M   'P 1'
_cell_length_a   10.70141900
_cell_length_b   10.70141950
_cell_length_c   6.02324500
_cell_angle_alpha   90.00000000
_cell_angle_beta   90.00000000
_cell_angle_gamma   120.00000154
_symmetry_Int_Tables_number   1
_chemical_formula_structural   Nd6Mg(SiSe7)2
_chemical_formula_sum   'Nd6 Mg1 Si2 Se14'
_cell_volume   597.37069159
_cell_formula_units_Z   1
loop_
 _symmetry_equiv_pos_site_id
 _symmetry_equiv_pos_as_xyz
  1  'x, y, z'
loop_
 _atom_site_type_symbol
 _atom_site_label
 _atom_site_symmetry_multiplicity
 _atom_site_fract_x
 _atom_site_fract_y
 _atom_site_fract_z
 _atom_site_occupancy
  Nd  Nd0  1  0.976877  0.433588  0.751861  1
  Nd  Nd1  1  0.456711  0.023123  0.751861  1
  Nd  Nd2  1  0.566412  0.543289  0.751861  1
  Nd  Nd3  1  0.689478  0.899753  0.249030  1
  Nd  Nd4  1  0.210275  0.310522  0.249030  1
  Nd  Nd5  1  0.100247  0.789725  0.249030  1
  Mg  Mg6  1  0.333333  0.666667  0.513291  1
  Si  Si7  1  0.666667  0.333333  0.165336  1
  Si  Si8  1  0.000000  0.000000  0.660627  1
  Se  Se9  1  0.666667  0.333333  0.540563  1
  Se  Se10  1  0.000000  0.000000  0.036381  1
  Se  Se11  1  0.083002  0.503773  0.274444  1
  Se  Se12  1  0.420771  0.916998  0.274444  1
  Se  Se13  1  0.496227  0.579229  0.274444  1
  Se  Se14  1  0.583237  0.831798  0.756960  1
  Se  Se15  1  0.248561  0.416763  0.756960  1
  Se  Se16  1  0.168202  0.751439  0.756960  1
  Se  Se17  1  0.813876  0.558618  0.013614  1
  Se  Se18  1  0.744742  0.186124  0.013614  1
  Se  Se19  1  0.441382  0.255258  0.013614  1
  Se  Se20  1  0.852549  0.774652  0.510037  1
  Se  Se21  1  0.922104  0.147451  0.510037  1
  Se  Se22  1  0.225348  0.077896  0.510037  1
