# generated using pymatgen
data_Ho2MgZn(SiIr2)2
_symmetry_space_group_name_H-M   'P 1'
_cell_length_a   4.04866100
_cell_length_b   4.04866800
_cell_length_c   10.77678500
_cell_angle_alpha   90.00000000
_cell_angle_beta   90.00000000
_cell_angle_gamma   90.00000000
_symmetry_Int_Tables_number   1
_chemical_formula_structural   Ho2MgZn(SiIr2)2
_chemical_formula_sum   'Ho2 Mg1 Zn1 Si2 Ir4'
_cell_volume   176.64965677
_cell_formula_units_Z   1
loop_
 _symmetry_equiv_pos_site_id
 _symmetry_equiv_pos_as_xyz
  1  'x, y, z'
loop_
 _atom_site_type_symbol
 _atom_site_label
 _atom_site_symmetry_multiplicity
 _atom_site_fract_x
 _atom_site_fract_y
 _atom_site_fract_z
 _atom_site_occupancy
  Ho  Ho0  1  0.000000  0.500000  0.239695  1
  Ho  Ho1  1  0.500000  0.000000  0.760299  1
  Mg  Mg2  1  0.000000  0.000000  0.500002  1
  Zn  Zn3  1  0.500000  0.500000  0.500000  1
  Si  Si4  1  0.000000  0.500000  0.879869  1
  Si  Si5  1  0.500000  0.000000  0.120133  1
  Ir  Ir6  1  0.000000  0.000000  0.000000  1
  Ir  Ir7  1  0.500000  0.500000  0.000001  1
  Ir  Ir8  1  0.000000  0.500000  0.663175  1
  Ir  Ir9  1  0.500000  0.000000  0.336826  1
