# generated using pymatgen
data_Nd2YHo(AsPt)4
_symmetry_space_group_name_H-M   'P 1'
_cell_length_a   4.30051500
_cell_length_b   4.30051504
_cell_length_c   15.89657700
_cell_angle_alpha   90.00000000
_cell_angle_beta   90.00000000
_cell_angle_gamma   120.00000736
_symmetry_Int_Tables_number   1
_chemical_formula_structural   Nd2YHo(AsPt)4
_chemical_formula_sum   'Nd2 Y1 Ho1 As4 Pt4'
_cell_volume   254.60982326
_cell_formula_units_Z   1
loop_
 _symmetry_equiv_pos_site_id
 _symmetry_equiv_pos_as_xyz
  1  'x, y, z'
loop_
 _atom_site_type_symbol
 _atom_site_label
 _atom_site_symmetry_multiplicity
 _atom_site_fract_x
 _atom_site_fract_y
 _atom_site_fract_z
 _atom_site_occupancy
  Nd  Nd0  1  0.000000  0.000000  0.500055  1
  Nd  Nd1  1  0.000000  0.000000  0.999947  1
  Y  Y2  1  0.000000  0.000000  0.249997  1
  Ho  Ho3  1  0.000000  0.000000  0.749988  1
  As  As4  1  0.333333  0.666667  0.880604  1
  As  As5  1  0.666667  0.333333  0.119336  1
  As  As6  1  0.666667  0.333333  0.380672  1
  As  As7  1  0.333333  0.666667  0.619393  1
  Pt  Pt8  1  0.333333  0.666667  0.360246  1
  Pt  Pt9  1  0.666667  0.333333  0.640675  1
  Pt  Pt10  1  0.666667  0.333333  0.859338  1
  Pt  Pt11  1  0.333333  0.666667  0.139747  1
