# generated using pymatgen
data_Hf6Ti2Ge6MoWC2
_symmetry_space_group_name_H-M   'P 1'
_cell_length_a   7.80409700
_cell_length_b   7.80409876
_cell_length_c   5.40873200
_cell_angle_alpha   90.00000000
_cell_angle_beta   90.00000000
_cell_angle_gamma   119.99999678
_symmetry_Int_Tables_number   1
_chemical_formula_structural   Hf6Ti2Ge6MoWC2
_chemical_formula_sum   'Hf6 Ti2 Ge6 Mo1 W1 C2'
_cell_volume   285.28013031
_cell_formula_units_Z   1
loop_
 _symmetry_equiv_pos_site_id
 _symmetry_equiv_pos_as_xyz
  1  'x, y, z'
loop_
 _atom_site_type_symbol
 _atom_site_label
 _atom_site_symmetry_multiplicity
 _atom_site_fract_x
 _atom_site_fract_y
 _atom_site_fract_z
 _atom_site_occupancy
  Hf  Hf0  1  0.765156  0.000225  0.749947  1
  Hf  Hf1  1  0.765156  0.764930  0.250053  1
  Hf  Hf2  1  0.999775  0.234844  0.250053  1
  Hf  Hf3  1  0.999775  0.764930  0.749947  1
  Hf  Hf4  1  0.235070  0.234844  0.749947  1
  Hf  Hf5  1  0.235070  0.000225  0.250053  1
  Ti  Ti6  1  0.666667  0.333333  0.000000  1
  Ti  Ti7  1  0.333333  0.666667  0.500000  1
  Ge  Ge8  1  0.407014  0.999927  0.750028  1
  Ge  Ge9  1  0.407014  0.407087  0.249972  1
  Ge  Ge10  1  0.000073  0.592986  0.249972  1
  Ge  Ge11  1  0.000073  0.407087  0.750028  1
  Ge  Ge12  1  0.592913  0.592986  0.750028  1
  Ge  Ge13  1  0.592913  0.999927  0.249972  1
  Mo  Mo14  1  0.333333  0.666667  0.000000  1
  W  W15  1  0.666667  0.333333  0.500000  1
  C  C16  1  0.000000  0.000000  0.500000  1
  C  C17  1  0.000000  0.000000  0.000000  1
