# generated using pymatgen
data_Ba2Ca3(GaSb3)2
_symmetry_space_group_name_H-M   'P 1'
_cell_length_a   4.73794600
_cell_length_b   12.56448800
_cell_length_c   14.20989100
_cell_angle_alpha   90.00000000
_cell_angle_beta   90.00000000
_cell_angle_gamma   90.00000000
_symmetry_Int_Tables_number   1
_chemical_formula_structural   Ba2Ca3(GaSb3)2
_chemical_formula_sum   'Ba4 Ca6 Ga4 Sb12'
_cell_volume   845.91290230
_cell_formula_units_Z   2
loop_
 _symmetry_equiv_pos_site_id
 _symmetry_equiv_pos_as_xyz
  1  'x, y, z'
loop_
 _atom_site_type_symbol
 _atom_site_label
 _atom_site_symmetry_multiplicity
 _atom_site_fract_x
 _atom_site_fract_y
 _atom_site_fract_z
 _atom_site_occupancy
  Ba  Ba0  1  0.500000  0.675208  0.472948  1
  Ba  Ba1  1  0.500000  0.324792  0.527052  1
  Ba  Ba2  1  0.500000  0.824792  0.972948  1
  Ba  Ba3  1  0.500000  0.175208  0.027052  1
  Ca  Ca4  1  0.500000  0.000000  0.500000  1
  Ca  Ca5  1  0.500000  0.500000  0.000000  1
  Ca  Ca6  1  0.500000  0.910929  0.246723  1
  Ca  Ca7  1  0.500000  0.089071  0.753277  1
  Ca  Ca8  1  0.500000  0.410929  0.253277  1
  Ca  Ca9  1  0.500000  0.589071  0.746723  1
  Ga  Ga10  1  0.000000  0.318713  0.712568  1
  Ga  Ga11  1  0.000000  0.681287  0.287432  1
  Ga  Ga12  1  0.000000  0.818713  0.787432  1
  Ga  Ga13  1  0.000000  0.181287  0.212568  1
  Sb  Sb14  1  0.000000  0.983505  0.102269  1
  Sb  Sb15  1  0.000000  0.016495  0.897731  1
  Sb  Sb16  1  0.000000  0.483505  0.397731  1
  Sb  Sb17  1  0.000000  0.516495  0.602269  1
  Sb  Sb18  1  0.500000  0.159079  0.313207  1
  Sb  Sb19  1  0.500000  0.840921  0.686793  1
  Sb  Sb20  1  0.500000  0.659079  0.186793  1
  Sb  Sb21  1  0.500000  0.340921  0.813207  1
  Sb  Sb22  1  0.000000  0.364750  0.105045  1
  Sb  Sb23  1  0.000000  0.635250  0.894955  1
  Sb  Sb24  1  0.000000  0.864750  0.394955  1
  Sb  Sb25  1  0.000000  0.135250  0.605045  1
