# generated using pymatgen
data_TbDyCo12AsP6
_symmetry_space_group_name_H-M   'P 1'
_cell_length_a   9.08463300
_cell_length_b   9.08463292
_cell_length_c   3.57957100
_cell_angle_alpha   90.00000000
_cell_angle_beta   90.00000000
_cell_angle_gamma   120.00001123
_symmetry_Int_Tables_number   1
_chemical_formula_structural   TbDyCo12AsP6
_chemical_formula_sum   'Tb1 Dy1 Co12 As1 P6'
_cell_volume   255.84464681
_cell_formula_units_Z   1
loop_
 _symmetry_equiv_pos_site_id
 _symmetry_equiv_pos_as_xyz
  1  'x, y, z'
loop_
 _atom_site_type_symbol
 _atom_site_label
 _atom_site_symmetry_multiplicity
 _atom_site_fract_x
 _atom_site_fract_y
 _atom_site_fract_z
 _atom_site_occupancy
  Tb  Tb0  1  0.333333  0.666667  0.500000  1
  Dy  Dy1  1  0.000000  0.000000  0.000000  1
  Co  Co2  1  0.102271  0.393672  0.000000  1
  Co  Co3  1  0.606328  0.708599  0.000000  1
  Co  Co4  1  0.291401  0.897729  0.000000  1
  Co  Co5  1  0.051578  0.771331  0.500000  1
  Co  Co6  1  0.228669  0.280247  0.500000  1
  Co  Co7  1  0.719753  0.948422  0.500000  1
  Co  Co8  1  0.825362  0.616171  0.000000  1
  Co  Co9  1  0.383829  0.209192  0.000000  1
  Co  Co10  1  0.790808  0.174638  0.000000  1
  Co  Co11  1  0.915867  0.443597  0.500000  1
  Co  Co12  1  0.556403  0.472270  0.500000  1
  Co  Co13  1  0.527730  0.084133  0.500000  1
  As  As14  1  0.666667  0.333333  0.000000  1
  P  P15  1  0.778211  0.737253  0.500000  1
  P  P16  1  0.262747  0.040959  0.500000  1
  P  P17  1  0.959041  0.221789  0.500000  1
  P  P18  1  0.073112  0.627662  0.000000  1
  P  P19  1  0.372338  0.445449  0.000000  1
  P  P20  1  0.554551  0.926888  0.000000  1
