# generated using pymatgen
data_Ta3Ni2(B2Mo)3
_symmetry_space_group_name_H-M   'P 1'
_cell_length_a   3.23110500
_cell_length_b   4.57278505
_cell_length_c   10.94849405
_cell_angle_alpha   89.98917016
_cell_angle_beta   90.00000000
_cell_angle_gamma   110.68913107
_symmetry_Int_Tables_number   1
_chemical_formula_structural   Ta3Ni2(B2Mo)3
_chemical_formula_sum   'Ta3 Ni2 B6 Mo3'
_cell_volume   151.33353129
_cell_formula_units_Z   1
loop_
 _symmetry_equiv_pos_site_id
 _symmetry_equiv_pos_as_xyz
  1  'x, y, z'
loop_
 _atom_site_type_symbol
 _atom_site_label
 _atom_site_symmetry_multiplicity
 _atom_site_fract_x
 _atom_site_fract_y
 _atom_site_fract_z
 _atom_site_occupancy
  Ta  Ta0  1  0.208821  0.417641  0.393337  1
  Ta  Ta1  1  0.792577  0.585155  0.608227  1
  Ta  Ta2  1  0.209883  0.419764  0.103722  1
  Ni  Ni3  1  0.500470  0.000940  0.500583  1
  Ni  Ni4  1  0.498597  0.997194  0.998301  1
  B  B5  1  0.912575  0.825150  0.392849  1
  B  B6  1  0.088698  0.177395  0.607586  1
  B  B7  1  0.913782  0.827563  0.105638  1
  B  B8  1  0.086422  0.172845  0.894849  1
  B  B9  1  0.793380  0.586759  0.248487  1
  B  B10  1  0.207572  0.415145  0.751949  1
  Mo  Mo11  1  0.786912  0.573824  0.892920  1
  Mo  Mo12  1  0.499309  0.998618  0.250255  1
  Mo  Mo13  1  0.501002  0.002005  0.751298  1
