# generated using pymatgen
data_Ho2CrFeO6
_symmetry_space_group_name_H-M   'P 1'
_cell_length_a   5.29944332
_cell_length_b   5.61386300
_cell_length_c   7.66110349
_cell_angle_alpha   90.00000000
_cell_angle_beta   90.04052337
_cell_angle_gamma   90.00000000
_symmetry_Int_Tables_number   1
_chemical_formula_structural   Ho2CrFeO6
_chemical_formula_sum   'Ho4 Cr2 Fe2 O12'
_cell_volume   227.92044399
_cell_formula_units_Z   2
loop_
 _symmetry_equiv_pos_site_id
 _symmetry_equiv_pos_as_xyz
  1  'x, y, z'
loop_
 _atom_site_type_symbol
 _atom_site_label
 _atom_site_symmetry_multiplicity
 _atom_site_fract_x
 _atom_site_fract_y
 _atom_site_fract_z
 _atom_site_occupancy
  Ho  Ho0  1  0.519249  0.568619  0.250102  1
  Ho  Ho1  1  0.980751  0.068619  0.249898  1
  Ho  Ho2  1  0.480751  0.431381  0.749898  1
  Ho  Ho3  1  0.019249  0.931381  0.750102  1
  Cr  Cr4  1  0.000000  0.500000  0.500000  1
  Cr  Cr5  1  0.500000  0.000000  0.000000  1
  Fe  Fe6  1  0.000000  0.500000  0.000000  1
  Fe  Fe7  1  0.500000  0.000000  0.500000  1
  O  O8  1  0.384528  0.957542  0.249494  1
  O  O9  1  0.115472  0.457542  0.250506  1
  O  O10  1  0.615472  0.042458  0.750506  1
  O  O11  1  0.884528  0.542458  0.749494  1
  O  O12  1  0.808489  0.805077  0.059101  1
  O  O13  1  0.691511  0.305077  0.440899  1
  O  O14  1  0.190611  0.195753  0.558980  1
  O  O15  1  0.309389  0.695753  0.941020  1
  O  O16  1  0.191511  0.194923  0.940899  1
  O  O17  1  0.308489  0.694923  0.559101  1
  O  O18  1  0.809389  0.804247  0.441020  1
  O  O19  1  0.690611  0.304247  0.058980  1
