# generated using pymatgen
data_Sr4La3Ho(In4Au3)4
_symmetry_space_group_name_H-M   'P 1'
_cell_length_a   15.47001100
_cell_length_b   15.37553431
_cell_length_c   4.44573600
_cell_angle_alpha   90.00000000
_cell_angle_beta   90.00000000
_cell_angle_gamma   120.20347329
_symmetry_Int_Tables_number   1
_chemical_formula_structural   Sr4La3Ho(In4Au3)4
_chemical_formula_sum   'Sr4 La3 Ho1 In16 Au12'
_cell_volume   913.90496421
_cell_formula_units_Z   1
loop_
 _symmetry_equiv_pos_site_id
 _symmetry_equiv_pos_as_xyz
  1  'x, y, z'
loop_
 _atom_site_type_symbol
 _atom_site_label
 _atom_site_symmetry_multiplicity
 _atom_site_fract_x
 _atom_site_fract_y
 _atom_site_fract_z
 _atom_site_occupancy
  Sr  Sr0  1  0.336388  0.671997  0.000000  1
  Sr  Sr1  1  0.664392  0.328003  0.000000  1
  Sr  Sr2  1  0.001975  0.819832  0.500000  1
  Sr  Sr3  1  0.182144  0.180168  0.500000  1
  La  La4  1  0.000814  0.451646  0.000000  1
  La  La5  1  0.549169  0.548354  0.000000  1
  La  La6  1  0.814349  0.000000  0.500000  1
  Ho  Ho7  1  0.449384  0.000000  0.000000  1
  In  In8  1  0.181689  0.376343  0.000000  1
  In  In9  1  0.627108  0.809324  0.000000  1
  In  In10  1  0.376121  0.178904  0.000000  1
  In  In11  1  0.197216  0.821096  0.000000  1
  In  In12  1  0.805347  0.623657  0.000000  1
  In  In13  1  0.817784  0.190676  0.000000  1
  In  In14  1  0.283369  0.000000  0.500000  1
  In  In15  1  0.998842  0.284058  0.500000  1
  In  In16  1  0.714783  0.715942  0.500000  1
  In  In17  1  0.351100  0.475235  0.500000  1
  In  In18  1  0.522898  0.875903  0.500000  1
  In  In19  1  0.478346  0.347084  0.500000  1
  In  In20  1  0.131261  0.652916  0.500000  1
  In  In21  1  0.875865  0.524765  0.500000  1
  In  In22  1  0.646995  0.124097  0.500000  1
  In  In23  1  0.996871  0.000000  0.000000  1
  Au  Au24  1  0.173135  0.492682  0.500000  1
  Au  Au25  1  0.509435  0.681415  0.500000  1
  Au  Au26  1  0.488037  0.161435  0.500000  1
  Au  Au27  1  0.326602  0.838565  0.500000  1
  Au  Au28  1  0.680453  0.507318  0.500000  1
  Au  Au29  1  0.828020  0.318585  0.500000  1
  Au  Au30  1  0.172974  0.000000  0.000000  1
  Au  Au31  1  0.998706  0.175438  0.000000  1
  Au  Au32  1  0.823268  0.824562  0.000000  1
  Au  Au33  1  0.649220  0.000000  0.000000  1
  Au  Au34  1  0.001542  0.657142  0.000000  1
  Au  Au35  1  0.344401  0.342858  0.000000  1
