# generated using pymatgen
data_RbLuSiS4
_symmetry_space_group_name_H-M   'P 1'
_cell_length_a   6.63877000
_cell_length_b   6.34209333
_cell_length_c   9.01452058
_cell_angle_alpha   72.31572016
_cell_angle_beta   90.00000000
_cell_angle_gamma   90.00000000
_symmetry_Int_Tables_number   1
_chemical_formula_structural   RbLuSiS4
_chemical_formula_sum   'Rb2 Lu2 Si2 S8'
_cell_volume   361.60922569
_cell_formula_units_Z   2
loop_
 _symmetry_equiv_pos_site_id
 _symmetry_equiv_pos_as_xyz
  1  'x, y, z'
loop_
 _atom_site_type_symbol
 _atom_site_label
 _atom_site_symmetry_multiplicity
 _atom_site_fract_x
 _atom_site_fract_y
 _atom_site_fract_z
 _atom_site_occupancy
  Rb  Rb0  1  0.977320  0.729937  0.065833  1
  Rb  Rb1  1  0.477320  0.270063  0.934167  1
  Lu  Lu2  1  0.501925  0.229438  0.453807  1
  Lu  Lu3  1  0.001925  0.770562  0.546193  1
  Si  Si4  1  0.462607  0.778878  0.335608  1
  Si  Si5  1  0.962607  0.221122  0.664392  1
  S  S6  1  0.468114  0.578597  0.186368  1
  S  S7  1  0.231095  0.024237  0.292233  1
  S  S8  1  0.727872  0.979008  0.313784  1
  S  S9  1  0.898068  0.429741  0.435474  1
  S  S10  1  0.398068  0.570259  0.564526  1
  S  S11  1  0.227872  0.020992  0.686216  1
  S  S12  1  0.731095  0.975763  0.707767  1
  S  S13  1  0.968114  0.421403  0.813632  1
