# generated using pymatgen
data_PuCu2Pd5
_symmetry_space_group_name_H-M   'P 1'
_cell_length_a   4.18709884
_cell_length_b   4.18709841
_cell_length_c   7.68987172
_cell_angle_alpha   105.79805974
_cell_angle_beta   105.79805724
_cell_angle_gamma   89.99999777
_symmetry_Int_Tables_number   1
_chemical_formula_structural   PuCu2Pd5
_chemical_formula_sum   'Pu1 Cu2 Pd5'
_cell_volume   124.42416119
_cell_formula_units_Z   1
loop_
 _symmetry_equiv_pos_site_id
 _symmetry_equiv_pos_as_xyz
  1  'x, y, z'
loop_
 _atom_site_type_symbol
 _atom_site_label
 _atom_site_symmetry_multiplicity
 _atom_site_fract_x
 _atom_site_fract_y
 _atom_site_fract_z
 _atom_site_occupancy
  Pu  Pu0  1  0.000000  0.000000  0.000000  1
  Cu  Cu1  1  0.749211  0.749211  0.498420  1
  Cu  Cu2  1  0.250790  0.250790  0.501580  1
  Pd  Pd3  1  0.500001  0.500001  0.000000  1
  Pd  Pd4  1  0.639311  0.139310  0.278621  1
  Pd  Pd5  1  0.139310  0.639311  0.278621  1
  Pd  Pd6  1  0.860690  0.360690  0.721380  1
  Pd  Pd7  1  0.360690  0.860690  0.721380  1
