# generated using pymatgen
data_SmBe12Ni
_symmetry_space_group_name_H-M   'P 1'
_cell_length_a   7.27135729
_cell_length_b   7.31141901
_cell_length_c   7.28704499
_cell_angle_alpha   60.46825244
_cell_angle_beta   60.29291995
_cell_angle_gamma   59.95983898
_symmetry_Int_Tables_number   1
_chemical_formula_structural   SmBe12Ni
_chemical_formula_sum   'Sm2 Be24 Ni2'
_cell_volume   275.41817197
_cell_formula_units_Z   2
loop_
 _symmetry_equiv_pos_site_id
 _symmetry_equiv_pos_as_xyz
  1  'x, y, z'
loop_
 _atom_site_type_symbol
 _atom_site_label
 _atom_site_symmetry_multiplicity
 _atom_site_fract_x
 _atom_site_fract_y
 _atom_site_fract_z
 _atom_site_occupancy
  Sm  Sm0  1  0.250581  0.249419  0.249419  1
  Sm  Sm1  1  0.749419  0.750581  0.750581  1
  Be  Be2  1  0.000000  0.000000  0.000000  1
  Be  Be3  1  0.500000  0.500000  0.500000  1
  Be  Be4  1  0.067664  0.288335  0.711665  1
  Be  Be5  1  0.932336  0.711665  0.288335  1
  Be  Be6  1  0.936743  0.291388  0.063987  1
  Be  Be7  1  0.211727  0.436538  0.787550  1
  Be  Be8  1  0.063257  0.708612  0.936013  1
  Be  Be9  1  0.788273  0.563462  0.212450  1
  Be  Be10  1  0.707882  0.063987  0.291388  1
  Be  Be11  1  0.435814  0.212450  0.563462  1
  Be  Be12  1  0.292118  0.936013  0.708612  1
  Be  Be13  1  0.564186  0.787550  0.436538  1
  Be  Be14  1  0.062032  0.935616  0.294899  1
  Be  Be15  1  0.566370  0.213776  0.786224  1
  Be  Be16  1  0.937968  0.064384  0.705101  1
  Be  Be17  1  0.433630  0.786224  0.213776  1
  Be  Be18  1  0.707452  0.294899  0.935616  1
  Be  Be19  1  0.210085  0.566238  0.433762  1
  Be  Be20  1  0.292548  0.705101  0.064384  1
  Be  Be21  1  0.789915  0.433762  0.566238  1
  Be  Be22  1  0.787085  0.216216  0.431584  1
  Be  Be23  1  0.212915  0.783784  0.568416  1
  Be  Be24  1  0.565115  0.431584  0.216216  1
  Be  Be25  1  0.434885  0.568416  0.783784  1
  Ni  Ni26  1  0.296702  0.060016  0.939984  1
  Ni  Ni27  1  0.703298  0.939984  0.060016  1
