# generated using pymatgen
data_TcSbOF9
_symmetry_space_group_name_H-M   'P 1'
_cell_length_a   10.21760800
_cell_length_b   5.64002373
_cell_length_c   12.65356300
_cell_angle_alpha   80.70825974
_cell_angle_beta   90.00000000
_cell_angle_gamma   90.00000000
_symmetry_Int_Tables_number   1
_chemical_formula_structural   TcSbOF9
_chemical_formula_sum   'Tc4 Sb4 O4 F36'
_cell_volume   719.62610470
_cell_formula_units_Z   4
loop_
 _symmetry_equiv_pos_site_id
 _symmetry_equiv_pos_as_xyz
  1  'x, y, z'
loop_
 _atom_site_type_symbol
 _atom_site_label
 _atom_site_symmetry_multiplicity
 _atom_site_fract_x
 _atom_site_fract_y
 _atom_site_fract_z
 _atom_site_occupancy
  Tc  Tc0  1  0.975425  0.669356  0.207983  1
  Tc  Tc1  1  0.475425  0.330644  0.292017  1
  Tc  Tc2  1  0.024575  0.330644  0.792017  1
  Tc  Tc3  1  0.524575  0.669356  0.707983  1
  Sb  Sb4  1  0.742363  0.014157  0.001827  1
  Sb  Sb5  1  0.242363  0.985843  0.498173  1
  Sb  Sb6  1  0.257637  0.985843  0.998173  1
  Sb  Sb7  1  0.757637  0.014157  0.501827  1
  O  O8  1  0.844783  0.510520  0.251469  1
  O  O9  1  0.344783  0.489480  0.248531  1
  O  O10  1  0.155217  0.489480  0.748531  1
  O  O11  1  0.655217  0.510520  0.751469  1
  F  F12  1  0.903823  0.802353  0.058161  1
  F  F13  1  0.403823  0.197647  0.441839  1
  F  F14  1  0.096177  0.197647  0.941839  1
  F  F15  1  0.596177  0.802353  0.558161  1
  F  F16  1  0.943351  0.974745  0.240297  1
  F  F17  1  0.443351  0.025255  0.259703  1
  F  F18  1  0.056649  0.025255  0.759703  1
  F  F19  1  0.556649  0.974745  0.740297  1
  F  F20  1  0.849116  0.092558  0.872139  1
  F  F21  1  0.349116  0.907442  0.627861  1
  F  F22  1  0.150884  0.907442  0.127861  1
  F  F23  1  0.650884  0.092558  0.372139  1
  F  F24  1  0.073169  0.459624  0.140088  1
  F  F25  1  0.573169  0.540376  0.359912  1
  F  F26  1  0.926831  0.540376  0.859912  1
  F  F27  1  0.426831  0.459624  0.640088  1
  F  F28  1  0.829833  0.265053  0.055630  1
  F  F29  1  0.329833  0.734947  0.444370  1
  F  F30  1  0.170167  0.734947  0.944370  1
  F  F31  1  0.670167  0.265053  0.555630  1
  F  F32  1  0.601100  0.208981  0.944371  1
  F  F33  1  0.101100  0.791019  0.555629  1
  F  F34  1  0.398900  0.791019  0.055629  1
  F  F35  1  0.898900  0.208981  0.444371  1
  F  F36  1  0.087611  0.611090  0.323755  1
  F  F37  1  0.587611  0.388910  0.176245  1
  F  F38  1  0.912389  0.388910  0.676245  1
  F  F39  1  0.412389  0.611090  0.823755  1
  F  F40  1  0.669793  0.898976  0.138089  1
  F  F41  1  0.169793  0.101024  0.361911  1
  F  F42  1  0.330207  0.101024  0.861911  1
  F  F43  1  0.830207  0.898976  0.638089  1
  F  F44  1  0.685266  0.741284  0.945786  1
  F  F45  1  0.185266  0.258716  0.554214  1
  F  F46  1  0.314734  0.258716  0.054214  1
  F  F47  1  0.814734  0.741284  0.445786  1
