# generated using pymatgen
data_HoEr3OsWC4
_symmetry_space_group_name_H-M   'P 1'
_cell_length_a   5.06451800
_cell_length_b   6.56326334
_cell_length_c   9.83817403
_cell_angle_alpha   89.16394680
_cell_angle_beta   90.00000000
_cell_angle_gamma   90.00000000
_symmetry_Int_Tables_number   1
_chemical_formula_structural   HoEr3OsWC4
_chemical_formula_sum   'Ho2 Er6 Os2 W2 C8'
_cell_volume   326.98378188
_cell_formula_units_Z   2
loop_
 _symmetry_equiv_pos_site_id
 _symmetry_equiv_pos_as_xyz
  1  'x, y, z'
loop_
 _atom_site_type_symbol
 _atom_site_label
 _atom_site_symmetry_multiplicity
 _atom_site_fract_x
 _atom_site_fract_y
 _atom_site_fract_z
 _atom_site_occupancy
  Ho  Ho0  1  0.750000  0.969497  0.717506  1
  Ho  Ho1  1  0.250000  0.030503  0.282494  1
  Er  Er2  1  0.250000  0.678795  0.557259  1
  Er  Er3  1  0.750000  0.321205  0.442741  1
  Er  Er4  1  0.750000  0.822950  0.057830  1
  Er  Er5  1  0.250000  0.177050  0.942170  1
  Er  Er6  1  0.250000  0.537865  0.218796  1
  Er  Er7  1  0.750000  0.462135  0.781204  1
  Os  Os8  1  0.750000  0.778854  0.367412  1
  Os  Os9  1  0.250000  0.221146  0.632588  1
  W  W10  1  0.250000  0.716557  0.868453  1
  W  W11  1  0.750000  0.283443  0.131547  1
  C  C12  1  0.250000  0.450636  0.758161  1
  C  C13  1  0.750000  0.549364  0.241839  1
  C  C14  1  0.750000  0.045943  0.259978  1
  C  C15  1  0.250000  0.954057  0.740022  1
  C  C16  1  0.250000  0.825766  0.054930  1
  C  C17  1  0.750000  0.174234  0.945070  1
  C  C18  1  0.750000  0.674849  0.550735  1
  C  C19  1  0.250000  0.325151  0.449265  1
