# generated using pymatgen
data_Hf4ReNi
_symmetry_space_group_name_H-M   'P 1'
_cell_length_a   8.67285633
_cell_length_b   8.67285663
_cell_length_c   8.67285700
_cell_angle_alpha   60.00000241
_cell_angle_beta   60.00000126
_cell_angle_gamma   60.00000199
_symmetry_Int_Tables_number   1
_chemical_formula_structural   Hf4ReNi
_chemical_formula_sum   'Hf16 Re4 Ni4'
_cell_volume   461.28732966
_cell_formula_units_Z   4
loop_
 _symmetry_equiv_pos_site_id
 _symmetry_equiv_pos_as_xyz
  1  'x, y, z'
loop_
 _atom_site_type_symbol
 _atom_site_label
 _atom_site_symmetry_multiplicity
 _atom_site_fract_x
 _atom_site_fract_y
 _atom_site_fract_z
 _atom_site_occupancy
  Hf  Hf0  1  0.689666  0.103444  0.103444  1
  Hf  Hf1  1  0.103444  0.689666  0.103444  1
  Hf  Hf2  1  0.103444  0.103444  0.689666  1
  Hf  Hf3  1  0.103444  0.103444  0.103444  1
  Hf  Hf4  1  0.315869  0.315869  0.684131  1
  Hf  Hf5  1  0.684131  0.684131  0.315869  1
  Hf  Hf6  1  0.315869  0.684131  0.315869  1
  Hf  Hf7  1  0.684131  0.315869  0.684131  1
  Hf  Hf8  1  0.684131  0.315869  0.315869  1
  Hf  Hf9  1  0.315869  0.684131  0.684131  1
  Hf  Hf10  1  0.955740  0.955740  0.544260  1
  Hf  Hf11  1  0.544260  0.544260  0.955740  1
  Hf  Hf12  1  0.955740  0.544260  0.955740  1
  Hf  Hf13  1  0.544260  0.955740  0.544260  1
  Hf  Hf14  1  0.544260  0.955740  0.955740  1
  Hf  Hf15  1  0.955740  0.544260  0.544260  1
  Re  Re16  1  0.001046  0.332984  0.332984  1
  Re  Re17  1  0.332984  0.001046  0.332984  1
  Re  Re18  1  0.332984  0.332984  0.001046  1
  Re  Re19  1  0.332984  0.332984  0.332984  1
  Ni  Ni20  1  0.326913  0.891029  0.891029  1
  Ni  Ni21  1  0.891029  0.326913  0.891029  1
  Ni  Ni22  1  0.891029  0.891029  0.326913  1
  Ni  Ni23  1  0.891029  0.891029  0.891029  1
