# generated using pymatgen
data_Sc4Al20Re5Ir
_symmetry_space_group_name_H-M   'P 1'
_cell_length_a   8.85721400
_cell_length_b   8.85721400
_cell_length_c   6.18926000
_cell_angle_alpha   90.00000000
_cell_angle_beta   90.00000000
_cell_angle_gamma   90.00000000
_symmetry_Int_Tables_number   1
_chemical_formula_structural   Sc4Al20Re5Ir
_chemical_formula_sum   'Sc4 Al20 Re5 Ir1'
_cell_volume   485.54893144
_cell_formula_units_Z   1
loop_
 _symmetry_equiv_pos_site_id
 _symmetry_equiv_pos_as_xyz
  1  'x, y, z'
loop_
 _atom_site_type_symbol
 _atom_site_label
 _atom_site_symmetry_multiplicity
 _atom_site_fract_x
 _atom_site_fract_y
 _atom_site_fract_z
 _atom_site_occupancy
  Sc  Sc0  1  0.186217  0.678662  0.000000  1
  Sc  Sc1  1  0.813783  0.321338  0.000000  1
  Sc  Sc2  1  0.678662  0.813783  0.000000  1
  Sc  Sc3  1  0.321338  0.186217  0.000000  1
  Al  Al4  1  0.060815  0.206023  0.715815  1
  Al  Al5  1  0.939185  0.793977  0.715815  1
  Al  Al6  1  0.560441  0.295433  0.713902  1
  Al  Al7  1  0.439559  0.704567  0.713902  1
  Al  Al8  1  0.793977  0.060815  0.715815  1
  Al  Al9  1  0.206023  0.939185  0.715815  1
  Al  Al10  1  0.704567  0.560441  0.713902  1
  Al  Al11  1  0.295433  0.439559  0.713902  1
  Al  Al12  1  0.939185  0.793977  0.284185  1
  Al  Al13  1  0.060815  0.206023  0.284185  1
  Al  Al14  1  0.439559  0.704567  0.286098  1
  Al  Al15  1  0.560441  0.295433  0.286098  1
  Al  Al16  1  0.206023  0.939185  0.284185  1
  Al  Al17  1  0.793977  0.060815  0.284185  1
  Al  Al18  1  0.295433  0.439559  0.286098  1
  Al  Al19  1  0.704567  0.560441  0.286098  1
  Al  Al20  1  0.000000  0.500000  0.715632  1
  Al  Al21  1  0.500000  0.000000  0.715632  1
  Al  Al22  1  0.000000  0.500000  0.284368  1
  Al  Al23  1  0.500000  0.000000  0.284368  1
  Re  Re24  1  0.176858  0.681365  0.500000  1
  Re  Re25  1  0.823142  0.318635  0.500000  1
  Re  Re26  1  0.681365  0.823142  0.500000  1
  Re  Re27  1  0.318635  0.176858  0.500000  1
  Re  Re28  1  0.500000  0.500000  0.000000  1
  Ir  Ir29  1  0.000000  0.000000  0.000000  1
