# generated using pymatgen
data_TbDyBe2(Co3B)2
_symmetry_space_group_name_H-M   'P 1'
_cell_length_a   5.01793902
_cell_length_b   5.01791712
_cell_length_c   6.36966300
_cell_angle_alpha   90.00000000
_cell_angle_beta   90.00000000
_cell_angle_gamma   120.01055447
_symmetry_Int_Tables_number   1
_chemical_formula_structural   TbDyBe2(Co3B)2
_chemical_formula_sum   'Tb1 Dy1 Be2 Co6 B2'
_cell_volume   138.88321184
_cell_formula_units_Z   1
loop_
 _symmetry_equiv_pos_site_id
 _symmetry_equiv_pos_as_xyz
  1  'x, y, z'
loop_
 _atom_site_type_symbol
 _atom_site_label
 _atom_site_symmetry_multiplicity
 _atom_site_fract_x
 _atom_site_fract_y
 _atom_site_fract_z
 _atom_site_occupancy
  Tb  Tb0  1  0.999981  0.999999  0.000000  1
  Dy  Dy1  1  0.999985  0.000000  0.500000  1
  Be  Be2  1  0.333455  0.666867  0.000000  1
  Be  Be3  1  0.666509  0.333131  0.000000  1
  Co  Co4  1  0.499983  0.000001  0.275761  1
  Co  Co5  1  0.499983  0.500000  0.275744  1
  Co  Co6  1  0.999983  0.500000  0.275710  1
  Co  Co7  1  0.499983  0.000001  0.724239  1
  Co  Co8  1  0.499983  0.500000  0.724255  1
  Co  Co9  1  0.999983  0.500000  0.724289  1
  B  B10  1  0.333262  0.666628  0.500000  1
  B  B11  1  0.666710  0.333376  0.500000  1
