# generated using pymatgen
data_Tm12Co4HgRh
_symmetry_space_group_name_H-M   'P 1'
_cell_length_a   8.16827821
_cell_length_b   8.16827797
_cell_length_c   8.16827782
_cell_angle_alpha   110.77499689
_cell_angle_beta   110.85415924
_cell_angle_gamma   106.81667608
_symmetry_Int_Tables_number   1
_chemical_formula_structural   Tm12Co4HgRh
_chemical_formula_sum   'Tm12 Co4 Hg1 Rh1'
_cell_volume   418.86476734
_cell_formula_units_Z   1
loop_
 _symmetry_equiv_pos_site_id
 _symmetry_equiv_pos_as_xyz
  1  'x, y, z'
loop_
 _atom_site_type_symbol
 _atom_site_label
 _atom_site_symmetry_multiplicity
 _atom_site_fract_x
 _atom_site_fract_y
 _atom_site_fract_z
 _atom_site_occupancy
  Tm  Tm0  1  0.585552  0.279921  0.305631  1
  Tm  Tm1  1  0.184134  0.214268  0.398401  1
  Tm  Tm2  1  0.184134  0.785732  0.969867  1
  Tm  Tm3  1  0.684887  0.490877  0.805990  1
  Tm  Tm4  1  0.684887  0.878897  0.194010  1
  Tm  Tm5  1  0.974290  0.279921  0.694369  1
  Tm  Tm6  1  0.025710  0.720079  0.305631  1
  Tm  Tm7  1  0.315113  0.121103  0.805990  1
  Tm  Tm8  1  0.315113  0.509123  0.194010  1
  Tm  Tm9  1  0.815866  0.214268  0.030133  1
  Tm  Tm10  1  0.815866  0.785732  0.601599  1
  Tm  Tm11  1  0.414448  0.720079  0.694369  1
  Co  Co12  1  0.887006  0.887006  0.000000  1
  Co  Co13  1  0.375669  0.500000  0.875669  1
  Co  Co14  1  0.624331  0.500000  0.124331  1
  Co  Co15  1  0.112994  0.112994  0.000000  1
  Hg  Hg16  1  0.500000  0.000000  0.500000  1
  Rh  Rh17  1  0.000000  0.500000  0.500000  1
