# generated using pymatgen
data_Gd6Y4CoHg3
_symmetry_space_group_name_H-M   'P 1'
_cell_length_a   9.59469200
_cell_length_b   9.59469285
_cell_length_c   9.48809400
_cell_angle_alpha   90.00000000
_cell_angle_beta   90.00000000
_cell_angle_gamma   119.99999705
_symmetry_Int_Tables_number   1
_chemical_formula_structural   Gd6Y4CoHg3
_chemical_formula_sum   'Gd12 Y8 Co2 Hg6'
_cell_volume   756.43521348
_cell_formula_units_Z   2
loop_
 _symmetry_equiv_pos_site_id
 _symmetry_equiv_pos_as_xyz
  1  'x, y, z'
loop_
 _atom_site_type_symbol
 _atom_site_label
 _atom_site_symmetry_multiplicity
 _atom_site_fract_x
 _atom_site_fract_y
 _atom_site_fract_z
 _atom_site_occupancy
  Gd  Gd0  1  0.210679  0.789321  0.437003  1
  Gd  Gd1  1  0.210679  0.421361  0.437003  1
  Gd  Gd2  1  0.578639  0.789321  0.437003  1
  Gd  Gd3  1  0.789321  0.210679  0.562997  1
  Gd  Gd4  1  0.789321  0.578639  0.562997  1
  Gd  Gd5  1  0.421361  0.210679  0.562997  1
  Gd  Gd6  1  0.789321  0.210679  0.937003  1
  Gd  Gd7  1  0.789321  0.578639  0.937003  1
  Gd  Gd8  1  0.421361  0.210679  0.937003  1
  Gd  Gd9  1  0.210679  0.789321  0.062997  1
  Gd  Gd10  1  0.210679  0.421361  0.062997  1
  Gd  Gd11  1  0.578639  0.789321  0.062997  1
  Y  Y12  1  0.000000  0.000000  0.500000  1
  Y  Y13  1  0.000000  0.000000  0.000000  1
  Y  Y14  1  0.542990  0.457010  0.250000  1
  Y  Y15  1  0.542990  0.085980  0.250000  1
  Y  Y16  1  0.914020  0.457010  0.250000  1
  Y  Y17  1  0.457010  0.542990  0.750000  1
  Y  Y18  1  0.457010  0.914020  0.750000  1
  Y  Y19  1  0.085980  0.542990  0.750000  1
  Co  Co20  1  0.333333  0.666667  0.250000  1
  Co  Co21  1  0.666667  0.333333  0.750000  1
  Hg  Hg22  1  0.880659  0.119341  0.250000  1
  Hg  Hg23  1  0.880659  0.761317  0.250000  1
  Hg  Hg24  1  0.238683  0.119341  0.250000  1
  Hg  Hg25  1  0.119341  0.880659  0.750000  1
  Hg  Hg26  1  0.119341  0.238683  0.750000  1
  Hg  Hg27  1  0.761317  0.880659  0.750000  1
