# generated using pymatgen
data_Tb3Ho(MoN3)4
_symmetry_space_group_name_H-M   'P 1'
_cell_length_a   7.34303843
_cell_length_b   7.34303853
_cell_length_c   6.29088711
_cell_angle_alpha   73.53033633
_cell_angle_beta   73.53033838
_cell_angle_gamma   81.54552906
_symmetry_Int_Tables_number   1
_chemical_formula_structural   Tb3Ho(MoN3)4
_chemical_formula_sum   'Tb3 Ho1 Mo4 N12'
_cell_volume   311.12149991
_cell_formula_units_Z   1
loop_
 _symmetry_equiv_pos_site_id
 _symmetry_equiv_pos_as_xyz
  1  'x, y, z'
loop_
 _atom_site_type_symbol
 _atom_site_label
 _atom_site_symmetry_multiplicity
 _atom_site_fract_x
 _atom_site_fract_y
 _atom_site_fract_z
 _atom_site_occupancy
  Tb  Tb0  1  0.706289  0.293711  0.250000  1
  Tb  Tb1  1  0.088037  0.911963  0.250000  1
  Tb  Tb2  1  0.293757  0.706243  0.750000  1
  Ho  Ho3  1  0.911322  0.088678  0.750000  1
  Mo  Mo4  1  0.800503  0.619607  0.771984  1
  Mo  Mo5  1  0.199559  0.379709  0.228949  1
  Mo  Mo6  1  0.620291  0.800441  0.271051  1
  Mo  Mo7  1  0.380393  0.199497  0.728016  1
  N  N8  1  0.218411  0.000754  0.845063  1
  N  N9  1  0.365327  0.346818  0.433725  1
  N  N10  1  0.636299  0.653965  0.565317  1
  N  N11  1  0.624363  0.112202  0.662059  1
  N  N12  1  0.999246  0.781589  0.654937  1
  N  N13  1  0.780803  0.000480  0.150837  1
  N  N14  1  0.112103  0.623239  0.160439  1
  N  N15  1  0.887798  0.375637  0.837941  1
  N  N16  1  0.999520  0.219197  0.349163  1
  N  N17  1  0.346035  0.363701  0.934683  1
  N  N18  1  0.653182  0.634673  0.066275  1
  N  N19  1  0.376761  0.887897  0.339561  1
