# generated using pymatgen
data_Sc3Al3Zn2Ni
_symmetry_space_group_name_H-M   'P 1'
_cell_length_a   6.64977900
_cell_length_b   6.64977828
_cell_length_c   4.06778100
_cell_angle_alpha   90.00000000
_cell_angle_beta   90.00000000
_cell_angle_gamma   119.99999861
_symmetry_Int_Tables_number   1
_chemical_formula_structural   Sc3Al3Zn2Ni
_chemical_formula_sum   'Sc3 Al3 Zn2 Ni1'
_cell_volume   155.77672833
_cell_formula_units_Z   1
loop_
 _symmetry_equiv_pos_site_id
 _symmetry_equiv_pos_as_xyz
  1  'x, y, z'
loop_
 _atom_site_type_symbol
 _atom_site_label
 _atom_site_symmetry_multiplicity
 _atom_site_fract_x
 _atom_site_fract_y
 _atom_site_fract_z
 _atom_site_occupancy
  Sc  Sc0  1  0.000000  0.407599  0.500000  1
  Sc  Sc1  1  0.592401  0.592401  0.500000  1
  Sc  Sc2  1  0.407599  0.000000  0.500000  1
  Al  Al3  1  0.000000  0.765948  0.000000  1
  Al  Al4  1  0.234052  0.234052  0.000000  1
  Al  Al5  1  0.765948  0.000000  0.000000  1
  Zn  Zn6  1  0.333333  0.666667  0.000000  1
  Zn  Zn7  1  0.666667  0.333333  0.000000  1
  Ni  Ni8  1  0.000000  0.000000  0.500000  1
