# generated using pymatgen
data_Nd5Dy15Si15Os
_symmetry_space_group_name_H-M   'P 1'
_cell_length_a   7.47670831
_cell_length_b   7.81639670
_cell_length_c   14.72783141
_cell_angle_alpha   89.74693241
_cell_angle_beta   89.92704365
_cell_angle_gamma   90.08983250
_symmetry_Int_Tables_number   1
_chemical_formula_structural   Nd5Dy15Si15Os
_chemical_formula_sum   'Nd5 Dy15 Si15 Os1'
_cell_volume   860.69783229
_cell_formula_units_Z   1
loop_
 _symmetry_equiv_pos_site_id
 _symmetry_equiv_pos_as_xyz
  1  'x, y, z'
loop_
 _atom_site_type_symbol
 _atom_site_label
 _atom_site_symmetry_multiplicity
 _atom_site_fract_x
 _atom_site_fract_y
 _atom_site_fract_z
 _atom_site_occupancy
  Nd  Nd0  1  0.971163  0.819941  0.597856  1
  Nd  Nd1  1  0.469533  0.684514  0.599549  1
  Nd  Nd2  1  0.026867  0.177935  0.402916  1
  Nd  Nd3  1  0.679895  0.814432  0.375508  1
  Nd  Nd4  1  0.526752  0.326435  0.094429  1
  Dy  Dy5  1  0.144426  0.514710  0.750952  1
  Dy  Dy6  1  0.810206  0.326548  0.625297  1
  Dy  Dy7  1  0.464672  0.687990  0.900005  1
  Dy  Dy8  1  0.967637  0.816087  0.901951  1
  Dy  Dy9  1  0.197594  0.674963  0.125727  1
  Dy  Dy10  1  0.676888  0.814097  0.122314  1
  Dy  Dy11  1  0.311794  0.178245  0.877355  1
  Dy  Dy12  1  0.195853  0.672457  0.372903  1
  Dy  Dy13  1  0.036146  0.186220  0.098339  1
  Dy  Dy14  1  0.313038  0.180668  0.626043  1
  Dy  Dy15  1  0.846052  0.487803  0.248458  1
  Dy  Dy16  1  0.362244  0.010949  0.250085  1
  Dy  Dy17  1  0.527072  0.323702  0.399556  1
  Dy  Dy18  1  0.813890  0.322039  0.878975  1
  Dy  Dy19  1  0.643136  0.988483  0.750703  1
  Si  Si20  1  0.238827  0.367804  0.249241  1
  Si  Si21  1  0.862853  0.522379  0.459713  1
  Si  Si22  1  0.517609  0.393642  0.753454  1
  Si  Si23  1  0.639640  0.024201  0.957104  1
  Si  Si24  1  0.013407  0.109332  0.752726  1
  Si  Si25  1  0.762783  0.626728  0.754244  1
  Si  Si26  1  0.748792  0.121892  0.244786  1
  Si  Si27  1  0.351182  0.978219  0.461128  1
  Si  Si28  1  0.987641  0.896657  0.244407  1
  Si  Si29  1  0.352738  0.972699  0.039024  1
  Si  Si30  1  0.637156  0.038021  0.541556  1
  Si  Si31  1  0.147609  0.472111  0.959280  1
  Si  Si32  1  0.143071  0.469041  0.540617  1
  Si  Si33  1  0.866865  0.528581  0.040132  1
  Si  Si34  1  0.259798  0.874645  0.753596  1
  Os  Os35  1  0.485172  0.595830  0.250072  1
