# generated using pymatgen
data_LiScU2Ge6Ru7
_symmetry_space_group_name_H-M   'P 1'
_cell_length_a   7.14657573
_cell_length_b   7.06861445
_cell_length_c   7.09524798
_cell_angle_alpha   109.19025018
_cell_angle_beta   109.63629254
_cell_angle_gamma   109.65773001
_symmetry_Int_Tables_number   1
_chemical_formula_structural   LiScU2Ge6Ru7
_chemical_formula_sum   'Li1 Sc1 U2 Ge6 Ru7'
_cell_volume   275.67161156
_cell_formula_units_Z   1
loop_
 _symmetry_equiv_pos_site_id
 _symmetry_equiv_pos_as_xyz
  1  'x, y, z'
loop_
 _atom_site_type_symbol
 _atom_site_label
 _atom_site_symmetry_multiplicity
 _atom_site_fract_x
 _atom_site_fract_y
 _atom_site_fract_z
 _atom_site_occupancy
  Li  Li0  1  0.500000  0.000000  0.000000  1
  Sc  Sc1  1  0.000000  0.500000  0.000000  1
  U  U2  1  0.000000  0.000000  0.500000  1
  U  U3  1  0.500000  0.500000  0.500000  1
  Ge  Ge4  1  0.687428  0.694801  0.000000  1
  Ge  Ge5  1  0.311810  0.991080  0.293047  1
  Ge  Ge6  1  0.981238  0.301969  0.293047  1
  Ge  Ge7  1  0.312572  0.305199  0.000000  1
  Ge  Ge8  1  0.688189  0.008920  0.706953  1
  Ge  Ge9  1  0.018762  0.698031  0.706953  1
  Ru  Ru10  1  0.750701  0.250701  0.501402  1
  Ru  Ru11  1  0.750746  0.506838  0.259102  1
  Ru  Ru12  1  0.491644  0.247735  0.740898  1
  Ru  Ru13  1  0.249254  0.493162  0.740898  1
  Ru  Ru14  1  0.249299  0.749299  0.498598  1
  Ru  Ru15  1  0.508356  0.752265  0.259102  1
  Ru  Ru16  1  0.000000  0.000000  0.000000  1
