# generated using pymatgen
data_MgH8
_symmetry_space_group_name_H-M   'P 1'
_cell_length_a   3.03168532
_cell_length_b   3.02808665
_cell_length_c   12.50173656
_cell_angle_alpha   95.67490215
_cell_angle_beta   89.31135916
_cell_angle_gamma   119.46159527
_symmetry_Int_Tables_number   1
_chemical_formula_structural   MgH8
_chemical_formula_sum   'Mg1 H8'
_cell_volume   99.34870381
_cell_formula_units_Z   1
loop_
 _symmetry_equiv_pos_site_id
 _symmetry_equiv_pos_as_xyz
  1  'x, y, z'
loop_
 _atom_site_type_symbol
 _atom_site_label
 _atom_site_symmetry_multiplicity
 _atom_site_fract_x
 _atom_site_fract_y
 _atom_site_fract_z
 _atom_site_occupancy
  Mg  Mg0  1  0.346391  0.820704  0.304863  1
  H  H1  1  0.018300  0.399626  0.578904  1
  H  H2  1  0.692975  0.010518  0.829987  1
  H  H3  1  0.318532  0.330691  0.026245  1
  H  H4  1  0.976580  0.246529  0.625320  1
  H  H5  1  0.694205  0.524082  0.378992  1
  H  H6  1  0.998523  0.116940  0.230769  1
  H  H7  1  0.539812  0.827989  0.782681  1
  H  H8  1  0.475226  0.478616  0.982333  1
