# generated using pymatgen
data_Er2BeCoSi4
_symmetry_space_group_name_H-M   'P 1'
_cell_length_a   8.41166024
_cell_length_b   8.41166118
_cell_length_c   3.89002700
_cell_angle_alpha   90.00000000
_cell_angle_beta   90.00000000
_cell_angle_gamma   152.64178471
_symmetry_Int_Tables_number   1
_chemical_formula_structural   Er2BeCoSi4
_chemical_formula_sum   'Er2 Be1 Co1 Si4'
_cell_volume   126.48847457
_cell_formula_units_Z   1
loop_
 _symmetry_equiv_pos_site_id
 _symmetry_equiv_pos_as_xyz
  1  'x, y, z'
loop_
 _atom_site_type_symbol
 _atom_site_label
 _atom_site_symmetry_multiplicity
 _atom_site_fract_x
 _atom_site_fract_y
 _atom_site_fract_z
 _atom_site_occupancy
  Er  Er0  1  0.113333  0.886667  0.250000  1
  Er  Er1  1  0.898339  0.101661  0.750000  1
  Be  Be2  1  0.671002  0.328998  0.750000  1
  Co  Co3  1  0.319242  0.680758  0.250000  1
  Si  Si4  1  0.753246  0.246754  0.250000  1
  Si  Si5  1  0.250802  0.749198  0.750000  1
  Si  Si6  1  0.538287  0.461713  0.750000  1
  Si  Si7  1  0.455749  0.544251  0.250000  1
