# generated using pymatgen
data_Tm4Pd3PbF28
_symmetry_space_group_name_H-M   'P 1'
_cell_length_a   5.46219817
_cell_length_b   8.77265582
_cell_length_c   11.83896300
_cell_angle_alpha   62.46023675
_cell_angle_beta   89.98570280
_cell_angle_gamma   90.02643725
_symmetry_Int_Tables_number   1
_chemical_formula_structural   Tm4Pd3PbF28
_chemical_formula_sum   'Tm4 Pd3 Pb1 F28'
_cell_volume   503.01854083
_cell_formula_units_Z   1
loop_
 _symmetry_equiv_pos_site_id
 _symmetry_equiv_pos_as_xyz
  1  'x, y, z'
loop_
 _atom_site_type_symbol
 _atom_site_label
 _atom_site_symmetry_multiplicity
 _atom_site_fract_x
 _atom_site_fract_y
 _atom_site_fract_z
 _atom_site_occupancy
  Tm  Tm0  1  0.260463  0.816211  0.259051  1
  Tm  Tm1  1  0.738456  0.180167  0.738129  1
  Tm  Tm2  1  0.761522  0.189748  0.233967  1
  Tm  Tm3  1  0.241102  0.813428  0.770281  1
  Pd  Pd4  1  0.758564  0.726984  0.043042  1
  Pd  Pd5  1  0.240324  0.271145  0.957581  1
  Pd  Pd6  1  0.262209  0.273827  0.455295  1
  Pb  Pb7  1  0.745031  0.730011  0.539451  1
  F  F8  1  0.944021  0.697315  0.403096  1
  F  F9  1  0.066151  0.297313  0.583902  1
  F  F10  1  0.435142  0.296322  0.085211  1
  F  F11  1  0.562238  0.700363  0.917236  1
  F  F12  1  0.461770  0.725669  0.133399  1
  F  F13  1  0.536840  0.271620  0.866948  1
  F  F14  1  0.969583  0.283740  0.358637  1
  F  F15  1  0.056027  0.724128  0.644169  1
  F  F16  1  0.947065  0.745223  0.175073  1
  F  F17  1  0.051119  0.253367  0.824108  1
  F  F18  1  0.445336  0.259135  0.319139  1
  F  F19  1  0.553916  0.748260  0.686059  1
  F  F20  1  0.773505  0.478107  0.141818  1
  F  F21  1  0.225359  0.520088  0.861925  1
  F  F22  1  0.288825  0.522460  0.352483  1
  F  F23  1  0.718151  0.464345  0.647857  1
  F  F24  1  0.936245  0.278997  0.041554  1
  F  F25  1  0.064147  0.718874  0.961012  1
  F  F26  1  0.410663  0.724511  0.453858  1
  F  F27  1  0.564632  0.273811  0.543745  1
  F  F28  1  0.737718  0.997037  0.443455  1
  F  F29  1  0.253636  0.024612  0.551415  1
  F  F30  1  0.244845  0.021960  0.048697  1
  F  F31  1  0.756171  0.975864  0.950698  1
  F  F32  1  0.586045  0.969835  0.234730  1
  F  F33  1  0.410130  0.031195  0.772081  1
  F  F34  1  0.080573  0.028573  0.266908  1
  F  F35  1  0.912476  0.965751  0.733989  1
