# generated using pymatgen
data_La3Dy2(Sn5Rh2)2
_symmetry_space_group_name_H-M   'P 1'
_cell_length_a   14.25046600
_cell_length_b   14.25046600
_cell_length_c   4.60728000
_cell_angle_alpha   90.00000000
_cell_angle_beta   90.00000000
_cell_angle_gamma   90.00000000
_symmetry_Int_Tables_number   1
_chemical_formula_structural   La3Dy2(Sn5Rh2)2
_chemical_formula_sum   'La6 Dy4 Sn20 Rh8'
_cell_volume   935.62698529
_cell_formula_units_Z   2
loop_
 _symmetry_equiv_pos_site_id
 _symmetry_equiv_pos_as_xyz
  1  'x, y, z'
loop_
 _atom_site_type_symbol
 _atom_site_label
 _atom_site_symmetry_multiplicity
 _atom_site_fract_x
 _atom_site_fract_y
 _atom_site_fract_z
 _atom_site_occupancy
  La  La0  1  0.500000  0.500000  0.000000  1
  La  La1  1  0.000000  0.000000  0.000000  1
  La  La2  1  0.888090  0.388090  0.500000  1
  La  La3  1  0.111910  0.611910  0.500000  1
  La  La4  1  0.388090  0.111910  0.500000  1
  La  La5  1  0.611910  0.888090  0.500000  1
  Dy  Dy6  1  0.676998  0.176998  0.500000  1
  Dy  Dy7  1  0.323002  0.823002  0.500000  1
  Dy  Dy8  1  0.176998  0.323002  0.500000  1
  Dy  Dy9  1  0.823002  0.676998  0.500000  1
  Sn  Sn10  1  0.570366  0.070366  0.000000  1
  Sn  Sn11  1  0.429634  0.929634  0.000000  1
  Sn  Sn12  1  0.070366  0.429634  0.000000  1
  Sn  Sn13  1  0.929634  0.570366  0.000000  1
  Sn  Sn14  1  0.654677  0.697848  0.000000  1
  Sn  Sn15  1  0.345323  0.302152  0.000000  1
  Sn  Sn16  1  0.154677  0.802152  0.000000  1
  Sn  Sn17  1  0.845323  0.197848  0.000000  1
  Sn  Sn18  1  0.302152  0.654677  0.000000  1
  Sn  Sn19  1  0.697848  0.345323  0.000000  1
  Sn  Sn20  1  0.197848  0.154677  0.000000  1
  Sn  Sn21  1  0.802152  0.845323  0.000000  1
  Sn  Sn22  1  0.664106  0.505749  0.500000  1
  Sn  Sn23  1  0.335894  0.494251  0.500000  1
  Sn  Sn24  1  0.164106  0.994251  0.500000  1
  Sn  Sn25  1  0.835894  0.005749  0.500000  1
  Sn  Sn26  1  0.494251  0.664106  0.500000  1
  Sn  Sn27  1  0.505749  0.335894  0.500000  1
  Sn  Sn28  1  0.005749  0.164106  0.500000  1
  Sn  Sn29  1  0.994251  0.835894  0.500000  1
  Rh  Rh30  1  0.747241  0.529283  0.000000  1
  Rh  Rh31  1  0.252759  0.470717  0.000000  1
  Rh  Rh32  1  0.247241  0.970717  0.000000  1
  Rh  Rh33  1  0.752759  0.029283  0.000000  1
  Rh  Rh34  1  0.470717  0.747241  0.000000  1
  Rh  Rh35  1  0.529283  0.252759  0.000000  1
  Rh  Rh36  1  0.029283  0.247241  0.000000  1
  Rh  Rh37  1  0.970717  0.752759  0.000000  1
