# generated using pymatgen
data_Hf6FeSi12Rh5
_symmetry_space_group_name_H-M   'P 1'
_cell_length_a   9.89548284
_cell_length_b   9.88197113
_cell_length_c   9.87493335
_cell_angle_alpha   148.48953022
_cell_angle_beta   133.39593672
_cell_angle_gamma   57.38924703
_symmetry_Int_Tables_number   1
_chemical_formula_structural   Hf6FeSi12Rh5
_chemical_formula_sum   'Hf6 Fe1 Si12 Rh5'
_cell_volume   363.92828038
_cell_formula_units_Z   1
loop_
 _symmetry_equiv_pos_site_id
 _symmetry_equiv_pos_as_xyz
  1  'x, y, z'
loop_
 _atom_site_type_symbol
 _atom_site_label
 _atom_site_symmetry_multiplicity
 _atom_site_fract_x
 _atom_site_fract_y
 _atom_site_fract_z
 _atom_site_occupancy
  Hf  Hf0  1  0.849184  0.594470  0.255404  1
  Hf  Hf1  1  0.150816  0.405530  0.744596  1
  Hf  Hf2  1  0.661026  0.403093  0.252990  1
  Hf  Hf3  1  0.338974  0.596907  0.747010  1
  Hf  Hf4  1  0.137655  0.140003  0.999267  1
  Hf  Hf5  1  0.862345  0.859997  0.000733  1
  Fe  Fe6  1  0.000000  0.000000  0.500000  1
  Si  Si7  1  0.488304  0.140054  0.356585  1
  Si  Si8  1  0.511696  0.859946  0.643415  1
  Si  Si9  1  0.211419  0.872743  0.366017  1
  Si  Si10  1  0.788581  0.127257  0.633983  1
  Si  Si11  1  0.708169  0.720586  0.024696  1
  Si  Si12  1  0.291831  0.279414  0.975304  1
  Si  Si13  1  0.499081  0.718493  0.218365  1
  Si  Si14  1  0.500919  0.281507  0.781635  1
  Si  Si15  1  0.000097  0.273505  0.273448  1
  Si  Si16  1  0.201034  0.718771  0.506108  1
  Si  Si17  1  0.999903  0.726495  0.726552  1
  Si  Si18  1  0.798966  0.281229  0.493892  1
  Rh  Rh19  1  0.746705  0.000199  0.743425  1
  Rh  Rh20  1  0.500000  0.500000  0.500000  1
  Rh  Rh21  1  0.500000  0.000000  0.000000  1
  Rh  Rh22  1  0.253295  0.999801  0.256575  1
  Rh  Rh23  1  0.000000  0.500000  0.000000  1
