# generated using pymatgen
data_DyLuSi7Rh12
_symmetry_space_group_name_H-M   'P 1'
_cell_length_a   9.73731400
_cell_length_b   9.73731425
_cell_length_c   3.84797100
_cell_angle_alpha   90.00000000
_cell_angle_beta   90.00000000
_cell_angle_gamma   120.00000594
_symmetry_Int_Tables_number   1
_chemical_formula_structural   DyLuSi7Rh12
_chemical_formula_sum   'Dy1 Lu1 Si7 Rh12'
_cell_volume   315.96629457
_cell_formula_units_Z   1
loop_
 _symmetry_equiv_pos_site_id
 _symmetry_equiv_pos_as_xyz
  1  'x, y, z'
loop_
 _atom_site_type_symbol
 _atom_site_label
 _atom_site_symmetry_multiplicity
 _atom_site_fract_x
 _atom_site_fract_y
 _atom_site_fract_z
 _atom_site_occupancy
  Dy  Dy0  1  0.666667  0.333333  0.250569  1
  Lu  Lu1  1  0.333333  0.666667  0.749382  1
  Si  Si2  1  0.000000  0.000000  0.500620  1
  Si  Si3  1  0.400554  0.289619  0.751187  1
  Si  Si4  1  0.710381  0.110936  0.751187  1
  Si  Si5  1  0.889064  0.599446  0.751187  1
  Si  Si6  1  0.598496  0.710154  0.248890  1
  Si  Si7  1  0.289846  0.888341  0.248890  1
  Si  Si8  1  0.111659  0.401504  0.248890  1
  Rh  Rh9  1  0.443916  0.062907  0.751499  1
  Rh  Rh10  1  0.937093  0.381009  0.751499  1
  Rh  Rh11  1  0.618991  0.556084  0.751499  1
  Rh  Rh12  1  0.554666  0.934862  0.248451  1
  Rh  Rh13  1  0.065138  0.619805  0.248451  1
  Rh  Rh14  1  0.380195  0.445334  0.248451  1
  Rh  Rh15  1  0.143334  0.262222  0.745161  1
  Rh  Rh16  1  0.737778  0.881113  0.745161  1
  Rh  Rh17  1  0.118887  0.856666  0.745161  1
  Rh  Rh18  1  0.856538  0.737878  0.254621  1
  Rh  Rh19  1  0.262122  0.118659  0.254621  1
  Rh  Rh20  1  0.881341  0.143462  0.254621  1
