# generated using pymatgen
data_Ta4BeB3
_symmetry_space_group_name_H-M   'P 1'
_cell_length_a   3.20955400
_cell_length_b   3.31607900
_cell_length_c   8.84188700
_cell_angle_alpha   90.00000000
_cell_angle_beta   90.00000000
_cell_angle_gamma   90.00000000
_symmetry_Int_Tables_number   1
_chemical_formula_structural   Ta4BeB3
_chemical_formula_sum   'Ta4 Be1 B3'
_cell_volume   94.10539362
_cell_formula_units_Z   1
loop_
 _symmetry_equiv_pos_site_id
 _symmetry_equiv_pos_as_xyz
  1  'x, y, z'
loop_
 _atom_site_type_symbol
 _atom_site_label
 _atom_site_symmetry_multiplicity
 _atom_site_fract_x
 _atom_site_fract_y
 _atom_site_fract_z
 _atom_site_occupancy
  Ta  Ta0  1  0.000000  0.500000  0.648668  1
  Ta  Ta1  1  0.500000  0.500000  0.351372  1
  Ta  Ta2  1  0.500000  0.000000  0.858040  1
  Ta  Ta3  1  0.000000  0.000000  0.145216  1
  Be  Be4  1  0.500000  0.000000  0.559983  1
  B  B5  1  0.000000  0.000000  0.434463  1
  B  B6  1  0.000000  0.500000  0.940985  1
  B  B7  1  0.500000  0.500000  0.061273  1
