# generated using pymatgen
data_Ac3(CuSi)4
_symmetry_space_group_name_H-M   'P 1'
_cell_length_a   4.41233505
_cell_length_b   4.29997682
_cell_length_c   12.51862163
_cell_angle_alpha   99.88919020
_cell_angle_beta   100.15029783
_cell_angle_gamma   89.99999132
_symmetry_Int_Tables_number   1
_chemical_formula_structural   Ac3(CuSi)4
_chemical_formula_sum   'Ac3 Cu4 Si4'
_cell_volume   230.21161799
_cell_formula_units_Z   1
loop_
 _symmetry_equiv_pos_site_id
 _symmetry_equiv_pos_as_xyz
  1  'x, y, z'
loop_
 _atom_site_type_symbol
 _atom_site_label
 _atom_site_symmetry_multiplicity
 _atom_site_fract_x
 _atom_site_fract_y
 _atom_site_fract_z
 _atom_site_occupancy
  Ac  Ac0  1  0.846937  0.346937  0.693875  1
  Ac  Ac1  1  0.153063  0.653063  0.306125  1
  Ac  Ac2  1  0.000000  0.000000  0.000000  1
  Cu  Cu3  1  0.249846  0.249846  0.499691  1
  Cu  Cu4  1  0.750154  0.750154  0.500309  1
  Cu  Cu5  1  0.597962  0.097962  0.195924  1
  Cu  Cu6  1  0.402038  0.902038  0.804076  1
  Si  Si7  1  0.449188  0.449188  0.898375  1
  Si  Si8  1  0.550812  0.550812  0.101625  1
  Si  Si9  1  0.698677  0.198677  0.397354  1
  Si  Si10  1  0.301323  0.801323  0.602646  1
