# generated using pymatgen
data_Mn(GaO2)4
_symmetry_space_group_name_H-M   'P 1'
_cell_length_a   6.38083779
_cell_length_b   6.38083814
_cell_length_c   9.49728719
_cell_angle_alpha   56.66307741
_cell_angle_beta   56.66307478
_cell_angle_gamma   27.58361065
_symmetry_Int_Tables_number   1
_chemical_formula_structural   Mn(GaO2)4
_chemical_formula_sum   'Mn1 Ga4 O8'
_cell_volume   147.62546859
_cell_formula_units_Z   1
loop_
 _symmetry_equiv_pos_site_id
 _symmetry_equiv_pos_as_xyz
  1  'x, y, z'
loop_
 _atom_site_type_symbol
 _atom_site_label
 _atom_site_symmetry_multiplicity
 _atom_site_fract_x
 _atom_site_fract_y
 _atom_site_fract_z
 _atom_site_occupancy
  Mn  Mn0  1  0.000000  0.000000  0.000000  1
  Ga  Ga1  1  0.466847  0.466847  0.713156  1
  Ga  Ga2  1  0.241667  0.241667  0.358580  1
  Ga  Ga3  1  0.758333  0.758333  0.641420  1
  Ga  Ga4  1  0.533153  0.533153  0.286844  1
  O  O5  1  0.108287  0.108287  0.304427  1
  O  O6  1  0.442466  0.442466  0.926752  1
  O  O7  1  0.557534  0.557534  0.073248  1
  O  O8  1  0.162711  0.162711  0.783248  1
  O  O9  1  0.891713  0.891713  0.695573  1
  O  O10  1  0.353157  0.353157  0.464038  1
  O  O11  1  0.646843  0.646843  0.535962  1
  O  O12  1  0.837289  0.837289  0.216752  1
