# generated using pymatgen
data_Zr6V7Re4Rh
_symmetry_space_group_name_H-M   'P 1'
_cell_length_a   5.22557883
_cell_length_b   5.22766878
_cell_length_c   12.92091625
_cell_angle_alpha   89.78350513
_cell_angle_beta   90.14033585
_cell_angle_gamma   119.95116257
_symmetry_Int_Tables_number   1
_chemical_formula_structural   Zr6V7Re4Rh
_chemical_formula_sum   'Zr6 V7 Re4 Rh1'
_cell_volume   305.82763922
_cell_formula_units_Z   1
loop_
 _symmetry_equiv_pos_site_id
 _symmetry_equiv_pos_as_xyz
  1  'x, y, z'
loop_
 _atom_site_type_symbol
 _atom_site_label
 _atom_site_symmetry_multiplicity
 _atom_site_fract_x
 _atom_site_fract_y
 _atom_site_fract_z
 _atom_site_occupancy
  Zr  Zr0  1  0.334343  0.665558  0.915819  1
  Zr  Zr1  1  0.001276  0.000924  0.249768  1
  Zr  Zr2  1  0.667251  0.333387  0.584369  1
  Zr  Zr3  1  0.332749  0.666613  0.665631  1
  Zr  Zr4  1  0.998724  0.999076  0.000231  1
  Zr  Zr5  1  0.665657  0.334442  0.334181  1
  V  V6  1  0.168085  0.333444  0.457647  1
  V  V7  1  0.831915  0.666556  0.792353  1
  V  V8  1  0.334669  0.667413  0.291935  1
  V  V9  1  0.665331  0.332587  0.958065  1
  V  V10  1  0.000000  0.500000  0.125000  1
  V  V11  1  0.667002  0.832170  0.458086  1
  V  V12  1  0.332998  0.167830  0.791914  1
  Re  Re13  1  0.500000  0.500000  0.125000  1
  Re  Re14  1  0.170027  0.830167  0.454706  1
  Re  Re15  1  0.829973  0.169833  0.795294  1
  Re  Re16  1  0.500000  0.000000  0.125000  1
  Rh  Rh17  1  0.000000  0.000000  0.625000  1
