# generated using pymatgen
data_Er2Tm8Si5Ge
_symmetry_space_group_name_H-M   'P 1'
_cell_length_a   8.33912523
_cell_length_b   8.34274633
_cell_length_c   6.25408000
_cell_angle_alpha   90.00000000
_cell_angle_beta   90.00000000
_cell_angle_gamma   120.02412719
_symmetry_Int_Tables_number   1
_chemical_formula_structural   Er2Tm8Si5Ge
_chemical_formula_sum   'Er2 Tm8 Si5 Ge1'
_cell_volume   376.71937819
_cell_formula_units_Z   1
loop_
 _symmetry_equiv_pos_site_id
 _symmetry_equiv_pos_as_xyz
  1  'x, y, z'
loop_
 _atom_site_type_symbol
 _atom_site_label
 _atom_site_symmetry_multiplicity
 _atom_site_fract_x
 _atom_site_fract_y
 _atom_site_fract_z
 _atom_site_occupancy
  Er  Er0  1  0.758340  0.758434  0.250000  1
  Er  Er1  1  0.242495  0.998510  0.250000  1
  Tm  Tm2  1  0.667879  0.333142  0.500845  1
  Tm  Tm3  1  0.333045  0.667666  0.500850  1
  Tm  Tm4  1  0.333045  0.667666  0.999150  1
  Tm  Tm5  1  0.667879  0.333142  0.999155  1
  Tm  Tm6  1  0.998503  0.242550  0.250000  1
  Tm  Tm7  1  0.242000  0.242161  0.750000  1
  Tm  Tm8  1  0.757432  0.000012  0.750000  1
  Tm  Tm9  1  0.999858  0.757128  0.750000  1
  Si  Si10  1  0.605979  0.000174  0.250000  1
  Si  Si11  1  0.999888  0.605327  0.250000  1
  Si  Si12  1  0.606228  0.606257  0.750000  1
  Si  Si13  1  0.393969  0.000165  0.750000  1
  Si  Si14  1  0.000135  0.394028  0.750000  1
  Ge  Ge15  1  0.393324  0.393635  0.250000  1
