# generated using pymatgen
data_Sc5(FeSn3)6
_symmetry_space_group_name_H-M   'P 1'
_cell_length_a   9.51044614
_cell_length_b   9.51044621
_cell_length_c   9.51044700
_cell_angle_alpha   60.00000074
_cell_angle_beta   60.00000049
_cell_angle_gamma   60.00000258
_symmetry_Int_Tables_number   1
_chemical_formula_structural   Sc5(FeSn3)6
_chemical_formula_sum   'Sc5 Fe6 Sn18'
_cell_volume   608.25785829
_cell_formula_units_Z   1
loop_
 _symmetry_equiv_pos_site_id
 _symmetry_equiv_pos_as_xyz
  1  'x, y, z'
loop_
 _atom_site_type_symbol
 _atom_site_label
 _atom_site_symmetry_multiplicity
 _atom_site_fract_x
 _atom_site_fract_y
 _atom_site_fract_z
 _atom_site_occupancy
  Sc  Sc0  1  0.000000  0.000000  0.000000  1
  Sc  Sc1  1  0.373736  0.373737  0.878793  1
  Sc  Sc2  1  0.373737  0.878792  0.373736  1
  Sc  Sc3  1  0.878792  0.373737  0.373736  1
  Sc  Sc4  1  0.373737  0.373736  0.373736  1
  Fe  Fe5  1  0.257619  0.257619  0.742381  1
  Fe  Fe6  1  0.742381  0.257619  0.742381  1
  Fe  Fe7  1  0.257619  0.742381  0.742381  1
  Fe  Fe8  1  0.742381  0.742381  0.257619  1
  Fe  Fe9  1  0.257619  0.742381  0.257619  1
  Fe  Fe10  1  0.742381  0.257619  0.257619  1
  Sn  Sn11  1  0.591807  0.591807  0.224582  1
  Sn  Sn12  1  0.591807  0.224582  0.591807  1
  Sn  Sn13  1  0.224582  0.591807  0.591807  1
  Sn  Sn14  1  0.591807  0.591807  0.591807  1
  Sn  Sn15  1  0.750000  0.750000  0.750000  1
  Sn  Sn16  1  0.999334  0.346072  0.655261  1
  Sn  Sn17  1  0.999334  0.999334  0.655261  1
  Sn  Sn18  1  0.346072  0.999334  0.655261  1
  Sn  Sn19  1  0.999334  0.655261  0.346072  1
  Sn  Sn20  1  0.346072  0.655261  0.999334  1
  Sn  Sn21  1  0.999334  0.655261  0.999334  1
  Sn  Sn22  1  0.655261  0.999334  0.999334  1
  Sn  Sn23  1  0.655261  0.346072  0.999334  1
  Sn  Sn24  1  0.655261  0.999334  0.346072  1
  Sn  Sn25  1  0.346072  0.999334  0.999334  1
  Sn  Sn26  1  0.999334  0.999334  0.346072  1
  Sn  Sn27  1  0.999334  0.346072  0.999334  1
  Sn  Sn28  1  0.250000  0.250000  0.250000  1
