# generated using pymatgen
data_Hf4Zr6Sn3Sb4
_symmetry_space_group_name_H-M   'P 1'
_cell_length_a   5.87114300
_cell_length_b   8.65724661
_cell_length_c   8.65729700
_cell_angle_alpha   119.99963589
_cell_angle_beta   90.00021863
_cell_angle_gamma   89.99945944
_symmetry_Int_Tables_number   1
_chemical_formula_structural   Hf4Zr6Sn3Sb4
_chemical_formula_sum   'Hf4 Zr6 Sn3 Sb4'
_cell_volume   381.08073080
_cell_formula_units_Z   1
loop_
 _symmetry_equiv_pos_site_id
 _symmetry_equiv_pos_as_xyz
  1  'x, y, z'
loop_
 _atom_site_type_symbol
 _atom_site_label
 _atom_site_symmetry_multiplicity
 _atom_site_fract_x
 _atom_site_fract_y
 _atom_site_fract_z
 _atom_site_occupancy
  Hf  Hf0  1  0.499563  0.333334  0.666669  1
  Hf  Hf1  1  0.499564  0.666665  0.333332  1
  Hf  Hf2  1  0.002358  0.666665  0.333330  1
  Hf  Hf3  1  0.002356  0.333334  0.666668  1
  Zr  Zr4  1  0.770083  0.267851  0.000000  1
  Zr  Zr5  1  0.770067  0.732153  0.732155  1
  Zr  Zr6  1  0.770067  0.999995  0.267842  1
  Zr  Zr7  1  0.229126  0.730901  0.000000  1
  Zr  Zr8  1  0.229126  0.269104  0.269103  1
  Zr  Zr9  1  0.229124  0.000004  0.730902  1
  Sn  Sn10  1  0.255339  0.385997  0.000001  1
  Sn  Sn11  1  0.255319  0.613997  0.613997  1
  Sn  Sn12  1  0.255319  0.000000  0.386002  1
  Sb  Sb13  1  0.745075  0.611623  0.000000  1
  Sb  Sb14  1  0.745078  0.388375  0.388376  1
  Sb  Sb15  1  0.745077  0.000000  0.611624  1
  Sb  Sb16  1  0.497360  0.000004  0.000001  1
