# generated using pymatgen
data_OsSeF9
_symmetry_space_group_name_H-M   'P 1'
_cell_length_a   8.91330408
_cell_length_b   8.91330350
_cell_length_c   8.91330400
_cell_angle_alpha   93.27322370
_cell_angle_beta   93.27322349
_cell_angle_gamma   93.27322026
_symmetry_Int_Tables_number   1
_chemical_formula_structural   OsSeF9
_chemical_formula_sum   'Os4 Se4 F36'
_cell_volume   704.53123287
_cell_formula_units_Z   4
loop_
 _symmetry_equiv_pos_site_id
 _symmetry_equiv_pos_as_xyz
  1  'x, y, z'
loop_
 _atom_site_type_symbol
 _atom_site_label
 _atom_site_symmetry_multiplicity
 _atom_site_fract_x
 _atom_site_fract_y
 _atom_site_fract_z
 _atom_site_occupancy
  Os  Os0  1  0.213574  0.669466  0.997890  1
  Os  Os1  1  0.997890  0.213574  0.669466  1
  Os  Os2  1  0.669466  0.997890  0.213574  1
  Os  Os3  1  0.605341  0.605341  0.605341  1
  Se  Se4  1  0.067789  0.748912  0.539774  1
  Se  Se5  1  0.539774  0.067789  0.748912  1
  Se  Se6  1  0.748912  0.539774  0.067789  1
  Se  Se7  1  0.130222  0.130222  0.130222  1
  F  F8  1  0.565692  0.483400  0.099278  1
  F  F9  1  0.483400  0.099278  0.565692  1
  F  F10  1  0.099278  0.565692  0.483400  1
  F  F11  1  0.878310  0.053538  0.173336  1
  F  F12  1  0.053538  0.173336  0.878310  1
  F  F13  1  0.173336  0.878310  0.053538  1
  F  F14  1  0.709819  0.790420  0.153690  1
  F  F15  1  0.790420  0.153690  0.709819  1
  F  F16  1  0.644292  0.406262  0.547295  1
  F  F17  1  0.547295  0.644292  0.406262  1
  F  F18  1  0.406262  0.547295  0.644292  1
  F  F19  1  0.813818  0.670578  0.572378  1
  F  F20  1  0.572378  0.813818  0.670578  1
  F  F21  1  0.670578  0.572378  0.813818  1
  F  F22  1  0.263074  0.635929  0.200365  1
  F  F23  1  0.200365  0.263074  0.635929  1
  F  F24  1  0.635929  0.200365  0.263074  1
  F  F25  1  0.413955  0.729621  0.964174  1
  F  F26  1  0.964174  0.413955  0.729621  1
  F  F27  1  0.729621  0.964174  0.413955  1
  F  F28  1  0.250360  0.814571  0.514998  1
  F  F29  1  0.514998  0.250360  0.814571  1
  F  F30  1  0.814571  0.514998  0.250360  1
  F  F31  1  0.005009  0.792513  0.360813  1
  F  F32  1  0.360813  0.005009  0.792513  1
  F  F33  1  0.792513  0.360813  0.005009  1
  F  F34  1  0.244993  0.468508  0.939633  1
  F  F35  1  0.939633  0.244993  0.468508  1
  F  F36  1  0.468508  0.939633  0.244993  1
  F  F37  1  0.002169  0.616372  0.028349  1
  F  F38  1  0.028349  0.002169  0.616372  1
  F  F39  1  0.616372  0.028349  0.002169  1
  F  F40  1  0.311957  0.183222  0.088241  1
  F  F41  1  0.088241  0.311957  0.183222  1
  F  F42  1  0.183222  0.088241  0.311957  1
  F  F43  1  0.153690  0.709819  0.790420  1
