# generated using pymatgen
data_Ho6TaCo17(SiP2)4
_symmetry_space_group_name_H-M   'P 1'
_cell_length_a   3.70968300
_cell_length_b   10.62182900
_cell_length_c   12.31313800
_cell_angle_alpha   90.00000000
_cell_angle_beta   90.00000000
_cell_angle_gamma   90.00000000
_symmetry_Int_Tables_number   1
_chemical_formula_structural   Ho6TaCo17(SiP2)4
_chemical_formula_sum   'Ho6 Ta1 Co17 Si4 P8'
_cell_volume   485.18219192
_cell_formula_units_Z   1
loop_
 _symmetry_equiv_pos_site_id
 _symmetry_equiv_pos_as_xyz
  1  'x, y, z'
loop_
 _atom_site_type_symbol
 _atom_site_label
 _atom_site_symmetry_multiplicity
 _atom_site_fract_x
 _atom_site_fract_y
 _atom_site_fract_z
 _atom_site_occupancy
  Ho  Ho0  1  0.000000  0.500000  0.525938  1
  Ho  Ho1  1  0.500000  0.000000  0.474510  1
  Ho  Ho2  1  0.500000  0.819228  0.206640  1
  Ho  Ho3  1  0.500000  0.180772  0.206640  1
  Ho  Ho4  1  0.000000  0.681332  0.799124  1
  Ho  Ho5  1  0.000000  0.318668  0.799124  1
  Ta  Ta6  1  0.500000  0.500000  0.152655  1
  Co  Co7  1  0.000000  0.500000  0.986019  1
  Co  Co8  1  0.500000  0.000000  0.025945  1
  Co  Co9  1  0.500000  0.295037  0.428504  1
  Co  Co10  1  0.500000  0.704963  0.428504  1
  Co  Co11  1  0.000000  0.196517  0.566722  1
  Co  Co12  1  0.000000  0.803483  0.566722  1
  Co  Co13  1  0.500000  0.883847  0.703893  1
  Co  Co14  1  0.500000  0.116153  0.703893  1
  Co  Co15  1  0.000000  0.621469  0.293237  1
  Co  Co16  1  0.000000  0.378531  0.293237  1
  Co  Co17  1  0.500000  0.330263  0.991724  1
  Co  Co18  1  0.500000  0.669737  0.991724  1
  Co  Co19  1  0.000000  0.162657  0.008146  1
  Co  Co20  1  0.000000  0.837343  0.008146  1
  Co  Co21  1  0.000000  0.000000  0.835360  1
  Co  Co22  1  0.500000  0.500000  0.703637  1
  Co  Co23  1  0.000000  0.000000  0.300180  1
  Si  Si24  1  0.500000  0.307658  0.616241  1
  Si  Si25  1  0.500000  0.692342  0.616241  1
  Si  Si26  1  0.500000  0.859139  0.890386  1
  Si  Si27  1  0.500000  0.140861  0.890386  1
  P  P28  1  0.000000  0.190441  0.384960  1
  P  P29  1  0.000000  0.809559  0.384960  1
  P  P30  1  0.500000  0.500000  0.882939  1
  P  P31  1  0.000000  0.000000  0.120541  1
  P  P32  1  0.000000  0.661189  0.102458  1
  P  P33  1  0.000000  0.338811  0.102458  1
  P  P34  1  0.500000  0.500000  0.354434  1
  P  P35  1  0.000000  0.000000  0.653773  1
