# generated using pymatgen
data_LaTbMo3As7Rh9
_symmetry_space_group_name_H-M   'P 1'
_cell_length_a   4.04968805
_cell_length_b   9.90083975
_cell_length_c   9.90152911
_cell_angle_alpha   119.99910598
_cell_angle_beta   90.00800621
_cell_angle_gamma   89.98692580
_symmetry_Int_Tables_number   1
_chemical_formula_structural   LaTbMo3As7Rh9
_chemical_formula_sum   'La1 Tb1 Mo3 As7 Rh9'
_cell_volume   343.81942033
_cell_formula_units_Z   1
loop_
 _symmetry_equiv_pos_site_id
 _symmetry_equiv_pos_as_xyz
  1  'x, y, z'
loop_
 _atom_site_type_symbol
 _atom_site_label
 _atom_site_symmetry_multiplicity
 _atom_site_fract_x
 _atom_site_fract_y
 _atom_site_fract_z
 _atom_site_occupancy
  La  La0  1  0.261961  0.666737  0.333370  1
  Tb  Tb1  1  0.761820  0.333322  0.666663  1
  Mo  Mo2  1  0.761961  0.093281  0.876765  1
  Mo  Mo3  1  0.761953  0.123215  0.216551  1
  Mo  Mo4  1  0.761961  0.783450  0.906660  1
  As  As5  1  0.262177  0.999976  0.999968  1
  As  As6  1  0.761966  0.886034  0.597305  1
  As  As7  1  0.761970  0.402752  0.288760  1
  As  As8  1  0.761976  0.711265  0.113951  1
  As  As9  1  0.261769  0.116710  0.412634  1
  As  As10  1  0.261782  0.587317  0.704087  1
  As  As11  1  0.261787  0.295906  0.883265  1
  Rh  Rh12  1  0.261919  0.881609  0.158332  1
  Rh  Rh13  1  0.261912  0.841600  0.723311  1
  Rh  Rh14  1  0.261912  0.276747  0.118410  1
  Rh  Rh15  1  0.761865  0.612218  0.565966  1
  Rh  Rh16  1  0.761847  0.434142  0.046177  1
  Rh  Rh17  1  0.761840  0.953687  0.387827  1
  Rh  Rh18  1  0.261851  0.368533  0.435986  1
  Rh  Rh19  1  0.261891  0.564114  0.932502  1
  Rh  Rh20  1  0.261881  0.067382  0.631508  1
