# generated using pymatgen
data_LiZn8Pt4Rh3
_symmetry_space_group_name_H-M   'P 1'
_cell_length_a   6.03621400
_cell_length_b   4.35005200
_cell_length_c   8.68778400
_cell_angle_alpha   90.00000000
_cell_angle_beta   89.99978717
_cell_angle_gamma   90.00000000
_symmetry_Int_Tables_number   1
_chemical_formula_structural   LiZn8Pt4Rh3
_chemical_formula_sum   'Li1 Zn8 Pt4 Rh3'
_cell_volume   228.12248378
_cell_formula_units_Z   1
loop_
 _symmetry_equiv_pos_site_id
 _symmetry_equiv_pos_as_xyz
  1  'x, y, z'
loop_
 _atom_site_type_symbol
 _atom_site_label
 _atom_site_symmetry_multiplicity
 _atom_site_fract_x
 _atom_site_fract_y
 _atom_site_fract_z
 _atom_site_occupancy
  Li  Li0  1  0.250018  0.250000  0.124503  1
  Zn  Zn1  1  0.501133  0.749999  0.125400  1
  Zn  Zn2  1  0.998898  0.749999  0.125414  1
  Zn  Zn3  1  0.499023  0.250000  0.377011  1
  Zn  Zn4  1  0.001014  0.250000  0.377027  1
  Zn  Zn5  1  0.999791  0.749999  0.625390  1
  Zn  Zn6  1  0.500170  0.749999  0.625405  1
  Zn  Zn7  1  0.001035  0.250000  0.872207  1
  Zn  Zn8  1  0.498928  0.250000  0.872226  1
  Pt  Pt9  1  0.750032  0.250000  0.124599  1
  Pt  Pt10  1  0.250033  0.749999  0.369824  1
  Pt  Pt11  1  0.749968  0.250000  0.624667  1
  Pt  Pt12  1  0.249976  0.749999  0.880966  1
  Rh  Rh13  1  0.750016  0.749999  0.370883  1
  Rh  Rh14  1  0.249983  0.250000  0.624668  1
  Rh  Rh15  1  0.749983  0.749999  0.879808  1
