# generated using pymatgen
data_Sr3In(SiRh3)2
_symmetry_space_group_name_H-M   'P 1'
_cell_length_a   5.70780300
_cell_length_b   5.70780241
_cell_length_c   15.65477000
_cell_angle_alpha   90.00000000
_cell_angle_beta   90.00000000
_cell_angle_gamma   119.99999765
_symmetry_Int_Tables_number   1
_chemical_formula_structural   Sr3In(SiRh3)2
_chemical_formula_sum   'Sr6 In2 Si4 Rh12'
_cell_volume   441.68763243
_cell_formula_units_Z   2
loop_
 _symmetry_equiv_pos_site_id
 _symmetry_equiv_pos_as_xyz
  1  'x, y, z'
loop_
 _atom_site_type_symbol
 _atom_site_label
 _atom_site_symmetry_multiplicity
 _atom_site_fract_x
 _atom_site_fract_y
 _atom_site_fract_z
 _atom_site_occupancy
  Sr  Sr0  1  0.333334  0.666667  0.041552  1
  Sr  Sr1  1  0.333334  0.666667  0.250000  1
  Sr  Sr2  1  0.333334  0.666667  0.458448  1
  Sr  Sr3  1  0.666666  0.333333  0.541552  1
  Sr  Sr4  1  0.666666  0.333333  0.750000  1
  Sr  Sr5  1  0.666666  0.333333  0.958448  1
  In  In6  1  0.000000  0.000000  0.000000  1
  In  In7  1  0.000000  0.000000  0.500000  1
  Si  Si8  1  0.000000  0.000000  0.250000  1
  Si  Si9  1  0.666666  0.333333  0.250000  1
  Si  Si10  1  0.000000  0.000000  0.750000  1
  Si  Si11  1  0.333334  0.666667  0.750000  1
  Rh  Rh12  1  0.334318  0.167159  0.141979  1
  Rh  Rh13  1  0.832842  0.167159  0.141979  1
  Rh  Rh14  1  0.832842  0.665683  0.141979  1
  Rh  Rh15  1  0.334318  0.167159  0.358021  1
  Rh  Rh16  1  0.832842  0.167159  0.358021  1
  Rh  Rh17  1  0.832842  0.665683  0.358021  1
  Rh  Rh18  1  0.167159  0.334319  0.641979  1
  Rh  Rh19  1  0.167158  0.832841  0.641979  1
  Rh  Rh20  1  0.665682  0.832841  0.641979  1
  Rh  Rh21  1  0.167159  0.334319  0.858021  1
  Rh  Rh22  1  0.167158  0.832841  0.858021  1
  Rh  Rh23  1  0.665682  0.832841  0.858021  1
