# generated using pymatgen
data_TbDy3(ReB2)6
_symmetry_space_group_name_H-M   'P 1'
_cell_length_a   6.22608642
_cell_length_b   6.22576851
_cell_length_c   7.51381310
_cell_angle_alpha   89.38648656
_cell_angle_beta   89.41697764
_cell_angle_gamma   113.74829135
_symmetry_Int_Tables_number   1
_chemical_formula_structural   TbDy3(ReB2)6
_chemical_formula_sum   'Tb1 Dy3 Re6 B12'
_cell_volume   266.54086131
_cell_formula_units_Z   1
loop_
 _symmetry_equiv_pos_site_id
 _symmetry_equiv_pos_as_xyz
  1  'x, y, z'
loop_
 _atom_site_type_symbol
 _atom_site_label
 _atom_site_symmetry_multiplicity
 _atom_site_fract_x
 _atom_site_fract_y
 _atom_site_fract_z
 _atom_site_occupancy
  Tb  Tb0  1  0.899300  0.556776  0.322419  1
  Dy  Dy1  1  0.443222  0.100886  0.177784  1
  Dy  Dy2  1  0.100940  0.443261  0.677820  1
  Dy  Dy3  1  0.556726  0.899066  0.822195  1
  Re  Re4  1  0.411477  0.588590  0.249956  1
  Re  Re5  1  0.588574  0.411407  0.749968  1
  Re  Re6  1  0.009447  0.192812  0.088589  1
  Re  Re7  1  0.807023  0.990650  0.411399  1
  Re  Re8  1  0.990593  0.807093  0.911320  1
  Re  Re9  1  0.192940  0.009483  0.588707  1
  B  B10  1  0.750079  0.848855  0.129964  1
  B  B11  1  0.151268  0.249820  0.369975  1
  B  B12  1  0.249875  0.151224  0.869983  1
  B  B13  1  0.848759  0.750240  0.630153  1
  B  B14  1  0.413055  0.840449  0.479753  1
  B  B15  1  0.159642  0.586923  0.020150  1
  B  B16  1  0.586854  0.159485  0.520283  1
  B  B17  1  0.840407  0.413033  0.979643  1
  B  B18  1  0.557147  0.649768  0.535606  1
  B  B19  1  0.350237  0.442839  0.964407  1
  B  B20  1  0.442744  0.350178  0.464430  1
  B  B21  1  0.649693  0.557160  0.035498  1
