# generated using pymatgen
data_Mn5SbO8
_symmetry_space_group_name_H-M   'P 1'
_cell_length_a   6.25551426
_cell_length_b   6.25745107
_cell_length_c   11.10614427
_cell_angle_alpha   73.68891295
_cell_angle_beta   90.23847186
_cell_angle_gamma   59.95026276
_symmetry_Int_Tables_number   1
_chemical_formula_structural   Mn5SbO8
_chemical_formula_sum   'Mn10 Sb2 O16'
_cell_volume   355.62790565
_cell_formula_units_Z   2
loop_
 _symmetry_equiv_pos_site_id
 _symmetry_equiv_pos_as_xyz
  1  'x, y, z'
loop_
 _atom_site_type_symbol
 _atom_site_label
 _atom_site_symmetry_multiplicity
 _atom_site_fract_x
 _atom_site_fract_y
 _atom_site_fract_z
 _atom_site_occupancy
  Mn  Mn0  1  0.685544  0.134123  0.544705  1
  Mn  Mn1  1  0.814456  0.865877  0.955295  1
  Mn  Mn2  1  0.250000  0.500000  0.750000  1
  Mn  Mn3  1  0.750000  0.000000  0.250000  1
  Mn  Mn4  1  0.250000  0.500000  0.250000  1
  Mn  Mn5  1  0.186945  0.135164  0.045021  1
  Mn  Mn6  1  0.313056  0.864836  0.454979  1
  Mn  Mn7  1  0.750000  0.500000  0.250000  1
  Mn  Mn8  1  0.250000  0.000000  0.750000  1
  Mn  Mn9  1  0.750000  0.500000  0.750000  1
  Sb  Sb10  1  0.500777  0.499306  0.999988  1
  Sb  Sb11  1  0.999223  0.500694  0.500013  1
  O  O12  1  0.632007  0.240253  0.347867  1
  O  O13  1  0.132410  0.280287  0.847892  1
  O  O14  1  0.867992  0.759748  0.152133  1
  O  O15  1  0.367589  0.719713  0.652108  1
  O  O16  1  0.399642  0.263240  0.119433  1
  O  O17  1  0.887448  0.275266  0.614435  1
  O  O18  1  0.842025  0.265958  0.115708  1
  O  O19  1  0.340717  0.277443  0.615818  1
  O  O20  1  0.387582  0.722384  0.114552  1
  O  O21  1  0.897639  0.718815  0.619464  1
  O  O22  1  0.657975  0.734042  0.384292  1
  O  O23  1  0.159283  0.722556  0.884182  1
  O  O24  1  0.112418  0.277616  0.385448  1
  O  O25  1  0.602362  0.281185  0.880536  1
  O  O26  1  0.100358  0.736760  0.380568  1
  O  O27  1  0.612551  0.724734  0.885565  1
