# generated using pymatgen
data_Ti2NbGaMoC3
_symmetry_space_group_name_H-M   'P 1'
_cell_length_a   3.06904900
_cell_length_b   3.06904790
_cell_length_c   23.64887200
_cell_angle_alpha   90.00000000
_cell_angle_beta   90.00000000
_cell_angle_gamma   119.99997948
_symmetry_Int_Tables_number   1
_chemical_formula_structural   Ti2NbGaMoC3
_chemical_formula_sum   'Ti4 Nb2 Ga2 Mo2 C6'
_cell_volume   192.90729080
_cell_formula_units_Z   2
loop_
 _symmetry_equiv_pos_site_id
 _symmetry_equiv_pos_as_xyz
  1  'x, y, z'
loop_
 _atom_site_type_symbol
 _atom_site_label
 _atom_site_symmetry_multiplicity
 _atom_site_fract_x
 _atom_site_fract_y
 _atom_site_fract_z
 _atom_site_occupancy
  Ti  Ti0  1  0.333333  0.666667  0.446855  1
  Ti  Ti1  1  0.666667  0.333333  0.553145  1
  Ti  Ti2  1  0.666667  0.333333  0.947944  1
  Ti  Ti3  1  0.333333  0.666667  0.052056  1
  Nb  Nb4  1  0.000000  0.000000  0.841115  1
  Nb  Nb5  1  0.000000  0.000000  0.158885  1
  Ga  Ga6  1  0.333333  0.666667  0.252524  1
  Ga  Ga7  1  0.666667  0.333333  0.747476  1
  Mo  Mo8  1  0.000000  0.000000  0.342971  1
  Mo  Mo9  1  0.000000  0.000000  0.657029  1
  C  C10  1  0.000000  0.000000  0.500000  1
  C  C11  1  0.000000  0.000000  0.000000  1
  C  C12  1  0.666667  0.333333  0.392761  1
  C  C13  1  0.333333  0.666667  0.607239  1
  C  C14  1  0.333333  0.666667  0.893614  1
  C  C15  1  0.666667  0.333333  0.106386  1
