# generated using pymatgen
data_TbY2Al3CuPd2
_symmetry_space_group_name_H-M   'P 1'
_cell_length_a   7.12427404
_cell_length_b   7.15886479
_cell_length_c   4.04398600
_cell_angle_alpha   90.00000000
_cell_angle_beta   90.00000000
_cell_angle_gamma   120.16073865
_symmetry_Int_Tables_number   1
_chemical_formula_structural   TbY2Al3CuPd2
_chemical_formula_sum   'Tb1 Y2 Al3 Cu1 Pd2'
_cell_volume   178.32791815
_cell_formula_units_Z   1
loop_
 _symmetry_equiv_pos_site_id
 _symmetry_equiv_pos_as_xyz
  1  'x, y, z'
loop_
 _atom_site_type_symbol
 _atom_site_label
 _atom_site_symmetry_multiplicity
 _atom_site_fract_x
 _atom_site_fract_y
 _atom_site_fract_z
 _atom_site_occupancy
  Tb  Tb0  1  0.000000  0.586828  0.500000  1
  Y  Y1  1  0.412370  0.412331  0.500000  1
  Y  Y2  1  0.587630  0.999961  0.500000  1
  Al  Al3  1  0.765764  0.766335  0.000000  1
  Al  Al4  1  0.234236  0.000570  0.000000  1
  Al  Al5  1  0.000000  0.232477  0.000000  1
  Cu  Cu6  1  0.000000  0.000372  0.500000  1
  Pd  Pd7  1  0.667905  0.334515  0.000000  1
  Pd  Pd8  1  0.332095  0.666611  0.000000  1
