# generated using pymatgen
data_Tb2YbDy(AlPt)4
_symmetry_space_group_name_H-M   'P 1'
_cell_length_a   4.42802600
_cell_length_b   6.90058455
_cell_length_c   7.79740027
_cell_angle_alpha   90.30918214
_cell_angle_beta   90.00000000
_cell_angle_gamma   90.00000000
_symmetry_Int_Tables_number   1
_chemical_formula_structural   Tb2YbDy(AlPt)4
_chemical_formula_sum   'Tb2 Yb1 Dy1 Al4 Pt4'
_cell_volume   238.25364285
_cell_formula_units_Z   1
loop_
 _symmetry_equiv_pos_site_id
 _symmetry_equiv_pos_as_xyz
  1  'x, y, z'
loop_
 _atom_site_type_symbol
 _atom_site_label
 _atom_site_symmetry_multiplicity
 _atom_site_fract_x
 _atom_site_fract_y
 _atom_site_fract_z
 _atom_site_occupancy
  Tb  Tb0  1  0.250000  0.030430  0.320829  1
  Tb  Tb1  1  0.250000  0.531950  0.176215  1
  Yb  Yb2  1  0.750000  0.470237  0.821762  1
  Dy  Dy3  1  0.750000  0.966645  0.679353  1
  Al  Al4  1  0.250000  0.143996  0.938672  1
  Al  Al5  1  0.250000  0.641126  0.561958  1
  Al  Al6  1  0.750000  0.857546  0.061456  1
  Al  Al7  1  0.750000  0.358698  0.439207  1
  Pt  Pt8  1  0.250000  0.270033  0.620409  1
  Pt  Pt9  1  0.250000  0.777956  0.878817  1
  Pt  Pt10  1  0.750000  0.726060  0.378649  1
  Pt  Pt11  1  0.750000  0.225324  0.122670  1
