# generated using pymatgen
data_MgBeFeB2Rh5
_symmetry_space_group_name_H-M   'P 1'
_cell_length_a   9.18285200
_cell_length_b   2.86048400
_cell_length_c   9.18339400
_cell_angle_alpha   90.00000000
_cell_angle_beta   90.00000000
_cell_angle_gamma   90.00000000
_symmetry_Int_Tables_number   1
_chemical_formula_structural   MgBeFeB2Rh5
_chemical_formula_sum   'Mg2 Be2 Fe2 B4 Rh10'
_cell_volume   241.22389476
_cell_formula_units_Z   2
loop_
 _symmetry_equiv_pos_site_id
 _symmetry_equiv_pos_as_xyz
  1  'x, y, z'
loop_
 _atom_site_type_symbol
 _atom_site_label
 _atom_site_symmetry_multiplicity
 _atom_site_fract_x
 _atom_site_fract_y
 _atom_site_fract_z
 _atom_site_occupancy
  Mg  Mg0  1  0.174216  0.000000  0.675346  1
  Mg  Mg1  1  0.674216  0.000000  0.824654  1
  Be  Be2  1  0.000171  0.000000  0.997381  1
  Be  Be3  1  0.500171  0.000000  0.502619  1
  Fe  Fe4  1  0.321333  0.000000  0.177065  1
  Fe  Fe5  1  0.821333  0.000000  0.322935  1
  B  B6  1  0.632822  0.000000  0.132336  1
  B  B7  1  0.132823  0.000000  0.367665  1
  B  B8  1  0.871549  0.000000  0.628810  1
  B  B9  1  0.371549  0.000000  0.871190  1
  Rh  Rh10  1  0.496631  0.500001  0.006839  1
  Rh  Rh11  1  0.795667  0.500001  0.074187  1
  Rh  Rh12  1  0.068260  0.500001  0.204985  1
  Rh  Rh13  1  0.568260  0.500001  0.295015  1
  Rh  Rh14  1  0.295667  0.500001  0.425813  1
  Rh  Rh15  1  0.996631  0.500001  0.493161  1
  Rh  Rh16  1  0.708336  0.500001  0.562012  1
  Rh  Rh17  1  0.431015  0.500001  0.708116  1
  Rh  Rh18  1  0.931014  0.500001  0.791883  1
  Rh  Rh19  1  0.208337  0.500001  0.937987  1
