# generated using pymatgen
data_Tb6Er3TmSb6
_symmetry_space_group_name_H-M   'P 1'
_cell_length_a   9.00032800
_cell_length_b   9.00032690
_cell_length_c   6.28241900
_cell_angle_alpha   90.00000000
_cell_angle_beta   90.00000000
_cell_angle_gamma   119.99999668
_symmetry_Int_Tables_number   1
_chemical_formula_structural   Tb6Er3TmSb6
_chemical_formula_sum   'Tb6 Er3 Tm1 Sb6'
_cell_volume   440.73157419
_cell_formula_units_Z   1
loop_
 _symmetry_equiv_pos_site_id
 _symmetry_equiv_pos_as_xyz
  1  'x, y, z'
loop_
 _atom_site_type_symbol
 _atom_site_label
 _atom_site_symmetry_multiplicity
 _atom_site_fract_x
 _atom_site_fract_y
 _atom_site_fract_z
 _atom_site_occupancy
  Tb  Tb0  1  0.999987  0.752539  0.750006  1
  Tb  Tb1  1  0.999987  0.247448  0.249994  1
  Tb  Tb2  1  0.752552  0.752539  0.249994  1
  Tb  Tb3  1  0.752552  0.000013  0.750006  1
  Tb  Tb4  1  0.247461  0.247448  0.750006  1
  Tb  Tb5  1  0.247461  0.000013  0.249994  1
  Er  Er6  1  0.666667  0.333333  0.000000  1
  Er  Er7  1  0.666667  0.333333  0.500000  1
  Er  Er8  1  0.333333  0.666667  0.000000  1
  Tm  Tm9  1  0.333333  0.666667  0.500000  1
  Sb  Sb10  1  0.389596  0.999823  0.749860  1
  Sb  Sb11  1  0.389596  0.389773  0.250140  1
  Sb  Sb12  1  0.000177  0.610404  0.250140  1
  Sb  Sb13  1  0.000177  0.389773  0.749860  1
  Sb  Sb14  1  0.610227  0.610404  0.749860  1
  Sb  Sb15  1  0.610227  0.999823  0.250140  1
