# generated using pymatgen
data_TbEr3(Ga3Pt)2
_symmetry_space_group_name_H-M   'P 1'
_cell_length_a   8.81957900
_cell_length_b   8.81957984
_cell_length_c   6.94113600
_cell_angle_alpha   90.00000000
_cell_angle_beta   90.00000000
_cell_angle_gamma   120.00108083
_symmetry_Int_Tables_number   1
_chemical_formula_structural   TbEr3(Ga3Pt)2
_chemical_formula_sum   'Tb2 Er6 Ga12 Pt4'
_cell_volume   467.57599415
_cell_formula_units_Z   2
loop_
 _symmetry_equiv_pos_site_id
 _symmetry_equiv_pos_as_xyz
  1  'x, y, z'
loop_
 _atom_site_type_symbol
 _atom_site_label
 _atom_site_symmetry_multiplicity
 _atom_site_fract_x
 _atom_site_fract_y
 _atom_site_fract_z
 _atom_site_occupancy
  Tb  Tb0  1  0.000059  0.999941  0.250000  1
  Tb  Tb1  1  0.999941  0.000059  0.750000  1
  Er  Er2  1  0.520110  0.040339  0.250000  1
  Er  Er3  1  0.520052  0.479948  0.250000  1
  Er  Er4  1  0.959661  0.479890  0.250000  1
  Er  Er5  1  0.479890  0.959661  0.750000  1
  Er  Er6  1  0.479948  0.520052  0.750000  1
  Er  Er7  1  0.040339  0.520110  0.750000  1
  Ga  Ga8  1  0.167343  0.334821  0.046209  1
  Ga  Ga9  1  0.167498  0.832502  0.453891  1
  Ga  Ga10  1  0.665179  0.832657  0.453791  1
  Ga  Ga11  1  0.665179  0.832657  0.046209  1
  Ga  Ga12  1  0.167498  0.832502  0.046109  1
  Ga  Ga13  1  0.832657  0.665179  0.953791  1
  Ga  Ga14  1  0.832502  0.167498  0.953891  1
  Ga  Ga15  1  0.334821  0.167343  0.953791  1
  Ga  Ga16  1  0.167343  0.334821  0.453791  1
  Ga  Ga17  1  0.334821  0.167343  0.546209  1
  Ga  Ga18  1  0.832657  0.665179  0.546209  1
  Ga  Ga19  1  0.832502  0.167498  0.546109  1
  Pt  Pt20  1  0.333374  0.666626  0.029683  1
  Pt  Pt21  1  0.333374  0.666626  0.470317  1
  Pt  Pt22  1  0.666626  0.333374  0.970317  1
  Pt  Pt23  1  0.666626  0.333374  0.529683  1
