# generated using pymatgen
data_Hf8Co2RuRh
_symmetry_space_group_name_H-M   'P 1'
_cell_length_a   8.59033601
_cell_length_b   8.59033530
_cell_length_c   8.57863700
_cell_angle_alpha   60.04504153
_cell_angle_beta   60.04504427
_cell_angle_gamma   60.08600281
_symmetry_Int_Tables_number   1
_chemical_formula_structural   Hf8Co2RuRh
_chemical_formula_sum   'Hf16 Co4 Ru2 Rh2'
_cell_volume   448.22984382
_cell_formula_units_Z   2
loop_
 _symmetry_equiv_pos_site_id
 _symmetry_equiv_pos_as_xyz
  1  'x, y, z'
loop_
 _atom_site_type_symbol
 _atom_site_label
 _atom_site_symmetry_multiplicity
 _atom_site_fract_x
 _atom_site_fract_y
 _atom_site_fract_z
 _atom_site_occupancy
  Hf  Hf0  1  0.678528  0.107104  0.107183  1
  Hf  Hf1  1  0.107104  0.678528  0.107183  1
  Hf  Hf2  1  0.105229  0.105229  0.684956  1
  Hf  Hf3  1  0.105229  0.105229  0.104584  1
  Hf  Hf4  1  0.314448  0.314448  0.685552  1
  Hf  Hf5  1  0.686931  0.686931  0.313069  1
  Hf  Hf6  1  0.314427  0.689525  0.312918  1
  Hf  Hf7  1  0.689525  0.314427  0.683129  1
  Hf  Hf8  1  0.689525  0.314427  0.312918  1
  Hf  Hf9  1  0.314427  0.689525  0.683129  1
  Hf  Hf10  1  0.946447  0.946447  0.553553  1
  Hf  Hf11  1  0.556323  0.556323  0.943677  1
  Hf  Hf12  1  0.943790  0.556133  0.944489  1
  Hf  Hf13  1  0.556133  0.943790  0.555588  1
  Hf  Hf14  1  0.556133  0.943790  0.944489  1
  Hf  Hf15  1  0.943790  0.556133  0.555588  1
  Co  Co16  1  0.320531  0.890780  0.894344  1
  Co  Co17  1  0.890780  0.320531  0.894344  1
  Co  Co18  1  0.893036  0.893036  0.317910  1
  Co  Co19  1  0.893036  0.893036  0.896018  1
  Ru  Ru20  1  0.995040  0.332738  0.336110  1
  Ru  Ru21  1  0.332738  0.995040  0.336110  1
  Rh  Rh22  1  0.333422  0.333422  0.996278  1
  Rh  Rh23  1  0.333422  0.333422  0.336875  1
