# generated using pymatgen
data_CsUTaO6
_symmetry_space_group_name_H-M   'P 1'
_cell_length_a   7.70313155
_cell_length_b   7.70313215
_cell_length_c   7.70313253
_cell_angle_alpha   118.12354740
_cell_angle_beta   121.52023010
_cell_angle_gamma   90.33381376
_symmetry_Int_Tables_number   1
_chemical_formula_structural   CsUTaO6
_chemical_formula_sum   'Cs2 U2 Ta2 O12'
_cell_volume   323.72237453
_cell_formula_units_Z   2
loop_
 _symmetry_equiv_pos_site_id
 _symmetry_equiv_pos_as_xyz
  1  'x, y, z'
loop_
 _atom_site_type_symbol
 _atom_site_label
 _atom_site_symmetry_multiplicity
 _atom_site_fract_x
 _atom_site_fract_y
 _atom_site_fract_z
 _atom_site_occupancy
  Cs  Cs0  1  0.621197  0.871197  0.750000  1
  Cs  Cs1  1  0.378803  0.128803  0.250000  1
  U  U2  1  0.000000  0.500000  0.000000  1
  U  U3  1  0.000000  0.000000  0.500000  1
  Ta  Ta4  1  0.500000  0.500000  0.000000  1
  Ta  Ta5  1  0.000000  0.500000  0.500000  1
  O  O6  1  0.072820  0.822820  0.250000  1
  O  O7  1  0.695464  0.445464  0.250000  1
  O  O8  1  0.067418  0.805114  0.624094  1
  O  O9  1  0.681020  0.443324  0.875906  1
  O  O10  1  0.681020  0.805114  0.237696  1
  O  O11  1  0.067418  0.443324  0.262304  1
  O  O12  1  0.927180  0.177180  0.750000  1
  O  O13  1  0.304536  0.554536  0.750000  1
  O  O14  1  0.932582  0.194886  0.375906  1
  O  O15  1  0.318980  0.556676  0.124094  1
  O  O16  1  0.318980  0.194886  0.762304  1
  O  O17  1  0.932582  0.556676  0.737696  1
