# generated using pymatgen
data_Sm2Np6CrSe17
_symmetry_space_group_name_H-M   'P 1'
_cell_length_a   8.25283110
_cell_length_b   8.25282915
_cell_length_c   10.99147300
_cell_angle_alpha   80.52768853
_cell_angle_beta   80.52769783
_cell_angle_gamma   65.23898572
_symmetry_Int_Tables_number   1
_chemical_formula_structural   Sm2Np6CrSe17
_chemical_formula_sum   'Sm2 Np6 Cr1 Se17'
_cell_volume   666.69172315
_cell_formula_units_Z   1
loop_
 _symmetry_equiv_pos_site_id
 _symmetry_equiv_pos_as_xyz
  1  'x, y, z'
loop_
 _atom_site_type_symbol
 _atom_site_label
 _atom_site_symmetry_multiplicity
 _atom_site_fract_x
 _atom_site_fract_y
 _atom_site_fract_z
 _atom_site_occupancy
  Sm  Sm0  1  0.679618  0.679618  0.978885  1
  Sm  Sm1  1  0.320382  0.320382  0.021115  1
  Np  Np2  1  0.817000  0.303923  0.297359  1
  Np  Np3  1  0.696077  0.183000  0.702641  1
  Np  Np4  1  0.183000  0.696077  0.702641  1
  Np  Np5  1  0.303923  0.817000  0.297359  1
  Np  Np6  1  0.204296  0.204296  0.542865  1
  Np  Np7  1  0.795704  0.795704  0.457135  1
  Cr  Cr8  1  0.000000  0.000000  0.000000  1
  Se  Se9  1  0.825086  0.430907  0.534555  1
  Se  Se10  1  0.569093  0.174914  0.465445  1
  Se  Se11  1  0.174914  0.569093  0.465445  1
  Se  Se12  1  0.430907  0.825086  0.534555  1
  Se  Se13  1  0.944056  0.317394  0.034865  1
  Se  Se14  1  0.682605  0.055944  0.965135  1
  Se  Se15  1  0.055944  0.682605  0.965135  1
  Se  Se16  1  0.317395  0.944056  0.034865  1
  Se  Se17  1  0.208435  0.208435  0.284081  1
  Se  Se18  1  0.791565  0.791565  0.715919  1
  Se  Se19  1  0.056782  0.056782  0.772296  1
  Se  Se20  1  0.943218  0.943218  0.227704  1
  Se  Se21  1  0.299544  0.299544  0.751232  1
  Se  Se22  1  0.700456  0.700456  0.248768  1
  Se  Se23  1  0.520922  0.520922  0.819164  1
  Se  Se24  1  0.479078  0.479078  0.180836  1
  Se  Se25  1  0.000000  0.000000  0.500000  1
