# generated using pymatgen
data_Rb4Os2O9
_symmetry_space_group_name_H-M   'P 1'
_cell_length_a   6.35433700
_cell_length_b   6.35433689
_cell_length_c   16.73618800
_cell_angle_alpha   90.00000000
_cell_angle_beta   90.00000000
_cell_angle_gamma   119.99998498
_symmetry_Int_Tables_number   1
_chemical_formula_structural   Rb4Os2O9
_chemical_formula_sum   'Rb8 Os4 O18'
_cell_volume   585.23153895
_cell_formula_units_Z   2
loop_
 _symmetry_equiv_pos_site_id
 _symmetry_equiv_pos_as_xyz
  1  'x, y, z'
loop_
 _atom_site_type_symbol
 _atom_site_label
 _atom_site_symmetry_multiplicity
 _atom_site_fract_x
 _atom_site_fract_y
 _atom_site_fract_z
 _atom_site_occupancy
  Rb  Rb0  1  0.000000  0.000000  0.250000  1
  Rb  Rb1  1  0.000000  0.000000  0.750000  1
  Rb  Rb2  1  0.333333  0.666667  0.371799  1
  Rb  Rb3  1  0.666667  0.333333  0.628201  1
  Rb  Rb4  1  0.666667  0.333333  0.871799  1
  Rb  Rb5  1  0.333333  0.666667  0.128201  1
  Rb  Rb6  1  0.000000  0.000000  0.500000  1
  Rb  Rb7  1  0.000000  0.000000  0.000000  1
  Os  Os8  1  0.666667  0.333333  0.337169  1
  Os  Os9  1  0.333333  0.666667  0.662831  1
  Os  Os10  1  0.333333  0.666667  0.837169  1
  Os  Os11  1  0.666667  0.333333  0.162831  1
  O  O12  1  0.537296  0.462704  0.250000  1
  O  O13  1  0.537296  0.074590  0.250000  1
  O  O14  1  0.925410  0.462704  0.250000  1
  O  O15  1  0.462704  0.537296  0.750000  1
  O  O16  1  0.462704  0.925410  0.750000  1
  O  O17  1  0.074590  0.537296  0.750000  1
  O  O18  1  0.376979  0.188490  0.388217  1
  O  O19  1  0.811510  0.188490  0.388217  1
  O  O20  1  0.811510  0.623021  0.388217  1
  O  O21  1  0.623021  0.811510  0.611783  1
  O  O22  1  0.188490  0.811510  0.611783  1
  O  O23  1  0.188490  0.376979  0.611783  1
  O  O24  1  0.623021  0.811510  0.888217  1
  O  O25  1  0.188490  0.811510  0.888217  1
  O  O26  1  0.188490  0.376979  0.888217  1
  O  O27  1  0.376979  0.188490  0.111783  1
  O  O28  1  0.811510  0.188490  0.111783  1
  O  O29  1  0.811510  0.623021  0.111783  1
