# generated using pymatgen
data_DyHo7(Re3Si4)4
_symmetry_space_group_name_H-M   'P 1'
_cell_length_a   6.76896815
_cell_length_b   6.76831210
_cell_length_c   12.74334000
_cell_angle_alpha   90.00421572
_cell_angle_beta   89.98804816
_cell_angle_gamma   90.00880479
_symmetry_Int_Tables_number   1
_chemical_formula_structural   DyHo7(Re3Si4)4
_chemical_formula_sum   'Dy1 Ho7 Re12 Si16'
_cell_volume   583.82958913
_cell_formula_units_Z   1
loop_
 _symmetry_equiv_pos_site_id
 _symmetry_equiv_pos_as_xyz
  1  'x, y, z'
loop_
 _atom_site_type_symbol
 _atom_site_label
 _atom_site_symmetry_multiplicity
 _atom_site_fract_x
 _atom_site_fract_y
 _atom_site_fract_z
 _atom_site_occupancy
  Dy  Dy0  1  0.662424  0.007232  0.968792  1
  Ho  Ho1  1  0.007445  0.662127  0.031181  1
  Ho  Ho2  1  0.992611  0.337855  0.531162  1
  Ho  Ho3  1  0.337847  0.992631  0.468806  1
  Ho  Ho4  1  0.162151  0.492620  0.781134  1
  Ho  Ho5  1  0.837860  0.507434  0.281176  1
  Ho  Ho6  1  0.492572  0.162237  0.218906  1
  Ho  Ho7  1  0.507403  0.837818  0.718720  1
  Re  Re8  1  0.664617  0.664638  0.499982  1
  Re  Re9  1  0.164699  0.835376  0.249943  1
  Re  Re10  1  0.335163  0.335822  0.000091  1
  Re  Re11  1  0.019517  0.813197  0.631048  1
  Re  Re12  1  0.981060  0.186899  0.131125  1
  Re  Re13  1  0.813164  0.019533  0.368971  1
  Re  Re14  1  0.313273  0.480613  0.380891  1
  Re  Re15  1  0.686478  0.518879  0.880995  1
  Re  Re16  1  0.480757  0.313391  0.619042  1
  Re  Re17  1  0.518939  0.685907  0.119304  1
  Re  Re18  1  0.186456  0.980736  0.869020  1
  Re  Re19  1  0.835640  0.164795  0.749672  1
  Si  Si20  1  0.019600  0.726653  0.438280  1
  Si  Si21  1  0.614329  0.304449  0.434264  1
  Si  Si22  1  0.385448  0.695418  0.934285  1
  Si  Si23  1  0.195671  0.114439  0.684195  1
  Si  Si24  1  0.304417  0.614272  0.565713  1
  Si  Si25  1  0.695839  0.385843  0.065870  1
  Si  Si26  1  0.804497  0.885518  0.184399  1
  Si  Si27  1  0.114367  0.195626  0.315811  1
  Si  Si28  1  0.980627  0.273773  0.938253  1
  Si  Si29  1  0.726662  0.019634  0.561684  1
  Si  Si30  1  0.226302  0.480232  0.188298  1
  Si  Si31  1  0.773528  0.519698  0.688240  1
  Si  Si32  1  0.480189  0.226704  0.811503  1
  Si  Si33  1  0.519694  0.773550  0.311818  1
  Si  Si34  1  0.273091  0.980339  0.061849  1
  Si  Si35  1  0.885660  0.804111  0.815576  1
