# generated using pymatgen
data_Sr6CaAu3
_symmetry_space_group_name_H-M   'P 1'
_cell_length_a   10.97299900
_cell_length_b   10.97299798
_cell_length_c   7.31373700
_cell_angle_alpha   90.00000000
_cell_angle_beta   90.00000000
_cell_angle_gamma   120.00000006
_symmetry_Int_Tables_number   1
_chemical_formula_structural   Sr6CaAu3
_chemical_formula_sum   'Sr12 Ca2 Au6'
_cell_volume   762.64180773
_cell_formula_units_Z   2
loop_
 _symmetry_equiv_pos_site_id
 _symmetry_equiv_pos_as_xyz
  1  'x, y, z'
loop_
 _atom_site_type_symbol
 _atom_site_label
 _atom_site_symmetry_multiplicity
 _atom_site_fract_x
 _atom_site_fract_y
 _atom_site_fract_z
 _atom_site_occupancy
  Sr  Sr0  1  0.125606  0.874394  0.243653  1
  Sr  Sr1  1  0.251211  0.125606  0.743653  1
  Sr  Sr2  1  0.874394  0.748789  0.743653  1
  Sr  Sr3  1  0.125606  0.251211  0.243653  1
  Sr  Sr4  1  0.748789  0.874394  0.243653  1
  Sr  Sr5  1  0.874394  0.125606  0.743653  1
  Sr  Sr6  1  0.540239  0.459761  0.062305  1
  Sr  Sr7  1  0.080479  0.540239  0.562305  1
  Sr  Sr8  1  0.459761  0.919521  0.562305  1
  Sr  Sr9  1  0.540239  0.080479  0.062305  1
  Sr  Sr10  1  0.919521  0.459761  0.062305  1
  Sr  Sr11  1  0.459761  0.540239  0.562305  1
  Ca  Ca12  1  0.333333  0.666667  0.037008  1
  Ca  Ca13  1  0.666667  0.333333  0.537008  1
  Au  Au14  1  0.807983  0.192017  0.343706  1
  Au  Au15  1  0.615968  0.807983  0.843706  1
  Au  Au16  1  0.192017  0.384032  0.843706  1
  Au  Au17  1  0.807983  0.615968  0.343706  1
  Au  Au18  1  0.384032  0.192017  0.343706  1
  Au  Au19  1  0.192017  0.807983  0.843706  1
