# generated using pymatgen
data_Pr3Nd7B2Br15
_symmetry_space_group_name_H-M   'P 1'
_cell_length_a   9.43663382
_cell_length_b   10.24620155
_cell_length_c   11.08985807
_cell_angle_alpha   91.07674327
_cell_angle_beta   114.52825112
_cell_angle_gamma   110.87261055
_symmetry_Int_Tables_number   1
_chemical_formula_structural   Pr3Nd7B2Br15
_chemical_formula_sum   'Pr3 Nd7 B2 Br15'
_cell_volume   893.79183111
_cell_formula_units_Z   1
loop_
 _symmetry_equiv_pos_site_id
 _symmetry_equiv_pos_as_xyz
  1  'x, y, z'
loop_
 _atom_site_type_symbol
 _atom_site_label
 _atom_site_symmetry_multiplicity
 _atom_site_fract_x
 _atom_site_fract_y
 _atom_site_fract_z
 _atom_site_occupancy
  Pr  Pr0  1  0.802866  0.411027  0.277073  1
  Pr  Pr1  1  0.197023  0.588863  0.722899  1
  Pr  Pr2  1  0.676562  0.745848  0.820612  1
  Nd  Nd3  1  0.324727  0.253978  0.179425  1
  Nd  Nd4  1  0.525802  0.704300  0.096389  1
  Nd  Nd5  1  0.474082  0.295735  0.903690  1
  Nd  Nd6  1  0.586244  0.039217  0.325272  1
  Nd  Nd7  1  0.413489  0.960861  0.674646  1
  Nd  Nd8  1  0.725347  0.075457  0.048687  1
  Nd  Nd9  1  0.274531  0.924690  0.951434  1
  B  B10  1  0.466862  0.819105  0.876355  1
  B  B11  1  0.532319  0.181167  0.123805  1
  Br  Br12  1  0.001176  0.001017  0.000742  1
  Br  Br13  1  0.636821  0.883638  0.583761  1
  Br  Br14  1  0.362860  0.117060  0.415145  1
  Br  Br15  1  0.882515  0.297675  0.527950  1
  Br  Br16  1  0.117434  0.702321  0.472031  1
  Br  Br17  1  0.290573  0.762655  0.179724  1
  Br  Br18  1  0.709354  0.237349  0.820285  1
  Br  Br19  1  0.055986  0.341995  0.226228  1
  Br  Br20  1  0.164916  0.057590  0.703546  1
  Br  Br21  1  0.835008  0.942439  0.296460  1
  Br  Br22  1  0.232066  0.409877  0.944715  1
  Br  Br23  1  0.768133  0.589618  0.056080  1
  Br  Br24  1  0.408257  0.462411  0.659934  1
  Br  Br25  1  0.590373  0.536360  0.339427  1
  Br  Br26  1  0.944673  0.657749  0.773684  1
