# generated using pymatgen
data_Th2SiPd14
_symmetry_space_group_name_H-M   'P 1'
_cell_length_a   9.03522500
_cell_length_b   9.03522500
_cell_length_c   7.08983800
_cell_angle_alpha   90.00000000
_cell_angle_beta   90.00000000
_cell_angle_gamma   90.00000000
_symmetry_Int_Tables_number   1
_chemical_formula_structural   Th2SiPd14
_chemical_formula_sum   'Th4 Si2 Pd28'
_cell_volume   578.78098686
_cell_formula_units_Z   2
loop_
 _symmetry_equiv_pos_site_id
 _symmetry_equiv_pos_as_xyz
  1  'x, y, z'
loop_
 _atom_site_type_symbol
 _atom_site_label
 _atom_site_symmetry_multiplicity
 _atom_site_fract_x
 _atom_site_fract_y
 _atom_site_fract_z
 _atom_site_occupancy
  Th  Th0  1  0.500000  0.000000  0.932293  1
  Th  Th1  1  0.000000  0.500000  0.067707  1
  Th  Th2  1  0.000000  0.000000  0.500000  1
  Th  Th3  1  0.500000  0.500000  0.500000  1
  Si  Si4  1  0.500000  0.000000  0.446926  1
  Si  Si5  1  0.000000  0.500000  0.553074  1
  Pd  Pd6  1  0.335486  0.835486  0.615520  1
  Pd  Pd7  1  0.335486  0.164514  0.615520  1
  Pd  Pd8  1  0.664514  0.835486  0.615520  1
  Pd  Pd9  1  0.664514  0.164514  0.615520  1
  Pd  Pd10  1  0.164514  0.664514  0.384480  1
  Pd  Pd11  1  0.164514  0.335486  0.384480  1
  Pd  Pd12  1  0.835486  0.664514  0.384480  1
  Pd  Pd13  1  0.835486  0.335486  0.384480  1
  Pd  Pd14  1  0.500000  0.771005  0.256838  1
  Pd  Pd15  1  0.500000  0.228995  0.256838  1
  Pd  Pd16  1  0.271005  0.000000  0.256838  1
  Pd  Pd17  1  0.728995  0.000000  0.256838  1
  Pd  Pd18  1  0.000000  0.728995  0.743162  1
  Pd  Pd19  1  0.000000  0.271005  0.743162  1
  Pd  Pd20  1  0.228995  0.500000  0.743162  1
  Pd  Pd21  1  0.771005  0.500000  0.743162  1
  Pd  Pd22  1  0.500000  0.348694  0.852600  1
  Pd  Pd23  1  0.500000  0.651306  0.852600  1
  Pd  Pd24  1  0.848694  0.000000  0.852600  1
  Pd  Pd25  1  0.151306  0.000000  0.852600  1
  Pd  Pd26  1  0.000000  0.151306  0.147400  1
  Pd  Pd27  1  0.000000  0.848694  0.147400  1
  Pd  Pd28  1  0.651306  0.500000  0.147400  1
  Pd  Pd29  1  0.348694  0.500000  0.147400  1
  Pd  Pd30  1  0.250000  0.750000  0.000000  1
  Pd  Pd31  1  0.250000  0.250000  0.000000  1
  Pd  Pd32  1  0.750000  0.750000  0.000000  1
  Pd  Pd33  1  0.750000  0.250000  0.000000  1
