# generated using pymatgen
data_SrEu2Ti2O7
_symmetry_space_group_name_H-M   'P 1'
_cell_length_a   3.96488548
_cell_length_b   3.96488593
_cell_length_c   10.50985057
_cell_angle_alpha   100.87266771
_cell_angle_beta   100.87266810
_cell_angle_gamma   90.00001383
_symmetry_Int_Tables_number   1
_chemical_formula_structural   SrEu2Ti2O7
_chemical_formula_sum   'Sr1 Eu2 Ti2 O7'
_cell_volume   159.23123733
_cell_formula_units_Z   1
loop_
 _symmetry_equiv_pos_site_id
 _symmetry_equiv_pos_as_xyz
  1  'x, y, z'
loop_
 _atom_site_type_symbol
 _atom_site_label
 _atom_site_symmetry_multiplicity
 _atom_site_fract_x
 _atom_site_fract_y
 _atom_site_fract_z
 _atom_site_occupancy
  Sr  Sr0  1  0.500001  0.500001  0.000000  1
  Eu  Eu1  1  0.683614  0.683614  0.367228  1
  Eu  Eu2  1  0.316386  0.316386  0.632772  1
  Ti  Ti3  1  0.099195  0.099195  0.198390  1
  Ti  Ti4  1  0.900805  0.900805  0.801610  1
  O  O5  1  0.000000  0.000000  0.000000  1
  O  O6  1  0.599540  0.099539  0.199079  1
  O  O7  1  0.099539  0.599540  0.199079  1
  O  O8  1  0.198197  0.198197  0.396395  1
  O  O9  1  0.801804  0.801804  0.603606  1
  O  O10  1  0.900461  0.400461  0.800921  1
  O  O11  1  0.400461  0.900461  0.800921  1
