# generated using pymatgen
data_Sb2Pd2Pt
_symmetry_space_group_name_H-M   'P 1'
_cell_length_a   6.98502540
_cell_length_b   6.98502555
_cell_length_c   6.98502544
_cell_angle_alpha   134.49111607
_cell_angle_beta   123.16495652
_cell_angle_gamma   75.64967569
_symmetry_Int_Tables_number   1
_chemical_formula_structural   Sb2Pd2Pt
_chemical_formula_sum   'Sb4 Pd4 Pt2'
_cell_volume   198.20126910
_cell_formula_units_Z   2
loop_
 _symmetry_equiv_pos_site_id
 _symmetry_equiv_pos_as_xyz
  1  'x, y, z'
loop_
 _atom_site_type_symbol
 _atom_site_label
 _atom_site_symmetry_multiplicity
 _atom_site_fract_x
 _atom_site_fract_y
 _atom_site_fract_z
 _atom_site_occupancy
  Sb  Sb0  1  0.604753  0.347257  0.257497  1
  Sb  Sb1  1  0.395247  0.652743  0.742503  1
  Sb  Sb2  1  0.910240  0.152743  0.757497  1
  Sb  Sb3  1  0.089760  0.847257  0.242503  1
  Pd  Pd4  1  0.528236  0.894392  0.633843  1
  Pd  Pd5  1  0.471764  0.105608  0.366157  1
  Pd  Pd6  1  0.260549  0.394392  0.866157  1
  Pd  Pd7  1  0.739451  0.605608  0.133843  1
  Pt  Pt8  1  0.000000  0.750000  0.750000  1
  Pt  Pt9  1  0.000000  0.250000  0.250000  1
