# generated using pymatgen
data_Lu2(Ga3Ir)3
_symmetry_space_group_name_H-M   'P 1'
_cell_length_a   7.55123789
_cell_length_b   7.55123776
_cell_length_c   9.45616200
_cell_angle_alpha   90.00000000
_cell_angle_beta   90.00000000
_cell_angle_gamma   119.92346943
_symmetry_Int_Tables_number   1
_chemical_formula_structural   Lu2(Ga3Ir)3
_chemical_formula_sum   'Lu4 Ga18 Ir6'
_cell_volume   467.32200602
_cell_formula_units_Z   2
loop_
 _symmetry_equiv_pos_site_id
 _symmetry_equiv_pos_as_xyz
  1  'x, y, z'
loop_
 _atom_site_type_symbol
 _atom_site_label
 _atom_site_symmetry_multiplicity
 _atom_site_fract_x
 _atom_site_fract_y
 _atom_site_fract_z
 _atom_site_occupancy
  Lu  Lu0  1  0.997919  0.668643  0.250000  1
  Lu  Lu1  1  0.002081  0.331357  0.750000  1
  Lu  Lu2  1  0.668643  0.997919  0.250000  1
  Lu  Lu3  1  0.331357  0.002081  0.750000  1
  Ga  Ga4  1  0.126834  0.126833  0.250000  1
  Ga  Ga5  1  0.873167  0.873166  0.750000  1
  Ga  Ga6  1  0.998141  0.334447  0.082113  1
  Ga  Ga7  1  0.001859  0.665553  0.917887  1
  Ga  Ga8  1  0.001859  0.665553  0.582113  1
  Ga  Ga9  1  0.334447  0.998141  0.417887  1
  Ga  Ga10  1  0.998141  0.334447  0.417887  1
  Ga  Ga11  1  0.665553  0.001859  0.582113  1
  Ga  Ga12  1  0.665553  0.001859  0.917887  1
  Ga  Ga13  1  0.334447  0.998141  0.082113  1
  Ga  Ga14  1  0.330888  0.330888  0.566931  1
  Ga  Ga15  1  0.669112  0.669112  0.433069  1
  Ga  Ga16  1  0.669112  0.669112  0.066931  1
  Ga  Ga17  1  0.330888  0.330888  0.933069  1
  Ga  Ga18  1  0.339367  0.547857  0.250000  1
  Ga  Ga19  1  0.660633  0.452143  0.750000  1
  Ga  Ga20  1  0.547857  0.339367  0.250000  1
  Ga  Ga21  1  0.452143  0.660633  0.750000  1
  Ir  Ir22  1  0.671668  0.328332  0.000000  1
  Ir  Ir23  1  0.328332  0.671668  0.000000  1
  Ir  Ir24  1  0.328332  0.671668  0.500000  1
  Ir  Ir25  1  0.671668  0.328332  0.500000  1
  Ir  Ir26  1  0.000000  0.000000  0.000000  1
  Ir  Ir27  1  0.000000  0.000000  0.500000  1
