# generated using pymatgen
data_Nd3ErTh4(As2Au)8
_symmetry_space_group_name_H-M   'P 1'
_cell_length_a   5.89917500
_cell_length_b   5.89683602
_cell_length_c   20.30830900
_cell_angle_alpha   90.00462499
_cell_angle_beta   90.00000000
_cell_angle_gamma   90.00000000
_symmetry_Int_Tables_number   1
_chemical_formula_structural   Nd3ErTh4(As2Au)8
_chemical_formula_sum   'Nd3 Er1 Th4 As16 Au8'
_cell_volume   706.45433122
_cell_formula_units_Z   1
loop_
 _symmetry_equiv_pos_site_id
 _symmetry_equiv_pos_as_xyz
  1  'x, y, z'
loop_
 _atom_site_type_symbol
 _atom_site_label
 _atom_site_symmetry_multiplicity
 _atom_site_fract_x
 _atom_site_fract_y
 _atom_site_fract_z
 _atom_site_occupancy
  Nd  Nd0  1  0.749998  0.494872  0.613520  1
  Nd  Nd1  1  0.250003  0.505050  0.385501  1
  Nd  Nd2  1  0.249983  0.495105  0.887871  1
  Er  Er3  1  0.750004  0.504374  0.114932  1
  Th  Th4  1  0.250002  0.994684  0.614812  1
  Th  Th5  1  0.750008  0.005272  0.384184  1
  Th  Th6  1  0.749980  0.995194  0.887262  1
  Th  Th7  1  0.249998  0.004357  0.113448  1
  As  As8  1  0.750003  0.994783  0.655234  1
  As  As9  1  0.249994  0.005166  0.344060  1
  As  As10  1  0.249990  0.995270  0.846726  1
  As  As11  1  0.750004  0.003427  0.151879  1
  As  As12  1  0.250005  0.494573  0.656730  1
  As  As13  1  0.750012  0.505049  0.342704  1
  As  As14  1  0.749971  0.495140  0.844492  1
  As  As15  1  0.250009  0.504203  0.153391  1
  As  As16  1  0.001648  0.241090  0.499743  1
  As  As17  1  0.502122  0.758749  0.499605  1
  As  As18  1  0.989034  0.253332  0.002511  1
  As  As19  1  0.508156  0.746353  0.002561  1
  As  As20  1  0.997898  0.758749  0.499606  1
  As  As21  1  0.498369  0.241091  0.499743  1
  As  As22  1  0.991854  0.746370  0.002561  1
  As  As23  1  0.510959  0.253335  0.002510  1
  Au  Au24  1  0.499942  0.736858  0.750563  1
  Au  Au25  1  0.999352  0.264965  0.247823  1
  Au  Au26  1  0.500688  0.264961  0.247823  1
  Au  Au27  1  0.000037  0.736876  0.750562  1
  Au  Au28  1  0.499981  0.235354  0.750636  1
  Au  Au29  1  0.999589  0.765016  0.248179  1
  Au  Au30  1  0.500375  0.765017  0.248183  1
  Au  Au31  1  0.000032  0.235369  0.750643  1
