# generated using pymatgen
data_Er5Tm5(CoBi)4
_symmetry_space_group_name_H-M   'P 1'
_cell_length_a   8.13425904
_cell_length_b   8.13426078
_cell_length_c   15.36373907
_cell_angle_alpha   90.01089942
_cell_angle_beta   89.98910132
_cell_angle_gamma   154.06570059
_symmetry_Int_Tables_number   1
_chemical_formula_structural   Er5Tm5(CoBi)4
_chemical_formula_sum   'Er5 Tm5 Co4 Bi4'
_cell_volume   444.58256063
_cell_formula_units_Z   1
loop_
 _symmetry_equiv_pos_site_id
 _symmetry_equiv_pos_as_xyz
  1  'x, y, z'
loop_
 _atom_site_type_symbol
 _atom_site_label
 _atom_site_symmetry_multiplicity
 _atom_site_fract_x
 _atom_site_fract_y
 _atom_site_fract_z
 _atom_site_occupancy
  Er  Er0  1  0.392990  0.607010  0.750030  1
  Er  Er1  1  0.038560  0.961440  0.627146  1
  Er  Er2  1  0.264041  0.735959  0.133292  1
  Er  Er3  1  0.263964  0.736036  0.366716  1
  Er  Er4  1  0.735885  0.264115  0.866910  1
  Tm  Tm5  1  0.606481  0.393519  0.249966  1
  Tm  Tm6  1  0.735858  0.264142  0.633608  1
  Tm  Tm7  1  0.961595  0.038405  0.128090  1
  Tm  Tm8  1  0.038589  0.961411  0.872377  1
  Tm  Tm9  1  0.961578  0.038422  0.371880  1
  Co  Co10  1  0.416264  0.583736  0.250009  1
  Co  Co11  1  0.584354  0.415646  0.750092  1
  Co  Co12  1  0.823297  0.176703  0.249997  1
  Co  Co13  1  0.176982  0.823018  0.749906  1
  Bi  Bi14  1  0.617572  0.382428  0.038576  1
  Bi  Bi15  1  0.617768  0.382232  0.461381  1
  Bi  Bi16  1  0.381771  0.618229  0.538484  1
  Bi  Bi17  1  0.382451  0.617549  0.961541  1
