# generated using pymatgen
data_TbTm3Tc4F28
_symmetry_space_group_name_H-M   'P 1'
_cell_length_a   5.53200127
_cell_length_b   8.84424509
_cell_length_c   11.95520511
_cell_angle_alpha   62.62309818
_cell_angle_beta   90.05057659
_cell_angle_gamma   90.00740642
_symmetry_Int_Tables_number   1
_chemical_formula_structural   TbTm3Tc4F28
_chemical_formula_sum   'Tb1 Tm3 Tc4 F28'
_cell_volume   519.41352833
_cell_formula_units_Z   1
loop_
 _symmetry_equiv_pos_site_id
 _symmetry_equiv_pos_as_xyz
  1  'x, y, z'
loop_
 _atom_site_type_symbol
 _atom_site_label
 _atom_site_symmetry_multiplicity
 _atom_site_fract_x
 _atom_site_fract_y
 _atom_site_fract_z
 _atom_site_occupancy
  Tb  Tb0  1  0.241318  0.815693  0.764113  1
  Tm  Tm1  1  0.258598  0.815727  0.263900  1
  Tm  Tm2  1  0.740339  0.187369  0.735940  1
  Tm  Tm3  1  0.758825  0.184753  0.236195  1
  Tc  Tc4  1  0.757790  0.725884  0.045159  1
  Tc  Tc5  1  0.241824  0.271488  0.958087  1
  Tc  Tc6  1  0.258704  0.275255  0.455912  1
  Tc  Tc7  1  0.742744  0.726001  0.540918  1
  F  F8  1  0.942494  0.707202  0.413006  1
  F  F9  1  0.057661  0.293156  0.583852  1
  F  F10  1  0.443473  0.291444  0.085185  1
  F  F11  1  0.560123  0.706908  0.916473  1
  F  F12  1  0.469207  0.729318  0.139615  1
  F  F13  1  0.529733  0.270691  0.862237  1
  F  F14  1  0.971490  0.271036  0.360524  1
  F  F15  1  0.031986  0.727426  0.635092  1
  F  F16  1  0.953971  0.745402  0.175901  1
  F  F17  1  0.044426  0.253227  0.826774  1
  F  F18  1  0.456334  0.255230  0.325469  1
  F  F19  1  0.550958  0.743645  0.673272  1
  F  F20  1  0.771576  0.476226  0.142770  1
  F  F21  1  0.226308  0.519943  0.859481  1
  F  F22  1  0.273201  0.524314  0.357701  1
  F  F23  1  0.727653  0.476726  0.640379  1
  F  F24  1  0.943035  0.275943  0.047546  1
  F  F25  1  0.056844  0.720852  0.957179  1
  F  F26  1  0.441547  0.723065  0.452477  1
  F  F27  1  0.557424  0.278092  0.546130  1
  F  F28  1  0.742412  0.974561  0.445381  1
  F  F29  1  0.258951  0.026928  0.551581  1
  F  F30  1  0.241534  0.023141  0.054497  1
  F  F31  1  0.758738  0.974111  0.947441  1
  F  F32  1  0.579941  0.971710  0.232467  1
  F  F33  1  0.417838  0.035318  0.768366  1
  F  F34  1  0.080129  0.028800  0.267633  1
  F  F35  1  0.910869  0.973417  0.731347  1
