# generated using pymatgen
data_ErSi2Ag2(PPd5)4
_symmetry_space_group_name_H-M   'P 1'
_cell_length_a   8.62572916
_cell_length_b   8.62672340
_cell_length_c   8.62970248
_cell_angle_alpha   60.01141783
_cell_angle_beta   59.96338933
_cell_angle_gamma   59.99617901
_symmetry_Int_Tables_number   1
_chemical_formula_structural   ErSi2Ag2(PPd5)4
_chemical_formula_sum   'Er1 Si2 Ag2 P4 Pd20'
_cell_volume   453.96995618
_cell_formula_units_Z   1
loop_
 _symmetry_equiv_pos_site_id
 _symmetry_equiv_pos_as_xyz
  1  'x, y, z'
loop_
 _atom_site_type_symbol
 _atom_site_label
 _atom_site_symmetry_multiplicity
 _atom_site_fract_x
 _atom_site_fract_y
 _atom_site_fract_z
 _atom_site_occupancy
  Er  Er0  1  0.251416  0.249988  0.248608  1
  Si  Si1  1  0.735122  0.266394  0.264718  1
  Si  Si2  1  0.735122  0.733766  0.264718  1
  Ag  Ag3  1  0.996280  0.999984  0.003752  1
  Ag  Ag4  1  0.751123  0.750112  0.748653  1
  P  P5  1  0.735434  0.265966  0.732636  1
  P  P6  1  0.267810  0.734097  0.263995  1
  P  P7  1  0.266518  0.735270  0.733699  1
  P  P8  1  0.266518  0.264514  0.733699  1
  Pd  Pd9  1  0.339745  0.002810  0.002913  1
  Pd  Pd10  1  0.003190  0.654233  0.343531  1
  Pd  Pd11  1  0.340273  0.002538  0.654653  1
  Pd  Pd12  1  0.004473  0.653195  0.000249  1
  Pd  Pd13  1  0.652803  0.342112  0.000486  1
  Pd  Pd14  1  0.617157  0.618676  0.145490  1
  Pd  Pd15  1  0.383375  0.845007  0.385793  1
  Pd  Pd16  1  0.149235  0.616793  0.617177  1
  Pd  Pd17  1  0.652088  0.002134  0.343644  1
  Pd  Pd18  1  0.001043  0.341319  0.656426  1
  Pd  Pd19  1  0.652803  0.004599  0.000486  1
  Pd  Pd20  1  0.003190  0.999047  0.343531  1
  Pd  Pd21  1  0.617001  0.147609  0.618107  1
  Pd  Pd22  1  0.339745  0.654531  0.002913  1
  Pd  Pd23  1  0.383375  0.385827  0.385793  1
  Pd  Pd24  1  0.617001  0.617281  0.618107  1
  Pd  Pd25  1  0.385540  0.385518  0.843426  1
  Pd  Pd26  1  0.001043  0.001212  0.656426  1
  Pd  Pd27  1  0.847101  0.383390  0.386121  1
  Pd  Pd28  1  0.004473  0.342083  0.000249  1
