# generated using pymatgen
data_Er8B24Mo2IrRu
_symmetry_space_group_name_H-M   'P 1'
_cell_length_a   3.63889800
_cell_length_b   9.15951366
_cell_length_c   11.53855106
_cell_angle_alpha   90.02882118
_cell_angle_beta   90.00000000
_cell_angle_gamma   90.00000000
_symmetry_Int_Tables_number   1
_chemical_formula_structural   Er8B24Mo2IrRu
_chemical_formula_sum   'Er8 B24 Mo2 Ir1 Ru1'
_cell_volume   384.58604200
_cell_formula_units_Z   1
loop_
 _symmetry_equiv_pos_site_id
 _symmetry_equiv_pos_as_xyz
  1  'x, y, z'
loop_
 _atom_site_type_symbol
 _atom_site_label
 _atom_site_symmetry_multiplicity
 _atom_site_fract_x
 _atom_site_fract_y
 _atom_site_fract_z
 _atom_site_occupancy
  Er  Er0  1  0.000000  0.317313  0.415121  1
  Er  Er1  1  0.000000  0.678197  0.589235  1
  Er  Er2  1  0.000000  0.824755  0.083324  1
  Er  Er3  1  0.000000  0.179223  0.913525  1
  Er  Er4  1  0.000000  0.943076  0.372159  1
  Er  Er5  1  0.000000  0.054599  0.629195  1
  Er  Er6  1  0.000000  0.443173  0.127687  1
  Er  Er7  1  0.000000  0.558685  0.872175  1
  B  B8  1  0.500000  0.553350  0.433135  1
  B  B9  1  0.500000  0.448446  0.564132  1
  B  B10  1  0.500000  0.051564  0.064026  1
  B  B11  1  0.500000  0.946756  0.931663  1
  B  B12  1  0.500000  0.748387  0.420352  1
  B  B13  1  0.500000  0.248266  0.579062  1
  B  B14  1  0.500000  0.251412  0.078871  1
  B  B15  1  0.500000  0.752856  0.918979  1
  B  B16  1  0.500000  0.791356  0.265347  1
  B  B17  1  0.500000  0.206200  0.736085  1
  B  B18  1  0.500000  0.293985  0.236314  1
  B  B19  1  0.500000  0.709227  0.765994  1
  B  B20  1  0.500000  0.632153  0.184159  1
  B  B21  1  0.500000  0.369887  0.816414  1
  B  B22  1  0.500000  0.130281  0.316763  1
  B  B23  1  0.500000  0.868086  0.685647  1
  B  B24  1  0.500000  0.977990  0.212218  1
  B  B25  1  0.500000  0.016584  0.787159  1
  B  B26  1  0.500000  0.482789  0.287177  1
  B  B27  1  0.500000  0.522306  0.712459  1
  B  B28  1  0.500000  0.606288  0.029558  1
  B  B29  1  0.500000  0.398679  0.971660  1
  B  B30  1  0.500000  0.100907  0.471812  1
  B  B31  1  0.500000  0.893551  0.529263  1
  Mo  Mo32  1  0.000000  0.362822  0.678470  1
  Mo  Mo33  1  0.000000  0.137512  0.179138  1
  Ir  Ir34  1  0.000000  0.638111  0.321144  1
  Ru  Ru35  1  0.000000  0.861226  0.820582  1
