# generated using pymatgen
data_DyY5NbCo17P12
_symmetry_space_group_name_H-M   'P 1'
_cell_length_a   3.70130200
_cell_length_b   10.55781813
_cell_length_c   12.25322118
_cell_angle_alpha   89.98146635
_cell_angle_beta   90.00000000
_cell_angle_gamma   90.00000000
_symmetry_Int_Tables_number   1
_chemical_formula_structural   DyY5NbCo17P12
_chemical_formula_sum   'Dy1 Y5 Nb1 Co17 P12'
_cell_volume   478.82734945
_cell_formula_units_Z   1
loop_
 _symmetry_equiv_pos_site_id
 _symmetry_equiv_pos_as_xyz
  1  'x, y, z'
loop_
 _atom_site_type_symbol
 _atom_site_label
 _atom_site_symmetry_multiplicity
 _atom_site_fract_x
 _atom_site_fract_y
 _atom_site_fract_z
 _atom_site_occupancy
  Dy  Dy0  1  0.000000  0.317196  0.795751  1
  Y  Y1  1  0.000000  0.500021  0.526507  1
  Y  Y2  1  0.500000  0.000008  0.477726  1
  Y  Y3  1  0.500000  0.819389  0.207047  1
  Y  Y4  1  0.500000  0.180436  0.207182  1
  Y  Y5  1  0.000000  0.682972  0.795765  1
  Nb  Nb6  1  0.500000  0.499935  0.154623  1
  Co  Co7  1  0.000000  0.000108  0.838694  1
  Co  Co8  1  0.500000  0.499683  0.701988  1
  Co  Co9  1  0.000000  0.000032  0.297024  1
  Co  Co10  1  0.000000  0.499877  0.984141  1
  Co  Co11  1  0.500000  0.000091  0.014350  1
  Co  Co12  1  0.500000  0.329647  0.989438  1
  Co  Co13  1  0.500000  0.670260  0.989393  1
  Co  Co14  1  0.000000  0.163780  0.003980  1
  Co  Co15  1  0.000000  0.836304  0.004082  1
  Co  Co16  1  0.500000  0.295265  0.433087  1
  Co  Co17  1  0.500000  0.704765  0.432983  1
  Co  Co18  1  0.000000  0.202681  0.569882  1
  Co  Co19  1  0.000000  0.797358  0.569701  1
  Co  Co20  1  0.500000  0.879893  0.707990  1
  Co  Co21  1  0.500000  0.120347  0.708208  1
  Co  Co22  1  0.000000  0.622677  0.294647  1
  Co  Co23  1  0.000000  0.377285  0.294676  1
  P  P24  1  0.500000  0.499796  0.880857  1
  P  P25  1  0.000000  0.999997  0.117236  1
  P  P26  1  0.500000  0.500003  0.355232  1
  P  P27  1  0.000000  0.000097  0.656018  1
  P  P28  1  0.500000  0.309453  0.617273  1
  P  P29  1  0.500000  0.690384  0.617085  1
  P  P30  1  0.000000  0.188668  0.386002  1
  P  P31  1  0.000000  0.811363  0.385877  1
  P  P32  1  0.500000  0.851611  0.890208  1
  P  P33  1  0.500000  0.148764  0.890148  1
  P  P34  1  0.000000  0.660630  0.102537  1
  P  P35  1  0.000000  0.339223  0.102661  1
