# generated using pymatgen
data_Eu3In3GePt2
_symmetry_space_group_name_H-M   'P 1'
_cell_length_a   7.65034900
_cell_length_b   7.65034825
_cell_length_c   4.37100200
_cell_angle_alpha   90.00000000
_cell_angle_beta   90.00000000
_cell_angle_gamma   119.99999894
_symmetry_Int_Tables_number   1
_chemical_formula_structural   Eu3In3GePt2
_chemical_formula_sum   'Eu3 In3 Ge1 Pt2'
_cell_volume   221.55119353
_cell_formula_units_Z   1
loop_
 _symmetry_equiv_pos_site_id
 _symmetry_equiv_pos_as_xyz
  1  'x, y, z'
loop_
 _atom_site_type_symbol
 _atom_site_label
 _atom_site_symmetry_multiplicity
 _atom_site_fract_x
 _atom_site_fract_y
 _atom_site_fract_z
 _atom_site_occupancy
  Eu  Eu0  1  0.003679  0.590413  0.500000  1
  Eu  Eu1  1  0.586735  0.996321  0.500000  1
  Eu  Eu2  1  0.409587  0.413265  0.500000  1
  In  In3  1  0.010934  0.251964  0.000000  1
  In  In4  1  0.241029  0.989066  0.000000  1
  In  In5  1  0.748036  0.758971  0.000000  1
  Ge  Ge6  1  0.666667  0.333333  0.000000  1
  Pt  Pt7  1  0.000000  0.000000  0.500000  1
  Pt  Pt8  1  0.333333  0.666667  0.000000  1
