# generated using pymatgen
data_Gd4MgTe5
_symmetry_space_group_name_H-M   'P 1'
_cell_length_a   5.00410642
_cell_length_b   6.60839023
_cell_length_c   12.40496371
_cell_angle_alpha   97.52135920
_cell_angle_beta   89.62211352
_cell_angle_gamma   90.25904057
_symmetry_Int_Tables_number   1
_chemical_formula_structural   Gd4MgTe5
_chemical_formula_sum   'Gd4 Mg1 Te5'
_cell_volume   406.67973763
_cell_formula_units_Z   1
loop_
 _symmetry_equiv_pos_site_id
 _symmetry_equiv_pos_as_xyz
  1  'x, y, z'
loop_
 _atom_site_type_symbol
 _atom_site_label
 _atom_site_symmetry_multiplicity
 _atom_site_fract_x
 _atom_site_fract_y
 _atom_site_fract_z
 _atom_site_occupancy
  Gd  Gd0  1  0.580322  0.535257  0.760867  1
  Gd  Gd1  1  0.588537  0.494154  0.346618  1
  Gd  Gd2  1  0.578125  0.024258  0.768303  1
  Gd  Gd3  1  0.075809  0.912046  0.113153  1
  Mg  Mg4  1  0.857333  0.134025  0.493214  1
  Te  Te5  1  0.088434  0.720633  0.326169  1
  Te  Te6  1  0.577014  0.132593  0.161757  1
  Te  Te7  1  0.602508  0.751474  0.557079  1
  Te  Te8  1  0.073700  0.797670  0.876787  1
  Te  Te9  1  0.078170  0.272649  0.744840  1
