# generated using pymatgen
data_Tm(As2Rh3)2
_symmetry_space_group_name_H-M   'P 1'
_cell_length_a   7.27769300
_cell_length_b   7.27769323
_cell_length_c   3.81271900
_cell_angle_alpha   90.00000000
_cell_angle_beta   90.00000000
_cell_angle_gamma   120.00000348
_symmetry_Int_Tables_number   1
_chemical_formula_structural   Tm(As2Rh3)2
_chemical_formula_sum   'Tm1 As4 Rh6'
_cell_volume   174.88513316
_cell_formula_units_Z   1
loop_
 _symmetry_equiv_pos_site_id
 _symmetry_equiv_pos_as_xyz
  1  'x, y, z'
loop_
 _atom_site_type_symbol
 _atom_site_label
 _atom_site_symmetry_multiplicity
 _atom_site_fract_x
 _atom_site_fract_y
 _atom_site_fract_z
 _atom_site_occupancy
  Tm  Tm0  1  0.000000  0.000000  0.000000  1
  As  As1  1  0.810971  0.189029  0.500000  1
  As  As2  1  0.378058  0.189029  0.500000  1
  As  As3  1  0.333333  0.666667  0.000000  1
  As  As4  1  0.810971  0.621942  0.500000  1
  Rh  Rh5  1  0.195817  0.804183  0.500000  1
  Rh  Rh6  1  0.195817  0.391635  0.500000  1
  Rh  Rh7  1  0.533645  0.067290  0.000000  1
  Rh  Rh8  1  0.932710  0.466355  0.000000  1
  Rh  Rh9  1  0.533645  0.466355  0.000000  1
  Rh  Rh10  1  0.608365  0.804183  0.500000  1
