# generated using pymatgen
data_La2FeP4Rh5
_symmetry_space_group_name_H-M   'P 1'
_cell_length_a   3.95043100
_cell_length_b   11.34124104
_cell_length_c   12.92601277
_cell_angle_alpha   90.08509212
_cell_angle_beta   90.00000000
_cell_angle_gamma   90.00000000
_symmetry_Int_Tables_number   1
_chemical_formula_structural   La2FeP4Rh5
_chemical_formula_sum   'La6 Fe3 P12 Rh15'
_cell_volume   579.12079919
_cell_formula_units_Z   3
loop_
 _symmetry_equiv_pos_site_id
 _symmetry_equiv_pos_as_xyz
  1  'x, y, z'
loop_
 _atom_site_type_symbol
 _atom_site_label
 _atom_site_symmetry_multiplicity
 _atom_site_fract_x
 _atom_site_fract_y
 _atom_site_fract_z
 _atom_site_occupancy
  La  La0  1  0.000000  0.502096  0.519545  1
  La  La1  1  0.500000  0.001519  0.477225  1
  La  La2  1  0.500000  0.818904  0.203017  1
  La  La3  1  0.500000  0.182844  0.202367  1
  La  La4  1  0.000000  0.679410  0.798015  1
  La  La5  1  0.000000  0.320012  0.797775  1
  Fe  Fe6  1  0.000000  0.499154  0.992906  1
  Fe  Fe7  1  0.500000  0.000110  0.008905  1
  Fe  Fe8  1  0.000000  0.377047  0.288259  1
  P  P9  1  0.500000  0.499271  0.892265  1
  P  P10  1  0.000000  0.000752  0.108563  1
  P  P11  1  0.500000  0.484962  0.338324  1
  P  P12  1  0.000000  0.000588  0.655749  1
  P  P13  1  0.500000  0.310013  0.616921  1
  P  P14  1  0.500000  0.690740  0.617249  1
  P  P15  1  0.000000  0.198379  0.377679  1
  P  P16  1  0.000000  0.806483  0.381746  1
  P  P17  1  0.500000  0.852378  0.897816  1
  P  P18  1  0.500000  0.148845  0.898967  1
  P  P19  1  0.000000  0.647693  0.102272  1
  P  P20  1  0.000000  0.354806  0.108890  1
  Rh  Rh21  1  0.500000  0.499252  0.159070  1
  Rh  Rh22  1  0.000000  0.000695  0.837865  1
  Rh  Rh23  1  0.500000  0.500401  0.704185  1
  Rh  Rh24  1  0.000000  0.999497  0.295821  1
  Rh  Rh25  1  0.500000  0.334026  0.996906  1
  Rh  Rh26  1  0.500000  0.665670  0.996902  1
  Rh  Rh27  1  0.000000  0.166036  0.005131  1
  Rh  Rh28  1  0.000000  0.835375  0.003649  1
  Rh  Rh29  1  0.500000  0.296387  0.430238  1
  Rh  Rh30  1  0.500000  0.707545  0.430433  1
  Rh  Rh31  1  0.000000  0.205608  0.570782  1
  Rh  Rh32  1  0.000000  0.795272  0.571181  1
  Rh  Rh33  1  0.500000  0.876547  0.713724  1
  Rh  Rh34  1  0.500000  0.124305  0.713255  1
  Rh  Rh35  1  0.000000  0.617379  0.286403  1
