# generated using pymatgen
data_NbRe23TcMo4
_symmetry_space_group_name_H-M   'P 1'
_cell_length_a   8.37326126
_cell_length_b   8.37326192
_cell_length_c   8.36860614
_cell_angle_alpha   109.50437118
_cell_angle_beta   109.50437718
_cell_angle_gamma   109.49820026
_symmetry_Int_Tables_number   1
_chemical_formula_structural   NbRe23TcMo4
_chemical_formula_sum   'Nb1 Re23 Tc1 Mo4'
_cell_volume   451.14853372
_cell_formula_units_Z   1
loop_
 _symmetry_equiv_pos_site_id
 _symmetry_equiv_pos_as_xyz
  1  'x, y, z'
loop_
 _atom_site_type_symbol
 _atom_site_label
 _atom_site_symmetry_multiplicity
 _atom_site_fract_x
 _atom_site_fract_y
 _atom_site_fract_z
 _atom_site_occupancy
  Nb  Nb0  1  0.999526  0.999526  0.999739  1
  Re  Re1  1  0.401754  0.685776  0.000912  1
  Re  Re2  1  0.685776  0.401754  0.000912  1
  Re  Re3  1  0.599058  0.283006  0.599450  1
  Re  Re4  1  0.401272  0.001352  0.685693  1
  Re  Re5  1  0.001352  0.401272  0.685693  1
  Re  Re6  1  0.283006  0.599058  0.599450  1
  Re  Re7  1  0.718068  0.314703  0.315426  1
  Re  Re8  1  0.314703  0.718068  0.315426  1
  Re  Re9  1  0.685647  0.000054  0.401763  1
  Re  Re10  1  0.000054  0.685647  0.401763  1
  Re  Re11  1  0.598359  0.598359  0.282435  1
  Re  Re12  1  0.805796  0.805796  0.181388  1
  Re  Re13  1  0.376697  0.194196  0.000249  1
  Re  Re14  1  0.194196  0.376697  0.000249  1
  Re  Re15  1  0.622703  0.816312  0.622638  1
  Re  Re16  1  0.376880  0.000956  0.194171  1
  Re  Re17  1  0.000956  0.376880  0.194171  1
  Re  Re18  1  0.816312  0.622703  0.622638  1
  Re  Re19  1  0.181617  0.806087  0.806219  1
  Re  Re20  1  0.806087  0.181617  0.806219  1
  Re  Re21  1  0.194104  0.000847  0.376527  1
  Re  Re22  1  0.000847  0.194104  0.376527  1
  Re  Re23  1  0.621675  0.621675  0.815449  1
  Tc  Tc24  1  0.315307  0.315307  0.716619  1
  Mo  Mo25  1  0.999597  0.999597  0.637700  1
  Mo  Mo26  1  0.637347  0.999357  0.998869  1
  Mo  Mo27  1  0.999357  0.637347  0.998869  1
  Mo  Mo28  1  0.361947  0.361947  0.362840  1
