# generated using pymatgen
data_TiNb(TlCl3)4
_symmetry_space_group_name_H-M   'P 1'
_cell_length_a   7.05221100
_cell_length_b   7.05221100
_cell_length_c   10.29532800
_cell_angle_alpha   90.00000000
_cell_angle_beta   90.00000000
_cell_angle_gamma   90.00000000
_symmetry_Int_Tables_number   1
_chemical_formula_structural   TiNb(TlCl3)4
_chemical_formula_sum   'Ti1 Nb1 Tl4 Cl12'
_cell_volume   512.02454813
_cell_formula_units_Z   1
loop_
 _symmetry_equiv_pos_site_id
 _symmetry_equiv_pos_as_xyz
  1  'x, y, z'
loop_
 _atom_site_type_symbol
 _atom_site_label
 _atom_site_symmetry_multiplicity
 _atom_site_fract_x
 _atom_site_fract_y
 _atom_site_fract_z
 _atom_site_occupancy
  Ti  Ti0  1  0.000000  0.000000  0.000000  1
  Nb  Nb1  1  0.500000  0.500000  0.500000  1
  Tl  Tl2  1  0.500000  0.000000  0.764950  1
  Tl  Tl3  1  0.500000  0.000000  0.235050  1
  Tl  Tl4  1  0.000000  0.500000  0.235050  1
  Tl  Tl5  1  0.000000  0.500000  0.764950  1
  Cl  Cl6  1  0.774845  0.247739  0.000000  1
  Cl  Cl7  1  0.225155  0.752261  0.000000  1
  Cl  Cl8  1  0.500000  0.500000  0.264049  1
  Cl  Cl9  1  0.310751  0.215525  0.500000  1
  Cl  Cl10  1  0.247739  0.225155  0.000000  1
  Cl  Cl11  1  0.784475  0.310751  0.500000  1
  Cl  Cl12  1  0.000000  0.000000  0.230264  1
  Cl  Cl13  1  0.689249  0.784475  0.500000  1
  Cl  Cl14  1  0.215525  0.689249  0.500000  1
  Cl  Cl15  1  0.500000  0.500000  0.735951  1
  Cl  Cl16  1  0.752261  0.774845  0.000000  1
  Cl  Cl17  1  0.000000  0.000000  0.769736  1
