# generated using pymatgen
data_Dy7Tm(Ta3Ge4)4
_symmetry_space_group_name_H-M   'P 1'
_cell_length_a   6.98752503
_cell_length_b   7.14331509
_cell_length_c   13.52558313
_cell_angle_alpha   90.01519519
_cell_angle_beta   90.00365784
_cell_angle_gamma   90.01054191
_symmetry_Int_Tables_number   1
_chemical_formula_structural   Dy7Tm(Ta3Ge4)4
_chemical_formula_sum   'Dy7 Tm1 Ta12 Ge16'
_cell_volume   675.11717791
_cell_formula_units_Z   1
loop_
 _symmetry_equiv_pos_site_id
 _symmetry_equiv_pos_as_xyz
  1  'x, y, z'
loop_
 _atom_site_type_symbol
 _atom_site_label
 _atom_site_symmetry_multiplicity
 _atom_site_fract_x
 _atom_site_fract_y
 _atom_site_fract_z
 _atom_site_occupancy
  Dy  Dy0  1  0.494583  0.673861  0.593927  1
  Dy  Dy1  1  0.994531  0.826305  0.906140  1
  Dy  Dy2  1  0.505480  0.326410  0.093928  1
  Dy  Dy3  1  0.005449  0.173537  0.406255  1
  Dy  Dy4  1  0.505465  0.326189  0.406230  1
  Dy  Dy5  1  0.005493  0.173710  0.093897  1
  Dy  Dy6  1  0.494500  0.673670  0.905825  1
  Tm  Tm7  1  0.994001  0.825870  0.594081  1
  Ta  Ta8  1  0.659499  0.168946  0.626149  1
  Ta  Ta9  1  0.159090  0.330885  0.873552  1
  Ta  Ta10  1  0.340861  0.830844  0.126320  1
  Ta  Ta11  1  0.841275  0.669525  0.373942  1
  Ta  Ta12  1  0.340752  0.830834  0.373805  1
  Ta  Ta13  1  0.840783  0.669195  0.126349  1
  Ta  Ta14  1  0.659293  0.168937  0.873546  1
  Ta  Ta15  1  0.159155  0.330656  0.626265  1
  Ta  Ta16  1  0.835393  0.485559  0.749868  1
  Ta  Ta17  1  0.335092  0.014324  0.749802  1
  Ta  Ta18  1  0.164802  0.514634  0.250094  1
  Ta  Ta19  1  0.664839  0.985493  0.250116  1
  Ge  Ge20  1  0.677641  0.960963  0.458425  1
  Ge  Ge21  1  0.176995  0.538928  0.041908  1
  Ge  Ge22  1  0.323007  0.039007  0.958066  1
  Ge  Ge23  1  0.823409  0.462048  0.542096  1
  Ge  Ge24  1  0.321620  0.038013  0.542126  1
  Ge  Ge25  1  0.822993  0.461045  0.958031  1
  Ge  Ge26  1  0.676985  0.961031  0.041888  1
  Ge  Ge27  1  0.176811  0.539337  0.458443  1
  Ge  Ge28  1  0.459412  0.379453  0.749901  1
  Ge  Ge29  1  0.959521  0.119985  0.749774  1
  Ge  Ge30  1  0.540647  0.620559  0.250099  1
  Ge  Ge31  1  0.040607  0.879530  0.249980  1
  Ge  Ge32  1  0.694583  0.857978  0.749608  1
  Ge  Ge33  1  0.193216  0.642695  0.749429  1
  Ge  Ge34  1  0.306086  0.141828  0.250050  1
  Ge  Ge35  1  0.806131  0.358215  0.250084  1
