# generated using pymatgen
data_Tb2Ho2Ga18(CoPd)3
_symmetry_space_group_name_H-M   'P 1'
_cell_length_a   7.52235321
_cell_length_b   7.52194590
_cell_length_c   9.46640360
_cell_angle_alpha   90.02565338
_cell_angle_beta   90.02198489
_cell_angle_gamma   119.61483708
_symmetry_Int_Tables_number   1
_chemical_formula_structural   Tb2Ho2Ga18(CoPd)3
_chemical_formula_sum   'Tb2 Ho2 Ga18 Co3 Pd3'
_cell_volume   465.66322495
_cell_formula_units_Z   1
loop_
 _symmetry_equiv_pos_site_id
 _symmetry_equiv_pos_as_xyz
  1  'x, y, z'
loop_
 _atom_site_type_symbol
 _atom_site_label
 _atom_site_symmetry_multiplicity
 _atom_site_fract_x
 _atom_site_fract_y
 _atom_site_fract_z
 _atom_site_occupancy
  Tb  Tb0  1  0.322386  0.998315  0.750151  1
  Tb  Tb1  1  0.007303  0.328698  0.749522  1
  Ho  Ho2  1  0.671450  0.992579  0.250515  1
  Ho  Ho3  1  0.001739  0.677885  0.249860  1
  Ga  Ga4  1  0.664319  0.013101  0.922387  1
  Ga  Ga5  1  0.344439  0.998005  0.425467  1
  Ga  Ga6  1  0.994781  0.342884  0.425654  1
  Ga  Ga7  1  0.346285  0.013210  0.078298  1
  Ga  Ga8  1  0.986422  0.653717  0.922547  1
  Ga  Ga9  1  0.986451  0.335644  0.078526  1
  Ga  Ga10  1  0.342094  0.339992  0.561308  1
  Ga  Ga11  1  0.344936  0.336772  0.932243  1
  Ga  Ga12  1  0.663599  0.655441  0.068461  1
  Ga  Ga13  1  0.660331  0.658245  0.438052  1
  Ga  Ga14  1  0.860435  0.862733  0.749107  1
  Ga  Ga15  1  0.136798  0.139139  0.250898  1
  Ga  Ga16  1  0.334359  0.547284  0.258665  1
  Ga  Ga17  1  0.560542  0.335734  0.252391  1
  Ga  Ga18  1  0.664322  0.440114  0.747603  1
  Ga  Ga19  1  0.453226  0.665685  0.741319  1
  Ga  Ga20  1  0.657161  0.004837  0.573453  1
  Ga  Ga21  1  0.001553  0.655559  0.573588  1
  Co  Co22  1  0.670449  0.329525  0.499749  1
  Co  Co23  1  0.668719  0.331274  0.000281  1
  Co  Co24  1  0.328995  0.671031  0.499754  1
  Pd  Pd25  1  0.327880  0.672138  0.000188  1
  Pd  Pd26  1  0.998558  0.001181  0.000216  1
  Pd  Pd27  1  0.000466  0.999281  0.499797  1
