# generated using pymatgen
data_Nd2Dy5MnI12
_symmetry_space_group_name_H-M   'P 1'
_cell_length_a   9.90015718
_cell_length_b   9.77313915
_cell_length_c   9.89908218
_cell_angle_alpha   106.61336261
_cell_angle_beta   106.99964674
_cell_angle_gamma   107.57759320
_symmetry_Int_Tables_number   1
_chemical_formula_structural   Nd2Dy5MnI12
_chemical_formula_sum   'Nd2 Dy5 Mn1 I12'
_cell_volume   796.22745820
_cell_formula_units_Z   1
loop_
 _symmetry_equiv_pos_site_id
 _symmetry_equiv_pos_as_xyz
  1  'x, y, z'
loop_
 _atom_site_type_symbol
 _atom_site_label
 _atom_site_symmetry_multiplicity
 _atom_site_fract_x
 _atom_site_fract_y
 _atom_site_fract_z
 _atom_site_occupancy
  Nd  Nd0  1  0.589048  0.775732  0.521831  1
  Nd  Nd1  1  0.410952  0.224268  0.478169  1
  Dy  Dy2  1  0.799123  0.524767  0.596374  1
  Dy  Dy3  1  0.523586  0.595502  0.797500  1
  Dy  Dy4  1  0.200877  0.475233  0.403626  1
  Dy  Dy5  1  0.476414  0.404498  0.202500  1
  Dy  Dy6  1  0.000000  0.000000  0.000000  1
  Mn  Mn7  1  0.500000  0.500000  0.500000  1
  I  I8  1  0.732096  0.191119  0.576980  1
  I  I9  1  0.968080  0.887675  0.666357  1
  I  I10  1  0.571420  0.721599  0.177067  1
  I  I11  1  0.115005  0.339926  0.038273  1
  I  I12  1  0.663318  0.962639  0.888690  1
  I  I13  1  0.884995  0.660074  0.961727  1
  I  I14  1  0.031920  0.112325  0.333643  1
  I  I15  1  0.818475  0.428228  0.276930  1
  I  I16  1  0.336682  0.037361  0.111310  1
  I  I17  1  0.267904  0.808881  0.423020  1
  I  I18  1  0.181525  0.571772  0.723070  1
  I  I19  1  0.428580  0.278401  0.822933  1
