# generated using pymatgen
data_Tb6Al24Ru3Pt3Rh2
_symmetry_space_group_name_H-M   'P 1'
_cell_length_a   8.83531400
_cell_length_b   8.84837251
_cell_length_c   9.53832705
_cell_angle_alpha   90.06342011
_cell_angle_beta   90.00000000
_cell_angle_gamma   119.95119263
_symmetry_Int_Tables_number   1
_chemical_formula_structural   Tb6Al24Ru3Pt3Rh2
_chemical_formula_sum   'Tb6 Al24 Ru3 Pt3 Rh2'
_cell_volume   646.10225372
_cell_formula_units_Z   1
loop_
 _symmetry_equiv_pos_site_id
 _symmetry_equiv_pos_as_xyz
  1  'x, y, z'
loop_
 _atom_site_type_symbol
 _atom_site_label
 _atom_site_symmetry_multiplicity
 _atom_site_fract_x
 _atom_site_fract_y
 _atom_site_fract_z
 _atom_site_occupancy
  Tb  Tb0  1  0.382718  0.190455  0.251132  1
  Tb  Tb1  1  0.807737  0.190455  0.251132  1
  Tb  Tb2  1  0.808926  0.617851  0.247206  1
  Tb  Tb3  1  0.617282  0.809545  0.748868  1
  Tb  Tb4  1  0.192263  0.809545  0.748868  1
  Tb  Tb5  1  0.191074  0.382149  0.752794  1
  Al  Al6  1  0.436826  0.873653  0.246281  1
  Al  Al7  1  0.125132  0.562557  0.253046  1
  Al  Al8  1  0.437425  0.562557  0.253046  1
  Al  Al9  1  0.563174  0.126347  0.753719  1
  Al  Al10  1  0.874868  0.437443  0.746954  1
  Al  Al11  1  0.562575  0.437443  0.746954  1
  Al  Al12  1  0.159179  0.833174  0.422290  1
  Al  Al13  1  0.163078  0.326156  0.424668  1
  Al  Al14  1  0.673993  0.833174  0.422290  1
  Al  Al15  1  0.840821  0.166826  0.577710  1
  Al  Al16  1  0.836922  0.673844  0.575332  1
  Al  Al17  1  0.326007  0.166826  0.577710  1
  Al  Al18  1  0.831853  0.157800  0.922744  1
  Al  Al19  1  0.837682  0.675364  0.922213  1
  Al  Al20  1  0.325948  0.157800  0.922744  1
  Al  Al21  1  0.168147  0.842200  0.077256  1
  Al  Al22  1  0.162318  0.324636  0.077787  1
  Al  Al23  1  0.674052  0.842200  0.077256  1
  Al  Al24  1  0.330894  0.661789  0.532762  1
  Al  Al25  1  0.669106  0.338211  0.467238  1
  Al  Al26  1  0.663648  0.327295  0.031884  1
  Al  Al27  1  0.336352  0.672705  0.968116  1
  Al  Al28  1  0.999259  0.998519  0.250032  1
  Al  Al29  1  0.000741  0.001481  0.749968  1
  Ru  Ru30  1  0.000000  0.000000  0.500000  1
  Ru  Ru31  1  0.000000  0.000000  0.000000  1
  Ru  Ru32  1  0.500000  0.000000  0.000000  1
  Pt  Pt33  1  0.500000  0.000000  0.500000  1
  Pt  Pt34  1  0.000000  0.500000  0.000000  1
  Pt  Pt35  1  0.500000  0.500000  0.000000  1
  Rh  Rh36  1  0.000000  0.500000  0.500000  1
  Rh  Rh37  1  0.500000  0.500000  0.500000  1
