# generated using pymatgen
data_Dy4In(Si2Tc)2
_symmetry_space_group_name_H-M   'P 1'
_cell_length_a   8.06032368
_cell_length_b   8.06035608
_cell_length_c   6.96146200
_cell_angle_alpha   73.34640096
_cell_angle_beta   106.65348985
_cell_angle_gamma   149.55057395
_symmetry_Int_Tables_number   1
_chemical_formula_structural   Dy4In(Si2Tc)2
_chemical_formula_sum   'Dy4 In1 Si4 Tc2'
_cell_volume   218.86239194
_cell_formula_units_Z   1
loop_
 _symmetry_equiv_pos_site_id
 _symmetry_equiv_pos_as_xyz
  1  'x, y, z'
loop_
 _atom_site_type_symbol
 _atom_site_label
 _atom_site_symmetry_multiplicity
 _atom_site_fract_x
 _atom_site_fract_y
 _atom_site_fract_z
 _atom_site_occupancy
  Dy  Dy0  1  0.415343  0.584655  0.620057  1
  Dy  Dy1  1  0.584664  0.415335  0.379981  1
  Dy  Dy2  1  0.347359  0.652639  0.066473  1
  Dy  Dy3  1  0.652638  0.347359  0.933499  1
  In  In4  1  0.000014  0.999986  0.000019  1
  Si  Si5  1  0.065468  0.934528  0.649954  1
  Si  Si6  1  0.934529  0.065470  0.350060  1
  Si  Si7  1  0.207140  0.792857  0.270721  1
  Si  Si8  1  0.792841  0.207158  0.729258  1
  Tc  Tc9  1  0.219841  0.780159  0.631160  1
  Tc  Tc10  1  0.780153  0.219843  0.368825  1
