# generated using pymatgen
data_YbHoTm6(B6Os)4
_symmetry_space_group_name_H-M   'P 1'
_cell_length_a   3.62166800
_cell_length_b   9.08877174
_cell_length_c   11.47025105
_cell_angle_alpha   89.93104502
_cell_angle_beta   90.00000000
_cell_angle_gamma   90.00000000
_symmetry_Int_Tables_number   1
_chemical_formula_structural   YbHoTm6(B6Os)4
_chemical_formula_sum   'Yb1 Ho1 Tm6 B24 Os4'
_cell_volume   377.56040324
_cell_formula_units_Z   1
loop_
 _symmetry_equiv_pos_site_id
 _symmetry_equiv_pos_as_xyz
  1  'x, y, z'
loop_
 _atom_site_type_symbol
 _atom_site_label
 _atom_site_symmetry_multiplicity
 _atom_site_fract_x
 _atom_site_fract_y
 _atom_site_fract_z
 _atom_site_occupancy
  Yb  Yb0  1  0.000000  0.677669  0.586443  1
  Ho  Ho1  1  0.000000  0.322952  0.414927  1
  Tm  Tm2  1  0.000000  0.820790  0.085227  1
  Tm  Tm3  1  0.000000  0.178562  0.913696  1
  Tm  Tm4  1  0.000000  0.942254  0.372509  1
  Tm  Tm5  1  0.000000  0.055910  0.628300  1
  Tm  Tm6  1  0.000000  0.443795  0.127002  1
  Tm  Tm7  1  0.000000  0.556995  0.871579  1
  B  B8  1  0.500000  0.554025  0.432706  1
  B  B9  1  0.500000  0.446379  0.567532  1
  B  B10  1  0.500000  0.053701  0.066658  1
  B  B11  1  0.500000  0.947017  0.934020  1
  B  B12  1  0.500000  0.748610  0.418822  1
  B  B13  1  0.500000  0.251026  0.581115  1
  B  B14  1  0.500000  0.248775  0.079917  1
  B  B15  1  0.500000  0.751862  0.919836  1
  B  B16  1  0.500000  0.790969  0.264990  1
  B  B17  1  0.500000  0.208074  0.734759  1
  B  B18  1  0.500000  0.290905  0.233582  1
  B  B19  1  0.500000  0.709748  0.766344  1
  B  B20  1  0.500000  0.630997  0.184047  1
  B  B21  1  0.500000  0.368703  0.814980  1
  B  B22  1  0.500000  0.130576  0.314892  1
  B  B23  1  0.500000  0.869485  0.685825  1
  B  B24  1  0.500000  0.981894  0.212576  1
  B  B25  1  0.500000  0.018034  0.788201  1
  B  B26  1  0.500000  0.482658  0.286710  1
  B  B27  1  0.500000  0.517325  0.712881  1
  B  B28  1  0.500000  0.606025  0.028938  1
  B  B29  1  0.500000  0.393806  0.970442  1
  B  B30  1  0.500000  0.103682  0.471371  1
  B  B31  1  0.500000  0.897415  0.528483  1
  Os  Os32  1  0.000000  0.637931  0.319457  1
  Os  Os33  1  0.000000  0.360609  0.680031  1
  Os  Os34  1  0.000000  0.137024  0.178476  1
  Os  Os35  1  0.000000  0.863818  0.822726  1
