# generated using pymatgen
data_Pa2Co9Si7Tc3
_symmetry_space_group_name_H-M   'P 1'
_cell_length_a   3.75408200
_cell_length_b   9.19215187
_cell_length_c   9.19215200
_cell_angle_alpha   120.00000046
_cell_angle_beta   90.00000000
_cell_angle_gamma   90.00000000
_symmetry_Int_Tables_number   1
_chemical_formula_structural   Pa2Co9Si7Tc3
_chemical_formula_sum   'Pa2 Co9 Si7 Tc3'
_cell_volume   274.70639688
_cell_formula_units_Z   1
loop_
 _symmetry_equiv_pos_site_id
 _symmetry_equiv_pos_as_xyz
  1  'x, y, z'
loop_
 _atom_site_type_symbol
 _atom_site_label
 _atom_site_symmetry_multiplicity
 _atom_site_fract_x
 _atom_site_fract_y
 _atom_site_fract_z
 _atom_site_occupancy
  Pa  Pa0  1  0.000000  0.666667  0.333333  1
  Pa  Pa1  1  0.500000  0.333333  0.666667  1
  Co  Co2  1  0.000000  0.563212  0.934569  1
  Co  Co3  1  0.000000  0.371356  0.436788  1
  Co  Co4  1  0.000000  0.065431  0.628644  1
  Co  Co5  1  0.000000  0.867711  0.152685  1
  Co  Co6  1  0.000000  0.284973  0.132289  1
  Co  Co7  1  0.000000  0.847315  0.715027  1
  Co  Co8  1  0.500000  0.942027  0.380237  1
  Co  Co9  1  0.500000  0.438209  0.057973  1
  Co  Co10  1  0.500000  0.619763  0.561791  1
  Si  Si11  1  0.000000  0.000000  0.000000  1
  Si  Si12  1  0.500000  0.705141  0.106576  1
  Si  Si13  1  0.500000  0.401436  0.294859  1
  Si  Si14  1  0.500000  0.893424  0.598564  1
  Si  Si15  1  0.000000  0.597600  0.701769  1
  Si  Si16  1  0.000000  0.104171  0.402400  1
  Si  Si17  1  0.000000  0.298231  0.895829  1
  Tc  Tc18  1  0.500000  0.782867  0.895478  1
  Tc  Tc19  1  0.500000  0.112611  0.217133  1
  Tc  Tc20  1  0.500000  0.104522  0.887389  1
