# generated using pymatgen
data_Tm5LuAl24(Os3Ru)2
_symmetry_space_group_name_H-M   'P 1'
_cell_length_a   8.77249105
_cell_length_b   8.77248985
_cell_length_c   9.56219600
_cell_angle_alpha   90.00000000
_cell_angle_beta   90.00000000
_cell_angle_gamma   120.01227259
_symmetry_Int_Tables_number   1
_chemical_formula_structural   Tm5LuAl24(Os3Ru)2
_chemical_formula_sum   'Tm5 Lu1 Al24 Os6 Ru2'
_cell_volume   637.20673901
_cell_formula_units_Z   1
loop_
 _symmetry_equiv_pos_site_id
 _symmetry_equiv_pos_as_xyz
  1  'x, y, z'
loop_
 _atom_site_type_symbol
 _atom_site_label
 _atom_site_symmetry_multiplicity
 _atom_site_fract_x
 _atom_site_fract_y
 _atom_site_fract_z
 _atom_site_occupancy
  Tm  Tm0  1  0.194623  0.805377  0.250000  1
  Tm  Tm1  1  0.389295  0.194625  0.750000  1
  Tm  Tm2  1  0.610769  0.805373  0.250000  1
  Tm  Tm3  1  0.805375  0.610705  0.750000  1
  Tm  Tm4  1  0.194627  0.389231  0.250000  1
  Lu  Lu5  1  0.804972  0.195028  0.750000  1
  Al  Al6  1  0.666754  0.333246  0.980503  1
  Al  Al7  1  0.333336  0.666664  0.019365  1
  Al  Al8  1  0.333336  0.666664  0.480635  1
  Al  Al9  1  0.666754  0.333246  0.519497  1
  Al  Al10  1  0.837315  0.162685  0.422819  1
  Al  Al11  1  0.162683  0.837317  0.577356  1
  Al  Al12  1  0.325384  0.162682  0.422684  1
  Al  Al13  1  0.162683  0.837317  0.922644  1
  Al  Al14  1  0.674703  0.837463  0.577395  1
  Al  Al15  1  0.837315  0.162685  0.077181  1
  Al  Al16  1  0.837318  0.674616  0.422684  1
  Al  Al17  1  0.674703  0.837463  0.922605  1
  Al  Al18  1  0.162537  0.325297  0.577395  1
  Al  Al19  1  0.325384  0.162682  0.077316  1
  Al  Al20  1  0.162537  0.325297  0.922605  1
  Al  Al21  1  0.837318  0.674616  0.077316  1
  Al  Al22  1  0.438553  0.561447  0.750000  1
  Al  Al23  1  0.561430  0.438570  0.250000  1
  Al  Al24  1  0.122608  0.561126  0.750000  1
  Al  Al25  1  0.877146  0.438558  0.250000  1
  Al  Al26  1  0.438874  0.877392  0.750000  1
  Al  Al27  1  0.561442  0.122854  0.250000  1
  Al  Al28  1  0.999810  0.000190  0.750000  1
  Al  Al29  1  0.000011  0.999989  0.250000  1
  Os  Os30  1  0.500061  0.499939  0.999947  1
  Os  Os31  1  0.999876  0.499750  0.999808  1
  Os  Os32  1  0.500061  0.499939  0.500053  1
  Os  Os33  1  0.500250  0.000124  0.999808  1
  Os  Os34  1  0.999876  0.499750  0.500192  1
  Os  Os35  1  0.500250  0.000124  0.500192  1
  Ru  Ru36  1  0.000015  0.999985  0.999996  1
  Ru  Ru37  1  0.000015  0.999985  0.500004  1
