# generated using pymatgen
data_CeNdInRh2
_symmetry_space_group_name_H-M   'P 1'
_cell_length_a   7.74220514
_cell_length_b   7.74220514
_cell_length_c   3.77554300
_cell_angle_alpha   90.00000000
_cell_angle_beta   90.00000000
_cell_angle_gamma   86.96957813
_symmetry_Int_Tables_number   1
_chemical_formula_structural   CeNdInRh2
_chemical_formula_sum   'Ce2 Nd2 In2 Rh4'
_cell_volume   225.99614403
_cell_formula_units_Z   2
loop_
 _symmetry_equiv_pos_site_id
 _symmetry_equiv_pos_as_xyz
  1  'x, y, z'
loop_
 _atom_site_type_symbol
 _atom_site_label
 _atom_site_symmetry_multiplicity
 _atom_site_fract_x
 _atom_site_fract_y
 _atom_site_fract_z
 _atom_site_occupancy
  Ce  Ce0  1  0.170212  0.329788  0.500000  1
  Ce  Ce1  1  0.829788  0.670212  0.500000  1
  Nd  Nd2  1  0.670096  0.170096  0.500000  1
  Nd  Nd3  1  0.329904  0.829904  0.500000  1
  In  In4  1  0.000000  0.000000  0.000000  1
  In  In5  1  0.500000  0.500000  0.000000  1
  Rh  Rh6  1  0.126800  0.626800  0.000000  1
  Rh  Rh7  1  0.873200  0.373200  0.000000  1
  Rh  Rh8  1  0.646527  0.853473  0.000000  1
  Rh  Rh9  1  0.353473  0.146527  0.000000  1
