# generated using pymatgen
data_Tb2Dy5Ho13Pb16
_symmetry_space_group_name_H-M   'P 1'
_cell_length_a   8.19733485
_cell_length_b   8.27340807
_cell_length_c   15.62216840
_cell_angle_alpha   90.00581429
_cell_angle_beta   90.03888910
_cell_angle_gamma   89.99323573
_symmetry_Int_Tables_number   1
_chemical_formula_structural   Tb2Dy5Ho13Pb16
_chemical_formula_sum   'Tb2 Dy5 Ho13 Pb16'
_cell_volume   1059.49358393
_cell_formula_units_Z   1
loop_
 _symmetry_equiv_pos_site_id
 _symmetry_equiv_pos_as_xyz
  1  'x, y, z'
loop_
 _atom_site_type_symbol
 _atom_site_label
 _atom_site_symmetry_multiplicity
 _atom_site_fract_x
 _atom_site_fract_y
 _atom_site_fract_z
 _atom_site_occupancy
  Tb  Tb0  1  0.036200  0.176757  0.600084  1
  Tb  Tb1  1  0.463797  0.676738  0.399943  1
  Dy  Dy2  1  0.963691  0.823351  0.100102  1
  Dy  Dy3  1  0.463701  0.676676  0.100098  1
  Dy  Dy4  1  0.963745  0.823309  0.399895  1
  Dy  Dy5  1  0.536250  0.323335  0.600080  1
  Dy  Dy6  1  0.036290  0.176725  0.899885  1
  Ho  Ho7  1  0.376553  0.841201  0.879121  1
  Ho  Ho8  1  0.876473  0.658805  0.620894  1
  Ho  Ho9  1  0.623517  0.158816  0.379138  1
  Ho  Ho10  1  0.123423  0.341126  0.120855  1
  Ho  Ho11  1  0.623426  0.158862  0.120794  1
  Ho  Ho12  1  0.123480  0.341148  0.379107  1
  Ho  Ho13  1  0.376527  0.841172  0.620936  1
  Ho  Ho14  1  0.876489  0.658758  0.879125  1
  Ho  Ho15  1  0.536378  0.323393  0.899872  1
  Ho  Ho16  1  0.208429  0.504299  0.750075  1
  Ho  Ho17  1  0.708246  0.995668  0.750075  1
  Ho  Ho18  1  0.791711  0.495610  0.249943  1
  Ho  Ho19  1  0.291651  0.004372  0.249946  1
  Pb  Pb20  1  0.281403  0.032988  0.042705  1
  Pb  Pb21  1  0.781561  0.466891  0.457316  1
  Pb  Pb22  1  0.718423  0.966893  0.542752  1
  Pb  Pb23  1  0.218788  0.532815  0.957206  1
  Pb  Pb24  1  0.718469  0.967138  0.957217  1
  Pb  Pb25  1  0.218517  0.533035  0.542821  1
  Pb  Pb26  1  0.281479  0.033030  0.457247  1
  Pb  Pb27  1  0.781287  0.466871  0.042596  1
  Pb  Pb28  1  0.571459  0.626332  0.750021  1
  Pb  Pb29  1  0.071470  0.873544  0.750024  1
  Pb  Pb30  1  0.428527  0.373570  0.249980  1
  Pb  Pb31  1  0.928532  0.126408  0.249989  1
  Pb  Pb32  1  0.347142  0.153439  0.750162  1
  Pb  Pb33  1  0.846789  0.346828  0.750116  1
  Pb  Pb34  1  0.653158  0.846828  0.249912  1
  Pb  Pb35  1  0.153017  0.653265  0.249965  1
