# generated using pymatgen
data_Pr2Tm3(SnSb)2
_symmetry_space_group_name_H-M   'P 1'
_cell_length_a   8.26327600
_cell_length_b   8.24719300
_cell_length_c   15.67037300
_cell_angle_alpha   90.00000000
_cell_angle_beta   90.00000000
_cell_angle_gamma   90.00000000
_symmetry_Int_Tables_number   1
_chemical_formula_structural   Pr2Tm3(SnSb)2
_chemical_formula_sum   'Pr8 Tm12 Sn8 Sb8'
_cell_volume   1067.91761671
_cell_formula_units_Z   4
loop_
 _symmetry_equiv_pos_site_id
 _symmetry_equiv_pos_as_xyz
  1  'x, y, z'
loop_
 _atom_site_type_symbol
 _atom_site_label
 _atom_site_symmetry_multiplicity
 _atom_site_fract_x
 _atom_site_fract_y
 _atom_site_fract_z
 _atom_site_occupancy
  Pr  Pr0  1  0.535970  0.324137  0.898309  1
  Pr  Pr1  1  0.035970  0.175863  0.601691  1
  Pr  Pr2  1  0.464030  0.675863  0.398309  1
  Pr  Pr3  1  0.964030  0.824137  0.101691  1
  Pr  Pr4  1  0.464030  0.675863  0.101691  1
  Pr  Pr5  1  0.964030  0.824137  0.398309  1
  Pr  Pr6  1  0.535970  0.324137  0.601691  1
  Pr  Pr7  1  0.035970  0.175863  0.898309  1
  Tm  Tm8  1  0.374906  0.840415  0.876639  1
  Tm  Tm9  1  0.874906  0.659585  0.623361  1
  Tm  Tm10  1  0.625094  0.159585  0.376639  1
  Tm  Tm11  1  0.125094  0.340415  0.123361  1
  Tm  Tm12  1  0.625094  0.159585  0.123361  1
  Tm  Tm13  1  0.125094  0.340415  0.376639  1
  Tm  Tm14  1  0.374906  0.840415  0.623361  1
  Tm  Tm15  1  0.874906  0.659585  0.876639  1
  Tm  Tm16  1  0.207537  0.499795  0.750000  1
  Tm  Tm17  1  0.707537  0.000205  0.750000  1
  Tm  Tm18  1  0.792463  0.500205  0.250000  1
  Tm  Tm19  1  0.292463  0.999795  0.250000  1
  Sn  Sn20  1  0.572980  0.631020  0.750000  1
  Sn  Sn21  1  0.072980  0.868980  0.750000  1
  Sn  Sn22  1  0.427020  0.368980  0.250000  1
  Sn  Sn23  1  0.927020  0.131020  0.250000  1
  Sn  Sn24  1  0.346763  0.141472  0.750000  1
  Sn  Sn25  1  0.846763  0.358528  0.750000  1
  Sn  Sn26  1  0.653237  0.858528  0.250000  1
  Sn  Sn27  1  0.153237  0.641472  0.250000  1
  Sb  Sb28  1  0.286886  0.036102  0.046212  1
  Sb  Sb29  1  0.786886  0.463898  0.453788  1
  Sb  Sb30  1  0.713114  0.963898  0.546212  1
  Sb  Sb31  1  0.213114  0.536102  0.953788  1
  Sb  Sb32  1  0.713114  0.963898  0.953788  1
  Sb  Sb33  1  0.213114  0.536102  0.546212  1
  Sb  Sb34  1  0.286886  0.036102  0.453788  1
  Sb  Sb35  1  0.786886  0.463898  0.046212  1
