# generated using pymatgen
data_La4V(MoO4)3
_symmetry_space_group_name_H-M   'P 1'
_cell_length_a   5.69427795
_cell_length_b   5.89010420
_cell_length_c   8.15661678
_cell_angle_alpha   90.02277968
_cell_angle_beta   90.16885980
_cell_angle_gamma   89.60492588
_symmetry_Int_Tables_number   1
_chemical_formula_structural   La4V(MoO4)3
_chemical_formula_sum   'La4 V1 Mo3 O12'
_cell_volume   273.56432223
_cell_formula_units_Z   1
loop_
 _symmetry_equiv_pos_site_id
 _symmetry_equiv_pos_as_xyz
  1  'x, y, z'
loop_
 _atom_site_type_symbol
 _atom_site_label
 _atom_site_symmetry_multiplicity
 _atom_site_fract_x
 _atom_site_fract_y
 _atom_site_fract_z
 _atom_site_occupancy
  La  La0  1  0.014292  0.949792  0.754768  1
  La  La1  1  0.515017  0.551415  0.245109  1
  La  La2  1  0.484983  0.448585  0.754891  1
  La  La3  1  0.985708  0.050208  0.245232  1
  V  V4  1  0.500000  0.000000  0.000000  1
  Mo  Mo5  1  0.500000  0.000000  0.500000  1
  Mo  Mo6  1  0.000000  0.500000  0.500000  1
  Mo  Mo7  1  0.000000  0.500000  0.000000  1
  O  O8  1  0.696940  0.300026  0.438441  1
  O  O9  1  0.196646  0.199517  0.563482  1
  O  O10  1  0.787722  0.800710  0.051282  1
  O  O11  1  0.300551  0.709821  0.946867  1
  O  O12  1  0.303060  0.699974  0.561559  1
  O  O13  1  0.803354  0.800483  0.436518  1
  O  O14  1  0.212278  0.199290  0.948718  1
  O  O15  1  0.699449  0.290179  0.053133  1
  O  O16  1  0.110282  0.458118  0.249744  1
  O  O17  1  0.603071  0.037722  0.757024  1
  O  O18  1  0.396929  0.962278  0.242976  1
  O  O19  1  0.889718  0.541882  0.750256  1
