# generated using pymatgen
data_Ho2ErZn3Hg2Ir
_symmetry_space_group_name_H-M   'P 1'
_cell_length_a   7.68053158
_cell_length_b   7.67992307
_cell_length_c   3.75651200
_cell_angle_alpha   90.00000000
_cell_angle_beta   90.00000000
_cell_angle_gamma   119.93603887
_symmetry_Int_Tables_number   1
_chemical_formula_structural   Ho2ErZn3Hg2Ir
_chemical_formula_sum   'Ho2 Er1 Zn3 Hg2 Ir1'
_cell_volume   192.01851618
_cell_formula_units_Z   1
loop_
 _symmetry_equiv_pos_site_id
 _symmetry_equiv_pos_as_xyz
  1  'x, y, z'
loop_
 _atom_site_type_symbol
 _atom_site_label
 _atom_site_symmetry_multiplicity
 _atom_site_fract_x
 _atom_site_fract_y
 _atom_site_fract_z
 _atom_site_occupancy
  Ho  Ho0  1  0.388487  0.969250  0.000000  1
  Ho  Ho1  1  0.030811  0.419070  0.000000  1
  Er  Er2  1  0.580758  0.612124  0.000000  1
  Zn  Zn3  1  0.005295  0.725719  0.500000  1
  Zn  Zn4  1  0.274604  0.279988  0.500000  1
  Zn  Zn5  1  0.720041  0.993850  0.500000  1
  Hg  Hg6  1  0.999482  0.999318  0.000000  1
  Hg  Hg7  1  0.666350  0.334151  0.500000  1
  Ir  Ir8  1  0.334172  0.666529  0.500000  1
