# generated using pymatgen
data_Y3ZrAl17SiIr6
_symmetry_space_group_name_H-M   'P 1'
_cell_length_a   7.54342057
_cell_length_b   7.53490764
_cell_length_c   9.37774900
_cell_angle_alpha   90.00000000
_cell_angle_beta   90.00000000
_cell_angle_gamma   119.72056183
_symmetry_Int_Tables_number   1
_chemical_formula_structural   Y3ZrAl17SiIr6
_chemical_formula_sum   'Y3 Zr1 Al17 Si1 Ir6'
_cell_volume   462.90460932
_cell_formula_units_Z   1
loop_
 _symmetry_equiv_pos_site_id
 _symmetry_equiv_pos_as_xyz
  1  'x, y, z'
loop_
 _atom_site_type_symbol
 _atom_site_label
 _atom_site_symmetry_multiplicity
 _atom_site_fract_x
 _atom_site_fract_y
 _atom_site_fract_z
 _atom_site_occupancy
  Y  Y0  1  0.006460  0.324418  0.750000  1
  Y  Y1  1  0.671064  0.994985  0.250000  1
  Y  Y2  1  0.326435  0.006997  0.750000  1
  Zr  Zr3  1  0.994648  0.670373  0.250000  1
  Al  Al4  1  0.125205  0.122139  0.250000  1
  Al  Al5  1  0.000381  0.337555  0.078176  1
  Al  Al6  1  0.999764  0.663925  0.929418  1
  Al  Al7  1  0.999764  0.663925  0.570582  1
  Al  Al8  1  0.331680  0.998024  0.421725  1
  Al  Al9  1  0.000381  0.337555  0.421824  1
  Al  Al10  1  0.663226  0.998644  0.575497  1
  Al  Al11  1  0.663226  0.998644  0.924503  1
  Al  Al12  1  0.331680  0.998024  0.078275  1
  Al  Al13  1  0.335738  0.335874  0.550547  1
  Al  Al14  1  0.669019  0.666695  0.439970  1
  Al  Al15  1  0.669019  0.666695  0.060030  1
  Al  Al16  1  0.335738  0.335874  0.949453  1
  Al  Al17  1  0.334975  0.548929  0.250000  1
  Al  Al18  1  0.665306  0.453779  0.750000  1
  Al  Al19  1  0.553744  0.343200  0.250000  1
  Al  Al20  1  0.451294  0.662877  0.750000  1
  Si  Si21  1  0.868543  0.866682  0.750000  1
  Ir  Ir22  1  0.673082  0.329514  0.000246  1
  Ir  Ir23  1  0.329749  0.673495  0.000815  1
  Ir  Ir24  1  0.329749  0.673495  0.499185  1
  Ir  Ir25  1  0.673082  0.329514  0.499754  1
  Ir  Ir26  1  0.998523  0.999083  0.993875  1
  Ir  Ir27  1  0.998523  0.999083  0.506125  1
