# generated using pymatgen
data_Lu3Sc7In8(PtAu)2
_symmetry_space_group_name_H-M   'P 1'
_cell_length_a   3.52901700
_cell_length_b   7.83514479
_cell_length_c   17.71557219
_cell_angle_alpha   90.03033272
_cell_angle_beta   90.00000000
_cell_angle_gamma   90.00000000
_symmetry_Int_Tables_number   1
_chemical_formula_structural   Lu3Sc7In8(PtAu)2
_chemical_formula_sum   'Lu3 Sc7 In8 Pt2 Au2'
_cell_volume   489.84186521
_cell_formula_units_Z   1
loop_
 _symmetry_equiv_pos_site_id
 _symmetry_equiv_pos_as_xyz
  1  'x, y, z'
loop_
 _atom_site_type_symbol
 _atom_site_label
 _atom_site_symmetry_multiplicity
 _atom_site_fract_x
 _atom_site_fract_y
 _atom_site_fract_z
 _atom_site_occupancy
  Lu  Lu0  1  0.000000  0.745473  0.784329  1
  Lu  Lu1  1  0.000000  0.266930  0.720927  1
  Lu  Lu2  1  0.000000  0.733925  0.278560  1
  Sc  Sc3  1  0.000000  0.120869  0.419778  1
  Sc  Sc4  1  0.000000  0.878545  0.578512  1
  Sc  Sc5  1  0.000000  0.381249  0.917819  1
  Sc  Sc6  1  0.000000  0.617503  0.084331  1
  Sc  Sc7  1  0.000000  0.258272  0.216712  1
  Sc  Sc8  1  0.000000  0.000343  0.000442  1
  Sc  Sc9  1  0.000000  0.499782  0.499041  1
  In  In10  1  0.500000  0.417591  0.353552  1
  In  In11  1  0.500000  0.579409  0.644156  1
  In  In12  1  0.500000  0.079957  0.856449  1
  In  In13  1  0.500000  0.923584  0.144274  1
  In  In14  1  0.500000  0.292752  0.063540  1
  In  In15  1  0.500000  0.704931  0.939947  1
  In  In16  1  0.500000  0.207579  0.562277  1
  In  In17  1  0.500000  0.792459  0.436411  1
  Pt  Pt18  1  0.500000  0.467772  0.807622  1
  Pt  Pt19  1  0.500000  0.526782  0.193562  1
  Au  Au20  1  0.500000  0.036528  0.302861  1
  Au  Au21  1  0.500000  0.967765  0.694896  1
