# generated using pymatgen
data_TbEr6Sn23Ir6
_symmetry_space_group_name_H-M   'P 1'
_cell_length_a   9.84034000
_cell_length_b   9.84033963
_cell_length_c   10.10594700
_cell_angle_alpha   90.00000000
_cell_angle_beta   90.00000000
_cell_angle_gamma   120.00000123
_symmetry_Int_Tables_number   1
_chemical_formula_structural   TbEr6Sn23Ir6
_chemical_formula_sum   'Tb1 Er6 Sn23 Ir6'
_cell_volume   847.47683313
_cell_formula_units_Z   1
loop_
 _symmetry_equiv_pos_site_id
 _symmetry_equiv_pos_as_xyz
  1  'x, y, z'
loop_
 _atom_site_type_symbol
 _atom_site_label
 _atom_site_symmetry_multiplicity
 _atom_site_fract_x
 _atom_site_fract_y
 _atom_site_fract_z
 _atom_site_occupancy
  Tb  Tb0  1  0.000000  0.000000  0.000000  1
  Er  Er1  1  0.480858  0.519142  0.306813  1
  Er  Er2  1  0.519142  0.480858  0.693187  1
  Er  Er3  1  0.480858  0.961717  0.306813  1
  Er  Er4  1  0.519142  0.038283  0.693187  1
  Er  Er5  1  0.038283  0.519142  0.306813  1
  Er  Er6  1  0.961717  0.480858  0.693187  1
  Sn  Sn7  1  0.119678  0.880322  0.284179  1
  Sn  Sn8  1  0.880322  0.119678  0.715821  1
  Sn  Sn9  1  0.119678  0.239354  0.284179  1
  Sn  Sn10  1  0.880322  0.760646  0.715821  1
  Sn  Sn11  1  0.760646  0.880322  0.284179  1
  Sn  Sn12  1  0.239354  0.119678  0.715821  1
  Sn  Sn13  1  0.777208  0.222792  0.456939  1
  Sn  Sn14  1  0.222792  0.777208  0.543061  1
  Sn  Sn15  1  0.777208  0.554415  0.456939  1
  Sn  Sn16  1  0.222792  0.445585  0.543061  1
  Sn  Sn17  1  0.445585  0.222792  0.456939  1
  Sn  Sn18  1  0.554415  0.777208  0.543061  1
  Sn  Sn19  1  0.352600  0.000000  0.000000  1
  Sn  Sn20  1  0.647400  0.000000  0.000000  1
  Sn  Sn21  1  0.000000  0.352600  0.000000  1
  Sn  Sn22  1  0.000000  0.647400  0.000000  1
  Sn  Sn23  1  0.647400  0.647400  0.000000  1
  Sn  Sn24  1  0.352600  0.352600  0.000000  1
  Sn  Sn25  1  0.333333  0.666667  0.124905  1
  Sn  Sn26  1  0.666667  0.333333  0.875095  1
  Sn  Sn27  1  0.333333  0.666667  0.826482  1
  Sn  Sn28  1  0.666667  0.333333  0.173518  1
  Sn  Sn29  1  0.000000  0.000000  0.500000  1
  Ir  Ir30  1  0.830960  0.169040  0.198716  1
  Ir  Ir31  1  0.169040  0.830960  0.801284  1
  Ir  Ir32  1  0.830960  0.661922  0.198716  1
  Ir  Ir33  1  0.169040  0.338078  0.801284  1
  Ir  Ir34  1  0.338078  0.169040  0.198716  1
  Ir  Ir35  1  0.661922  0.830960  0.801284  1
