# generated using pymatgen
data_BaCe2Cd11
_symmetry_space_group_name_H-M   'P 1'
_cell_length_a   5.00490945
_cell_length_b   9.22800567
_cell_length_c   9.22800500
_cell_angle_alpha   65.87702017
_cell_angle_beta   74.26547262
_cell_angle_gamma   74.26547332
_symmetry_Int_Tables_number   1
_chemical_formula_structural   BaCe2Cd11
_chemical_formula_sum   'Ba1 Ce2 Cd11'
_cell_volume   368.11302263
_cell_formula_units_Z   1
loop_
 _symmetry_equiv_pos_site_id
 _symmetry_equiv_pos_as_xyz
  1  'x, y, z'
loop_
 _atom_site_type_symbol
 _atom_site_label
 _atom_site_symmetry_multiplicity
 _atom_site_fract_x
 _atom_site_fract_y
 _atom_site_fract_z
 _atom_site_occupancy
  Ba  Ba0  1  0.000000  0.000000  0.000000  1
  Ce  Ce1  1  0.698523  0.301477  0.301477  1
  Ce  Ce2  1  0.301477  0.698523  0.698523  1
  Cd  Cd3  1  0.665891  0.690840  0.977378  1
  Cd  Cd4  1  0.334109  0.309160  0.022622  1
  Cd  Cd5  1  0.665891  0.977378  0.690840  1
  Cd  Cd6  1  0.334109  0.022622  0.309160  1
  Cd  Cd7  1  0.500000  0.677406  0.322594  1
  Cd  Cd8  1  0.500000  0.322594  0.677406  1
  Cd  Cd9  1  0.859524  0.429206  0.851745  1
  Cd  Cd10  1  0.140476  0.570794  0.148255  1
  Cd  Cd11  1  0.859524  0.851745  0.429206  1
  Cd  Cd12  1  0.140476  0.148255  0.570794  1
  Cd  Cd13  1  0.000000  0.500000  0.500000  1
