# generated using pymatgen
data_Ce9SmIr6
_symmetry_space_group_name_H-M   'P 1'
_cell_length_a   11.24833500
_cell_length_b   11.17939245
_cell_length_c   6.14553500
_cell_angle_alpha   90.00000000
_cell_angle_beta   90.00000000
_cell_angle_gamma   91.74500568
_symmetry_Int_Tables_number   1
_chemical_formula_structural   Ce9SmIr6
_chemical_formula_sum   'Ce18 Sm2 Ir12'
_cell_volume   772.43988354
_cell_formula_units_Z   2
loop_
 _symmetry_equiv_pos_site_id
 _symmetry_equiv_pos_as_xyz
  1  'x, y, z'
loop_
 _atom_site_type_symbol
 _atom_site_label
 _atom_site_symmetry_multiplicity
 _atom_site_fract_x
 _atom_site_fract_y
 _atom_site_fract_z
 _atom_site_occupancy
  Ce  Ce0  1  0.091911  0.288172  0.130467  1
  Ce  Ce1  1  0.785983  0.412250  0.127714  1
  Ce  Ce2  1  0.214017  0.587750  0.127714  1
  Ce  Ce3  1  0.908089  0.711828  0.130467  1
  Ce  Ce4  1  0.411309  0.785306  0.369965  1
  Ce  Ce5  1  0.588691  0.214694  0.369965  1
  Ce  Ce6  1  0.287185  0.088914  0.370432  1
  Ce  Ce7  1  0.712815  0.911086  0.370432  1
  Ce  Ce8  1  0.410971  0.206362  0.868697  1
  Ce  Ce9  1  0.715900  0.092347  0.873384  1
  Ce  Ce10  1  0.284100  0.907653  0.873384  1
  Ce  Ce11  1  0.589029  0.793638  0.868697  1
  Ce  Ce12  1  0.088760  0.707385  0.629004  1
  Ce  Ce13  1  0.911240  0.292615  0.629004  1
  Ce  Ce14  1  0.000000  0.000000  0.032861  1
  Ce  Ce15  1  0.500000  0.500000  0.968979  1
  Ce  Ce16  1  0.500000  0.500000  0.512608  1
  Ce  Ce17  1  0.000000  0.000000  0.482649  1
  Sm  Sm18  1  0.214279  0.408272  0.632649  1
  Sm  Sm19  1  0.785721  0.591728  0.632649  1
  Ir  Ir20  1  0.161356  0.835006  0.254195  1
  Ir  Ir21  1  0.349882  0.345223  0.236302  1
  Ir  Ir22  1  0.650118  0.654777  0.236302  1
  Ir  Ir23  1  0.838644  0.164994  0.254195  1
  Ir  Ir24  1  0.341853  0.663697  0.751297  1
  Ir  Ir25  1  0.154752  0.145141  0.756470  1
  Ir  Ir26  1  0.845248  0.854859  0.756470  1
  Ir  Ir27  1  0.658147  0.336303  0.751297  1
  Ir  Ir28  1  0.000000  0.500000  0.387736  1
  Ir  Ir29  1  0.500000  0.000000  0.111579  1
  Ir  Ir30  1  0.500000  0.000000  0.608905  1
  Ir  Ir31  1  0.000000  0.500000  0.893533  1
