# generated using pymatgen
data_Np8B24Mo3W
_symmetry_space_group_name_H-M   'P 1'
_cell_length_a   3.67187200
_cell_length_b   9.29333656
_cell_length_c   11.33164401
_cell_angle_alpha   90.01793442
_cell_angle_beta   90.00000000
_cell_angle_gamma   90.00000000
_symmetry_Int_Tables_number   1
_chemical_formula_structural   Np8B24Mo3W
_chemical_formula_sum   'Np8 B24 Mo3 W1'
_cell_volume   386.68034749
_cell_formula_units_Z   1
loop_
 _symmetry_equiv_pos_site_id
 _symmetry_equiv_pos_as_xyz
  1  'x, y, z'
loop_
 _atom_site_type_symbol
 _atom_site_label
 _atom_site_symmetry_multiplicity
 _atom_site_fract_x
 _atom_site_fract_y
 _atom_site_fract_z
 _atom_site_occupancy
  Np  Np0  1  0.000000  0.338800  0.407283  1
  Np  Np1  1  0.000000  0.661388  0.592732  1
  Np  Np2  1  0.000000  0.838685  0.092687  1
  Np  Np3  1  0.000000  0.161500  0.907328  1
  Np  Np4  1  0.000000  0.958899  0.399805  1
  Np  Np5  1  0.000000  0.041344  0.600169  1
  Np  Np6  1  0.000000  0.458693  0.100544  1
  Np  Np7  1  0.000000  0.540948  0.899983  1
  B  B8  1  0.500000  0.551729  0.432442  1
  B  B9  1  0.500000  0.448326  0.567640  1
  B  B10  1  0.500000  0.051683  0.067614  1
  B  B11  1  0.500000  0.948354  0.932510  1
  B  B12  1  0.500000  0.744921  0.424135  1
  B  B13  1  0.500000  0.255064  0.575774  1
  B  B14  1  0.500000  0.244990  0.075852  1
  B  B15  1  0.500000  0.754792  0.924341  1
  B  B16  1  0.500000  0.806194  0.273811  1
  B  B17  1  0.500000  0.193794  0.726046  1
  B  B18  1  0.500000  0.306257  0.226114  1
  B  B19  1  0.500000  0.693646  0.773811  1
  B  B20  1  0.500000  0.646135  0.187118  1
  B  B21  1  0.500000  0.353852  0.812921  1
  B  B22  1  0.500000  0.146219  0.312838  1
  B  B23  1  0.500000  0.853842  0.686807  1
  B  B24  1  0.500000  0.987973  0.220630  1
  B  B25  1  0.500000  0.012143  0.779160  1
  B  B26  1  0.500000  0.488012  0.279336  1
  B  B27  1  0.500000  0.511942  0.720717  1
  B  B28  1  0.500000  0.641210  0.039326  1
  B  B29  1  0.500000  0.358575  0.960882  1
  B  B30  1  0.500000  0.141534  0.460790  1
  B  B31  1  0.500000  0.858725  0.538993  1
  Mo  Mo32  1  0.000000  0.646864  0.319281  1
  Mo  Mo33  1  0.000000  0.353097  0.680679  1
  Mo  Mo34  1  0.000000  0.146906  0.180654  1
  W  W35  1  0.000000  0.852964  0.819245  1
