# generated using pymatgen
data_Rb2ZnCu3F12
_symmetry_space_group_name_H-M   'P 1'
_cell_length_a   7.25358934
_cell_length_b   7.25358928
_cell_length_c   7.25358881
_cell_angle_alpha   60.62838620
_cell_angle_beta   60.62838819
_cell_angle_gamma   60.62838125
_symmetry_Int_Tables_number   1
_chemical_formula_structural   Rb2ZnCu3F12
_chemical_formula_sum   'Rb2 Zn1 Cu3 F12'
_cell_volume   273.69254071
_cell_formula_units_Z   1
loop_
 _symmetry_equiv_pos_site_id
 _symmetry_equiv_pos_as_xyz
  1  'x, y, z'
loop_
 _atom_site_type_symbol
 _atom_site_label
 _atom_site_symmetry_multiplicity
 _atom_site_fract_x
 _atom_site_fract_y
 _atom_site_fract_z
 _atom_site_occupancy
  Rb  Rb0  1  0.875604  0.875604  0.875604  1
  Rb  Rb1  1  0.124396  0.124396  0.124396  1
  Zn  Zn2  1  0.500000  0.500000  0.500000  1
  Cu  Cu3  1  0.500000  0.500000  0.000000  1
  Cu  Cu4  1  0.000000  0.500000  0.500000  1
  Cu  Cu5  1  0.500000  0.000000  0.500000  1
  F  F6  1  0.819329  0.425083  0.819329  1
  F  F7  1  0.819329  0.819329  0.425083  1
  F  F8  1  0.425083  0.819329  0.819329  1
  F  F9  1  0.180671  0.574917  0.180671  1
  F  F10  1  0.180671  0.180671  0.574917  1
  F  F11  1  0.574917  0.180671  0.180671  1
  F  F12  1  0.423191  0.834733  0.423191  1
  F  F13  1  0.423191  0.423191  0.834733  1
  F  F14  1  0.834733  0.423191  0.423191  1
  F  F15  1  0.576809  0.165267  0.576809  1
  F  F16  1  0.576809  0.576809  0.165267  1
  F  F17  1  0.165267  0.576809  0.576809  1
