# generated using pymatgen
data_Lu5Sn3O
_symmetry_space_group_name_H-M   'P 1'
_cell_length_a   8.84102796
_cell_length_b   8.84102861
_cell_length_c   8.84102800
_cell_angle_alpha   126.02978699
_cell_angle_beta   126.02979003
_cell_angle_gamma   79.83918418
_symmetry_Int_Tables_number   1
_chemical_formula_structural   Lu5Sn3O
_chemical_formula_sum   'Lu10 Sn6 O2'
_cell_volume   436.49896160
_cell_formula_units_Z   2
loop_
 _symmetry_equiv_pos_site_id
 _symmetry_equiv_pos_as_xyz
  1  'x, y, z'
loop_
 _atom_site_type_symbol
 _atom_site_label
 _atom_site_symmetry_multiplicity
 _atom_site_fract_x
 _atom_site_fract_y
 _atom_site_fract_z
 _atom_site_occupancy
  Lu  Lu0  1  0.501648  0.301752  0.500000  1
  Lu  Lu1  1  0.801752  0.001648  0.500000  1
  Lu  Lu2  1  0.001648  0.501648  0.199896  1
  Lu  Lu3  1  0.301752  0.801752  0.800104  1
  Lu  Lu4  1  0.500752  0.700729  0.500000  1
  Lu  Lu5  1  0.200729  0.000752  0.500000  1
  Lu  Lu6  1  0.000752  0.500752  0.800021  1
  Lu  Lu7  1  0.700729  0.200729  0.199979  1
  Lu  Lu8  1  0.501806  0.501806  0.000000  1
  Lu  Lu9  1  0.001806  0.001806  0.000000  1
  Sn  Sn10  1  0.147974  0.354229  0.500000  1
  Sn  Sn11  1  0.854229  0.647974  0.500000  1
  Sn  Sn12  1  0.647974  0.147974  0.793743  1
  Sn  Sn13  1  0.354229  0.854229  0.206257  1
  Sn  Sn14  1  0.751406  0.751406  0.000000  1
  Sn  Sn15  1  0.251406  0.251406  0.000000  1
  O  O16  1  0.751126  0.251126  0.500000  1
  O  O17  1  0.251126  0.751126  0.500000  1
