# generated using pymatgen
data_Ce3Y9Ga20
_symmetry_space_group_name_H-M   'P 1'
_cell_length_a   6.25314801
_cell_length_b   9.87042400
_cell_length_c   11.85752600
_cell_angle_alpha   90.00000000
_cell_angle_beta   90.00282211
_cell_angle_gamma   90.00000000
_symmetry_Int_Tables_number   1
_chemical_formula_structural   Ce3Y9Ga20
_chemical_formula_sum   'Ce3 Y9 Ga20'
_cell_volume   731.86099574
_cell_formula_units_Z   1
loop_
 _symmetry_equiv_pos_site_id
 _symmetry_equiv_pos_as_xyz
  1  'x, y, z'
loop_
 _atom_site_type_symbol
 _atom_site_label
 _atom_site_symmetry_multiplicity
 _atom_site_fract_x
 _atom_site_fract_y
 _atom_site_fract_z
 _atom_site_occupancy
  Ce  Ce0  1  0.648644  0.750000  0.574308  1
  Ce  Ce1  1  0.150252  0.250000  0.925615  1
  Ce  Ce2  1  0.350857  0.250000  0.425985  1
  Y  Y3  1  0.849674  0.750000  0.076550  1
  Y  Y4  1  0.888082  0.510044  0.350752  1
  Y  Y5  1  0.612901  0.989372  0.851274  1
  Y  Y6  1  0.111541  0.009111  0.649643  1
  Y  Y7  1  0.388510  0.492192  0.149517  1
  Y  Y8  1  0.111541  0.490889  0.649643  1
  Y  Y9  1  0.388510  0.007808  0.149517  1
  Y  Y10  1  0.888082  0.989956  0.350752  1
  Y  Y11  1  0.612901  0.510628  0.851274  1
  Ga  Ga12  1  0.873767  0.053554  0.090148  1
  Ga  Ga13  1  0.626939  0.444324  0.591961  1
  Ga  Ga14  1  0.126252  0.555172  0.908404  1
  Ga  Ga15  1  0.371390  0.944665  0.407509  1
  Ga  Ga16  1  0.126252  0.944828  0.908404  1
  Ga  Ga17  1  0.371390  0.555335  0.407509  1
  Ga  Ga18  1  0.873767  0.446446  0.090148  1
  Ga  Ga19  1  0.626939  0.055676  0.591961  1
  Ga  Ga20  1  0.176065  0.750000  0.252804  1
  Ga  Ga21  1  0.323541  0.750000  0.753072  1
  Ga  Ga22  1  0.821913  0.250000  0.747645  1
  Ga  Ga23  1  0.676701  0.250000  0.247862  1
  Ga  Ga24  1  0.374823  0.750000  0.003681  1
  Ga  Ga25  1  0.129039  0.750000  0.504554  1
  Ga  Ga26  1  0.631298  0.250000  0.995075  1
  Ga  Ga27  1  0.870611  0.250000  0.494519  1
  Ga  Ga28  1  0.598786  0.750000  0.300583  1
  Ga  Ga29  1  0.899614  0.750000  0.801430  1
  Ga  Ga30  1  0.399414  0.250000  0.699137  1
  Ga  Ga31  1  0.100003  0.250000  0.198765  1
