# generated using pymatgen
data_SrBi3Ru3RhO14
_symmetry_space_group_name_H-M   'P 1'
_cell_length_a   7.39035237
_cell_length_b   7.31671217
_cell_length_c   7.39035200
_cell_angle_alpha   59.66650324
_cell_angle_beta   60.00000165
_cell_angle_gamma   59.66650269
_symmetry_Int_Tables_number   1
_chemical_formula_structural   SrBi3Ru3RhO14
_chemical_formula_sum   'Sr1 Bi3 Ru3 Rh1 O14'
_cell_volume   281.14059663
_cell_formula_units_Z   1
loop_
 _symmetry_equiv_pos_site_id
 _symmetry_equiv_pos_as_xyz
  1  'x, y, z'
loop_
 _atom_site_type_symbol
 _atom_site_label
 _atom_site_symmetry_multiplicity
 _atom_site_fract_x
 _atom_site_fract_y
 _atom_site_fract_z
 _atom_site_occupancy
  Sr  Sr0  1  0.125000  0.625000  0.125000  1
  Bi  Bi1  1  0.125000  0.125000  0.125000  1
  Bi  Bi2  1  0.625000  0.125000  0.125000  1
  Bi  Bi3  1  0.125000  0.125000  0.625000  1
  Ru  Ru4  1  0.625000  0.625000  0.625000  1
  Ru  Ru5  1  0.625000  0.625000  0.125000  1
  Ru  Ru6  1  0.125000  0.625000  0.625000  1
  Rh  Rh7  1  0.625000  0.125000  0.625000  1
  O  O8  1  0.255184  0.234448  0.255184  1
  O  O9  1  0.301307  0.706583  0.301307  1
  O  O10  1  0.955443  0.954068  0.545245  1
  O  O11  1  0.545245  0.954068  0.545245  1
  O  O12  1  0.690805  0.706583  0.301307  1
  O  O13  1  0.948693  0.543417  0.559195  1
  O  O14  1  0.704755  0.295932  0.704755  1
  O  O15  1  0.294557  0.295932  0.704755  1
  O  O16  1  0.704755  0.295932  0.294557  1
  O  O17  1  0.301307  0.706583  0.690805  1
  O  O18  1  0.948693  0.543417  0.948693  1
  O  O19  1  0.559195  0.543417  0.948693  1
  O  O20  1  0.994816  0.015552  0.994816  1
  O  O21  1  0.545245  0.954068  0.955443  1
