# generated using pymatgen
data_Y4Er8InCo4Ni
_symmetry_space_group_name_H-M   'P 1'
_cell_length_a   8.23765160
_cell_length_b   8.23765037
_cell_length_c   8.23765062
_cell_angle_alpha   110.49439454
_cell_angle_beta   110.97877123
_cell_angle_gamma   106.96947579
_symmetry_Int_Tables_number   1
_chemical_formula_structural   Y4Er8InCo4Ni
_chemical_formula_sum   'Y4 Er8 In1 Co4 Ni1'
_cell_volume   429.69678763
_cell_formula_units_Z   1
loop_
 _symmetry_equiv_pos_site_id
 _symmetry_equiv_pos_as_xyz
  1  'x, y, z'
loop_
 _atom_site_type_symbol
 _atom_site_label
 _atom_site_symmetry_multiplicity
 _atom_site_fract_x
 _atom_site_fract_y
 _atom_site_fract_z
 _atom_site_occupancy
  Y  Y0  1  0.188198  0.291116  0.479314  1
  Y  Y1  1  0.811802  0.708884  0.520686  1
  Y  Y2  1  0.188198  0.708884  0.897082  1
  Y  Y3  1  0.811802  0.291116  0.102918  1
  Er  Er4  1  0.315099  0.621126  0.306027  1
  Er  Er5  1  0.684901  0.378874  0.693973  1
  Er  Er6  1  0.315099  0.009072  0.693973  1
  Er  Er7  1  0.684901  0.990928  0.306027  1
  Er  Er8  1  0.407028  0.212237  0.194791  1
  Er  Er9  1  0.592972  0.787763  0.805209  1
  Er  Er10  1  0.017446  0.212237  0.805209  1
  Er  Er11  1  0.982554  0.787763  0.194791  1
  In  In12  1  0.500000  0.500000  0.000000  1
  Co  Co13  1  0.113128  0.613128  0.500000  1
  Co  Co14  1  0.886872  0.386872  0.500000  1
  Co  Co15  1  0.377477  0.000000  0.377477  1
  Co  Co16  1  0.622523  0.000000  0.622523  1
  Ni  Ni17  1  0.000000  0.000000  0.000000  1
