# generated using pymatgen
data_Hf4V3Fe5
_symmetry_space_group_name_H-M   'P 1'
_cell_length_a   5.02502973
_cell_length_b   5.02503071
_cell_length_c   8.05106300
_cell_angle_alpha   90.00000000
_cell_angle_beta   90.00000000
_cell_angle_gamma   119.39199259
_symmetry_Int_Tables_number   1
_chemical_formula_structural   Hf4V3Fe5
_chemical_formula_sum   'Hf4 V3 Fe5'
_cell_volume   177.12894122
_cell_formula_units_Z   1
loop_
 _symmetry_equiv_pos_site_id
 _symmetry_equiv_pos_as_xyz
  1  'x, y, z'
loop_
 _atom_site_type_symbol
 _atom_site_label
 _atom_site_symmetry_multiplicity
 _atom_site_fract_x
 _atom_site_fract_y
 _atom_site_fract_z
 _atom_site_occupancy
  Hf  Hf0  1  0.664916  0.335085  0.940547  1
  Hf  Hf1  1  0.332170  0.667829  0.065526  1
  Hf  Hf2  1  0.332170  0.667829  0.434474  1
  Hf  Hf3  1  0.664916  0.335085  0.559453  1
  V  V4  1  0.179281  0.820719  0.750000  1
  V  V5  1  0.996521  0.003479  0.003335  1
  V  V6  1  0.996521  0.003479  0.496665  1
  Fe  Fe7  1  0.828395  0.171605  0.250000  1
  Fe  Fe8  1  0.664977  0.829811  0.750000  1
  Fe  Fe9  1  0.342056  0.172112  0.250000  1
  Fe  Fe10  1  0.170189  0.335023  0.750000  1
  Fe  Fe11  1  0.827888  0.657944  0.250000  1
