# generated using pymatgen
data_Cs4Co3Rh5Se16
_symmetry_space_group_name_H-M   'P 1'
_cell_length_a   6.54052264
_cell_length_b   7.02282600
_cell_length_c   16.94559673
_cell_angle_alpha   90.00000000
_cell_angle_beta   89.84280696
_cell_angle_gamma   90.00000000
_symmetry_Int_Tables_number   1
_chemical_formula_structural   Cs4Co3Rh5Se16
_chemical_formula_sum   'Cs4 Co3 Rh5 Se16'
_cell_volume   778.35835956
_cell_formula_units_Z   1
loop_
 _symmetry_equiv_pos_site_id
 _symmetry_equiv_pos_as_xyz
  1  'x, y, z'
loop_
 _atom_site_type_symbol
 _atom_site_label
 _atom_site_symmetry_multiplicity
 _atom_site_fract_x
 _atom_site_fract_y
 _atom_site_fract_z
 _atom_site_occupancy
  Cs  Cs0  1  0.387347  0.000000  0.998511  1
  Cs  Cs1  1  0.603507  0.500000  0.503389  1
  Cs  Cs2  1  0.017585  0.000000  0.494597  1
  Cs  Cs3  1  0.979642  0.500000  0.994279  1
  Co  Co4  1  0.004508  0.000000  0.746542  1
  Co  Co5  1  0.996500  0.500000  0.247622  1
  Co  Co6  1  0.994746  0.500000  0.751401  1
  Rh  Rh7  1  0.005772  0.000000  0.252863  1
  Rh  Rh8  1  0.500506  0.276189  0.252098  1
  Rh  Rh9  1  0.500200  0.772435  0.750440  1
  Rh  Rh10  1  0.500506  0.723811  0.252098  1
  Rh  Rh11  1  0.500200  0.227565  0.750440  1
  Se  Se12  1  0.833452  0.265267  0.328067  1
  Se  Se13  1  0.836501  0.750499  0.674621  1
  Se  Se14  1  0.171866  0.740696  0.173444  1
  Se  Se15  1  0.161431  0.244029  0.824232  1
  Se  Se16  1  0.171866  0.259304  0.173444  1
  Se  Se17  1  0.161431  0.755971  0.824232  1
  Se  Se18  1  0.833452  0.734733  0.328067  1
  Se  Se19  1  0.836501  0.249501  0.674621  1
  Se  Se20  1  0.674120  0.000000  0.180447  1
  Se  Se21  1  0.713244  0.000000  0.828277  1
  Se  Se22  1  0.285078  0.500000  0.330403  1
  Se  Se23  1  0.312426  0.500000  0.681569  1
  Se  Se24  1  0.340669  0.000000  0.325172  1
  Se  Se25  1  0.303226  0.000000  0.668404  1
  Se  Se26  1  0.699802  0.500000  0.169426  1
  Se  Se27  1  0.673919  0.500000  0.821295  1
