# generated using pymatgen
data_Ca2La(HgPd)3
_symmetry_space_group_name_H-M   'P 1'
_cell_length_a   7.73367500
_cell_length_b   7.78459386
_cell_length_c   4.05962700
_cell_angle_alpha   90.00000000
_cell_angle_beta   90.00000000
_cell_angle_gamma   120.21803651
_symmetry_Int_Tables_number   1
_chemical_formula_structural   Ca2La(HgPd)3
_chemical_formula_sum   'Ca2 La1 Hg3 Pd3'
_cell_volume   211.19336092
_cell_formula_units_Z   1
loop_
 _symmetry_equiv_pos_site_id
 _symmetry_equiv_pos_as_xyz
  1  'x, y, z'
loop_
 _atom_site_type_symbol
 _atom_site_label
 _atom_site_symmetry_multiplicity
 _atom_site_fract_x
 _atom_site_fract_y
 _atom_site_fract_z
 _atom_site_occupancy
  Ca  Ca0  1  0.398719  0.399037  0.500000  1
  Ca  Ca1  1  0.601281  0.000318  0.500000  1
  La  La2  1  0.000000  0.599953  0.500000  1
  Hg  Hg3  1  0.727518  0.738171  0.000000  1
  Hg  Hg4  1  0.272482  0.010653  0.000000  1
  Hg  Hg5  1  0.000000  0.251682  0.000000  1
  Pd  Pd6  1  0.676638  0.341389  0.000000  1
  Pd  Pd7  1  0.323362  0.664752  0.000000  1
  Pd  Pd8  1  0.000000  0.994044  0.500000  1
