# generated using pymatgen
data_Ho2NpRu3
_symmetry_space_group_name_H-M   'P 1'
_cell_length_a   5.81078929
_cell_length_b   5.81078603
_cell_length_c   7.96349600
_cell_angle_alpha   90.00000000
_cell_angle_beta   90.00000000
_cell_angle_gamma   119.98512705
_symmetry_Int_Tables_number   1
_chemical_formula_structural   Ho2NpRu3
_chemical_formula_sum   'Ho4 Np2 Ru6'
_cell_volume   232.89999420
_cell_formula_units_Z   2
loop_
 _symmetry_equiv_pos_site_id
 _symmetry_equiv_pos_as_xyz
  1  'x, y, z'
loop_
 _atom_site_type_symbol
 _atom_site_label
 _atom_site_symmetry_multiplicity
 _atom_site_fract_x
 _atom_site_fract_y
 _atom_site_fract_z
 _atom_site_occupancy
  Ho  Ho0  1  0.666675  0.333325  0.556313  1
  Ho  Ho1  1  0.333325  0.666675  0.443687  1
  Ho  Ho2  1  0.333325  0.666675  0.056313  1
  Ho  Ho3  1  0.666675  0.333325  0.943687  1
  Np  Np4  1  0.000000  0.000000  0.500000  1
  Np  Np5  1  0.000000  0.000000  0.000000  1
  Ru  Ru6  1  0.165913  0.331776  0.750000  1
  Ru  Ru7  1  0.165908  0.834092  0.750000  1
  Ru  Ru8  1  0.668224  0.834087  0.750000  1
  Ru  Ru9  1  0.834087  0.668224  0.250000  1
  Ru  Ru10  1  0.834092  0.165908  0.250000  1
  Ru  Ru11  1  0.331776  0.165913  0.250000  1
