# generated using pymatgen
data_Ce7Pu3Si8N3
_symmetry_space_group_name_H-M   'P 1'
_cell_length_a   10.59256814
_cell_length_b   10.58191149
_cell_length_c   4.40961800
_cell_angle_alpha   90.00000000
_cell_angle_beta   90.00000000
_cell_angle_gamma   119.91208421
_symmetry_Int_Tables_number   1
_chemical_formula_structural   Ce7Pu3Si8N3
_chemical_formula_sum   'Ce7 Pu3 Si8 N3'
_cell_volume   428.43116116
_cell_formula_units_Z   1
loop_
 _symmetry_equiv_pos_site_id
 _symmetry_equiv_pos_as_xyz
  1  'x, y, z'
loop_
 _atom_site_type_symbol
 _atom_site_label
 _atom_site_symmetry_multiplicity
 _atom_site_fract_x
 _atom_site_fract_y
 _atom_site_fract_z
 _atom_site_occupancy
  Ce  Ce0  1  0.213238  0.786272  0.000000  1
  Ce  Ce1  1  0.213435  0.426825  0.000000  1
  Ce  Ce2  1  0.786565  0.573175  0.000000  1
  Ce  Ce3  1  0.427033  0.213656  0.000000  1
  Ce  Ce4  1  0.000000  0.000000  0.000000  1
  Ce  Ce5  1  0.572967  0.786344  0.000000  1
  Ce  Ce6  1  0.786762  0.213728  0.000000  1
  Pu  Pu7  1  0.500000  0.000000  0.500000  1
  Pu  Pu8  1  0.000000  0.500000  0.500000  1
  Pu  Pu9  1  0.500000  0.500000  0.500000  1
  Si  Si10  1  0.666931  0.333954  0.500000  1
  Si  Si11  1  0.999880  0.777784  0.500000  1
  Si  Si12  1  0.333069  0.666046  0.500000  1
  Si  Si13  1  0.222453  0.222494  0.500000  1
  Si  Si14  1  0.777547  0.777506  0.500000  1
  Si  Si15  1  0.778326  0.000138  0.500000  1
  Si  Si16  1  0.221674  0.999862  0.500000  1
  Si  Si17  1  0.000120  0.222216  0.500000  1
  N  N18  1  0.500000  0.500000  0.000000  1
  N  N19  1  0.500000  0.000000  0.000000  1
  N  N20  1  0.000000  0.500000  0.000000  1
