# generated using pymatgen
data_Tb2Y3(Th3Os2)3
_symmetry_space_group_name_H-M   'P 1'
_cell_length_a   9.85975480
_cell_length_b   10.01702120
_cell_length_c   6.34921462
_cell_angle_alpha   89.95278957
_cell_angle_beta   90.27437793
_cell_angle_gamma   120.54401404
_symmetry_Int_Tables_number   1
_chemical_formula_structural   Tb2Y3(Th3Os2)3
_chemical_formula_sum   'Tb2 Y3 Th9 Os6'
_cell_volume   540.06082437
_cell_formula_units_Z   1
loop_
 _symmetry_equiv_pos_site_id
 _symmetry_equiv_pos_as_xyz
  1  'x, y, z'
loop_
 _atom_site_type_symbol
 _atom_site_label
 _atom_site_symmetry_multiplicity
 _atom_site_fract_x
 _atom_site_fract_y
 _atom_site_fract_z
 _atom_site_occupancy
  Tb  Tb0  1  0.460306  0.535621  0.299754  1
  Tb  Tb1  1  0.073210  0.535088  0.300662  1
  Y  Y2  1  0.925348  0.460388  0.797025  1
  Y  Y3  1  0.251267  0.125070  0.508512  1
  Y  Y4  1  0.540415  0.077570  0.793945  1
  Th  Th5  1  0.747046  0.875223  0.014042  1
  Th  Th6  1  0.667410  0.333282  0.267623  1
  Th  Th7  1  0.128219  0.872451  0.004801  1
  Th  Th8  1  0.459828  0.924303  0.301019  1
  Th  Th9  1  0.534349  0.462403  0.797417  1
  Th  Th10  1  0.878228  0.131998  0.513672  1
  Th  Th11  1  0.125746  0.251517  0.011720  1
  Th  Th12  1  0.874772  0.745584  0.508162  1
  Th  Th13  1  0.333557  0.667224  0.769397  1
  Os  Os14  1  0.809749  0.629546  0.044563  1
  Os  Os15  1  0.816333  0.181631  0.053777  1
  Os  Os16  1  0.632077  0.818623  0.543509  1
  Os  Os17  1  0.372372  0.188505  0.042671  1
  Os  Os18  1  0.185353  0.375312  0.561608  1
  Os  Os19  1  0.184414  0.808662  0.550119  1
