# generated using pymatgen
data_Re18Tc6W5
_symmetry_space_group_name_H-M   'P 1'
_cell_length_a   8.35550698
_cell_length_b   8.35550652
_cell_length_c   8.34012704
_cell_angle_alpha   109.44270899
_cell_angle_beta   109.44271287
_cell_angle_gamma   109.60276920
_symmetry_Int_Tables_number   1
_chemical_formula_structural   Re18Tc6W5
_chemical_formula_sum   'Re18 Tc6 W5'
_cell_volume   447.81167633
_cell_formula_units_Z   1
loop_
 _symmetry_equiv_pos_site_id
 _symmetry_equiv_pos_as_xyz
  1  'x, y, z'
loop_
 _atom_site_type_symbol
 _atom_site_label
 _atom_site_symmetry_multiplicity
 _atom_site_fract_x
 _atom_site_fract_y
 _atom_site_fract_z
 _atom_site_occupancy
  Re  Re0  1  0.315923  0.315923  0.719674  1
  Re  Re1  1  0.001943  0.685266  0.402264  1
  Re  Re2  1  0.685266  0.001943  0.402264  1
  Re  Re3  1  0.596248  0.596248  0.280326  1
  Re  Re4  1  0.283002  0.599679  0.597736  1
  Re  Re5  1  0.599679  0.283002  0.597736  1
  Re  Re6  1  0.376089  0.193296  0.000000  1
  Re  Re7  1  0.180179  0.806447  0.805802  1
  Re  Re8  1  0.374377  0.000645  0.194198  1
  Re  Re9  1  0.193296  0.376089  0.000000  1
  Re  Re10  1  0.000645  0.374377  0.194198  1
  Re  Re11  1  0.806447  0.180179  0.805802  1
  Re  Re12  1  0.806348  0.806348  0.182306  1
  Re  Re13  1  0.000986  0.193582  0.378371  1
  Re  Re14  1  0.193582  0.000986  0.378371  1
  Re  Re15  1  0.624042  0.624042  0.817694  1
  Re  Re16  1  0.815211  0.622616  0.621629  1
  Re  Re17  1  0.622616  0.815211  0.621629  1
  Tc  Tc18  1  0.401201  0.686556  0.000000  1
  Tc  Tc19  1  0.717325  0.314954  0.312794  1
  Tc  Tc20  1  0.404531  0.002159  0.687206  1
  Tc  Tc21  1  0.686556  0.401201  0.000000  1
  Tc  Tc22  1  0.002159  0.404531  0.687206  1
  Tc  Tc23  1  0.314954  0.717325  0.312794  1
  W  W24  1  0.000712  0.000712  0.000000  1
  W  W25  1  0.640315  0.998700  0.000000  1
  W  W26  1  0.998700  0.640315  0.000000  1
  W  W27  1  0.998657  0.998657  0.639650  1
  W  W28  1  0.359007  0.359007  0.360350  1
