# generated using pymatgen
data_La4Hg2Pd3Pt
_symmetry_space_group_name_H-M   'P 1'
_cell_length_a   7.90749400
_cell_length_b   7.90749416
_cell_length_c   4.00977700
_cell_angle_alpha   90.00000000
_cell_angle_beta   90.00000000
_cell_angle_gamma   89.62082678
_symmetry_Int_Tables_number   1
_chemical_formula_structural   La4Hg2Pd3Pt
_chemical_formula_sum   'La4 Hg2 Pd3 Pt1'
_cell_volume   250.71970085
_cell_formula_units_Z   1
loop_
 _symmetry_equiv_pos_site_id
 _symmetry_equiv_pos_as_xyz
  1  'x, y, z'
loop_
 _atom_site_type_symbol
 _atom_site_label
 _atom_site_symmetry_multiplicity
 _atom_site_fract_x
 _atom_site_fract_y
 _atom_site_fract_z
 _atom_site_occupancy
  La  La0  1  0.674005  0.174005  0.500000  1
  La  La1  1  0.322370  0.822370  0.500000  1
  La  La2  1  0.175329  0.329185  0.500000  1
  La  La3  1  0.829185  0.675329  0.500000  1
  Hg  Hg4  1  0.999573  0.002846  0.000000  1
  Hg  Hg5  1  0.502846  0.499573  0.000000  1
  Pd  Pd6  1  0.869719  0.369719  0.000000  1
  Pd  Pd7  1  0.628140  0.872576  0.000000  1
  Pd  Pd8  1  0.372576  0.128140  0.000000  1
  Pt  Pt9  1  0.126257  0.626257  0.000000  1
