# generated using pymatgen
data_Y3Zr(Ni4As3)2
_symmetry_space_group_name_H-M   'P 1'
_cell_length_a   3.91802700
_cell_length_b   11.16247600
_cell_length_c   12.81620200
_cell_angle_alpha   90.00000000
_cell_angle_beta   90.00000000
_cell_angle_gamma   90.00000000
_symmetry_Int_Tables_number   1
_chemical_formula_structural   Y3Zr(Ni4As3)2
_chemical_formula_sum   'Y6 Zr2 Ni16 As12'
_cell_volume   560.51508671
_cell_formula_units_Z   2
loop_
 _symmetry_equiv_pos_site_id
 _symmetry_equiv_pos_as_xyz
  1  'x, y, z'
loop_
 _atom_site_type_symbol
 _atom_site_label
 _atom_site_symmetry_multiplicity
 _atom_site_fract_x
 _atom_site_fract_y
 _atom_site_fract_z
 _atom_site_occupancy
  Y  Y0  1  0.000000  0.500000  0.528770  1
  Y  Y1  1  0.500000  0.000000  0.471230  1
  Y  Y2  1  0.500000  0.821469  0.205210  1
  Y  Y3  1  0.500000  0.178531  0.205210  1
  Y  Y4  1  0.000000  0.678531  0.794790  1
  Y  Y5  1  0.000000  0.321469  0.794790  1
  Zr  Zr6  1  0.500000  0.500000  0.152036  1
  Zr  Zr7  1  0.000000  0.000000  0.847964  1
  Ni  Ni8  1  0.500000  0.500000  0.699865  1
  Ni  Ni9  1  0.000000  0.000000  0.300135  1
  Ni  Ni10  1  0.000000  0.500000  0.983465  1
  Ni  Ni11  1  0.500000  0.000000  0.016535  1
  Ni  Ni12  1  0.500000  0.336058  0.991630  1
  Ni  Ni13  1  0.500000  0.663942  0.991630  1
  Ni  Ni14  1  0.000000  0.163942  0.008370  1
  Ni  Ni15  1  0.000000  0.836058  0.008370  1
  Ni  Ni16  1  0.500000  0.301437  0.428680  1
  Ni  Ni17  1  0.500000  0.698563  0.428680  1
  Ni  Ni18  1  0.000000  0.198563  0.571320  1
  Ni  Ni19  1  0.000000  0.801437  0.571320  1
  Ni  Ni20  1  0.500000  0.879119  0.704684  1
  Ni  Ni21  1  0.500000  0.120881  0.704684  1
  Ni  Ni22  1  0.000000  0.620881  0.295316  1
  Ni  Ni23  1  0.000000  0.379119  0.295316  1
  As  As24  1  0.500000  0.500000  0.878382  1
  As  As25  1  0.000000  0.000000  0.121618  1
  As  As26  1  0.500000  0.500000  0.359370  1
  As  As27  1  0.000000  0.000000  0.640630  1
  As  As28  1  0.500000  0.313882  0.615063  1
  As  As29  1  0.500000  0.686118  0.615063  1
  As  As30  1  0.000000  0.186118  0.384937  1
  As  As31  1  0.000000  0.813882  0.384937  1
  As  As32  1  0.500000  0.836916  0.891703  1
  As  As33  1  0.500000  0.163084  0.891703  1
  As  As34  1  0.000000  0.663084  0.108297  1
  As  As35  1  0.000000  0.336916  0.108297  1
