# generated using pymatgen
data_Pa6Al24TcOs7
_symmetry_space_group_name_H-M   'P 1'
_cell_length_a   8.89339400
_cell_length_b   8.89339475
_cell_length_c   9.42342800
_cell_angle_alpha   90.00000000
_cell_angle_beta   90.00000000
_cell_angle_gamma   119.99999720
_symmetry_Int_Tables_number   1
_chemical_formula_structural   Pa6Al24TcOs7
_chemical_formula_sum   'Pa6 Al24 Tc1 Os7'
_cell_volume   645.46792159
_cell_formula_units_Z   1
loop_
 _symmetry_equiv_pos_site_id
 _symmetry_equiv_pos_as_xyz
  1  'x, y, z'
loop_
 _atom_site_type_symbol
 _atom_site_label
 _atom_site_symmetry_multiplicity
 _atom_site_fract_x
 _atom_site_fract_y
 _atom_site_fract_z
 _atom_site_occupancy
  Pa  Pa0  1  0.197703  0.395406  0.249333  1
  Pa  Pa1  1  0.802297  0.604594  0.750667  1
  Pa  Pa2  1  0.604594  0.802297  0.249333  1
  Pa  Pa3  1  0.395406  0.197703  0.750667  1
  Pa  Pa4  1  0.197703  0.802297  0.249333  1
  Pa  Pa5  1  0.802297  0.197703  0.750667  1
  Al  Al6  1  0.333333  0.666667  0.016111  1
  Al  Al7  1  0.666667  0.333333  0.983889  1
  Al  Al8  1  0.666667  0.333333  0.516903  1
  Al  Al9  1  0.333333  0.666667  0.483097  1
  Al  Al10  1  0.161837  0.323674  0.578308  1
  Al  Al11  1  0.838163  0.676326  0.421692  1
  Al  Al12  1  0.676326  0.838163  0.578308  1
  Al  Al13  1  0.838637  0.677274  0.079429  1
  Al  Al14  1  0.323674  0.161837  0.421692  1
  Al  Al15  1  0.161363  0.322726  0.920571  1
  Al  Al16  1  0.161837  0.838163  0.578308  1
  Al  Al17  1  0.322726  0.161363  0.079429  1
  Al  Al18  1  0.838163  0.161837  0.421692  1
  Al  Al19  1  0.677274  0.838637  0.920571  1
  Al  Al20  1  0.838637  0.161363  0.079429  1
  Al  Al21  1  0.161363  0.838637  0.920571  1
  Al  Al22  1  0.562701  0.125402  0.249954  1
  Al  Al23  1  0.437299  0.874598  0.750046  1
  Al  Al24  1  0.874598  0.437299  0.249954  1
  Al  Al25  1  0.125402  0.562701  0.750046  1
  Al  Al26  1  0.562701  0.437299  0.249954  1
  Al  Al27  1  0.437299  0.562701  0.750046  1
  Al  Al28  1  0.000000  0.000000  0.248934  1
  Al  Al29  1  0.000000  0.000000  0.751066  1
  Tc  Tc30  1  0.000000  0.000000  0.000000  1
  Os  Os31  1  0.500000  0.000000  0.000000  1
  Os  Os32  1  0.000000  0.500000  0.000000  1
  Os  Os33  1  0.500000  0.000000  0.500000  1
  Os  Os34  1  0.500000  0.500000  0.000000  1
  Os  Os35  1  0.000000  0.500000  0.500000  1
  Os  Os36  1  0.500000  0.500000  0.500000  1
  Os  Os37  1  0.000000  0.000000  0.500000  1
