# generated using pymatgen
data_Ho4MnB12Ir
_symmetry_space_group_name_H-M   'P 1'
_cell_length_a   3.60583400
_cell_length_b   9.11011641
_cell_length_c   11.47878520
_cell_angle_alpha   90.11702908
_cell_angle_beta   90.00000000
_cell_angle_gamma   90.00000000
_symmetry_Int_Tables_number   1
_chemical_formula_structural   Ho4MnB12Ir
_chemical_formula_sum   'Ho8 Mn2 B24 Ir2'
_cell_volume   377.07234294
_cell_formula_units_Z   2
loop_
 _symmetry_equiv_pos_site_id
 _symmetry_equiv_pos_as_xyz
  1  'x, y, z'
loop_
 _atom_site_type_symbol
 _atom_site_label
 _atom_site_symmetry_multiplicity
 _atom_site_fract_x
 _atom_site_fract_y
 _atom_site_fract_z
 _atom_site_occupancy
  Ho  Ho0  1  0.500000  0.316530  0.409765  1
  Ho  Ho1  1  0.500000  0.683470  0.590235  1
  Ho  Ho2  1  0.500000  0.171894  0.918153  1
  Ho  Ho3  1  0.500000  0.828106  0.081847  1
  Ho  Ho4  1  0.500000  0.438329  0.126132  1
  Ho  Ho5  1  0.500000  0.561671  0.873868  1
  Ho  Ho6  1  0.500000  0.052033  0.630193  1
  Ho  Ho7  1  0.500000  0.947967  0.369807  1
  Mn  Mn8  1  0.500000  0.138375  0.179938  1
  Mn  Mn9  1  0.500000  0.861625  0.820062  1
  B  B10  1  0.000000  0.106962  0.470786  1
  B  B11  1  0.000000  0.893038  0.529214  1
  B  B12  1  0.000000  0.391955  0.969985  1
  B  B13  1  0.000000  0.608045  0.030015  1
  B  B14  1  0.000000  0.131732  0.313116  1
  B  B15  1  0.000000  0.868268  0.686884  1
  B  B16  1  0.000000  0.368268  0.816637  1
  B  B17  1  0.000000  0.631732  0.183363  1
  B  B18  1  0.000000  0.053827  0.067770  1
  B  B19  1  0.000000  0.946173  0.932230  1
  B  B20  1  0.000000  0.446094  0.566081  1
  B  B21  1  0.000000  0.553906  0.433919  1
  B  B22  1  0.000000  0.481512  0.286943  1
  B  B23  1  0.000000  0.518488  0.713057  1
  B  B24  1  0.000000  0.014346  0.788725  1
  B  B25  1  0.000000  0.985654  0.211275  1
  B  B26  1  0.000000  0.245213  0.081802  1
  B  B27  1  0.000000  0.754787  0.918198  1
  B  B28  1  0.000000  0.250002  0.579230  1
  B  B29  1  0.000000  0.749998  0.420770  1
  B  B30  1  0.000000  0.289621  0.233479  1
  B  B31  1  0.000000  0.710379  0.766521  1
  B  B32  1  0.000000  0.208149  0.735213  1
  B  B33  1  0.000000  0.791851  0.264787  1
  Ir  Ir34  1  0.500000  0.363064  0.678000  1
  Ir  Ir35  1  0.500000  0.636936  0.322000  1
