# generated using pymatgen
data_Dy2TcMoN4
_symmetry_space_group_name_H-M   'P 1'
_cell_length_a   3.18596600
_cell_length_b   5.68449900
_cell_length_c   10.64524600
_cell_angle_alpha   90.00000000
_cell_angle_beta   90.00000000
_cell_angle_gamma   90.00000000
_symmetry_Int_Tables_number   1
_chemical_formula_structural   Dy2TcMoN4
_chemical_formula_sum   'Dy4 Tc2 Mo2 N8'
_cell_volume   192.79201087
_cell_formula_units_Z   2
loop_
 _symmetry_equiv_pos_site_id
 _symmetry_equiv_pos_as_xyz
  1  'x, y, z'
loop_
 _atom_site_type_symbol
 _atom_site_label
 _atom_site_symmetry_multiplicity
 _atom_site_fract_x
 _atom_site_fract_y
 _atom_site_fract_z
 _atom_site_occupancy
  Dy  Dy0  1  0.250000  0.078110  0.853614  1
  Dy  Dy1  1  0.250000  0.578110  0.646386  1
  Dy  Dy2  1  0.750000  0.920096  0.148790  1
  Dy  Dy3  1  0.750000  0.420096  0.351210  1
  Tc  Tc4  1  0.250000  0.435204  0.094622  1
  Tc  Tc5  1  0.250000  0.935204  0.405378  1
  Mo  Mo6  1  0.750000  0.565691  0.905616  1
  Mo  Mo7  1  0.750000  0.065691  0.594384  1
  N  N8  1  0.250000  0.165528  0.249058  1
  N  N9  1  0.250000  0.665528  0.250942  1
  N  N10  1  0.750000  0.833104  0.753482  1
  N  N11  1  0.750000  0.333104  0.746518  1
  N  N12  1  0.250000  0.754253  0.994113  1
  N  N13  1  0.250000  0.254253  0.505887  1
  N  N14  1  0.750000  0.248013  0.005772  1
  N  N15  1  0.750000  0.748013  0.494228  1
