# generated using pymatgen
data_Er8Cd2OsPt
_symmetry_space_group_name_H-M   'P 1'
_cell_length_a   9.56612810
_cell_length_b   9.56612779
_cell_length_c   9.61994700
_cell_angle_alpha   59.81371418
_cell_angle_beta   59.81371527
_cell_angle_gamma   59.62521616
_symmetry_Int_Tables_number   1
_chemical_formula_structural   Er8Cd2OsPt
_chemical_formula_sum   'Er16 Cd4 Os2 Pt2'
_cell_volume   618.96081525
_cell_formula_units_Z   2
loop_
 _symmetry_equiv_pos_site_id
 _symmetry_equiv_pos_as_xyz
  1  'x, y, z'
loop_
 _atom_site_type_symbol
 _atom_site_label
 _atom_site_symmetry_multiplicity
 _atom_site_fract_x
 _atom_site_fract_y
 _atom_site_fract_z
 _atom_site_occupancy
  Er  Er0  1  0.349739  0.349739  0.352696  1
  Er  Er1  1  0.349739  0.349739  0.947827  1
  Er  Er2  1  0.347188  0.952437  0.350187  1
  Er  Er3  1  0.952437  0.347188  0.350187  1
  Er  Er4  1  0.814938  0.188437  0.189496  1
  Er  Er5  1  0.188437  0.814938  0.807129  1
  Er  Er6  1  0.188437  0.814938  0.189496  1
  Er  Er7  1  0.814938  0.188437  0.807129  1
  Er  Er8  1  0.188036  0.188036  0.811964  1
  Er  Er9  1  0.809044  0.809044  0.190956  1
  Er  Er10  1  0.937326  0.558539  0.566820  1
  Er  Er11  1  0.558539  0.937326  0.937315  1
  Er  Er12  1  0.558539  0.937326  0.566820  1
  Er  Er13  1  0.937326  0.558539  0.937315  1
  Er  Er14  1  0.564291  0.564291  0.935709  1
  Er  Er15  1  0.939367  0.939367  0.560633  1
  Cd  Cd16  1  0.579979  0.579979  0.581819  1
  Cd  Cd17  1  0.579979  0.579979  0.258223  1
  Cd  Cd18  1  0.581144  0.255104  0.581876  1
  Cd  Cd19  1  0.255104  0.581144  0.581876  1
  Os  Os20  1  0.143853  0.143853  0.139163  1
  Os  Os21  1  0.143853  0.143853  0.573129  1
  Pt  Pt22  1  0.143890  0.573876  0.141116  1
  Pt  Pt23  1  0.573876  0.143890  0.141116  1
