# generated using pymatgen
data_Gd2SiP5Pd20Pb
_symmetry_space_group_name_H-M   'P 1'
_cell_length_a   8.71881552
_cell_length_b   8.71074900
_cell_length_c   8.71010908
_cell_angle_alpha   60.09969407
_cell_angle_beta   59.96302862
_cell_angle_gamma   59.96520648
_symmetry_Int_Tables_number   1
_chemical_formula_structural   Gd2SiP5Pd20Pb
_chemical_formula_sum   'Gd2 Si1 P5 Pd20 Pb1'
_cell_volume   467.85536640
_cell_formula_units_Z   1
loop_
 _symmetry_equiv_pos_site_id
 _symmetry_equiv_pos_as_xyz
  1  'x, y, z'
loop_
 _atom_site_type_symbol
 _atom_site_label
 _atom_site_symmetry_multiplicity
 _atom_site_fract_x
 _atom_site_fract_y
 _atom_site_fract_z
 _atom_site_occupancy
  Gd  Gd0  1  0.750467  0.749519  0.749517  1
  Gd  Gd1  1  0.999691  0.000309  0.000322  1
  Si  Si2  1  0.733591  0.266412  0.266421  1
  P  P3  1  0.263834  0.736127  0.736169  1
  P  P4  1  0.264646  0.735166  0.263103  1
  P  P5  1  0.737076  0.263101  0.735159  1
  P  P6  1  0.264648  0.263105  0.735180  1
  P  P7  1  0.737092  0.735139  0.263096  1
  Pd  Pd8  1  0.383315  0.384577  0.384604  1
  Pd  Pd9  1  0.614773  0.615006  0.615017  1
  Pd  Pd10  1  0.384830  0.384290  0.846024  1
  Pd  Pd11  1  0.384791  0.846109  0.384288  1
  Pd  Pd12  1  0.614482  0.616732  0.154288  1
  Pd  Pd13  1  0.614475  0.154302  0.616739  1
  Pd  Pd14  1  0.847545  0.384555  0.384583  1
  Pd  Pd15  1  0.155170  0.615018  0.615017  1
  Pd  Pd16  1  0.347217  0.997377  0.997380  1
  Pd  Pd17  1  0.658046  0.997375  0.997376  1
  Pd  Pd18  1  0.995793  0.348734  0.659675  1
  Pd  Pd19  1  0.995805  0.659623  0.348754  1
  Pd  Pd20  1  0.996869  0.349184  0.996120  1
  Pd  Pd21  1  0.657808  0.996134  0.349182  1
  Pd  Pd22  1  0.997390  0.657357  0.996117  1
  Pd  Pd23  1  0.349119  0.996113  0.657373  1
  Pd  Pd24  1  0.996861  0.996133  0.349201  1
  Pd  Pd25  1  0.997389  0.996115  0.657375  1
  Pd  Pd26  1  0.657830  0.349170  0.996123  1
  Pd  Pd27  1  0.349125  0.657344  0.996128  1
  Pb  Pb28  1  0.250320  0.249875  0.249673  1
