# generated using pymatgen
data_Ho16In6FePd
_symmetry_space_group_name_H-M   'P 1'
_cell_length_a   10.39460700
_cell_length_b   10.39460749
_cell_length_c   6.93865500
_cell_angle_alpha   90.00000000
_cell_angle_beta   90.00000000
_cell_angle_gamma   120.00000163
_symmetry_Int_Tables_number   1
_chemical_formula_structural   Ho16In6FePd
_chemical_formula_sum   'Ho16 In6 Fe1 Pd1'
_cell_volume   649.26514294
_cell_formula_units_Z   1
loop_
 _symmetry_equiv_pos_site_id
 _symmetry_equiv_pos_as_xyz
  1  'x, y, z'
loop_
 _atom_site_type_symbol
 _atom_site_label
 _atom_site_symmetry_multiplicity
 _atom_site_fract_x
 _atom_site_fract_y
 _atom_site_fract_z
 _atom_site_occupancy
  Ho  Ho0  1  0.527766  0.055532  0.507963  1
  Ho  Ho1  1  0.944468  0.472234  0.507963  1
  Ho  Ho2  1  0.527766  0.472234  0.507963  1
  Ho  Ho3  1  0.464235  0.928469  0.006314  1
  Ho  Ho4  1  0.071531  0.535765  0.006314  1
  Ho  Ho5  1  0.464235  0.535765  0.006314  1
  Ho  Ho6  1  0.177683  0.355365  0.718329  1
  Ho  Ho7  1  0.644635  0.822317  0.718329  1
  Ho  Ho8  1  0.177683  0.822317  0.718329  1
  Ho  Ho9  1  0.824743  0.649488  0.212493  1
  Ho  Ho10  1  0.350512  0.175257  0.212493  1
  Ho  Ho11  1  0.824743  0.175257  0.212493  1
  Ho  Ho12  1  0.666667  0.333333  0.878492  1
  Ho  Ho13  1  0.333333  0.666667  0.394287  1
  Ho  Ho14  1  0.000000  0.000000  0.493041  1
  Ho  Ho15  1  0.000000  0.000000  0.992791  1
  In  In16  1  0.837020  0.674039  0.747318  1
  In  In17  1  0.325961  0.162980  0.747318  1
  In  In18  1  0.837020  0.162980  0.747318  1
  In  In19  1  0.162914  0.325827  0.253323  1
  In  In20  1  0.674173  0.837086  0.253323  1
  In  In21  1  0.162914  0.837086  0.253323  1
  Fe  Fe22  1  0.333333  0.666667  0.782413  1
  Pd  Pd23  1  0.666667  0.333333  0.279798  1
