# generated using pymatgen
data_Ho10Al3Tc
_symmetry_space_group_name_H-M   'P 1'
_cell_length_a   9.26005400
_cell_length_b   9.26005313
_cell_length_c   9.67908600
_cell_angle_alpha   90.00000000
_cell_angle_beta   90.00000000
_cell_angle_gamma   120.00000311
_symmetry_Int_Tables_number   1
_chemical_formula_structural   Ho10Al3Tc
_chemical_formula_sum   'Ho20 Al6 Tc2'
_cell_volume   718.77334689
_cell_formula_units_Z   2
loop_
 _symmetry_equiv_pos_site_id
 _symmetry_equiv_pos_as_xyz
  1  'x, y, z'
loop_
 _atom_site_type_symbol
 _atom_site_label
 _atom_site_symmetry_multiplicity
 _atom_site_fract_x
 _atom_site_fract_y
 _atom_site_fract_z
 _atom_site_occupancy
  Ho  Ho0  1  0.000000  0.000000  0.500000  1
  Ho  Ho1  1  0.000000  0.000000  0.000000  1
  Ho  Ho2  1  0.207111  0.792889  0.442407  1
  Ho  Ho3  1  0.207111  0.414224  0.442407  1
  Ho  Ho4  1  0.585776  0.792889  0.442407  1
  Ho  Ho5  1  0.792889  0.207111  0.557593  1
  Ho  Ho6  1  0.792889  0.585776  0.557593  1
  Ho  Ho7  1  0.414224  0.207111  0.557593  1
  Ho  Ho8  1  0.792889  0.207111  0.942407  1
  Ho  Ho9  1  0.792889  0.585776  0.942407  1
  Ho  Ho10  1  0.414224  0.207111  0.942407  1
  Ho  Ho11  1  0.207111  0.792889  0.057593  1
  Ho  Ho12  1  0.207111  0.414224  0.057593  1
  Ho  Ho13  1  0.585776  0.792889  0.057593  1
  Ho  Ho14  1  0.539005  0.460995  0.250000  1
  Ho  Ho15  1  0.539005  0.078007  0.250000  1
  Ho  Ho16  1  0.921993  0.460995  0.250000  1
  Ho  Ho17  1  0.460995  0.539005  0.750000  1
  Ho  Ho18  1  0.460995  0.921993  0.750000  1
  Ho  Ho19  1  0.078007  0.539005  0.750000  1
  Al  Al20  1  0.890906  0.109094  0.250000  1
  Al  Al21  1  0.890906  0.781815  0.250000  1
  Al  Al22  1  0.218185  0.109094  0.250000  1
  Al  Al23  1  0.109094  0.890906  0.750000  1
  Al  Al24  1  0.109094  0.218185  0.750000  1
  Al  Al25  1  0.781815  0.890906  0.750000  1
  Tc  Tc26  1  0.333333  0.666667  0.250000  1
  Tc  Tc27  1  0.666667  0.333333  0.750000  1
