# generated using pymatgen
data_DyTm3Al24Pt8Rh
_symmetry_space_group_name_H-M   'P 1'
_cell_length_a   7.50878835
_cell_length_b   7.53129927
_cell_length_c   13.13310431
_cell_angle_alpha   84.62920457
_cell_angle_beta   79.11562297
_cell_angle_gamma   59.91100903
_symmetry_Int_Tables_number   1
_chemical_formula_structural   DyTm3Al24Pt8Rh
_chemical_formula_sum   'Dy1 Tm3 Al24 Pt8 Rh1'
_cell_volume   631.04934754
_cell_formula_units_Z   1
loop_
 _symmetry_equiv_pos_site_id
 _symmetry_equiv_pos_as_xyz
  1  'x, y, z'
loop_
 _atom_site_type_symbol
 _atom_site_label
 _atom_site_symmetry_multiplicity
 _atom_site_fract_x
 _atom_site_fract_y
 _atom_site_fract_z
 _atom_site_occupancy
  Dy  Dy0  1  0.394195  0.168110  0.808646  1
  Tm  Tm1  1  0.605864  0.831654  0.191730  1
  Tm  Tm2  1  0.733596  0.498635  0.808279  1
  Tm  Tm3  1  0.266299  0.501464  0.191708  1
  Al  Al4  1  0.687410  0.829841  0.945308  1
  Al  Al5  1  0.312859  0.169752  0.055147  1
  Al  Al6  1  0.146588  0.832074  0.561781  1
  Al  Al7  1  0.853420  0.167932  0.438237  1
  Al  Al8  1  0.479927  0.166697  0.558898  1
  Al  Al9  1  0.520068  0.833304  0.440995  1
  Al  Al10  1  0.217581  0.165314  0.327542  1
  Al  Al11  1  0.782864  0.834314  0.672237  1
  Al  Al12  1  0.436283  0.507365  0.672177  1
  Al  Al13  1  0.563785  0.493027  0.327600  1
  Al  Al14  1  0.108846  0.160464  0.670256  1
  Al  Al15  1  0.890864  0.839527  0.329500  1
  Al  Al16  1  0.349714  0.499261  0.945414  1
  Al  Al17  1  0.650193  0.501208  0.054811  1
  Al  Al18  1  0.014989  0.172555  0.953906  1
  Al  Al19  1  0.984518  0.827525  0.046334  1
  Al  Al20  1  0.186533  0.499446  0.441057  1
  Al  Al21  1  0.813440  0.500591  0.558959  1
  Al  Al22  1  0.734212  0.164000  0.182837  1
  Al  Al23  1  0.265732  0.835537  0.817138  1
  Al  Al24  1  0.060426  0.628509  0.818073  1
  Al  Al25  1  0.939099  0.372045  0.181926  1
  Al  Al26  1  0.855760  0.041639  0.816723  1
  Al  Al27  1  0.144746  0.958257  0.183259  1
  Pt  Pt28  1  0.119670  0.492018  0.638843  1
  Pt  Pt29  1  0.880099  0.508308  0.360963  1
  Pt  Pt30  1  0.656701  0.171661  0.999895  1
  Pt  Pt31  1  0.343339  0.828303  0.000197  1
  Pt  Pt32  1  0.537194  0.166780  0.361119  1
  Pt  Pt33  1  0.462833  0.832936  0.638714  1
  Pt  Pt34  1  0.778419  0.175587  0.637413  1
  Pt  Pt35  1  0.221892  0.824414  0.362409  1
  Rh  Rh36  1  0.000042  0.499947  0.999970  1
