# generated using pymatgen
data_Pr3Pa3Mn2(Co4P3)4
_symmetry_space_group_name_H-M   'P 1'
_cell_length_a   3.75475700
_cell_length_b   10.56345355
_cell_length_c   12.39649458
_cell_angle_alpha   90.11983913
_cell_angle_beta   90.00000000
_cell_angle_gamma   90.00000000
_symmetry_Int_Tables_number   1
_chemical_formula_structural   Pr3Pa3Mn2(Co4P3)4
_chemical_formula_sum   'Pr3 Pa3 Mn2 Co16 P12'
_cell_volume   491.68358291
_cell_formula_units_Z   1
loop_
 _symmetry_equiv_pos_site_id
 _symmetry_equiv_pos_as_xyz
  1  'x, y, z'
loop_
 _atom_site_type_symbol
 _atom_site_label
 _atom_site_symmetry_multiplicity
 _atom_site_fract_x
 _atom_site_fract_y
 _atom_site_fract_z
 _atom_site_occupancy
  Pr  Pr0  1  0.000000  0.500462  0.517740  1
  Pr  Pr1  1  0.500000  0.000071  0.480759  1
  Pr  Pr2  1  0.000000  0.317030  0.795496  1
  Pa  Pa3  1  0.500000  0.819542  0.207716  1
  Pa  Pa4  1  0.500000  0.179804  0.206956  1
  Pa  Pa5  1  0.000000  0.679316  0.790836  1
  Mn  Mn6  1  0.500000  0.499745  0.155374  1
  Mn  Mn7  1  0.000000  0.999083  0.847124  1
  Co  Co8  1  0.500000  0.513258  0.709433  1
  Co  Co9  1  0.000000  0.000275  0.288663  1
  Co  Co10  1  0.000000  0.501602  0.987312  1
  Co  Co11  1  0.500000  0.997887  0.015830  1
  Co  Co12  1  0.500000  0.331398  0.998641  1
  Co  Co13  1  0.500000  0.667974  0.996665  1
  Co  Co14  1  0.000000  0.165221  0.008123  1
  Co  Co15  1  0.000000  0.831321  0.005108  1
  Co  Co16  1  0.500000  0.296440  0.426087  1
  Co  Co17  1  0.500000  0.703578  0.425049  1
  Co  Co18  1  0.000000  0.204079  0.569119  1
  Co  Co19  1  0.000000  0.799713  0.573301  1
  Co  Co20  1  0.500000  0.874973  0.716638  1
  Co  Co21  1  0.500000  0.117835  0.711831  1
  Co  Co22  1  0.000000  0.624670  0.283891  1
  Co  Co23  1  0.000000  0.374720  0.283829  1
  P  P24  1  0.500000  0.500838  0.888974  1
  P  P25  1  0.000000  0.998231  0.112617  1
  P  P26  1  0.500000  0.500692  0.337492  1
  P  P27  1  0.000000  0.000980  0.661558  1
  P  P28  1  0.500000  0.308244  0.613795  1
  P  P29  1  0.500000  0.695497  0.611475  1
  P  P30  1  0.000000  0.191556  0.385126  1
  P  P31  1  0.000000  0.809023  0.385779  1
  P  P32  1  0.500000  0.844902  0.896126  1
  P  P33  1  0.500000  0.150344  0.896491  1
  P  P34  1  0.000000  0.653002  0.105080  1
  P  P35  1  0.000000  0.346697  0.103965  1
