# generated using pymatgen
data_SrTc12Cl25
_symmetry_space_group_name_H-M   'P 1'
_cell_length_a   9.43552665
_cell_length_b   10.41545227
_cell_length_c   11.15511457
_cell_angle_alpha   85.53619151
_cell_angle_beta   74.69496293
_cell_angle_gamma   87.31614492
_symmetry_Int_Tables_number   1
_chemical_formula_structural   SrTc12Cl25
_chemical_formula_sum   'Sr1 Tc12 Cl25'
_cell_volume   1053.79065318
_cell_formula_units_Z   1
loop_
 _symmetry_equiv_pos_site_id
 _symmetry_equiv_pos_as_xyz
  1  'x, y, z'
loop_
 _atom_site_type_symbol
 _atom_site_label
 _atom_site_symmetry_multiplicity
 _atom_site_fract_x
 _atom_site_fract_y
 _atom_site_fract_z
 _atom_site_occupancy
  Sr  Sr0  1  0.500000  0.000000  0.000000  1
  Tc  Tc1  1  0.826301  0.251965  0.118334  1
  Tc  Tc2  1  0.173699  0.748035  0.881666  1
  Tc  Tc3  1  0.748554  0.115358  0.280912  1
  Tc  Tc4  1  0.251446  0.884642  0.719088  1
  Tc  Tc5  1  0.072347  0.272246  0.185688  1
  Tc  Tc6  1  0.927653  0.727754  0.814312  1
  Tc  Tc7  1  0.846015  0.433221  0.264739  1
  Tc  Tc8  1  0.153985  0.566779  0.735261  1
  Tc  Tc9  1  0.765043  0.298181  0.430068  1
  Tc  Tc10  1  0.234957  0.701819  0.569932  1
  Tc  Tc11  1  0.991506  0.139512  0.351600  1
  Tc  Tc12  1  0.008494  0.860488  0.648400  1
  Cl  Cl13  1  0.940348  0.958137  0.257426  1
  Cl  Cl14  1  0.059652  0.041863  0.742574  1
  Cl  Cl15  1  0.970483  0.279182  0.512928  1
  Cl  Cl16  1  0.029517  0.720818  0.487072  1
  Cl  Cl17  1  0.650534  0.422057  0.168647  1
  Cl  Cl18  1  0.349466  0.577943  0.831353  1
  Cl  Cl19  1  0.089208  0.463953  0.279545  1
  Cl  Cl20  1  0.910792  0.536047  0.720455  1
  Cl  Cl21  1  0.000000  0.500000  0.000000  1
  Cl  Cl22  1  0.592625  0.959579  0.234332  1
  Cl  Cl23  1  0.407375  0.040421  0.765668  1
  Cl  Cl24  1  0.190537  0.025835  0.411639  1
  Cl  Cl25  1  0.809463  0.974165  0.588361  1
  Cl  Cl26  1  0.543206  0.224667  0.402168  1
  Cl  Cl27  1  0.456794  0.775333  0.597832  1
  Cl  Cl28  1  0.054068  0.153872  0.019795  1
  Cl  Cl29  1  0.945932  0.846128  0.980205  1
  Cl  Cl30  1  0.777661  0.644436  0.313595  1
  Cl  Cl31  1  0.222339  0.355564  0.686405  1
  Cl  Cl32  1  0.727292  0.200301  0.947815  1
  Cl  Cl33  1  0.272708  0.799699  0.052185  1
  Cl  Cl34  1  0.335674  0.244717  0.111782  1
  Cl  Cl35  1  0.664326  0.755283  0.888218  1
  Cl  Cl36  1  0.635157  0.403959  0.602504  1
  Cl  Cl37  1  0.364843  0.596041  0.397496  1
