# generated using pymatgen
data_Y6ScMoO12
_symmetry_space_group_name_H-M   'P 1'
_cell_length_a   6.62832641
_cell_length_b   6.62832704
_cell_length_c   6.62832751
_cell_angle_alpha   92.04179999
_cell_angle_beta   92.04179582
_cell_angle_gamma   92.04179661
_symmetry_Int_Tables_number   1
_chemical_formula_structural   Y6ScMoO12
_chemical_formula_sum   'Y6 Sc1 Mo1 O12'
_cell_volume   290.64545936
_cell_formula_units_Z   1
loop_
 _symmetry_equiv_pos_site_id
 _symmetry_equiv_pos_as_xyz
  1  'x, y, z'
loop_
 _atom_site_type_symbol
 _atom_site_label
 _atom_site_symmetry_multiplicity
 _atom_site_fract_x
 _atom_site_fract_y
 _atom_site_fract_z
 _atom_site_occupancy
  Y  Y0  1  0.745654  0.931167  0.439578  1
  Y  Y1  1  0.931167  0.439578  0.745654  1
  Y  Y2  1  0.439578  0.745654  0.931167  1
  Y  Y3  1  0.254346  0.068833  0.560422  1
  Y  Y4  1  0.068833  0.560422  0.254346  1
  Y  Y5  1  0.560422  0.254346  0.068833  1
  Sc  Sc6  1  0.500000  0.500000  0.500000  1
  Mo  Mo7  1  0.000000  0.000000  0.000000  1
  O  O8  1  0.592618  0.463096  0.805567  1
  O  O9  1  0.463096  0.805567  0.592618  1
  O  O10  1  0.805567  0.592618  0.463096  1
  O  O11  1  0.407382  0.536904  0.194433  1
  O  O12  1  0.536904  0.194433  0.407382  1
  O  O13  1  0.194433  0.407382  0.536904  1
  O  O14  1  0.069220  0.910696  0.309895  1
  O  O15  1  0.910696  0.309895  0.069220  1
  O  O16  1  0.690105  0.930780  0.089304  1
  O  O17  1  0.089304  0.690105  0.930780  1
  O  O18  1  0.930780  0.089304  0.690105  1
  O  O19  1  0.309895  0.069220  0.910696  1
