# generated using pymatgen
data_Ce2Er(CoSi)2
_symmetry_space_group_name_H-M   'P 1'
_cell_length_a   5.46482000
_cell_length_b   7.82873300
_cell_length_c   12.26438600
_cell_angle_alpha   90.00000000
_cell_angle_beta   90.00000000
_cell_angle_gamma   90.00000000
_symmetry_Int_Tables_number   1
_chemical_formula_structural   Ce2Er(CoSi)2
_chemical_formula_sum   'Ce8 Er4 Co8 Si8'
_cell_volume   524.70252497
_cell_formula_units_Z   4
loop_
 _symmetry_equiv_pos_site_id
 _symmetry_equiv_pos_as_xyz
  1  'x, y, z'
loop_
 _atom_site_type_symbol
 _atom_site_label
 _atom_site_symmetry_multiplicity
 _atom_site_fract_x
 _atom_site_fract_y
 _atom_site_fract_z
 _atom_site_occupancy
  Ce  Ce0  1  0.159439  0.399738  0.408909  1
  Ce  Ce1  1  0.159439  0.100262  0.591091  1
  Ce  Ce2  1  0.840561  0.899738  0.091091  1
  Ce  Ce3  1  0.840561  0.600262  0.908909  1
  Ce  Ce4  1  0.840561  0.600262  0.591091  1
  Ce  Ce5  1  0.840561  0.899738  0.408909  1
  Ce  Ce6  1  0.159439  0.100262  0.908909  1
  Ce  Ce7  1  0.159439  0.399738  0.091091  1
  Er  Er8  1  0.344838  0.745543  0.750000  1
  Er  Er9  1  0.344838  0.754457  0.250000  1
  Er  Er10  1  0.655162  0.245543  0.750000  1
  Er  Er11  1  0.655162  0.254457  0.250000  1
  Co  Co12  1  0.378070  0.042405  0.412364  1
  Co  Co13  1  0.378070  0.457595  0.587636  1
  Co  Co14  1  0.621930  0.542405  0.087636  1
  Co  Co15  1  0.621930  0.957595  0.912364  1
  Co  Co16  1  0.378070  0.042405  0.087636  1
  Co  Co17  1  0.378070  0.457595  0.912364  1
  Co  Co18  1  0.621930  0.542405  0.412364  1
  Co  Co19  1  0.621930  0.957595  0.587636  1
  Si  Si20  1  0.648154  0.250000  0.500000  1
  Si  Si21  1  0.351846  0.750000  0.000000  1
  Si  Si22  1  0.351846  0.750000  0.500000  1
  Si  Si23  1  0.648154  0.250000  0.000000  1
  Si  Si24  1  0.839352  0.896203  0.750000  1
  Si  Si25  1  0.839352  0.603797  0.250000  1
  Si  Si26  1  0.160648  0.396203  0.750000  1
  Si  Si27  1  0.160648  0.103797  0.250000  1
