# generated using pymatgen
data_HoEr3Hf4F28
_symmetry_space_group_name_H-M   'P 1'
_cell_length_a   5.63053604
_cell_length_b   8.96055658
_cell_length_c   12.10816332
_cell_angle_alpha   62.56147529
_cell_angle_beta   89.99415046
_cell_angle_gamma   89.99623750
_symmetry_Int_Tables_number   1
_chemical_formula_structural   HoEr3Hf4F28
_chemical_formula_sum   'Ho1 Er3 Hf4 F28'
_cell_volume   542.16836661
_cell_formula_units_Z   1
loop_
 _symmetry_equiv_pos_site_id
 _symmetry_equiv_pos_as_xyz
  1  'x, y, z'
loop_
 _atom_site_type_symbol
 _atom_site_label
 _atom_site_symmetry_multiplicity
 _atom_site_fract_x
 _atom_site_fract_y
 _atom_site_fract_z
 _atom_site_occupancy
  Ho  Ho0  1  0.756202  0.815524  0.764560  1
  Er  Er1  1  0.256249  0.184955  0.735452  1
  Er  Er2  1  0.243848  0.184557  0.235447  1
  Er  Er3  1  0.744000  0.815581  0.264624  1
  Hf  Hf4  1  0.756427  0.273442  0.957043  1
  Hf  Hf5  1  0.256384  0.726045  0.542686  1
  Hf  Hf6  1  0.243693  0.726053  0.043547  1
  Hf  Hf7  1  0.743358  0.274322  0.456709  1
  F  F8  1  0.452668  0.708811  0.916511  1
  F  F9  1  0.953207  0.291030  0.583689  1
  F  F10  1  0.546568  0.290825  0.083812  1
  F  F11  1  0.047082  0.708866  0.415694  1
  F  F12  1  0.443079  0.274260  0.548558  1
  F  F13  1  0.943291  0.725478  0.952188  1
  F  F14  1  0.557498  0.725981  0.451389  1
  F  F15  1  0.056763  0.273889  0.048759  1
  F  F16  1  0.778307  0.524250  0.859650  1
  F  F17  1  0.277826  0.474977  0.640339  1
  F  F18  1  0.222564  0.474884  0.140602  1
  F  F19  1  0.722130  0.525343  0.359424  1
  F  F20  1  0.758278  0.022851  0.057884  1
  F  F21  1  0.258134  0.976709  0.442132  1
  F  F22  1  0.241886  0.976530  0.942353  1
  F  F23  1  0.741608  0.023796  0.557274  1
  F  F24  1  0.974071  0.730731  0.642199  1
  F  F25  1  0.474519  0.269021  0.856982  1
  F  F26  1  0.024717  0.268977  0.356623  1
  F  F27  1  0.525435  0.731080  0.143419  1
  F  F28  1  0.042171  0.747975  0.173656  1
  F  F29  1  0.541589  0.252242  0.326680  1
  F  F30  1  0.957787  0.251572  0.826859  1
  F  F31  1  0.456330  0.747761  0.673225  1
  F  F32  1  0.423133  0.971654  0.233238  1
  F  F33  1  0.923035  0.028417  0.266869  1
  F  F34  1  0.577353  0.029796  0.766962  1
  F  F35  1  0.078806  0.971813  0.732959  1
