# generated using pymatgen
data_HoEr2Tm5(B6Rh)4
_symmetry_space_group_name_H-M   'P 1'
_cell_length_a   3.62546300
_cell_length_b   9.12181800
_cell_length_c   11.45103100
_cell_angle_alpha   89.99916025
_cell_angle_beta   90.00024651
_cell_angle_gamma   89.99990234
_symmetry_Int_Tables_number   1
_chemical_formula_structural   HoEr2Tm5(B6Rh)4
_chemical_formula_sum   'Ho1 Er2 Tm5 B24 Rh4'
_cell_volume   378.69491231
_cell_formula_units_Z   1
loop_
 _symmetry_equiv_pos_site_id
 _symmetry_equiv_pos_as_xyz
  1  'x, y, z'
loop_
 _atom_site_type_symbol
 _atom_site_label
 _atom_site_symmetry_multiplicity
 _atom_site_fract_x
 _atom_site_fract_y
 _atom_site_fract_z
 _atom_site_occupancy
  Ho  Ho0  1  0.499999  0.178005  0.913660  1
  Er  Er1  1  0.499993  0.321966  0.413656  1
  Er  Er2  1  0.500006  0.678099  0.586353  1
  Tm  Tm3  1  0.499999  0.821737  0.086318  1
  Tm  Tm4  1  0.499996  0.444355  0.126767  1
  Tm  Tm5  1  0.499997  0.555960  0.873398  1
  Tm  Tm6  1  0.499995  0.055729  0.626685  1
  Tm  Tm7  1  0.500000  0.944188  0.373201  1
  B  B8  1  0.999995  0.108587  0.470507  1
  B  B9  1  0.999998  0.891299  0.529370  1
  B  B10  1  0.999997  0.391606  0.970665  1
  B  B11  1  0.999995  0.609081  0.029586  1
  B  B12  1  0.999998  0.132803  0.316424  1
  B  B13  1  0.999998  0.867099  0.683483  1
  B  B14  1  0.999998  0.367387  0.816408  1
  B  B15  1  0.999998  0.633080  0.183389  1
  B  B16  1  0.000000  0.053555  0.065424  1
  B  B17  1  0.999999  0.945646  0.935046  1
  B  B18  1  0.000000  0.446085  0.565180  1
  B  B19  1  0.000002  0.554010  0.434699  1
  B  B20  1  0.000000  0.482533  0.286607  1
  B  B21  1  0.000001  0.517707  0.713419  1
  B  B22  1  0.000000  0.017248  0.786490  1
  B  B23  1  0.000000  0.982080  0.213199  1
  B  B24  1  0.000000  0.249886  0.079578  1
  B  B25  1  0.999998  0.750251  0.921051  1
  B  B26  1  0.999995  0.250169  0.579221  1
  B  B27  1  0.000002  0.749845  0.420605  1
  B  B28  1  0.999998  0.294523  0.236109  1
  B  B29  1  0.000004  0.705535  0.763990  1
  B  B30  1  0.999997  0.205567  0.735890  1
  B  B31  1  0.000002  0.794620  0.263651  1
  Rh  Rh32  1  0.500004  0.139274  0.179071  1
  Rh  Rh33  1  0.500016  0.860277  0.821165  1
  Rh  Rh34  1  0.500004  0.360336  0.679161  1
  Rh  Rh35  1  0.500018  0.639869  0.320570  1
