# generated using pymatgen
data_Tb3Tm(HfRh)4
_symmetry_space_group_name_H-M   'P 1'
_cell_length_a   4.59343300
_cell_length_b   7.02007621
_cell_length_c   8.28060366
_cell_angle_alpha   89.96806468
_cell_angle_beta   90.00000000
_cell_angle_gamma   90.00000000
_symmetry_Int_Tables_number   1
_chemical_formula_structural   Tb3Tm(HfRh)4
_chemical_formula_sum   'Tb3 Tm1 Hf4 Rh4'
_cell_volume   267.01837195
_cell_formula_units_Z   1
loop_
 _symmetry_equiv_pos_site_id
 _symmetry_equiv_pos_as_xyz
  1  'x, y, z'
loop_
 _atom_site_type_symbol
 _atom_site_label
 _atom_site_symmetry_multiplicity
 _atom_site_fract_x
 _atom_site_fract_y
 _atom_site_fract_z
 _atom_site_occupancy
  Tb  Tb0  1  0.250000  0.516274  0.178794  1
  Tb  Tb1  1  0.750000  0.483469  0.821768  1
  Tb  Tb2  1  0.750000  0.983822  0.676939  1
  Tm  Tm3  1  0.250000  0.017657  0.322561  1
  Hf  Hf4  1  0.250000  0.639994  0.571995  1
  Hf  Hf5  1  0.750000  0.359167  0.425977  1
  Hf  Hf6  1  0.750000  0.860882  0.076077  1
  Hf  Hf7  1  0.250000  0.138409  0.927782  1
  Rh  Rh8  1  0.250000  0.769285  0.912453  1
  Rh  Rh9  1  0.750000  0.230129  0.088877  1
  Rh  Rh10  1  0.750000  0.732197  0.410828  1
  Rh  Rh11  1  0.250000  0.268715  0.585951  1
