# generated using pymatgen
data_K10Rb2Li4Si15Sn
_symmetry_space_group_name_H-M   'P 1'
_cell_length_a   7.74598541
_cell_length_b   9.84862700
_cell_length_c   12.45598306
_cell_angle_alpha   90.00000000
_cell_angle_beta   89.76966090
_cell_angle_gamma   90.00000000
_symmetry_Int_Tables_number   1
_chemical_formula_structural   K10Rb2Li4Si15Sn
_chemical_formula_sum   'K10 Rb2 Li4 Si15 Sn1'
_cell_volume   950.22589974
_cell_formula_units_Z   1
loop_
 _symmetry_equiv_pos_site_id
 _symmetry_equiv_pos_as_xyz
  1  'x, y, z'
loop_
 _atom_site_type_symbol
 _atom_site_label
 _atom_site_symmetry_multiplicity
 _atom_site_fract_x
 _atom_site_fract_y
 _atom_site_fract_z
 _atom_site_occupancy
  K  K0  1  0.343102  0.750000  0.591074  1
  K  K1  1  0.852001  0.750000  0.901057  1
  K  K2  1  0.654045  0.446587  0.694332  1
  K  K3  1  0.151400  0.061199  0.805192  1
  K  K4  1  0.344434  0.946935  0.308904  1
  K  K5  1  0.842658  0.554035  0.194398  1
  K  K6  1  0.344434  0.553065  0.308904  1
  K  K7  1  0.842658  0.945965  0.194398  1
  K  K8  1  0.654045  0.053413  0.694332  1
  K  K9  1  0.151400  0.438801  0.805192  1
  Rb  Rb10  1  0.655227  0.250000  0.399825  1
  Rb  Rb11  1  0.154300  0.250000  0.101081  1
  Li  Li12  1  0.500704  0.497258  0.002859  1
  Li  Li13  1  0.999943  0.999795  0.500235  1
  Li  Li14  1  0.500704  0.002742  0.002859  1
  Li  Li15  1  0.999943  0.500205  0.500235  1
  Si  Si16  1  0.861680  0.750000  0.598167  1
  Si  Si17  1  0.638040  0.250000  0.098201  1
  Si  Si18  1  0.138754  0.250000  0.401901  1
  Si  Si19  1  0.716968  0.629156  0.451700  1
  Si  Si20  1  0.215926  0.871036  0.053940  1
  Si  Si21  1  0.282790  0.129088  0.548362  1
  Si  Si22  1  0.783745  0.371046  0.951838  1
  Si  Si23  1  0.012249  0.250000  0.582667  1
  Si  Si24  1  0.514501  0.250000  0.916626  1
  Si  Si25  1  0.987491  0.750000  0.416234  1
  Si  Si26  1  0.486952  0.750000  0.088207  1
  Si  Si27  1  0.215926  0.628964  0.053940  1
  Si  Si28  1  0.716968  0.870844  0.451700  1
  Si  Si29  1  0.783745  0.128954  0.951838  1
  Si  Si30  1  0.282790  0.370912  0.548362  1
  Sn  Sn31  1  0.370475  0.750000  0.881438  1
