# generated using pymatgen
data_Ho4Er8Co5Pb
_symmetry_space_group_name_H-M   'P 1'
_cell_length_a   8.24288781
_cell_length_b   8.24288801
_cell_length_c   8.24288774
_cell_angle_alpha   110.85955390
_cell_angle_beta   110.73629967
_cell_angle_gamma   106.84922127
_symmetry_Int_Tables_number   1
_chemical_formula_structural   Ho4Er8Co5Pb
_chemical_formula_sum   'Ho4 Er8 Co5 Pb1'
_cell_volume   430.46420336
_cell_formula_units_Z   1
loop_
 _symmetry_equiv_pos_site_id
 _symmetry_equiv_pos_as_xyz
  1  'x, y, z'
loop_
 _atom_site_type_symbol
 _atom_site_label
 _atom_site_symmetry_multiplicity
 _atom_site_fract_x
 _atom_site_fract_y
 _atom_site_fract_z
 _atom_site_occupancy
  Ho  Ho0  1  0.288846  0.185020  0.473865  1
  Ho  Ho1  1  0.711154  0.814980  0.526135  1
  Ho  Ho2  1  0.288846  0.814980  0.103826  1
  Ho  Ho3  1  0.711154  0.185020  0.896174  1
  Er  Er4  1  0.620610  0.312871  0.307739  1
  Er  Er5  1  0.379390  0.687129  0.692261  1
  Er  Er6  1  0.005133  0.312871  0.692261  1
  Er  Er7  1  0.994867  0.687129  0.307739  1
  Er  Er8  1  0.209079  0.402424  0.193345  1
  Er  Er9  1  0.790921  0.597576  0.806655  1
  Er  Er10  1  0.209079  0.015734  0.806655  1
  Er  Er11  1  0.790921  0.984266  0.193345  1
  Co  Co12  1  0.000000  0.376809  0.376809  1
  Co  Co13  1  0.000000  0.623191  0.623191  1
  Co  Co14  1  0.387965  0.887965  0.500000  1
  Co  Co15  1  0.612035  0.112035  0.500000  1
  Co  Co16  1  0.000000  0.000000  0.000000  1
  Pb  Pb17  1  0.500000  0.500000  0.000000  1
