# generated using pymatgen
data_NdDy15Cd2(HgIr2)2
_symmetry_space_group_name_H-M   'P 1'
_cell_length_a   9.64490793
_cell_length_b   9.64490880
_cell_length_c   9.64739800
_cell_angle_alpha   59.99146226
_cell_angle_beta   59.99145929
_cell_angle_gamma   59.93675673
_symmetry_Int_Tables_number   1
_chemical_formula_structural   NdDy15Cd2(HgIr2)2
_chemical_formula_sum   'Nd1 Dy15 Cd2 Hg2 Ir4'
_cell_volume   634.20168356
_cell_formula_units_Z   1
loop_
 _symmetry_equiv_pos_site_id
 _symmetry_equiv_pos_as_xyz
  1  'x, y, z'
loop_
 _atom_site_type_symbol
 _atom_site_label
 _atom_site_symmetry_multiplicity
 _atom_site_fract_x
 _atom_site_fract_y
 _atom_site_fract_z
 _atom_site_occupancy
  Nd  Nd0  1  0.936956  0.936956  0.563044  1
  Dy  Dy1  1  0.349648  0.349648  0.347368  1
  Dy  Dy2  1  0.349648  0.349648  0.953337  1
  Dy  Dy3  1  0.352169  0.949263  0.349284  1
  Dy  Dy4  1  0.949263  0.352169  0.349284  1
  Dy  Dy5  1  0.809342  0.189358  0.189830  1
  Dy  Dy6  1  0.189358  0.809342  0.811469  1
  Dy  Dy7  1  0.189358  0.809342  0.189830  1
  Dy  Dy8  1  0.809342  0.189358  0.811469  1
  Dy  Dy9  1  0.189394  0.189394  0.810606  1
  Dy  Dy10  1  0.808982  0.808982  0.191018  1
  Dy  Dy11  1  0.938179  0.558621  0.562212  1
  Dy  Dy12  1  0.558621  0.938179  0.940988  1
  Dy  Dy13  1  0.558621  0.938179  0.562212  1
  Dy  Dy14  1  0.938179  0.558621  0.940988  1
  Dy  Dy15  1  0.562085  0.562085  0.937915  1
  Cd  Cd16  1  0.578348  0.259108  0.581271  1
  Cd  Cd17  1  0.259108  0.578348  0.581271  1
  Hg  Hg18  1  0.584750  0.584750  0.586679  1
  Hg  Hg19  1  0.584750  0.584750  0.243820  1
  Ir  Ir20  1  0.143159  0.143159  0.138290  1
  Ir  Ir21  1  0.143159  0.143159  0.575391  1
  Ir  Ir22  1  0.142132  0.575447  0.141210  1
  Ir  Ir23  1  0.575447  0.142132  0.141210  1
