# generated using pymatgen
data_La12Co3Ni3Hg
_symmetry_space_group_name_H-M   'P 1'
_cell_length_a   8.76001698
_cell_length_b   8.76001648
_cell_length_c   8.76001635
_cell_angle_alpha   108.89840667
_cell_angle_beta   109.47547901
_cell_angle_gamma   110.04178637
_symmetry_Int_Tables_number   1
_chemical_formula_structural   La12Co3Ni3Hg
_chemical_formula_sum   'La12 Co3 Ni3 Hg1'
_cell_volume   517.42772316
_cell_formula_units_Z   1
loop_
 _symmetry_equiv_pos_site_id
 _symmetry_equiv_pos_as_xyz
  1  'x, y, z'
loop_
 _atom_site_type_symbol
 _atom_site_label
 _atom_site_symmetry_multiplicity
 _atom_site_fract_x
 _atom_site_fract_y
 _atom_site_fract_z
 _atom_site_occupancy
  La  La0  1  0.819748  0.690029  0.509776  1
  La  La1  1  0.186281  0.313264  0.499546  1
  La  La2  1  0.186281  0.686736  0.873018  1
  La  La3  1  0.819748  0.309971  0.129718  1
  La  La4  1  0.690453  0.510043  0.815526  1
  La  La5  1  0.305482  0.489957  0.180409  1
  La  La6  1  0.690453  0.874927  0.180409  1
  La  La7  1  0.305482  0.125073  0.815526  1
  La  La8  1  0.500159  0.810417  0.689743  1
  La  La9  1  0.500486  0.189167  0.311318  1
  La  La10  1  0.122151  0.810833  0.311318  1
  La  La11  1  0.879326  0.189583  0.689743  1
  Co  Co12  1  0.872146  0.373474  0.498673  1
  Co  Co13  1  0.125199  0.626526  0.498673  1
  Co  Co14  1  0.372217  0.500000  0.872217  1
  Ni  Ni15  1  0.623861  0.500000  0.123861  1
  Ni  Ni16  1  0.500330  0.874025  0.374355  1
  Ni  Ni17  1  0.500330  0.125975  0.626305  1
  Hg  Hg18  1  0.999865  0.000000  0.999865  1
