# generated using pymatgen
data_TcB2MoW
_symmetry_space_group_name_H-M   'P 1'
_cell_length_a   3.11225000
_cell_length_b   7.54465100
_cell_length_c   9.67409500
_cell_angle_alpha   90.00000000
_cell_angle_beta   90.00000000
_cell_angle_gamma   90.00000000
_symmetry_Int_Tables_number   1
_chemical_formula_structural   TcB2MoW
_chemical_formula_sum   'Tc4 B8 Mo4 W4'
_cell_volume   227.15587756
_cell_formula_units_Z   4
loop_
 _symmetry_equiv_pos_site_id
 _symmetry_equiv_pos_as_xyz
  1  'x, y, z'
loop_
 _atom_site_type_symbol
 _atom_site_label
 _atom_site_symmetry_multiplicity
 _atom_site_fract_x
 _atom_site_fract_y
 _atom_site_fract_z
 _atom_site_occupancy
  Tc  Tc0  1  0.500000  0.623137  0.395686  1
  Tc  Tc1  1  0.500000  0.376863  0.604314  1
  Tc  Tc2  1  0.000000  0.876863  0.895686  1
  Tc  Tc3  1  0.000000  0.123137  0.104314  1
  B  B4  1  0.500000  0.115095  0.459180  1
  B  B5  1  0.500000  0.884905  0.540820  1
  B  B6  1  0.000000  0.384905  0.959180  1
  B  B7  1  0.000000  0.615095  0.040820  1
  B  B8  1  0.500000  0.122159  0.266446  1
  B  B9  1  0.500000  0.877841  0.733554  1
  B  B10  1  0.000000  0.377841  0.766446  1
  B  B11  1  0.000000  0.622159  0.233554  1
  Mo  Mo12  1  0.500000  0.577606  0.862089  1
  Mo  Mo13  1  0.500000  0.422394  0.137911  1
  Mo  Mo14  1  0.000000  0.922394  0.362089  1
  Mo  Mo15  1  0.000000  0.077606  0.637911  1
  W  W16  1  0.500000  0.810903  0.130185  1
  W  W17  1  0.500000  0.189097  0.869815  1
  W  W18  1  0.000000  0.689097  0.630185  1
  W  W19  1  0.000000  0.310903  0.369815  1
