# generated using pymatgen
data_TbDy7Ti9Si16W3
_symmetry_space_group_name_H-M   'P 1'
_cell_length_a   7.00469158
_cell_length_b   7.00488086
_cell_length_c   12.89278718
_cell_angle_alpha   90.01044521
_cell_angle_beta   89.98209957
_cell_angle_gamma   89.93690306
_symmetry_Int_Tables_number   1
_chemical_formula_structural   TbDy7Ti9Si16W3
_chemical_formula_sum   'Tb1 Dy7 Ti9 Si16 W3'
_cell_volume   632.61034989
_cell_formula_units_Z   1
loop_
 _symmetry_equiv_pos_site_id
 _symmetry_equiv_pos_as_xyz
  1  'x, y, z'
loop_
 _atom_site_type_symbol
 _atom_site_label
 _atom_site_symmetry_multiplicity
 _atom_site_fract_x
 _atom_site_fract_y
 _atom_site_fract_z
 _atom_site_occupancy
  Tb  Tb0  1  0.999072  0.660134  0.032867  1
  Dy  Dy1  1  0.339783  0.002052  0.466735  1
  Dy  Dy2  1  0.498425  0.841100  0.718101  1
  Dy  Dy3  1  0.500553  0.159335  0.216737  1
  Dy  Dy4  1  0.841102  0.498412  0.281931  1
  Dy  Dy5  1  0.159377  0.500555  0.783186  1
  Dy  Dy6  1  0.659943  0.999386  0.967017  1
  Dy  Dy7  1  0.002081  0.339824  0.533336  1
  Ti  Ti8  1  0.672897  0.672883  0.500034  1
  Ti  Ti9  1  0.153488  0.009256  0.876440  1
  Ti  Ti10  1  0.490473  0.653660  0.125730  1
  Ti  Ti11  1  0.508291  0.345392  0.627714  1
  Ti  Ti12  1  0.653613  0.490423  0.874229  1
  Ti  Ti13  1  0.345435  0.508291  0.372316  1
  Ti  Ti14  1  0.847695  0.991636  0.375235  1
  Ti  Ti15  1  0.009253  0.153501  0.123517  1
  Ti  Ti16  1  0.991561  0.847704  0.624794  1
  Si  Si17  1  0.200532  0.129199  0.684951  1
  Si  Si18  1  0.370575  0.699912  0.934855  1
  Si  Si19  1  0.629608  0.298154  0.434945  1
  Si  Si20  1  0.699696  0.370144  0.065088  1
  Si  Si21  1  0.298088  0.629662  0.565078  1
  Si  Si22  1  0.799743  0.870898  0.185379  1
  Si  Si23  1  0.129295  0.200590  0.315020  1
  Si  Si24  1  0.870721  0.800007  0.814633  1
  Si  Si25  1  0.291885  0.953982  0.065175  1
  Si  Si26  1  0.545546  0.791121  0.315025  1
  Si  Si27  1  0.453252  0.208525  0.815626  1
  Si  Si28  1  0.791133  0.545654  0.684952  1
  Si  Si29  1  0.208690  0.453098  0.184481  1
  Si  Si30  1  0.708224  0.047812  0.566214  1
  Si  Si31  1  0.953770  0.291436  0.934750  1
  Si  Si32  1  0.047864  0.708161  0.433853  1
  W  W33  1  0.327119  0.326910  0.999989  1
  W  W34  1  0.173957  0.827321  0.249338  1
  W  W35  1  0.827259  0.173870  0.750727  1
