# generated using pymatgen
data_Dy2ErSbO7
_symmetry_space_group_name_H-M   'P 1'
_cell_length_a   6.47087210
_cell_length_b   6.45184081
_cell_length_c   7.50057700
_cell_angle_alpha   90.00000000
_cell_angle_beta   90.00000000
_cell_angle_gamma   109.25430484
_symmetry_Int_Tables_number   1
_chemical_formula_structural   Dy2ErSbO7
_chemical_formula_sum   'Dy4 Er2 Sb2 O14'
_cell_volume   295.62603830
_cell_formula_units_Z   2
loop_
 _symmetry_equiv_pos_site_id
 _symmetry_equiv_pos_as_xyz
  1  'x, y, z'
loop_
 _atom_site_type_symbol
 _atom_site_label
 _atom_site_symmetry_multiplicity
 _atom_site_fract_x
 _atom_site_fract_y
 _atom_site_fract_z
 _atom_site_occupancy
  Dy  Dy0  1  0.531751  0.000345  0.752422  1
  Dy  Dy1  1  0.468249  0.999655  0.252422  1
  Dy  Dy2  1  0.511644  0.510709  0.500214  1
  Dy  Dy3  1  0.488356  0.489291  0.000214  1
  Er  Er4  1  0.999345  0.468460  0.747537  1
  Er  Er5  1  0.000655  0.531540  0.247537  1
  Sb  Sb6  1  0.999696  0.999797  0.499980  1
  Sb  Sb7  1  0.000304  0.000203  0.999980  1
  O  O8  1  0.640044  0.363702  0.750175  1
  O  O9  1  0.359956  0.636298  0.250175  1
  O  O10  1  0.930258  0.072856  0.750022  1
  O  O11  1  0.069742  0.927144  0.250022  1
  O  O12  1  0.926014  0.675334  0.528815  1
  O  O13  1  0.073986  0.324666  0.028815  1
  O  O14  1  0.325357  0.080066  0.972494  1
  O  O15  1  0.674643  0.919934  0.472494  1
  O  O16  1  0.366817  0.628277  0.749708  1
  O  O17  1  0.633183  0.371723  0.249708  1
  O  O18  1  0.937776  0.680729  0.966743  1
  O  O19  1  0.062224  0.319271  0.466743  1
  O  O20  1  0.320291  0.070128  0.531889  1
  O  O21  1  0.679709  0.929872  0.031889  1
