# generated using pymatgen
data_Ba2Nb5WS12
_symmetry_space_group_name_H-M   'P 1'
_cell_length_a   5.82653100
_cell_length_b   5.82653087
_cell_length_c   16.03913700
_cell_angle_alpha   90.00000000
_cell_angle_beta   90.00000000
_cell_angle_gamma   119.99999506
_symmetry_Int_Tables_number   1
_chemical_formula_structural   Ba2Nb5WS12
_chemical_formula_sum   'Ba2 Nb5 W1 S12'
_cell_volume   471.55435866
_cell_formula_units_Z   1
loop_
 _symmetry_equiv_pos_site_id
 _symmetry_equiv_pos_as_xyz
  1  'x, y, z'
loop_
 _atom_site_type_symbol
 _atom_site_label
 _atom_site_symmetry_multiplicity
 _atom_site_fract_x
 _atom_site_fract_y
 _atom_site_fract_z
 _atom_site_occupancy
  Ba  Ba0  1  0.000000  0.000000  0.001722  1
  Ba  Ba1  1  0.000000  0.000000  0.498278  1
  Nb  Nb2  1  0.000000  0.000000  0.250000  1
  Nb  Nb3  1  0.333333  0.666667  0.250000  1
  Nb  Nb4  1  0.666667  0.333333  0.750000  1
  Nb  Nb5  1  0.666667  0.333333  0.250000  1
  Nb  Nb6  1  0.333333  0.666667  0.750000  1
  W  W7  1  0.000000  0.000000  0.750000  1
  S  S8  1  0.336787  0.000000  0.152341  1
  S  S9  1  0.000000  0.336787  0.152341  1
  S  S10  1  0.663213  0.663213  0.152341  1
  S  S11  1  0.329194  0.329194  0.653555  1
  S  S12  1  0.663213  0.663213  0.347659  1
  S  S13  1  0.670806  0.000000  0.653555  1
  S  S14  1  0.000000  0.670806  0.653555  1
  S  S15  1  0.000000  0.670806  0.846445  1
  S  S16  1  0.329194  0.329194  0.846445  1
  S  S17  1  0.000000  0.336787  0.347659  1
  S  S18  1  0.336787  0.000000  0.347659  1
  S  S19  1  0.670806  0.000000  0.846445  1
