# generated using pymatgen
data_TiAgSbS4
_symmetry_space_group_name_H-M   'P 1'
_cell_length_a   7.60920121
_cell_length_b   7.60920189
_cell_length_c   7.60920100
_cell_angle_alpha   119.44834448
_cell_angle_beta   121.75569722
_cell_angle_gamma   88.97222112
_symmetry_Int_Tables_number   1
_chemical_formula_structural   TiAgSbS4
_chemical_formula_sum   'Ti2 Ag2 Sb2 S8'
_cell_volume   308.48308376
_cell_formula_units_Z   2
loop_
 _symmetry_equiv_pos_site_id
 _symmetry_equiv_pos_as_xyz
  1  'x, y, z'
loop_
 _atom_site_type_symbol
 _atom_site_label
 _atom_site_symmetry_multiplicity
 _atom_site_fract_x
 _atom_site_fract_y
 _atom_site_fract_z
 _atom_site_occupancy
  Ti  Ti0  1  0.000000  0.000000  0.000000  1
  Ti  Ti1  1  0.500000  0.000000  0.500000  1
  Ag  Ag2  1  0.366741  0.616741  0.750000  1
  Ag  Ag3  1  0.633259  0.383259  0.250000  1
  Sb  Sb4  1  0.000000  0.000000  0.500000  1
  Sb  Sb5  1  0.000000  0.500000  0.000000  1
  S  S6  1  0.245388  0.777388  0.031999  1
  S  S7  1  0.754612  0.786611  0.531999  1
  S  S8  1  0.223211  0.222669  0.000541  1
  S  S9  1  0.722128  0.222669  0.499459  1
  S  S10  1  0.776789  0.777331  0.999459  1
  S  S11  1  0.277872  0.777331  0.500541  1
  S  S12  1  0.754612  0.222612  0.968001  1
  S  S13  1  0.245388  0.213389  0.468001  1
