# generated using pymatgen
data_Pr2Ho4CoI10
_symmetry_space_group_name_H-M   'P 1'
_cell_length_a   7.78613227
_cell_length_b   9.79990569
_cell_length_c   9.80536546
_cell_angle_alpha   106.85940752
_cell_angle_beta   96.10874579
_cell_angle_gamma   105.19301872
_symmetry_Int_Tables_number   1
_chemical_formula_structural   Pr2Ho4CoI10
_chemical_formula_sum   'Pr2 Ho4 Co1 I10'
_cell_volume   677.38537621
_cell_formula_units_Z   1
loop_
 _symmetry_equiv_pos_site_id
 _symmetry_equiv_pos_as_xyz
  1  'x, y, z'
loop_
 _atom_site_type_symbol
 _atom_site_label
 _atom_site_symmetry_multiplicity
 _atom_site_fract_x
 _atom_site_fract_y
 _atom_site_fract_z
 _atom_site_occupancy
  Pr  Pr0  1  0.886121  0.957684  0.231266  1
  Pr  Pr1  1  0.113879  0.042316  0.768734  1
  Ho  Ho2  1  0.029462  0.719768  0.915763  1
  Ho  Ho3  1  0.970538  0.280232  0.084237  1
  Ho  Ho4  1  0.659710  0.878354  0.839776  1
  Ho  Ho5  1  0.340290  0.121646  0.160224  1
  Co  Co6  1  0.000000  0.000000  0.000000  1
  I  I7  1  0.652716  0.554159  0.731639  1
  I  I8  1  0.347284  0.445841  0.268361  1
  I  I9  1  0.733349  0.911192  0.544189  1
  I  I10  1  0.266651  0.088808  0.455811  1
  I  I11  1  0.082361  0.378223  0.824581  1
  I  I12  1  0.917639  0.621777  0.175419  1
  I  I13  1  0.447363  0.817171  0.089165  1
  I  I14  1  0.552637  0.182829  0.910835  1
  I  I15  1  0.228341  0.739319  0.660073  1
  I  I16  1  0.771659  0.260681  0.339927  1
