# generated using pymatgen
data_Tb3U5(TcB6)4
_symmetry_space_group_name_H-M   'P 1'
_cell_length_a   3.64223600
_cell_length_b   9.30271305
_cell_length_c   11.40397803
_cell_angle_alpha   89.99809777
_cell_angle_beta   90.00000000
_cell_angle_gamma   90.00000000
_symmetry_Int_Tables_number   1
_chemical_formula_structural   Tb3U5(TcB6)4
_chemical_formula_sum   'Tb3 U5 Tc4 B24'
_cell_volume   386.39729637
_cell_formula_units_Z   1
loop_
 _symmetry_equiv_pos_site_id
 _symmetry_equiv_pos_as_xyz
  1  'x, y, z'
loop_
 _atom_site_type_symbol
 _atom_site_label
 _atom_site_symmetry_multiplicity
 _atom_site_fract_x
 _atom_site_fract_y
 _atom_site_fract_z
 _atom_site_occupancy
  Tb  Tb0  1  0.000000  0.337186  0.407653  1
  Tb  Tb1  1  0.000000  0.663065  0.591998  1
  Tb  Tb2  1  0.000000  0.835912  0.092938  1
  U  U3  1  0.000000  0.162980  0.907096  1
  U  U4  1  0.000000  0.956225  0.396929  1
  U  U5  1  0.000000  0.042979  0.603632  1
  U  U6  1  0.000000  0.457396  0.103749  1
  U  U7  1  0.000000  0.543280  0.896937  1
  Tc  Tc8  1  0.000000  0.645713  0.318803  1
  Tc  Tc9  1  0.000000  0.352195  0.684000  1
  Tc  Tc10  1  0.000000  0.146283  0.177994  1
  Tc  Tc11  1  0.000000  0.857691  0.819518  1
  B  B12  1  0.500000  0.551992  0.430995  1
  B  B13  1  0.500000  0.447259  0.570000  1
  B  B14  1  0.500000  0.052848  0.067618  1
  B  B15  1  0.500000  0.950278  0.930377  1
  B  B16  1  0.500000  0.743114  0.422914  1
  B  B17  1  0.500000  0.256824  0.577232  1
  B  B18  1  0.500000  0.242586  0.075861  1
  B  B19  1  0.500000  0.756680  0.922455  1
  B  B20  1  0.500000  0.802057  0.274988  1
  B  B21  1  0.500000  0.196631  0.726575  1
  B  B22  1  0.500000  0.302119  0.224829  1
  B  B23  1  0.500000  0.698259  0.774883  1
  B  B24  1  0.500000  0.643617  0.188671  1
  B  B25  1  0.500000  0.354664  0.812155  1
  B  B26  1  0.500000  0.144105  0.310840  1
  B  B27  1  0.500000  0.855718  0.688550  1
  B  B28  1  0.500000  0.989567  0.219362  1
  B  B29  1  0.500000  0.013246  0.781202  1
  B  B30  1  0.500000  0.488955  0.280664  1
  B  B31  1  0.500000  0.510877  0.719743  1
  B  B32  1  0.500000  0.640634  0.038664  1
  B  B33  1  0.500000  0.356807  0.960376  1
  B  B34  1  0.500000  0.140096  0.460922  1
  B  B35  1  0.500000  0.860162  0.538882  1
