# generated using pymatgen
data_ErPuNiO6
_symmetry_space_group_name_H-M   'P 1'
_cell_length_a   5.19263366
_cell_length_b   5.18989168
_cell_length_c   5.00624800
_cell_angle_alpha   90.03979877
_cell_angle_beta   89.95421972
_cell_angle_gamma   120.06702755
_symmetry_Int_Tables_number   1
_chemical_formula_structural   ErPuNiO6
_chemical_formula_sum   'Er1 Pu1 Ni1 O6'
_cell_volume   116.76026724
_cell_formula_units_Z   1
loop_
 _symmetry_equiv_pos_site_id
 _symmetry_equiv_pos_as_xyz
  1  'x, y, z'
loop_
 _atom_site_type_symbol
 _atom_site_label
 _atom_site_symmetry_multiplicity
 _atom_site_fract_x
 _atom_site_fract_y
 _atom_site_fract_z
 _atom_site_occupancy
  Er  Er0  1  0.999900  0.000218  0.000020  1
  Pu  Pu1  1  0.666658  0.333367  0.499996  1
  Ni  Ni2  1  0.333250  0.666543  0.500009  1
  O  O3  1  0.352187  0.009207  0.727795  1
  O  O4  1  0.990802  0.343149  0.727561  1
  O  O5  1  0.656936  0.647959  0.727607  1
  O  O6  1  0.990983  0.647732  0.272160  1
  O  O7  1  0.656895  0.008889  0.272438  1
  O  O8  1  0.352389  0.342936  0.272414  1
