# generated using pymatgen
data_YTm5Pa2(NiB14)2
_symmetry_space_group_name_H-M   'P 1'
_cell_length_a   7.19741875
_cell_length_b   7.19743044
_cell_length_c   7.47457800
_cell_angle_alpha   90.00000000
_cell_angle_beta   90.00000000
_cell_angle_gamma   89.91019655
_symmetry_Int_Tables_number   1
_chemical_formula_structural   YTm5Pa2(NiB14)2
_chemical_formula_sum   'Y1 Tm5 Pa2 Ni2 B28'
_cell_volume   387.20449643
_cell_formula_units_Z   1
loop_
 _symmetry_equiv_pos_site_id
 _symmetry_equiv_pos_as_xyz
  1  'x, y, z'
loop_
 _atom_site_type_symbol
 _atom_site_label
 _atom_site_symmetry_multiplicity
 _atom_site_fract_x
 _atom_site_fract_y
 _atom_site_fract_z
 _atom_site_occupancy
  Y  Y0  1  0.166749  0.306373  0.500000  1
  Tm  Tm1  1  0.335463  0.808428  0.000000  1
  Tm  Tm2  1  0.693817  0.166939  0.500000  1
  Tm  Tm3  1  0.306145  0.833852  0.500000  1
  Tm  Tm4  1  0.808231  0.664385  0.000000  1
  Tm  Tm5  1  0.833631  0.694015  0.500000  1
  Pa  Pa6  1  0.193927  0.328914  0.000000  1
  Pa  Pa7  1  0.671594  0.194402  0.000000  1
  Ni  Ni8  1  0.000216  0.994640  0.000000  1
  Ni  Ni9  1  0.501383  0.503108  0.500000  1
  B  B10  1  0.173799  0.037494  0.231953  1
  B  B11  1  0.959959  0.171602  0.233253  1
  B  B12  1  0.039591  0.822332  0.230934  1
  B  B13  1  0.675666  0.462648  0.268981  1
  B  B14  1  0.325370  0.542904  0.269029  1
  B  B15  1  0.823589  0.959068  0.233394  1
  B  B16  1  0.539914  0.677389  0.271345  1
  B  B17  1  0.461126  0.327404  0.267986  1
  B  B18  1  0.823589  0.959068  0.766606  1
  B  B19  1  0.039591  0.822332  0.769066  1
  B  B20  1  0.959959  0.171602  0.766747  1
  B  B21  1  0.325370  0.542904  0.730971  1
  B  B22  1  0.675666  0.462648  0.731019  1
  B  B23  1  0.173799  0.037494  0.768047  1
  B  B24  1  0.461126  0.327404  0.732014  1
  B  B25  1  0.539914  0.677389  0.728655  1
  B  B26  1  0.088150  0.588122  0.246186  1
  B  B27  1  0.409852  0.090699  0.243790  1
  B  B28  1  0.587366  0.913388  0.248636  1
  B  B29  1  0.910105  0.410008  0.243293  1
  B  B30  1  0.910105  0.410008  0.756707  1
  B  B31  1  0.587366  0.913388  0.751364  1
  B  B32  1  0.409852  0.090699  0.756210  1
  B  B33  1  0.088150  0.588122  0.753814  1
  B  B34  1  0.999663  0.995424  0.390772  1
  B  B35  1  0.500275  0.503992  0.110773  1
  B  B36  1  0.999663  0.995424  0.609228  1
  B  B37  1  0.500275  0.503992  0.889227  1
