# generated using pymatgen
data_Rb4Cr3WN8
_symmetry_space_group_name_H-M   'P 1'
_cell_length_a   5.86708200
_cell_length_b   8.32704800
_cell_length_c   11.73953900
_cell_angle_alpha   90.00000000
_cell_angle_beta   90.00000000
_cell_angle_gamma   90.00000000
_symmetry_Int_Tables_number   1
_chemical_formula_structural   Rb4Cr3WN8
_chemical_formula_sum   'Rb8 Cr6 W2 N16'
_cell_volume   573.54073574
_cell_formula_units_Z   2
loop_
 _symmetry_equiv_pos_site_id
 _symmetry_equiv_pos_as_xyz
  1  'x, y, z'
loop_
 _atom_site_type_symbol
 _atom_site_label
 _atom_site_symmetry_multiplicity
 _atom_site_fract_x
 _atom_site_fract_y
 _atom_site_fract_z
 _atom_site_occupancy
  Rb  Rb0  1  0.750000  0.104762  0.000000  1
  Rb  Rb1  1  0.250000  0.895238  0.500000  1
  Rb  Rb2  1  0.250000  0.870910  0.000000  1
  Rb  Rb3  1  0.750000  0.129090  0.500000  1
  Rb  Rb4  1  0.739175  0.367127  0.239895  1
  Rb  Rb5  1  0.239175  0.632873  0.260105  1
  Rb  Rb6  1  0.260825  0.632873  0.739895  1
  Rb  Rb7  1  0.760825  0.367127  0.760105  1
  Cr  Cr8  1  0.750000  0.644222  0.000000  1
  Cr  Cr9  1  0.250000  0.355778  0.500000  1
  Cr  Cr10  1  0.242711  0.118635  0.252113  1
  Cr  Cr11  1  0.742711  0.881365  0.247887  1
  Cr  Cr12  1  0.757289  0.881365  0.752113  1
  Cr  Cr13  1  0.257289  0.118635  0.747887  1
  W  W14  1  0.250000  0.381189  0.000000  1
  W  W15  1  0.750000  0.618811  0.500000  1
  N  N16  1  0.987452  0.005358  0.249935  1
  N  N17  1  0.487452  0.994642  0.250065  1
  N  N18  1  0.012548  0.994642  0.749935  1
  N  N19  1  0.512548  0.005358  0.750065  1
  N  N20  1  0.248513  0.234122  0.378788  1
  N  N21  1  0.748513  0.765878  0.121212  1
  N  N22  1  0.751487  0.765878  0.878788  1
  N  N23  1  0.251487  0.234122  0.621212  1
  N  N24  1  0.750346  0.749600  0.631131  1
  N  N25  1  0.250346  0.250400  0.868869  1
  N  N26  1  0.249654  0.250400  0.131131  1
  N  N27  1  0.749654  0.749600  0.368869  1
  N  N28  1  0.494661  0.484806  0.499790  1
  N  N29  1  0.994661  0.515194  0.000210  1
  N  N30  1  0.505339  0.515194  0.999790  1
  N  N31  1  0.005339  0.484806  0.500210  1
