# generated using pymatgen
data_DyYCo2(SnH)2
_symmetry_space_group_name_H-M   'P 1'
_cell_length_a   4.28231900
_cell_length_b   7.12310704
_cell_length_c   8.17116904
_cell_angle_alpha   90.01152410
_cell_angle_beta   90.00000000
_cell_angle_gamma   90.00000000
_symmetry_Int_Tables_number   1
_chemical_formula_structural   DyYCo2(SnH)2
_chemical_formula_sum   'Dy2 Y2 Co4 Sn4 H4'
_cell_volume   249.24856833
_cell_formula_units_Z   2
loop_
 _symmetry_equiv_pos_site_id
 _symmetry_equiv_pos_as_xyz
  1  'x, y, z'
loop_
 _atom_site_type_symbol
 _atom_site_label
 _atom_site_symmetry_multiplicity
 _atom_site_fract_x
 _atom_site_fract_y
 _atom_site_fract_z
 _atom_site_occupancy
  Dy  Dy0  1  0.750000  0.012360  0.686728  1
  Dy  Dy1  1  0.250000  0.987640  0.313272  1
  Y  Y2  1  0.250000  0.487643  0.186956  1
  Y  Y3  1  0.750000  0.512357  0.813044  1
  Co  Co4  1  0.750000  0.776996  0.102441  1
  Co  Co5  1  0.250000  0.223004  0.897559  1
  Co  Co6  1  0.250000  0.723773  0.602001  1
  Co  Co7  1  0.750000  0.276227  0.397999  1
  Sn  Sn8  1  0.750000  0.656951  0.426100  1
  Sn  Sn9  1  0.250000  0.343049  0.573900  1
  Sn  Sn10  1  0.250000  0.843360  0.926042  1
  Sn  Sn11  1  0.750000  0.156640  0.073958  1
  H  H12  1  0.250000  0.443593  0.919428  1
  H  H13  1  0.750000  0.556407  0.080572  1
  H  H14  1  0.750000  0.055842  0.419525  1
  H  H15  1  0.250000  0.944158  0.580475  1
