# generated using pymatgen
data_Dy3Cd3Hg2Ir
_symmetry_space_group_name_H-M   'P 1'
_cell_length_a   8.08358600
_cell_length_b   8.08358615
_cell_length_c   3.79453200
_cell_angle_alpha   90.00000000
_cell_angle_beta   90.00000000
_cell_angle_gamma   119.99999940
_symmetry_Int_Tables_number   1
_chemical_formula_structural   Dy3Cd3Hg2Ir
_chemical_formula_sum   'Dy3 Cd3 Hg2 Ir1'
_cell_volume   214.73210826
_cell_formula_units_Z   1
loop_
 _symmetry_equiv_pos_site_id
 _symmetry_equiv_pos_as_xyz
  1  'x, y, z'
loop_
 _atom_site_type_symbol
 _atom_site_label
 _atom_site_symmetry_multiplicity
 _atom_site_fract_x
 _atom_site_fract_y
 _atom_site_fract_z
 _atom_site_occupancy
  Dy  Dy0  1  0.575215  0.959932  0.000000  1
  Dy  Dy1  1  0.040068  0.615281  0.000000  1
  Dy  Dy2  1  0.384719  0.424785  0.000000  1
  Cd  Cd3  1  0.277398  0.002612  0.500000  1
  Cd  Cd4  1  0.997388  0.274787  0.500000  1
  Cd  Cd5  1  0.725213  0.722602  0.500000  1
  Hg  Hg6  1  0.666667  0.333333  0.500000  1
  Hg  Hg7  1  0.000000  0.000000  0.000000  1
  Ir  Ir8  1  0.333333  0.666667  0.500000  1
