# generated using pymatgen
data_Pa5PSe4
_symmetry_space_group_name_H-M   'P 1'
_cell_length_a   7.01503905
_cell_length_b   7.01503940
_cell_length_c   7.01503911
_cell_angle_alpha   99.61871206
_cell_angle_beta   99.61870650
_cell_angle_gamma   131.74515305
_symmetry_Int_Tables_number   1
_chemical_formula_structural   Pa5PSe4
_chemical_formula_sum   'Pa5 P1 Se4'
_cell_volume   235.06836200
_cell_formula_units_Z   1
loop_
 _symmetry_equiv_pos_site_id
 _symmetry_equiv_pos_as_xyz
  1  'x, y, z'
loop_
 _atom_site_type_symbol
 _atom_site_label
 _atom_site_symmetry_multiplicity
 _atom_site_fract_x
 _atom_site_fract_y
 _atom_site_fract_z
 _atom_site_occupancy
  Pa  Pa0  1  0.402960  0.788630  0.191590  1
  Pa  Pa1  1  0.000000  0.000000  0.000000  1
  Pa  Pa2  1  0.597040  0.211370  0.808410  1
  Pa  Pa3  1  0.211370  0.402960  0.614330  1
  Pa  Pa4  1  0.788630  0.597040  0.385670  1
  P  P5  1  0.500000  0.500000  0.000000  1
  Se  Se6  1  0.096135  0.698288  0.794423  1
  Se  Se7  1  0.698288  0.903865  0.602154  1
  Se  Se8  1  0.301712  0.096135  0.397846  1
  Se  Se9  1  0.903865  0.301712  0.205577  1
