# generated using pymatgen
data_Sm2Ho4TaRuO14
_symmetry_space_group_name_H-M   'P 1'
_cell_length_a   6.44869441
_cell_length_b   6.44869434
_cell_length_c   7.53337217
_cell_angle_alpha   90.01954322
_cell_angle_beta   89.98046044
_cell_angle_gamma   109.37175336
_symmetry_Int_Tables_number   1
_chemical_formula_structural   Sm2Ho4TaRuO14
_chemical_formula_sum   'Sm2 Ho4 Ta1 Ru1 O14'
_cell_volume   295.54426640
_cell_formula_units_Z   1
loop_
 _symmetry_equiv_pos_site_id
 _symmetry_equiv_pos_as_xyz
  1  'x, y, z'
loop_
 _atom_site_type_symbol
 _atom_site_label
 _atom_site_symmetry_multiplicity
 _atom_site_fract_x
 _atom_site_fract_y
 _atom_site_fract_z
 _atom_site_occupancy
  Sm  Sm0  1  0.500000  0.500000  0.500000  1
  Sm  Sm1  1  0.500000  0.500000  0.000000  1
  Ho  Ho2  1  0.534985  0.000166  0.750185  1
  Ho  Ho3  1  0.000166  0.534985  0.249815  1
  Ho  Ho4  1  0.465015  0.999834  0.249815  1
  Ho  Ho5  1  0.999834  0.465015  0.750185  1
  Ta  Ta6  1  0.000000  0.000000  0.000000  1
  Ru  Ru7  1  0.000000  0.000000  0.500000  1
  O  O8  1  0.680094  0.929354  0.469165  1
  O  O9  1  0.929354  0.680094  0.530835  1
  O  O10  1  0.677407  0.929439  0.031465  1
  O  O11  1  0.929439  0.677407  0.968535  1
  O  O12  1  0.319906  0.070646  0.530835  1
  O  O13  1  0.070646  0.319906  0.469165  1
  O  O14  1  0.322593  0.070561  0.968535  1
  O  O15  1  0.070561  0.322593  0.031465  1
  O  O16  1  0.933833  0.066167  0.748370  1
  O  O17  1  0.066167  0.933833  0.251630  1
  O  O18  1  0.365351  0.634648  0.750126  1
  O  O19  1  0.634648  0.365351  0.249874  1
  O  O20  1  0.640685  0.359315  0.749186  1
  O  O21  1  0.359315  0.640685  0.250814  1
