# generated using pymatgen
data_Yb4Cu13Rh
_symmetry_space_group_name_H-M   'P 1'
_cell_length_a   5.01779025
_cell_length_b   5.01778951
_cell_length_c   12.93811000
_cell_angle_alpha   78.81863644
_cell_angle_beta   78.81863811
_cell_angle_gamma   59.99999882
_symmetry_Int_Tables_number   1
_chemical_formula_structural   Yb4Cu13Rh
_chemical_formula_sum   'Yb4 Cu13 Rh1'
_cell_volume   274.95193456
_cell_formula_units_Z   1
loop_
 _symmetry_equiv_pos_site_id
 _symmetry_equiv_pos_as_xyz
  1  'x, y, z'
loop_
 _atom_site_type_symbol
 _atom_site_label
 _atom_site_symmetry_multiplicity
 _atom_site_fract_x
 _atom_site_fract_y
 _atom_site_fract_z
 _atom_site_occupancy
  Yb  Yb0  1  0.948097  0.948097  0.155709  1
  Yb  Yb1  1  0.051903  0.051903  0.844291  1
  Yb  Yb2  1  0.849604  0.849604  0.451188  1
  Yb  Yb3  1  0.150396  0.150396  0.548812  1
  Cu  Cu4  1  0.721071  0.721071  0.836786  1
  Cu  Cu5  1  0.278929  0.278929  0.163214  1
  Cu  Cu6  1  0.612613  0.612613  0.162160  1
  Cu  Cu7  1  0.387387  0.387387  0.837840  1
  Cu  Cu8  1  0.000000  0.500000  0.000000  1
  Cu  Cu9  1  0.500000  0.000000  0.000000  1
  Cu  Cu10  1  0.500000  0.500000  0.000000  1
  Cu  Cu11  1  0.391088  0.391088  0.325700  1
  Cu  Cu12  1  0.892124  0.391088  0.325700  1
  Cu  Cu13  1  0.391088  0.892124  0.325700  1
  Cu  Cu14  1  0.608912  0.608912  0.674300  1
  Cu  Cu15  1  0.107876  0.608912  0.674300  1
  Cu  Cu16  1  0.608912  0.107876  0.674300  1
  Rh  Rh17  1  0.500000  0.500000  0.500000  1
