# generated using pymatgen
data_Be3Fe4Si5(W6C)2
_symmetry_space_group_name_H-M   'P 1'
_cell_length_a   7.67954023
_cell_length_b   7.70678474
_cell_length_c   7.67470965
_cell_angle_alpha   60.10267645
_cell_angle_beta   59.97918028
_cell_angle_gamma   60.11686802
_symmetry_Int_Tables_number   1
_chemical_formula_structural   Be3Fe4Si5(W6C)2
_chemical_formula_sum   'Be3 Fe4 Si5 W12 C2'
_cell_volume   321.66616482
_cell_formula_units_Z   1
loop_
 _symmetry_equiv_pos_site_id
 _symmetry_equiv_pos_as_xyz
  1  'x, y, z'
loop_
 _atom_site_type_symbol
 _atom_site_label
 _atom_site_symmetry_multiplicity
 _atom_site_fract_x
 _atom_site_fract_y
 _atom_site_fract_z
 _atom_site_occupancy
  Be  Be0  1  0.243484  0.917424  0.917189  1
  Be  Be1  1  0.332553  0.331114  0.003779  1
  Be  Be2  1  0.921904  0.917424  0.917189  1
  Fe  Fe3  1  0.129310  0.125200  0.616180  1
  Fe  Fe4  1  0.128126  0.622940  0.120809  1
  Fe  Fe5  1  0.123139  0.124898  0.124220  1
  Fe  Fe6  1  0.627744  0.124898  0.124220  1
  Si  Si7  1  0.924084  0.238555  0.913277  1
  Si  Si8  1  0.334807  0.004593  0.325791  1
  Si  Si9  1  0.333603  0.334964  0.326210  1
  Si  Si10  1  0.005221  0.334964  0.326210  1
  Si  Si11  1  0.924775  0.913378  0.237073  1
  W  W12  1  0.297083  0.698301  0.707533  1
  W  W13  1  0.304187  0.297743  0.703918  1
  W  W14  1  0.550742  0.945863  0.558936  1
  W  W15  1  0.942372  0.558021  0.557235  1
  W  W16  1  0.550619  0.953442  0.945320  1
  W  W17  1  0.694266  0.304945  0.306522  1
  W  W18  1  0.949592  0.557133  0.944096  1
  W  W19  1  0.306057  0.695807  0.302844  1
  W  W20  1  0.549179  0.557133  0.944096  1
  W  W21  1  0.694151  0.297743  0.703918  1
  W  W22  1  0.695292  0.695807  0.302844  1
  W  W23  1  0.944459  0.945863  0.558936  1
  C  C24  1  0.746567  0.752422  0.754445  1
  C  C25  1  0.496684  0.499421  0.507212  1
