# generated using pymatgen
data_Ca4MgPaIr4
_symmetry_space_group_name_H-M   'P 1'
_cell_length_a   5.87302105
_cell_length_b   5.87302226
_cell_length_c   8.00617306
_cell_angle_alpha   79.51932615
_cell_angle_beta   79.51933508
_cell_angle_gamma   60.42713089
_symmetry_Int_Tables_number   1
_chemical_formula_structural   Ca4MgPaIr4
_chemical_formula_sum   'Ca4 Mg1 Pa1 Ir4'
_cell_volume   234.79593029
_cell_formula_units_Z   1
loop_
 _symmetry_equiv_pos_site_id
 _symmetry_equiv_pos_as_xyz
  1  'x, y, z'
loop_
 _atom_site_type_symbol
 _atom_site_label
 _atom_site_symmetry_multiplicity
 _atom_site_fract_x
 _atom_site_fract_y
 _atom_site_fract_z
 _atom_site_occupancy
  Ca  Ca0  1  0.985883  0.720971  0.135339  1
  Ca  Ca1  1  0.279029  0.014117  0.364661  1
  Ca  Ca2  1  0.017547  0.285061  0.844971  1
  Ca  Ca3  1  0.714939  0.982453  0.655029  1
  Mg  Mg4  1  0.397561  0.602439  0.750000  1
  Pa  Pa5  1  0.606826  0.393174  0.250000  1
  Ir  Ir6  1  0.496964  0.780618  0.004630  1
  Ir  Ir7  1  0.219382  0.503036  0.495370  1
  Ir  Ir8  1  0.504138  0.222270  0.018555  1
  Ir  Ir9  1  0.777730  0.495862  0.481445  1
