# generated using pymatgen
data_Dy2Cd2Ga6CoNi
_symmetry_space_group_name_H-M   'P 1'
_cell_length_a   4.20543851
_cell_length_b   6.51087900
_cell_length_c   8.13198604
_cell_angle_alpha   90.00000000
_cell_angle_beta   104.98544797
_cell_angle_gamma   90.00000000
_symmetry_Int_Tables_number   1
_chemical_formula_structural   Dy2Cd2Ga6CoNi
_chemical_formula_sum   'Dy2 Cd2 Ga6 Co1 Ni1'
_cell_volume   215.09031415
_cell_formula_units_Z   1
loop_
 _symmetry_equiv_pos_site_id
 _symmetry_equiv_pos_as_xyz
  1  'x, y, z'
loop_
 _atom_site_type_symbol
 _atom_site_label
 _atom_site_symmetry_multiplicity
 _atom_site_fract_x
 _atom_site_fract_y
 _atom_site_fract_z
 _atom_site_occupancy
  Dy  Dy0  1  0.372988  0.750000  0.745977  1
  Dy  Dy1  1  0.627537  0.250000  0.255073  1
  Cd  Cd2  1  0.999777  0.500103  0.999555  1
  Cd  Cd3  1  0.999777  0.999897  0.999555  1
  Ga  Ga4  1  0.572415  0.750000  0.144832  1
  Ga  Ga5  1  0.428641  0.250000  0.857280  1
  Ga  Ga6  1  0.188089  0.552069  0.376179  1
  Ga  Ga7  1  0.811404  0.451127  0.622808  1
  Ga  Ga8  1  0.188089  0.947931  0.376179  1
  Ga  Ga9  1  0.811404  0.048873  0.622808  1
  Co  Co10  1  0.721359  0.750000  0.442717  1
  Ni  Ni11  1  0.278519  0.250000  0.557038  1
