# generated using pymatgen
data_Be6Si5NiRh12
_symmetry_space_group_name_H-M   'P 1'
_cell_length_a   4.06163701
_cell_length_b   5.76169700
_cell_length_c   12.17508602
_cell_angle_alpha   90.00000000
_cell_angle_beta   90.00616705
_cell_angle_gamma   90.00000000
_symmetry_Int_Tables_number   1
_chemical_formula_structural   Be6Si5NiRh12
_chemical_formula_sum   'Be6 Si5 Ni1 Rh12'
_cell_volume   284.92040866
_cell_formula_units_Z   1
loop_
 _symmetry_equiv_pos_site_id
 _symmetry_equiv_pos_as_xyz
  1  'x, y, z'
loop_
 _atom_site_type_symbol
 _atom_site_label
 _atom_site_symmetry_multiplicity
 _atom_site_fract_x
 _atom_site_fract_y
 _atom_site_fract_z
 _atom_site_occupancy
  Be  Be0  1  0.000000  0.500000  0.000000  1
  Be  Be1  1  0.499628  0.000000  0.156241  1
  Be  Be2  1  0.999770  0.500000  0.331747  1
  Be  Be3  1  0.500000  0.000000  0.500000  1
  Be  Be4  1  0.000228  0.500000  0.668252  1
  Be  Be5  1  0.500372  0.000000  0.843759  1
  Si  Si6  1  0.499713  0.500000  0.165847  1
  Si  Si7  1  0.999816  0.000000  0.332523  1
  Si  Si8  1  0.500000  0.500000  0.500000  1
  Si  Si9  1  0.000184  0.000000  0.667477  1
  Si  Si10  1  0.500287  0.500000  0.834153  1
  Ni  Ni11  1  0.000000  0.000000  0.000000  1
  Rh  Rh12  1  0.500000  0.258405  0.000000  1
  Rh  Rh13  1  0.500000  0.741595  0.000000  1
  Rh  Rh14  1  0.999756  0.253005  0.171982  1
  Rh  Rh15  1  0.999756  0.746996  0.171982  1
  Rh  Rh16  1  0.499849  0.249781  0.335954  1
  Rh  Rh17  1  0.499849  0.750220  0.335954  1
  Rh  Rh18  1  0.000000  0.249936  0.500000  1
  Rh  Rh19  1  0.000000  0.750065  0.500000  1
  Rh  Rh20  1  0.500151  0.249781  0.664046  1
  Rh  Rh21  1  0.500151  0.750220  0.664046  1
  Rh  Rh22  1  0.000244  0.253005  0.828018  1
  Rh  Rh23  1  0.000244  0.746996  0.828018  1
