# generated using pymatgen
data_PrDy5Si2(Se2N3)2
_symmetry_space_group_name_H-M   'P 1'
_cell_length_a   10.20113698
_cell_length_b   11.25643482
_cell_length_c   11.30335398
_cell_angle_alpha   111.19361524
_cell_angle_beta   107.93527588
_cell_angle_gamma   107.40893621
_symmetry_Int_Tables_number   1
_chemical_formula_structural   PrDy5Si2(Se2N3)2
_chemical_formula_sum   'Pr3 Dy15 Si6 Se12 N18'
_cell_volume   1020.63803755
_cell_formula_units_Z   3
loop_
 _symmetry_equiv_pos_site_id
 _symmetry_equiv_pos_as_xyz
  1  'x, y, z'
loop_
 _atom_site_type_symbol
 _atom_site_label
 _atom_site_symmetry_multiplicity
 _atom_site_fract_x
 _atom_site_fract_y
 _atom_site_fract_z
 _atom_site_occupancy
  Pr  Pr0  1  0.961360  0.706230  0.835524  1
  Pr  Pr1  1  0.125873  0.168793  0.872882  1
  Pr  Pr2  1  0.319441  0.623811  0.926284  1
  Dy  Dy3  1  0.697731  0.372227  0.087191  1
  Dy  Dy4  1  0.879311  0.842684  0.117987  1
  Dy  Dy5  1  0.034983  0.275086  0.155073  1
  Dy  Dy6  1  0.182027  0.736700  0.223948  1
  Dy  Dy7  1  0.447827  0.484971  0.271535  1
  Dy  Dy8  1  0.241093  0.122550  0.279548  1
  Dy  Dy9  1  0.615460  0.915713  0.292609  1
  Dy  Dy10  1  0.674739  0.288522  0.377411  1
  Dy  Dy11  1  0.033198  0.210602  0.480707  1
  Dy  Dy12  1  0.966409  0.785883  0.516466  1
  Dy  Dy13  1  0.325099  0.709915  0.618940  1
  Dy  Dy14  1  0.387704  0.083172  0.709155  1
  Dy  Dy15  1  0.763045  0.881164  0.723713  1
  Dy  Dy16  1  0.550825  0.514457  0.722759  1
  Dy  Dy17  1  0.816263  0.271629  0.785305  1
  Si  Si18  1  0.292871  0.904017  0.090896  1
  Si  Si19  1  0.391910  0.185519  0.102538  1
  Si  Si20  1  0.789592  0.081886  0.180270  1
  Si  Si21  1  0.210152  0.916868  0.818255  1
  Si  Si22  1  0.609617  0.815743  0.896168  1
  Si  Si23  1  0.707436  0.099189  0.912946  1
  Se  Se24  1  0.164024  0.465453  0.052753  1
  Se  Se25  1  0.664009  0.665817  0.208757  1
  Se  Se26  1  0.004986  0.548335  0.331600  1
  Se  Se27  1  0.122354  0.960030  0.420097  1
  Se  Se28  1  0.286466  0.415619  0.456110  1
  Se  Se29  1  0.462466  0.784496  0.454907  1
  Se  Se30  1  0.539050  0.217846  0.547971  1
  Se  Se31  1  0.703371  0.581021  0.537049  1
  Se  Se32  1  0.866904  0.038343  0.576331  1
  Se  Se33  1  0.992148  0.441268  0.670262  1
  Se  Se34  1  0.327994  0.328670  0.774163  1
  Se  Se35  1  0.826851  0.538969  0.963537  1
  N  N36  1  0.662485  0.896924  0.079246  1
  N  N37  1  0.766027  0.182755  0.096910  1
  N  N38  1  0.121858  0.876675  0.112278  1
  N  N39  1  0.248273  0.233669  0.130908  1
  N  N40  1  0.361876  0.805778  0.154214  1
  N  N41  1  0.418095  0.087888  0.189457  1
  N  N42  1  0.561934  0.344983  0.204344  1
  N  N43  1  0.981987  0.101046  0.227777  1
  N  N44  1  0.781233  0.141223  0.339937  1
  N  N45  1  0.219755  0.857487  0.658609  1
  N  N46  1  0.015830  0.893697  0.762582  1
  N  N47  1  0.441379  0.654499  0.788499  1
  N  N48  1  0.583282  0.915848  0.812548  1
  N  N49  1  0.639008  0.202045  0.857289  1
  N  N50  1  0.755621  0.770634  0.872890  1
  N  N51  1  0.878581  0.128067  0.893494  1
  N  N52  1  0.239713  0.822387  0.908189  1
  N  N53  1  0.338471  0.101189  0.919185  1
