# generated using pymatgen
data_Dy2Y5Er(InRh)2
_symmetry_space_group_name_H-M   'P 1'
_cell_length_a   9.68153507
_cell_length_b   9.69212901
_cell_length_c   9.68298796
_cell_angle_alpha   59.94073083
_cell_angle_beta   60.01413659
_cell_angle_gamma   59.99794285
_symmetry_Int_Tables_number   1
_chemical_formula_structural   Dy2Y5Er(InRh)2
_chemical_formula_sum   'Dy4 Y10 Er2 In4 Rh4'
_cell_volume   642.24758742
_cell_formula_units_Z   2
loop_
 _symmetry_equiv_pos_site_id
 _symmetry_equiv_pos_as_xyz
  1  'x, y, z'
loop_
 _atom_site_type_symbol
 _atom_site_label
 _atom_site_symmetry_multiplicity
 _atom_site_fract_x
 _atom_site_fract_y
 _atom_site_fract_z
 _atom_site_occupancy
  Dy  Dy0  1  0.147416  0.550453  0.148911  1
  Dy  Dy1  1  0.311830  0.688850  0.688380  1
  Dy  Dy2  1  0.688566  0.311795  0.688270  1
  Dy  Dy3  1  0.551685  0.147421  0.148310  1
  Y  Y4  1  0.311443  0.689842  0.310219  1
  Y  Y5  1  0.936515  0.938001  0.561809  1
  Y  Y6  1  0.147296  0.147988  0.552412  1
  Y  Y7  1  0.561319  0.937604  0.559843  1
  Y  Y8  1  0.150908  0.151796  0.151970  1
  Y  Y9  1  0.311079  0.310481  0.689685  1
  Y  Y10  1  0.936360  0.561566  0.560705  1
  Y  Y11  1  0.560243  0.559617  0.939001  1
  Y  Y12  1  0.562135  0.937076  0.938290  1
  Y  Y13  1  0.936340  0.561736  0.939054  1
  Er  Er14  1  0.689534  0.311428  0.310810  1
  Er  Er15  1  0.688602  0.688756  0.311074  1
  In  In16  1  0.918252  0.917675  0.248758  1
  In  In17  1  0.249341  0.917941  0.918121  1
  In  In18  1  0.918194  0.249268  0.917909  1
  In  In19  1  0.916874  0.916712  0.916612  1
  Rh  Rh20  1  0.360417  0.356438  0.354458  1
  Rh  Rh21  1  0.923824  0.361192  0.358283  1
  Rh  Rh22  1  0.359960  0.360308  0.927809  1
  Rh  Rh23  1  0.361866  0.926056  0.359307  1
