# generated using pymatgen
data_Y3V4P6Rh5
_symmetry_space_group_name_H-M   'P 1'
_cell_length_a   3.86285600
_cell_length_b   10.82911100
_cell_length_c   13.29979200
_cell_angle_alpha   90.00000000
_cell_angle_beta   90.00000000
_cell_angle_gamma   90.00000000
_symmetry_Int_Tables_number   1
_chemical_formula_structural   Y3V4P6Rh5
_chemical_formula_sum   'Y6 V8 P12 Rh10'
_cell_volume   556.34754122
_cell_formula_units_Z   2
loop_
 _symmetry_equiv_pos_site_id
 _symmetry_equiv_pos_as_xyz
  1  'x, y, z'
loop_
 _atom_site_type_symbol
 _atom_site_label
 _atom_site_symmetry_multiplicity
 _atom_site_fract_x
 _atom_site_fract_y
 _atom_site_fract_z
 _atom_site_occupancy
  Y  Y0  1  0.000000  0.500000  0.516829  1
  Y  Y1  1  0.500000  0.000000  0.483171  1
  Y  Y2  1  0.500000  0.818225  0.210588  1
  Y  Y3  1  0.500000  0.181775  0.210588  1
  Y  Y4  1  0.000000  0.681775  0.789412  1
  Y  Y5  1  0.000000  0.318225  0.789412  1
  V  V6  1  0.500000  0.500000  0.163947  1
  V  V7  1  0.000000  0.000000  0.836053  1
  V  V8  1  0.000000  0.500000  0.989418  1
  V  V9  1  0.500000  0.000000  0.010582  1
  V  V10  1  0.500000  0.332402  0.998830  1
  V  V11  1  0.500000  0.667598  0.998830  1
  V  V12  1  0.000000  0.167598  0.001170  1
  V  V13  1  0.000000  0.832402  0.001170  1
  P  P14  1  0.500000  0.500000  0.875620  1
  P  P15  1  0.000000  0.000000  0.124380  1
  P  P16  1  0.500000  0.500000  0.348114  1
  P  P17  1  0.000000  0.000000  0.651886  1
  P  P18  1  0.500000  0.314329  0.614841  1
  P  P19  1  0.500000  0.685671  0.614841  1
  P  P20  1  0.000000  0.185671  0.385159  1
  P  P21  1  0.000000  0.814329  0.385159  1
  P  P22  1  0.500000  0.845246  0.882719  1
  P  P23  1  0.500000  0.154754  0.882719  1
  P  P24  1  0.000000  0.654754  0.117281  1
  P  P25  1  0.000000  0.345246  0.117281  1
  Rh  Rh26  1  0.500000  0.500000  0.698129  1
  Rh  Rh27  1  0.000000  0.000000  0.301871  1
  Rh  Rh28  1  0.500000  0.294646  0.433541  1
  Rh  Rh29  1  0.500000  0.705354  0.433541  1
  Rh  Rh30  1  0.000000  0.205354  0.566459  1
  Rh  Rh31  1  0.000000  0.794646  0.566459  1
  Rh  Rh32  1  0.500000  0.874398  0.706216  1
  Rh  Rh33  1  0.500000  0.125602  0.706216  1
  Rh  Rh34  1  0.000000  0.625602  0.293784  1
  Rh  Rh35  1  0.000000  0.374398  0.293784  1
