# generated using pymatgen
data_Sc8Mn7Si14Mo
_symmetry_space_group_name_H-M   'P 1'
_cell_length_a   5.17854083
_cell_length_b   9.67468487
_cell_length_c   9.63326487
_cell_angle_alpha   85.92030595
_cell_angle_beta   74.42230264
_cell_angle_gamma   74.66198385
_symmetry_Int_Tables_number   1
_chemical_formula_structural   Sc8Mn7Si14Mo
_chemical_formula_sum   'Sc8 Mn7 Si14 Mo1'
_cell_volume   448.34635482
_cell_formula_units_Z   1
loop_
 _symmetry_equiv_pos_site_id
 _symmetry_equiv_pos_as_xyz
  1  'x, y, z'
loop_
 _atom_site_type_symbol
 _atom_site_label
 _atom_site_symmetry_multiplicity
 _atom_site_fract_x
 _atom_site_fract_y
 _atom_site_fract_z
 _atom_site_occupancy
  Sc  Sc0  1  0.189336  0.805606  0.801789  1
  Sc  Sc1  1  0.800279  0.195393  0.196023  1
  Sc  Sc2  1  0.008329  0.194542  0.801569  1
  Sc  Sc3  1  0.004505  0.804691  0.195793  1
  Sc  Sc4  1  0.362146  0.000212  0.276169  1
  Sc  Sc5  1  0.638263  0.000011  0.722361  1
  Sc  Sc6  1  0.631408  0.724481  0.999440  1
  Sc  Sc7  1  0.368852  0.275341  0.999540  1
  Mn  Mn8  1  0.596504  0.499792  0.806590  1
  Mn  Mn9  1  0.108933  0.500054  0.781523  1
  Mn  Mn10  1  0.598021  0.802171  0.501386  1
  Mn  Mn11  1  0.898369  0.500126  0.202910  1
  Mn  Mn12  1  0.392621  0.212703  0.500917  1
  Mn  Mn13  1  0.900654  0.198163  0.501534  1
  Mn  Mn14  1  0.107254  0.786555  0.500658  1
  Si  Si15  1  0.446366  0.592195  0.592922  1
  Si  Si16  1  0.630088  0.406080  0.415328  1
  Si  Si17  1  0.961792  0.407812  0.592439  1
  Si  Si18  1  0.954465  0.593827  0.415197  1
  Si  Si19  1  0.249753  0.999443  0.999057  1
  Si  Si20  1  0.751043  0.000405  0.999225  1
  Si  Si21  1  0.182350  0.289898  0.297099  1
  Si  Si22  1  0.775216  0.703702  0.704265  1
  Si  Si23  1  0.520936  0.710169  0.297183  1
  Si  Si24  1  0.519757  0.296326  0.704175  1
  Si  Si25  1  0.208966  0.999955  0.580437  1
  Si  Si26  1  0.791014  0.999998  0.420563  1
  Si  Si27  1  0.823012  0.415114  0.994167  1
  Si  Si28  1  0.182657  0.584990  0.994032  1
  Mo  Mo29  1  0.397113  0.500244  0.205707  1
