# generated using pymatgen
data_HfZr12Ta7Si16
_symmetry_space_group_name_H-M   'P 1'
_cell_length_a   6.99319037
_cell_length_b   6.98909240
_cell_length_c   12.85808181
_cell_angle_alpha   90.22351657
_cell_angle_beta   89.83462980
_cell_angle_gamma   89.95611094
_symmetry_Int_Tables_number   1
_chemical_formula_structural   HfZr12Ta7Si16
_chemical_formula_sum   'Hf1 Zr12 Ta7 Si16'
_cell_volume   628.44470690
_cell_formula_units_Z   1
loop_
 _symmetry_equiv_pos_site_id
 _symmetry_equiv_pos_as_xyz
  1  'x, y, z'
loop_
 _atom_site_type_symbol
 _atom_site_label
 _atom_site_symmetry_multiplicity
 _atom_site_fract_x
 _atom_site_fract_y
 _atom_site_fract_z
 _atom_site_occupancy
  Hf  Hf0  1  0.350989  0.505180  0.376255  1
  Zr  Zr1  1  0.650009  0.496203  0.876620  1
  Zr  Zr2  1  0.502937  0.352218  0.622242  1
  Zr  Zr3  1  0.499349  0.648371  0.125426  1
  Zr  Zr4  1  0.146828  0.999230  0.873869  1
  Zr  Zr5  1  0.000228  0.653839  0.035135  1
  Zr  Zr6  1  0.000632  0.345107  0.529514  1
  Zr  Zr7  1  0.655681  0.998935  0.968206  1
  Zr  Zr8  1  0.152020  0.499054  0.781337  1
  Zr  Zr9  1  0.846797  0.501501  0.281752  1
  Zr  Zr10  1  0.501703  0.154122  0.220182  1
  Zr  Zr11  1  0.500953  0.846762  0.715264  1
  Zr  Zr12  1  0.343255  0.001599  0.467905  1
  Ta  Ta13  1  0.853349  0.996260  0.374126  1
  Ta  Ta14  1  0.006709  0.147784  0.126177  1
  Ta  Ta15  1  0.993730  0.853393  0.624865  1
  Ta  Ta16  1  0.675252  0.676649  0.499403  1
  Ta  Ta17  1  0.828469  0.170787  0.748423  1
  Ta  Ta18  1  0.170114  0.831174  0.251473  1
  Ta  Ta19  1  0.325722  0.323387  0.001620  1
  Si  Si20  1  0.044925  0.704036  0.436555  1
  Si  Si21  1  0.954799  0.299103  0.937783  1
  Si  Si22  1  0.703096  0.045644  0.562044  1
  Si  Si23  1  0.199378  0.450034  0.186505  1
  Si  Si24  1  0.802203  0.549313  0.683842  1
  Si  Si25  1  0.452470  0.197849  0.814300  1
  Si  Si26  1  0.550803  0.802174  0.316024  1
  Si  Si27  1  0.299762  0.954642  0.066018  1
  Si  Si28  1  0.854329  0.797045  0.817456  1
  Si  Si29  1  0.137916  0.204968  0.322137  1
  Si  Si30  1  0.798715  0.863599  0.180003  1
  Si  Si31  1  0.289125  0.644851  0.572777  1
  Si  Si32  1  0.709433  0.352879  0.074351  1
  Si  Si33  1  0.643073  0.291737  0.424856  1
  Si  Si34  1  0.354043  0.700675  0.929435  1
  Si  Si35  1  0.201203  0.139891  0.676121  1
