# generated using pymatgen
data_Sm9Ho(Pb3Cl)2
_symmetry_space_group_name_H-M   'P 1'
_cell_length_a   9.39524400
_cell_length_b   9.39524265
_cell_length_c   6.73459100
_cell_angle_alpha   90.00000000
_cell_angle_beta   90.00000000
_cell_angle_gamma   119.99999770
_symmetry_Int_Tables_number   1
_chemical_formula_structural   Sm9Ho(Pb3Cl)2
_chemical_formula_sum   'Sm9 Ho1 Pb6 Cl2'
_cell_volume   514.82298933
_cell_formula_units_Z   1
loop_
 _symmetry_equiv_pos_site_id
 _symmetry_equiv_pos_as_xyz
  1  'x, y, z'
loop_
 _atom_site_type_symbol
 _atom_site_label
 _atom_site_symmetry_multiplicity
 _atom_site_fract_x
 _atom_site_fract_y
 _atom_site_fract_z
 _atom_site_occupancy
  Sm  Sm0  1  0.666667  0.333333  0.000000  1
  Sm  Sm1  1  0.666667  0.333333  0.500000  1
  Sm  Sm2  1  0.333333  0.666667  0.500000  1
  Sm  Sm3  1  0.259434  0.999582  0.249611  1
  Sm  Sm4  1  0.740147  0.999582  0.750389  1
  Sm  Sm5  1  0.000418  0.259853  0.249611  1
  Sm  Sm6  1  0.000418  0.740566  0.750389  1
  Sm  Sm7  1  0.740147  0.740566  0.249611  1
  Sm  Sm8  1  0.259434  0.259853  0.750389  1
  Ho  Ho9  1  0.333333  0.666667  0.000000  1
  Pb  Pb10  1  0.609686  0.998558  0.248922  1
  Pb  Pb11  1  0.388872  0.998558  0.751078  1
  Pb  Pb12  1  0.001442  0.611128  0.248922  1
  Pb  Pb13  1  0.001442  0.390314  0.751078  1
  Pb  Pb14  1  0.388872  0.390314  0.248922  1
  Pb  Pb15  1  0.609686  0.611128  0.751078  1
  Cl  Cl16  1  0.000000  0.000000  0.000000  1
  Cl  Cl17  1  0.000000  0.000000  0.500000  1
