# generated using pymatgen
data_Nd5Ho(BiO7)2
_symmetry_space_group_name_H-M   'P 1'
_cell_length_a   6.70977004
_cell_length_b   6.73092676
_cell_length_c   7.90605768
_cell_angle_alpha   106.88455219
_cell_angle_beta   89.83743608
_cell_angle_gamma   98.64391721
_symmetry_Int_Tables_number   1
_chemical_formula_structural   Nd5Ho(BiO7)2
_chemical_formula_sum   'Nd5 Ho1 Bi2 O14'
_cell_volume   337.47346690
_cell_formula_units_Z   1
loop_
 _symmetry_equiv_pos_site_id
 _symmetry_equiv_pos_as_xyz
  1  'x, y, z'
loop_
 _atom_site_type_symbol
 _atom_site_label
 _atom_site_symmetry_multiplicity
 _atom_site_fract_x
 _atom_site_fract_y
 _atom_site_fract_z
 _atom_site_occupancy
  Nd  Nd0  1  0.538807  0.995656  0.747087  1
  Nd  Nd1  1  0.268157  0.539786  0.884687  1
  Nd  Nd2  1  0.730072  0.463493  0.118848  1
  Nd  Nd3  1  0.738047  0.476931  0.612692  1
  Nd  Nd4  1  0.260753  0.520006  0.381981  1
  Ho  Ho5  1  0.461576  0.005041  0.253028  1
  Bi  Bi6  1  0.000356  0.000272  0.497958  1
  Bi  Bi7  1  0.999729  0.999990  0.002685  1
  O  O8  1  0.445473  0.656873  0.170902  1
  O  O9  1  0.557321  0.356710  0.834493  1
  O  O10  1  0.300852  0.930478  0.960877  1
  O  O11  1  0.700624  0.068681  0.053071  1
  O  O12  1  0.296967  0.929500  0.505818  1
  O  O13  1  0.704024  0.069242  0.479435  1
  O  O14  1  0.542123  0.352806  0.341637  1
  O  O15  1  0.450015  0.635543  0.652726  1
  O  O16  1  0.926128  0.671637  0.955201  1
  O  O17  1  0.073162  0.328412  0.045016  1
  O  O18  1  0.068983  0.338835  0.616538  1
  O  O19  1  0.926507  0.659374  0.385262  1
  O  O20  1  0.887206  0.913244  0.727613  1
  O  O21  1  0.123119  0.087487  0.272447  1
