# generated using pymatgen
data_Er2Tm3Os2
_symmetry_space_group_name_H-M   'P 1'
_cell_length_a   6.27873714
_cell_length_b   7.32255225
_cell_length_c   8.31566924
_cell_angle_alpha   97.01994234
_cell_angle_beta   112.18042488
_cell_angle_gamma   90.00000156
_symmetry_Int_Tables_number   1
_chemical_formula_structural   Er2Tm3Os2
_chemical_formula_sum   'Er4 Tm6 Os4'
_cell_volume   350.93521606
_cell_formula_units_Z   2
loop_
 _symmetry_equiv_pos_site_id
 _symmetry_equiv_pos_as_xyz
  1  'x, y, z'
loop_
 _atom_site_type_symbol
 _atom_site_label
 _atom_site_symmetry_multiplicity
 _atom_site_fract_x
 _atom_site_fract_y
 _atom_site_fract_z
 _atom_site_occupancy
  Er  Er0  1  0.792350  0.083784  0.816760  1
  Er  Er1  1  0.975590  0.416216  0.183240  1
  Er  Er2  1  0.207650  0.916216  0.183240  1
  Er  Er3  1  0.024410  0.583784  0.816760  1
  Tm  Tm4  1  0.203731  0.182958  0.564147  1
  Tm  Tm5  1  0.639585  0.317042  0.435853  1
  Tm  Tm6  1  0.796269  0.817042  0.435853  1
  Tm  Tm7  1  0.360415  0.682958  0.564147  1
  Tm  Tm8  1  0.420226  0.250000  0.000000  1
  Tm  Tm9  1  0.579774  0.750000  0.000000  1
  Os  Os10  1  0.602395  0.422189  0.780306  1
  Os  Os11  1  0.822088  0.077811  0.219694  1
  Os  Os12  1  0.397605  0.577811  0.219694  1
  Os  Os13  1  0.177912  0.922189  0.780306  1
