# generated using pymatgen
data_Hf18MnRe3Mo5P
_symmetry_space_group_name_H-M   'P 1'
_cell_length_a   8.62278700
_cell_length_b   8.62278760
_cell_length_c   8.56500100
_cell_angle_alpha   90.00000000
_cell_angle_beta   90.00000000
_cell_angle_gamma   120.00000153
_symmetry_Int_Tables_number   1
_chemical_formula_structural   Hf18MnRe3Mo5P
_chemical_formula_sum   'Hf18 Mn1 Re3 Mo5 P1'
_cell_volume   551.50999803
_cell_formula_units_Z   1
loop_
 _symmetry_equiv_pos_site_id
 _symmetry_equiv_pos_as_xyz
  1  'x, y, z'
loop_
 _atom_site_type_symbol
 _atom_site_label
 _atom_site_symmetry_multiplicity
 _atom_site_fract_x
 _atom_site_fract_y
 _atom_site_fract_z
 _atom_site_occupancy
  Hf  Hf0  1  0.201724  0.798276  0.440832  1
  Hf  Hf1  1  0.201724  0.403446  0.440832  1
  Hf  Hf2  1  0.596554  0.798276  0.440832  1
  Hf  Hf3  1  0.803314  0.196686  0.546534  1
  Hf  Hf4  1  0.803314  0.606629  0.546534  1
  Hf  Hf5  1  0.393371  0.196686  0.546534  1
  Hf  Hf6  1  0.803314  0.196686  0.953466  1
  Hf  Hf7  1  0.803314  0.606629  0.953466  1
  Hf  Hf8  1  0.393371  0.196686  0.953466  1
  Hf  Hf9  1  0.201724  0.798276  0.059168  1
  Hf  Hf10  1  0.201724  0.403446  0.059168  1
  Hf  Hf11  1  0.596554  0.798276  0.059168  1
  Hf  Hf12  1  0.540466  0.459534  0.250000  1
  Hf  Hf13  1  0.540466  0.080933  0.250000  1
  Hf  Hf14  1  0.919067  0.459534  0.250000  1
  Hf  Hf15  1  0.462985  0.537015  0.750000  1
  Hf  Hf16  1  0.462985  0.925970  0.750000  1
  Hf  Hf17  1  0.074030  0.537015  0.750000  1
  Mn  Mn18  1  0.333333  0.666667  0.250000  1
  Re  Re19  1  0.888431  0.111569  0.250000  1
  Re  Re20  1  0.888431  0.776859  0.250000  1
  Re  Re21  1  0.223141  0.111569  0.250000  1
  Mo  Mo22  1  0.111768  0.888232  0.750000  1
  Mo  Mo23  1  0.111768  0.223537  0.750000  1
  Mo  Mo24  1  0.776463  0.888232  0.750000  1
  Mo  Mo25  1  0.000000  0.000000  0.499946  1
  Mo  Mo26  1  0.000000  0.000000  0.000054  1
  P  P27  1  0.666667  0.333333  0.750000  1
