# generated using pymatgen
data_Tb7Tm(IrRh)4
_symmetry_space_group_name_H-M   'P 1'
_cell_length_a   6.91371001
_cell_length_b   4.85717900
_cell_length_c   9.72590500
_cell_angle_alpha   89.99996461
_cell_angle_beta   89.99759669
_cell_angle_gamma   89.99985845
_symmetry_Int_Tables_number   1
_chemical_formula_structural   Tb7Tm(IrRh)4
_chemical_formula_sum   'Tb7 Tm1 Ir4 Rh4'
_cell_volume   326.60685123
_cell_formula_units_Z   1
loop_
 _symmetry_equiv_pos_site_id
 _symmetry_equiv_pos_as_xyz
  1  'x, y, z'
loop_
 _atom_site_type_symbol
 _atom_site_label
 _atom_site_symmetry_multiplicity
 _atom_site_fract_x
 _atom_site_fract_y
 _atom_site_fract_z
 _atom_site_occupancy
  Tb  Tb0  1  0.999829  0.749998  0.123536  1
  Tb  Tb1  1  0.499868  0.749997  0.124623  1
  Tb  Tb2  1  0.999705  0.250003  0.374987  1
  Tb  Tb3  1  0.499813  0.250000  0.375001  1
  Tb  Tb4  1  0.500190  0.749997  0.625392  1
  Tb  Tb5  1  0.000169  0.749999  0.626483  1
  Tb  Tb6  1  0.500285  0.249994  0.875059  1
  Tm  Tm7  1  0.000019  0.249997  0.875089  1
  Ir  Ir8  1  0.751075  0.250001  0.123787  1
  Ir  Ir9  1  0.249928  0.749995  0.375066  1
  Ir  Ir10  1  0.751284  0.249996  0.626205  1
  Ir  Ir11  1  0.247654  0.749995  0.875015  1
  Rh  Rh12  1  0.249003  0.249991  0.124255  1
  Rh  Rh13  1  0.750216  0.750040  0.374983  1
  Rh  Rh14  1  0.249202  0.249998  0.625607  1
  Rh  Rh15  1  0.751759  0.749992  0.874912  1
