# generated using pymatgen
data_Ba3FePt2O9
_symmetry_space_group_name_H-M   'P 1'
_cell_length_a   5.80716200
_cell_length_b   5.80716303
_cell_length_c   14.63803700
_cell_angle_alpha   90.00000000
_cell_angle_beta   90.00000000
_cell_angle_gamma   119.99999416
_symmetry_Int_Tables_number   1
_chemical_formula_structural   Ba3FePt2O9
_chemical_formula_sum   'Ba6 Fe2 Pt4 O18'
_cell_volume   427.50525504
_cell_formula_units_Z   2
loop_
 _symmetry_equiv_pos_site_id
 _symmetry_equiv_pos_as_xyz
  1  'x, y, z'
loop_
 _atom_site_type_symbol
 _atom_site_label
 _atom_site_symmetry_multiplicity
 _atom_site_fract_x
 _atom_site_fract_y
 _atom_site_fract_z
 _atom_site_occupancy
  Ba  Ba0  1  0.333333  0.666667  0.083463  1
  Ba  Ba1  1  0.666667  0.333333  0.916537  1
  Ba  Ba2  1  0.666667  0.333333  0.583463  1
  Ba  Ba3  1  0.333333  0.666667  0.416537  1
  Ba  Ba4  1  0.000000  0.000000  0.250000  1
  Ba  Ba5  1  0.000000  0.000000  0.750000  1
  Fe  Fe6  1  0.000000  0.000000  0.000000  1
  Fe  Fe7  1  0.000000  0.000000  0.500000  1
  Pt  Pt8  1  0.333333  0.666667  0.655076  1
  Pt  Pt9  1  0.666667  0.333333  0.344924  1
  Pt  Pt10  1  0.666667  0.333333  0.155076  1
  Pt  Pt11  1  0.333333  0.666667  0.844924  1
  O  O12  1  0.165455  0.330911  0.579240  1
  O  O13  1  0.834545  0.669089  0.420760  1
  O  O14  1  0.669089  0.834545  0.579240  1
  O  O15  1  0.834545  0.669089  0.079240  1
  O  O16  1  0.330911  0.165455  0.420760  1
  O  O17  1  0.165455  0.330911  0.920760  1
  O  O18  1  0.165455  0.834545  0.579240  1
  O  O19  1  0.330911  0.165455  0.079240  1
  O  O20  1  0.834545  0.165455  0.420760  1
  O  O21  1  0.669089  0.834545  0.920760  1
  O  O22  1  0.834545  0.165455  0.079240  1
  O  O23  1  0.165455  0.834545  0.920760  1
  O  O24  1  0.516103  0.032204  0.250000  1
  O  O25  1  0.483897  0.967796  0.750000  1
  O  O26  1  0.967796  0.483897  0.250000  1
  O  O27  1  0.032204  0.516103  0.750000  1
  O  O28  1  0.516103  0.483897  0.250000  1
  O  O29  1  0.483897  0.516103  0.750000  1
