# generated using pymatgen
data_Er7TmTc3B24Rh
_symmetry_space_group_name_H-M   'P 1'
_cell_length_a   3.65395800
_cell_length_b   9.11322049
_cell_length_c   11.48949400
_cell_angle_alpha   90.12623294
_cell_angle_beta   90.00000000
_cell_angle_gamma   90.00000000
_symmetry_Int_Tables_number   1
_chemical_formula_structural   Er7TmTc3B24Rh
_chemical_formula_sum   'Er7 Tm1 Tc3 B24 Rh1'
_cell_volume   382.59146540
_cell_formula_units_Z   1
loop_
 _symmetry_equiv_pos_site_id
 _symmetry_equiv_pos_as_xyz
  1  'x, y, z'
loop_
 _atom_site_type_symbol
 _atom_site_label
 _atom_site_symmetry_multiplicity
 _atom_site_fract_x
 _atom_site_fract_y
 _atom_site_fract_z
 _atom_site_occupancy
  Er  Er0  1  0.500000  0.318128  0.415806  1
  Er  Er1  1  0.500000  0.678290  0.591007  1
  Er  Er2  1  0.500000  0.177311  0.912834  1
  Er  Er3  1  0.500000  0.827154  0.081190  1
  Er  Er4  1  0.500000  0.440644  0.129014  1
  Er  Er5  1  0.500000  0.557023  0.871007  1
  Er  Er6  1  0.500000  0.056123  0.629536  1
  Tm  Tm7  1  0.500000  0.943828  0.369742  1
  Tc  Tc8  1  0.500000  0.138290  0.180434  1
  Tc  Tc9  1  0.500000  0.861591  0.820694  1
  Tc  Tc10  1  0.500000  0.362505  0.677793  1
  B  B11  1  0.000000  0.101160  0.471276  1
  B  B12  1  0.000000  0.895598  0.527838  1
  B  B13  1  0.000000  0.397335  0.972014  1
  B  B14  1  0.000000  0.603784  0.029199  1
  B  B15  1  0.000000  0.130560  0.315446  1
  B  B16  1  0.000000  0.868553  0.685091  1
  B  B17  1  0.000000  0.369398  0.814566  1
  B  B18  1  0.000000  0.631660  0.183776  1
  B  B19  1  0.000000  0.053646  0.066346  1
  B  B20  1  0.000000  0.947303  0.932793  1
  B  B21  1  0.000000  0.446449  0.566334  1
  B  B22  1  0.000000  0.554016  0.434019  1
  B  B23  1  0.000000  0.482711  0.288065  1
  B  B24  1  0.000000  0.518334  0.712234  1
  B  B25  1  0.000000  0.017890  0.787231  1
  B  B26  1  0.000000  0.982324  0.211944  1
  B  B27  1  0.000000  0.249363  0.081028  1
  B  B28  1  0.000000  0.751536  0.919102  1
  B  B29  1  0.000000  0.250099  0.580764  1
  B  B30  1  0.000000  0.749418  0.420448  1
  B  B31  1  0.000000  0.291965  0.235759  1
  B  B32  1  0.000000  0.708036  0.765401  1
  B  B33  1  0.000000  0.208246  0.734633  1
  B  B34  1  0.000000  0.791533  0.264605  1
  Rh  Rh35  1  0.500000  0.638197  0.321029  1
