# generated using pymatgen
data_InBi5(RuO6)3
_symmetry_space_group_name_H-M   'P 1'
_cell_length_a   9.20597200
_cell_length_b   9.21025375
_cell_length_c   5.25476100
_cell_angle_alpha   90.28326219
_cell_angle_beta   90.00000000
_cell_angle_gamma   119.98461559
_symmetry_Int_Tables_number   1
_chemical_formula_structural   InBi5(RuO6)3
_chemical_formula_sum   'In1 Bi5 Ru3 O18'
_cell_volume   385.90914944
_cell_formula_units_Z   1
loop_
 _symmetry_equiv_pos_site_id
 _symmetry_equiv_pos_as_xyz
  1  'x, y, z'
loop_
 _atom_site_type_symbol
 _atom_site_label
 _atom_site_symmetry_multiplicity
 _atom_site_fract_x
 _atom_site_fract_y
 _atom_site_fract_z
 _atom_site_occupancy
  In  In0  1  0.626517  0.000000  0.000000  1
  Bi  Bi1  1  0.998344  0.623045  0.995953  1
  Bi  Bi2  1  0.997353  0.285044  0.502215  1
  Bi  Bi3  1  0.375297  0.376955  0.004047  1
  Bi  Bi4  1  0.292424  0.000000  0.500000  1
  Bi  Bi5  1  0.712309  0.714956  0.497785  1
  Ru  Ru6  1  0.336685  0.670071  0.498438  1
  Ru  Ru7  1  0.998707  0.000000  0.000000  1
  Ru  Ru8  1  0.666615  0.329929  0.501562  1
  O  O9  1  0.073474  0.876486  0.783508  1
  O  O10  1  0.227350  0.763192  0.288087  1
  O  O11  1  0.136692  0.542317  0.708858  1
  O  O12  1  0.416144  0.872349  0.720802  1
  O  O13  1  0.236491  0.465707  0.283990  1
  O  O14  1  0.121343  0.196849  0.785307  1
  O  O15  1  0.196990  0.123514  0.216492  1
  O  O16  1  0.535970  0.778391  0.275378  1
  O  O17  1  0.461524  0.594136  0.701044  1
  O  O18  1  0.793074  0.918958  0.795967  1
  O  O19  1  0.464158  0.236808  0.711913  1
  O  O20  1  0.594376  0.457683  0.291142  1
  O  O21  1  0.543795  0.127651  0.279198  1
  O  O22  1  0.770785  0.534293  0.716010  1
  O  O23  1  0.924496  0.803151  0.214693  1
  O  O24  1  0.757580  0.221609  0.724622  1
  O  O25  1  0.867388  0.405864  0.298956  1
  O  O26  1  0.874117  0.081042  0.204033  1
