# generated using pymatgen
data_Dy20IrPt7Rh4
_symmetry_space_group_name_H-M   'P 1'
_cell_length_a   11.04929743
_cell_length_b   11.04929725
_cell_length_c   6.34034302
_cell_angle_alpha   90.00097458
_cell_angle_beta   90.00097639
_cell_angle_gamma   90.12687282
_symmetry_Int_Tables_number   1
_chemical_formula_structural   Dy20IrPt7Rh4
_chemical_formula_sum   'Dy20 Ir1 Pt7 Rh4'
_cell_volume   774.07138067
_cell_formula_units_Z   1
loop_
 _symmetry_equiv_pos_site_id
 _symmetry_equiv_pos_as_xyz
  1  'x, y, z'
loop_
 _atom_site_type_symbol
 _atom_site_label
 _atom_site_symmetry_multiplicity
 _atom_site_fract_x
 _atom_site_fract_y
 _atom_site_fract_z
 _atom_site_occupancy
  Dy  Dy0  1  0.293861  0.088068  0.376604  1
  Dy  Dy1  1  0.294044  0.907827  0.876452  1
  Dy  Dy2  1  0.706178  0.088369  0.876576  1
  Dy  Dy3  1  0.705992  0.911051  0.375877  1
  Dy  Dy4  1  0.585626  0.792163  0.875599  1
  Dy  Dy5  1  0.588780  0.206642  0.377265  1
  Dy  Dy6  1  0.409660  0.791224  0.380722  1
  Dy  Dy7  1  0.411224  0.205394  0.877110  1
  Dy  Dy8  1  0.207837  0.414374  0.624401  1
  Dy  Dy9  1  0.208776  0.590340  0.119278  1
  Dy  Dy10  1  0.793358  0.411220  0.122735  1
  Dy  Dy11  1  0.794606  0.588776  0.622890  1
  Dy  Dy12  1  0.911932  0.706139  0.123396  1
  Dy  Dy13  1  0.911631  0.293822  0.623424  1
  Dy  Dy14  1  0.092173  0.705956  0.623548  1
  Dy  Dy15  1  0.088949  0.294008  0.124123  1
  Dy  Dy16  1  0.999680  0.999892  0.500241  1
  Dy  Dy17  1  0.000108  0.000320  0.999759  1
  Dy  Dy18  1  0.498412  0.501099  0.999704  1
  Dy  Dy19  1  0.498901  0.501588  0.500296  1
  Ir  Ir20  1  0.345890  0.654110  0.750000  1
  Pt  Pt21  1  0.845477  0.154523  0.250000  1
  Pt  Pt22  1  0.844976  0.845684  0.750470  1
  Pt  Pt23  1  0.154316  0.155024  0.749530  1
  Pt  Pt24  1  0.153746  0.846254  0.250000  1
  Pt  Pt25  1  0.654158  0.345842  0.750000  1
  Pt  Pt26  1  0.655329  0.654953  0.250063  1
  Pt  Pt27  1  0.345047  0.344671  0.249937  1
  Rh  Rh28  1  0.500324  0.000540  0.123904  1
  Rh  Rh29  1  0.500130  0.000576  0.622921  1
  Rh  Rh30  1  0.999424  0.499870  0.877079  1
  Rh  Rh31  1  0.999460  0.499676  0.376096  1
