# generated using pymatgen
data_SmSb5O13
_symmetry_space_group_name_H-M   'P 1'
_cell_length_a   7.44956000
_cell_length_b   7.38864201
_cell_length_c   10.32482069
_cell_angle_alpha   88.93421582
_cell_angle_beta   90.00000000
_cell_angle_gamma   90.00000000
_symmetry_Int_Tables_number   1
_chemical_formula_structural   SmSb5O13
_chemical_formula_sum   'Sm2 Sb10 O26'
_cell_volume   568.20182564
_cell_formula_units_Z   2
loop_
 _symmetry_equiv_pos_site_id
 _symmetry_equiv_pos_as_xyz
  1  'x, y, z'
loop_
 _atom_site_type_symbol
 _atom_site_label
 _atom_site_symmetry_multiplicity
 _atom_site_fract_x
 _atom_site_fract_y
 _atom_site_fract_z
 _atom_site_occupancy
  Sm  Sm0  1  0.500000  0.500000  0.000000  1
  Sm  Sm1  1  0.000000  0.500000  0.000000  1
  Sb  Sb2  1  0.250000  0.731270  0.726599  1
  Sb  Sb3  1  0.750000  0.268730  0.273401  1
  Sb  Sb4  1  0.500000  0.000000  0.000000  1
  Sb  Sb5  1  0.750000  0.758466  0.748210  1
  Sb  Sb6  1  0.250000  0.749877  0.253548  1
  Sb  Sb7  1  0.500000  0.500000  0.500000  1
  Sb  Sb8  1  0.000000  0.500000  0.500000  1
  Sb  Sb9  1  0.750000  0.250123  0.746452  1
  Sb  Sb10  1  0.250000  0.241534  0.251790  1
  Sb  Sb11  1  0.000000  0.000000  0.000000  1
  O  O12  1  0.447738  0.690235  0.372929  1
  O  O13  1  0.750000  0.453517  0.134139  1
  O  O14  1  0.250000  0.494137  0.163895  1
  O  O15  1  0.454380  0.309104  0.366213  1
  O  O16  1  0.558270  0.212584  0.883610  1
  O  O17  1  0.941730  0.212584  0.883610  1
  O  O18  1  0.447304  0.205050  0.121361  1
  O  O19  1  0.750000  0.000147  0.072488  1
  O  O20  1  0.250000  0.999853  0.927512  1
  O  O21  1  0.750000  0.003315  0.681780  1
  O  O22  1  0.552696  0.794950  0.878639  1
  O  O23  1  0.947304  0.794950  0.878639  1
  O  O24  1  0.441730  0.787416  0.116390  1
  O  O25  1  0.052262  0.690235  0.372929  1
  O  O26  1  0.545620  0.690896  0.633787  1
  O  O27  1  0.954380  0.690896  0.633787  1
  O  O28  1  0.250000  0.518703  0.580056  1
  O  O29  1  0.750000  0.505863  0.836105  1
  O  O30  1  0.750000  0.481297  0.419944  1
  O  O31  1  0.045620  0.309104  0.366213  1
  O  O32  1  0.552262  0.309765  0.627071  1
  O  O33  1  0.947738  0.309765  0.627071  1
  O  O34  1  0.052696  0.205050  0.121361  1
  O  O35  1  0.250000  0.996685  0.318220  1
  O  O36  1  0.058270  0.787416  0.116390  1
  O  O37  1  0.250000  0.546483  0.865861  1
