# generated using pymatgen
data_Ho3ThAl14(Ga2Ir3)2
_symmetry_space_group_name_H-M   'P 1'
_cell_length_a   7.54847356
_cell_length_b   7.56018839
_cell_length_c   9.54039400
_cell_angle_alpha   90.00000000
_cell_angle_beta   90.00000000
_cell_angle_gamma   119.49128438
_symmetry_Int_Tables_number   1
_chemical_formula_structural   Ho3ThAl14(Ga2Ir3)2
_chemical_formula_sum   'Ho3 Th1 Al14 Ga4 Ir6'
_cell_volume   473.90600597
_cell_formula_units_Z   1
loop_
 _symmetry_equiv_pos_site_id
 _symmetry_equiv_pos_as_xyz
  1  'x, y, z'
loop_
 _atom_site_type_symbol
 _atom_site_label
 _atom_site_symmetry_multiplicity
 _atom_site_fract_x
 _atom_site_fract_y
 _atom_site_fract_z
 _atom_site_occupancy
  Ho  Ho0  1  0.001750  0.325328  0.750000  1
  Ho  Ho1  1  0.672000  0.994934  0.250000  1
  Ho  Ho2  1  0.325004  0.003050  0.750000  1
  Th  Th3  1  0.994633  0.671057  0.250000  1
  Al  Al4  1  0.003153  0.331476  0.070035  1
  Al  Al5  1  0.999645  0.664004  0.919375  1
  Al  Al6  1  0.999645  0.664004  0.580625  1
  Al  Al7  1  0.340258  0.006514  0.430080  1
  Al  Al8  1  0.003153  0.331476  0.429965  1
  Al  Al9  1  0.664245  0.000626  0.575793  1
  Al  Al10  1  0.664245  0.000626  0.924207  1
  Al  Al11  1  0.340258  0.006514  0.069920  1
  Al  Al12  1  0.332559  0.332712  0.563952  1
  Al  Al13  1  0.662604  0.665936  0.456779  1
  Al  Al14  1  0.662604  0.665936  0.043221  1
  Al  Al15  1  0.332559  0.332712  0.936048  1
  Al  Al16  1  0.661097  0.448340  0.750000  1
  Al  Al17  1  0.448822  0.663828  0.750000  1
  Ga  Ga18  1  0.132019  0.135526  0.250000  1
  Ga  Ga19  1  0.865832  0.868302  0.750000  1
  Ga  Ga20  1  0.347290  0.549749  0.250000  1
  Ga  Ga21  1  0.542474  0.335135  0.250000  1
  Ir  Ir22  1  0.673831  0.330540  0.998358  1
  Ir  Ir23  1  0.327475  0.671985  0.998338  1
  Ir  Ir24  1  0.327475  0.671985  0.501662  1
  Ir  Ir25  1  0.673831  0.330540  0.501642  1
  Ir  Ir26  1  0.000770  0.998583  0.000692  1
  Ir  Ir27  1  0.000770  0.998583  0.499308  1
