# generated using pymatgen
data_Dy20Ir7Ru2Rh3
_symmetry_space_group_name_H-M   'P 1'
_cell_length_a   10.84557243
_cell_length_b   10.84500389
_cell_length_c   6.43764502
_cell_angle_alpha   89.99742232
_cell_angle_beta   90.03296114
_cell_angle_gamma   89.75168835
_symmetry_Int_Tables_number   1
_chemical_formula_structural   Dy20Ir7Ru2Rh3
_chemical_formula_sum   'Dy20 Ir7 Ru2 Rh3'
_cell_volume   757.19034257
_cell_formula_units_Z   1
loop_
 _symmetry_equiv_pos_site_id
 _symmetry_equiv_pos_as_xyz
  1  'x, y, z'
loop_
 _atom_site_type_symbol
 _atom_site_label
 _atom_site_symmetry_multiplicity
 _atom_site_fract_x
 _atom_site_fract_y
 _atom_site_fract_z
 _atom_site_occupancy
  Dy  Dy0  1  0.289665  0.089336  0.380170  1
  Dy  Dy1  1  0.290605  0.910487  0.879404  1
  Dy  Dy2  1  0.709354  0.088845  0.879203  1
  Dy  Dy3  1  0.709148  0.907954  0.380884  1
  Dy  Dy4  1  0.589897  0.789612  0.880281  1
  Dy  Dy5  1  0.587212  0.210153  0.380215  1
  Dy  Dy6  1  0.409937  0.790235  0.380462  1
  Dy  Dy7  1  0.410198  0.210120  0.879670  1
  Dy  Dy8  1  0.206834  0.413609  0.618472  1
  Dy  Dy9  1  0.206076  0.586985  0.119029  1
  Dy  Dy10  1  0.793572  0.415902  0.119202  1
  Dy  Dy11  1  0.793602  0.586826  0.618998  1
  Dy  Dy12  1  0.913817  0.706729  0.118126  1
  Dy  Dy13  1  0.914695  0.294479  0.620680  1
  Dy  Dy14  1  0.086134  0.705599  0.618925  1
  Dy  Dy15  1  0.088509  0.294472  0.117984  1
  Dy  Dy16  1  0.999991  0.999808  0.503628  1
  Dy  Dy17  1  0.000412  0.000076  0.004005  1
  Dy  Dy18  1  0.499820  0.499969  0.004241  1
  Dy  Dy19  1  0.500041  0.500329  0.504747  1
  Ir  Ir20  1  0.845223  0.849911  0.750188  1
  Ir  Ir21  1  0.153433  0.151645  0.750226  1
  Ir  Ir22  1  0.155095  0.848370  0.250762  1
  Ir  Ir23  1  0.652222  0.344116  0.750652  1
  Ir  Ir24  1  0.651793  0.654104  0.250468  1
  Ir  Ir25  1  0.349086  0.345071  0.250204  1
  Ir  Ir26  1  0.348063  0.654804  0.750730  1
  Ru  Ru27  1  0.999738  0.499274  0.872896  1
  Ru  Ru28  1  0.999674  0.499258  0.372215  1
  Rh  Rh29  1  0.844625  0.151317  0.249815  1
  Rh  Rh30  1  0.500892  0.000347  0.122460  1
  Rh  Rh31  1  0.500636  0.000260  0.621059  1
