# generated using pymatgen
data_Ac3(Si2Hg)2
_symmetry_space_group_name_H-M   'P 1'
_cell_length_a   4.63787131
_cell_length_b   4.37146054
_cell_length_c   23.23740552
_cell_angle_alpha   84.60272491
_cell_angle_beta   95.72726498
_cell_angle_gamma   90.00000246
_symmetry_Int_Tables_number   1
_chemical_formula_structural   Ac3(Si2Hg)2
_chemical_formula_sum   'Ac6 Si8 Hg4'
_cell_volume   466.67044815
_cell_formula_units_Z   2
loop_
 _symmetry_equiv_pos_site_id
 _symmetry_equiv_pos_as_xyz
  1  'x, y, z'
loop_
 _atom_site_type_symbol
 _atom_site_label
 _atom_site_symmetry_multiplicity
 _atom_site_fract_x
 _atom_site_fract_y
 _atom_site_fract_z
 _atom_site_occupancy
  Ac  Ac0  1  0.375417  0.874583  0.250834  1
  Ac  Ac1  1  0.038579  0.211421  0.577156  1
  Ac  Ac2  1  0.700365  0.549635  0.900732  1
  Ac  Ac3  1  0.297900  0.452100  0.095800  1
  Ac  Ac4  1  0.961511  0.788489  0.423022  1
  Ac  Ac5  1  0.624658  0.125342  0.749316  1
  Si  Si6  1  0.435237  0.314763  0.370473  1
  Si  Si7  1  0.098326  0.651674  0.696652  1
  Si  Si8  1  0.847821  0.402179  0.195643  1
  Si  Si9  1  0.511545  0.738455  0.523089  1
  Si  Si10  1  0.174682  0.075318  0.849362  1
  Si  Si11  1  0.824366  0.925634  0.148733  1
  Si  Si12  1  0.487180  0.262820  0.474359  1
  Si  Si13  1  0.150088  0.599912  0.800174  1
  Hg  Hg14  1  0.905240  0.344760  0.310480  1
  Hg  Hg15  1  0.568799  0.681201  0.637596  1
  Hg  Hg16  1  0.232285  0.017715  0.964570  1
  Hg  Hg17  1  0.766004  0.983996  0.032007  1
