# generated using pymatgen
data_BaMg(TaSe2)8
_symmetry_space_group_name_H-M   'P 1'
_cell_length_a   7.04656902
_cell_length_b   7.04657339
_cell_length_c   14.98776900
_cell_angle_alpha   89.98485192
_cell_angle_beta   90.00392728
_cell_angle_gamma   120.00353429
_symmetry_Int_Tables_number   1
_chemical_formula_structural   BaMg(TaSe2)8
_chemical_formula_sum   'Ba1 Mg1 Ta8 Se16'
_cell_volume   644.47760006
_cell_formula_units_Z   1
loop_
 _symmetry_equiv_pos_site_id
 _symmetry_equiv_pos_as_xyz
  1  'x, y, z'
loop_
 _atom_site_type_symbol
 _atom_site_label
 _atom_site_symmetry_multiplicity
 _atom_site_fract_x
 _atom_site_fract_y
 _atom_site_fract_z
 _atom_site_occupancy
  Ba  Ba0  1  0.000000  0.000000  0.500000  1
  Mg  Mg1  1  0.000000  0.000000  0.000000  1
  Ta  Ta2  1  0.509170  0.490956  0.778526  1
  Ta  Ta3  1  0.018316  0.509050  0.221471  1
  Ta  Ta4  1  0.490794  0.981498  0.221460  1
  Ta  Ta5  1  0.509206  0.018502  0.778540  1
  Ta  Ta6  1  0.981684  0.490950  0.778529  1
  Ta  Ta7  1  0.490830  0.509044  0.221474  1
  Ta  Ta8  1  0.000027  0.000162  0.777019  1
  Ta  Ta9  1  0.999973  0.999838  0.222981  1
  Se  Se10  1  0.830374  0.169294  0.330577  1
  Se  Se11  1  0.830420  0.660676  0.330610  1
  Se  Se12  1  0.339078  0.169296  0.330584  1
  Se  Se13  1  0.661166  0.830625  0.886709  1
  Se  Se14  1  0.169580  0.339324  0.669390  1
  Se  Se15  1  0.169408  0.830630  0.886711  1
  Se  Se16  1  0.169416  0.338875  0.886706  1
  Se  Se17  1  0.830592  0.169370  0.113289  1
  Se  Se18  1  0.338834  0.169375  0.113291  1
  Se  Se19  1  0.660922  0.830704  0.669416  1
  Se  Se20  1  0.333335  0.666622  0.106627  1
  Se  Se21  1  0.666708  0.333564  0.662264  1
  Se  Se22  1  0.666665  0.333378  0.893373  1
  Se  Se23  1  0.333292  0.666436  0.337736  1
  Se  Se24  1  0.830584  0.661125  0.113294  1
  Se  Se25  1  0.169626  0.830706  0.669423  1
