# generated using pymatgen
data_La10Bi6PCl
_symmetry_space_group_name_H-M   'P 1'
_cell_length_a   9.75205800
_cell_length_b   9.75205803
_cell_length_c   6.90183700
_cell_angle_alpha   90.00000000
_cell_angle_beta   90.00000000
_cell_angle_gamma   119.99999990
_symmetry_Int_Tables_number   1
_chemical_formula_structural   La10Bi6PCl
_chemical_formula_sum   'La10 Bi6 P1 Cl1'
_cell_volume   568.44425667
_cell_formula_units_Z   1
loop_
 _symmetry_equiv_pos_site_id
 _symmetry_equiv_pos_as_xyz
  1  'x, y, z'
loop_
 _atom_site_type_symbol
 _atom_site_label
 _atom_site_symmetry_multiplicity
 _atom_site_fract_x
 _atom_site_fract_y
 _atom_site_fract_z
 _atom_site_occupancy
  La  La0  1  0.250814  0.000000  0.735263  1
  La  La1  1  0.749186  0.000000  0.264737  1
  La  La2  1  0.000000  0.250814  0.735263  1
  La  La3  1  0.000000  0.749186  0.264737  1
  La  La4  1  0.749186  0.749186  0.735263  1
  La  La5  1  0.250814  0.250814  0.264737  1
  La  La6  1  0.333333  0.666667  0.500000  1
  La  La7  1  0.666667  0.333333  0.500000  1
  La  La8  1  0.666667  0.333333  0.000000  1
  La  La9  1  0.333333  0.666667  0.000000  1
  Bi  Bi10  1  0.609424  0.000000  0.750931  1
  Bi  Bi11  1  0.390576  0.000000  0.249069  1
  Bi  Bi12  1  0.000000  0.609424  0.750931  1
  Bi  Bi13  1  0.000000  0.390576  0.249069  1
  Bi  Bi14  1  0.390576  0.390576  0.750931  1
  Bi  Bi15  1  0.609424  0.609424  0.249069  1
  P  P16  1  0.000000  0.000000  0.500000  1
  Cl  Cl17  1  0.000000  0.000000  0.000000  1
