# generated using pymatgen
data_Cs2LaI5
_symmetry_space_group_name_H-M   'P 1'
_cell_length_a   9.88561000
_cell_length_b   10.33474700
_cell_length_c   15.88757300
_cell_angle_alpha   90.00000000
_cell_angle_beta   90.00000000
_cell_angle_gamma   90.00000000
_symmetry_Int_Tables_number   1
_chemical_formula_structural   Cs2LaI5
_chemical_formula_sum   'Cs8 La4 I20'
_cell_volume   1623.15831691
_cell_formula_units_Z   4
loop_
 _symmetry_equiv_pos_site_id
 _symmetry_equiv_pos_as_xyz
  1  'x, y, z'
loop_
 _atom_site_type_symbol
 _atom_site_label
 _atom_site_symmetry_multiplicity
 _atom_site_fract_x
 _atom_site_fract_y
 _atom_site_fract_z
 _atom_site_occupancy
  Cs  Cs0  1  0.945284  0.005276  0.827739  1
  Cs  Cs1  1  0.054716  0.994724  0.172261  1
  Cs  Cs2  1  0.445284  0.994724  0.672261  1
  Cs  Cs3  1  0.054716  0.505276  0.172261  1
  Cs  Cs4  1  0.554716  0.005276  0.327739  1
  Cs  Cs5  1  0.945284  0.494724  0.827739  1
  Cs  Cs6  1  0.554716  0.494724  0.327739  1
  Cs  Cs7  1  0.445284  0.505276  0.672261  1
  La  La8  1  0.931067  0.750000  0.503048  1
  La  La9  1  0.068933  0.250000  0.496952  1
  La  La10  1  0.431067  0.250000  0.996952  1
  La  La11  1  0.568933  0.750000  0.003048  1
  I  I12  1  0.115540  0.750000  0.670238  1
  I  I13  1  0.884460  0.250000  0.329762  1
  I  I14  1  0.615540  0.250000  0.829762  1
  I  I15  1  0.384460  0.750000  0.170238  1
  I  I16  1  0.841735  0.042416  0.571121  1
  I  I17  1  0.158265  0.957584  0.428879  1
  I  I18  1  0.341735  0.957584  0.928879  1
  I  I19  1  0.158265  0.542416  0.428879  1
  I  I20  1  0.658265  0.042416  0.071121  1
  I  I21  1  0.841735  0.457584  0.571121  1
  I  I22  1  0.658265  0.457584  0.071121  1
  I  I23  1  0.341735  0.542416  0.928879  1
  I  I24  1  0.600266  0.750000  0.512082  1
  I  I25  1  0.399734  0.250000  0.487918  1
  I  I26  1  0.100266  0.250000  0.987918  1
  I  I27  1  0.899734  0.750000  0.012082  1
  I  I28  1  0.652357  0.750000  0.807106  1
  I  I29  1  0.347643  0.250000  0.192894  1
  I  I30  1  0.152357  0.250000  0.692894  1
  I  I31  1  0.847643  0.750000  0.307106  1
