# generated using pymatgen
data_Pr15Th(CdRu)4
_symmetry_space_group_name_H-M   'P 1'
_cell_length_a   10.04508659
_cell_length_b   10.04508685
_cell_length_c   10.04508746
_cell_angle_alpha   59.30547384
_cell_angle_beta   59.30547017
_cell_angle_gamma   59.30548269
_symmetry_Int_Tables_number   1
_chemical_formula_structural   Pr15Th(CdRu)4
_chemical_formula_sum   'Pr15 Th1 Cd4 Ru4'
_cell_volume   705.38033631
_cell_formula_units_Z   1
loop_
 _symmetry_equiv_pos_site_id
 _symmetry_equiv_pos_as_xyz
  1  'x, y, z'
loop_
 _atom_site_type_symbol
 _atom_site_label
 _atom_site_symmetry_multiplicity
 _atom_site_fract_x
 _atom_site_fract_y
 _atom_site_fract_z
 _atom_site_occupancy
  Pr  Pr0  1  0.346680  0.346680  0.958221  1
  Pr  Pr1  1  0.346680  0.958221  0.346680  1
  Pr  Pr2  1  0.958221  0.346680  0.346680  1
  Pr  Pr3  1  0.810536  0.190282  0.190282  1
  Pr  Pr4  1  0.190890  0.809842  0.809842  1
  Pr  Pr5  1  0.190282  0.810536  0.190282  1
  Pr  Pr6  1  0.809842  0.190890  0.809842  1
  Pr  Pr7  1  0.190282  0.190282  0.810536  1
  Pr  Pr8  1  0.809842  0.809842  0.190890  1
  Pr  Pr9  1  0.941109  0.560688  0.560688  1
  Pr  Pr10  1  0.560249  0.939624  0.939624  1
  Pr  Pr11  1  0.560688  0.941109  0.560688  1
  Pr  Pr12  1  0.939624  0.560249  0.939624  1
  Pr  Pr13  1  0.560688  0.560688  0.941109  1
  Pr  Pr14  1  0.939624  0.939624  0.560249  1
  Th  Th15  1  0.341062  0.341062  0.341062  1
  Cd  Cd16  1  0.579423  0.579423  0.579423  1
  Cd  Cd17  1  0.577988  0.577988  0.261176  1
  Cd  Cd18  1  0.577988  0.261176  0.577988  1
  Cd  Cd19  1  0.261176  0.577988  0.577988  1
  Ru  Ru20  1  0.138278  0.138278  0.138278  1
  Ru  Ru21  1  0.146337  0.146337  0.576172  1
  Ru  Ru22  1  0.146337  0.576172  0.146337  1
  Ru  Ru23  1  0.576172  0.146337  0.146337  1
