# generated using pymatgen
data_Dy2Ho2OsRuC4
_symmetry_space_group_name_H-M   'P 1'
_cell_length_a   5.11754200
_cell_length_b   6.43704270
_cell_length_c   9.76758530
_cell_angle_alpha   89.80848913
_cell_angle_beta   90.00000000
_cell_angle_gamma   90.00000000
_symmetry_Int_Tables_number   1
_chemical_formula_structural   Dy2Ho2OsRuC4
_chemical_formula_sum   'Dy4 Ho4 Os2 Ru2 C8'
_cell_volume   321.76039959
_cell_formula_units_Z   2
loop_
 _symmetry_equiv_pos_site_id
 _symmetry_equiv_pos_as_xyz
  1  'x, y, z'
loop_
 _atom_site_type_symbol
 _atom_site_label
 _atom_site_symmetry_multiplicity
 _atom_site_fract_x
 _atom_site_fract_y
 _atom_site_fract_z
 _atom_site_occupancy
  Dy  Dy0  1  0.250000  0.526081  0.217023  1
  Dy  Dy1  1  0.750000  0.473919  0.782977  1
  Dy  Dy2  1  0.750000  0.974853  0.719332  1
  Dy  Dy3  1  0.250000  0.025147  0.280668  1
  Ho  Ho4  1  0.250000  0.683497  0.553222  1
  Ho  Ho5  1  0.750000  0.316503  0.446778  1
  Ho  Ho6  1  0.750000  0.820867  0.053426  1
  Ho  Ho7  1  0.250000  0.179133  0.946574  1
  Os  Os8  1  0.750000  0.776521  0.365807  1
  Os  Os9  1  0.250000  0.223479  0.634193  1
  Ru  Ru10  1  0.250000  0.722276  0.866030  1
  Ru  Ru11  1  0.750000  0.277724  0.133970  1
  C  C12  1  0.250000  0.458235  0.755896  1
  C  C13  1  0.750000  0.541765  0.244104  1
  C  C14  1  0.750000  0.040496  0.259074  1
  C  C15  1  0.250000  0.959504  0.740926  1
  C  C16  1  0.250000  0.827254  0.054046  1
  C  C17  1  0.750000  0.172746  0.945954  1
  C  C18  1  0.750000  0.674930  0.553839  1
  C  C19  1  0.250000  0.325070  0.446161  1
