# generated using pymatgen
data_Dy6Th2MgCdRu2
_symmetry_space_group_name_H-M   'P 1'
_cell_length_a   9.73409674
_cell_length_b   9.73409690
_cell_length_c   9.72525600
_cell_angle_alpha   60.03003301
_cell_angle_beta   60.03003247
_cell_angle_gamma   60.13203630
_symmetry_Int_Tables_number   1
_chemical_formula_structural   Dy6Th2MgCdRu2
_chemical_formula_sum   'Dy12 Th4 Mg2 Cd2 Ru4'
_cell_volume   652.53866762
_cell_formula_units_Z   2
loop_
 _symmetry_equiv_pos_site_id
 _symmetry_equiv_pos_as_xyz
  1  'x, y, z'
loop_
 _atom_site_type_symbol
 _atom_site_label
 _atom_site_symmetry_multiplicity
 _atom_site_fract_x
 _atom_site_fract_y
 _atom_site_fract_z
 _atom_site_occupancy
  Dy  Dy0  1  0.812347  0.187017  0.187887  1
  Dy  Dy1  1  0.187017  0.812347  0.812750  1
  Dy  Dy2  1  0.187017  0.812347  0.187887  1
  Dy  Dy3  1  0.812347  0.187017  0.812750  1
  Dy  Dy4  1  0.186923  0.186923  0.813077  1
  Dy  Dy5  1  0.811401  0.811401  0.188599  1
  Dy  Dy6  1  0.934154  0.563523  0.564509  1
  Dy  Dy7  1  0.563523  0.934154  0.937814  1
  Dy  Dy8  1  0.563523  0.934154  0.564509  1
  Dy  Dy9  1  0.934154  0.563523  0.937814  1
  Dy  Dy10  1  0.564491  0.564491  0.935509  1
  Dy  Dy11  1  0.936203  0.936203  0.563797  1
  Th  Th12  1  0.346389  0.346389  0.346210  1
  Th  Th13  1  0.346389  0.346389  0.961012  1
  Th  Th14  1  0.348005  0.958294  0.346851  1
  Th  Th15  1  0.958294  0.348005  0.346851  1
  Mg  Mg16  1  0.579704  0.264722  0.577787  1
  Mg  Mg17  1  0.264722  0.579704  0.577787  1
  Cd  Cd18  1  0.581156  0.581156  0.582660  1
  Cd  Cd19  1  0.581156  0.581156  0.255029  1
  Ru  Ru20  1  0.143742  0.143742  0.142347  1
  Ru  Ru21  1  0.143742  0.143742  0.570170  1
  Ru  Ru22  1  0.144583  0.569022  0.143197  1
  Ru  Ru23  1  0.569022  0.144583  0.143197  1
