# generated using pymatgen
data_Yb8Fe2OsN8
_symmetry_space_group_name_H-M   'P 1'
_cell_length_a   9.07360277
_cell_length_b   4.95323852
_cell_length_c   7.00055829
_cell_angle_alpha   90.00001118
_cell_angle_beta   75.22078788
_cell_angle_gamma   74.16025125
_symmetry_Int_Tables_number   1
_chemical_formula_structural   Yb8Fe2OsN8
_chemical_formula_sum   'Yb8 Fe2 Os1 N8'
_cell_volume   291.84916960
_cell_formula_units_Z   1
loop_
 _symmetry_equiv_pos_site_id
 _symmetry_equiv_pos_as_xyz
  1  'x, y, z'
loop_
 _atom_site_type_symbol
 _atom_site_label
 _atom_site_symmetry_multiplicity
 _atom_site_fract_x
 _atom_site_fract_y
 _atom_site_fract_z
 _atom_site_occupancy
  Yb  Yb0  1  0.058590  0.970705  0.739917  1
  Yb  Yb1  1  0.941410  0.029295  0.260083  1
  Yb  Yb2  1  0.656678  0.671661  0.480437  1
  Yb  Yb3  1  0.343322  0.328339  0.519563  1
  Yb  Yb4  1  0.802042  0.598980  0.960412  1
  Yb  Yb5  1  0.197958  0.401020  0.039588  1
  Yb  Yb6  1  0.603815  0.198092  0.807724  1
  Yb  Yb7  1  0.396185  0.801908  0.192276  1
  Fe  Fe8  1  0.371922  0.814038  0.797598  1
  Fe  Fe9  1  0.628078  0.185962  0.202402  1
  Os  Os10  1  0.000000  0.500000  0.500000  1
  N  N11  1  0.198321  0.900839  0.001478  1
  N  N12  1  0.801679  0.099161  0.998522  1
  N  N13  1  0.356781  0.821609  0.553979  1
  N  N14  1  0.643219  0.178391  0.446021  1
  N  N15  1  0.563403  0.718300  0.837349  1
  N  N16  1  0.436597  0.281700  0.162651  1
  N  N17  1  0.062608  0.468697  0.730437  1
  N  N18  1  0.937392  0.531303  0.269563  1
