# generated using pymatgen
data_Li8GaAu9
_symmetry_space_group_name_H-M   'P 1'
_cell_length_a   7.76746500
_cell_length_b   7.76746560
_cell_length_c   5.52033000
_cell_angle_alpha   90.00000000
_cell_angle_beta   90.00000000
_cell_angle_gamma   119.99999317
_symmetry_Int_Tables_number   1
_chemical_formula_structural   Li8GaAu9
_chemical_formula_sum   'Li8 Ga1 Au9'
_cell_volume   288.43924204
_cell_formula_units_Z   1
loop_
 _symmetry_equiv_pos_site_id
 _symmetry_equiv_pos_as_xyz
  1  'x, y, z'
loop_
 _atom_site_type_symbol
 _atom_site_label
 _atom_site_symmetry_multiplicity
 _atom_site_fract_x
 _atom_site_fract_y
 _atom_site_fract_z
 _atom_site_occupancy
  Li  Li0  1  0.994689  0.660796  0.230576  1
  Li  Li1  1  0.666106  0.005311  0.230576  1
  Li  Li2  1  0.339204  0.333894  0.230576  1
  Li  Li3  1  0.330921  0.998226  0.888407  1
  Li  Li4  1  0.667304  0.669079  0.888407  1
  Li  Li5  1  0.001774  0.332696  0.888407  1
  Li  Li6  1  0.333333  0.666667  0.563068  1
  Li  Li7  1  0.000000  0.000000  0.565677  1
  Ga  Ga8  1  0.666667  0.333333  0.542311  1
  Au  Au9  1  0.003222  0.669226  0.733116  1
  Au  Au10  1  0.666004  0.996778  0.733116  1
  Au  Au11  1  0.330774  0.333996  0.733116  1
  Au  Au12  1  0.323208  0.990328  0.388018  1
  Au  Au13  1  0.667120  0.676792  0.388018  1
  Au  Au14  1  0.009672  0.332880  0.388018  1
  Au  Au15  1  0.333333  0.666667  0.061454  1
  Au  Au16  1  0.000000  0.000000  0.064415  1
  Au  Au17  1  0.666667  0.333333  0.041090  1
