# generated using pymatgen
data_Yb3Sm2Ho(Si3Ru)8
_symmetry_space_group_name_H-M   'P 1'
_cell_length_a   10.16130064
_cell_length_b   10.16129955
_cell_length_c   8.14397511
_cell_angle_alpha   89.97190971
_cell_angle_beta   90.02809140
_cell_angle_gamma   132.74495622
_symmetry_Int_Tables_number   1
_chemical_formula_structural   Yb3Sm2Ho(Si3Ru)8
_chemical_formula_sum   'Yb3 Sm2 Ho1 Si24 Ru8'
_cell_volume   617.52864770
_cell_formula_units_Z   1
loop_
 _symmetry_equiv_pos_site_id
 _symmetry_equiv_pos_as_xyz
  1  'x, y, z'
loop_
 _atom_site_type_symbol
 _atom_site_label
 _atom_site_symmetry_multiplicity
 _atom_site_fract_x
 _atom_site_fract_y
 _atom_site_fract_z
 _atom_site_occupancy
  Yb  Yb0  1  0.500374  0.500353  0.500388  1
  Yb  Yb1  1  0.000353  0.000374  0.999612  1
  Yb  Yb2  1  0.501925  0.001925  0.750000  1
  Sm  Sm3  1  0.998833  0.498833  0.250000  1
  Sm  Sm4  1  0.498190  0.998190  0.250000  1
  Ho  Ho5  1  0.001257  0.501257  0.750000  1
  Si  Si6  1  0.795487  0.203479  0.503123  1
  Si  Si7  1  0.296652  0.705118  0.996029  1
  Si  Si8  1  0.205118  0.796652  0.503971  1
  Si  Si9  1  0.703479  0.295487  0.996877  1
  Si  Si10  1  0.332514  0.334803  0.832359  1
  Si  Si11  1  0.665449  0.668513  0.167453  1
  Si  Si12  1  0.168513  0.165449  0.332547  1
  Si  Si13  1  0.834803  0.832514  0.667641  1
  Si  Si14  1  0.122726  0.890773  0.730485  1
  Si  Si15  1  0.108314  0.876666  0.269594  1
  Si  Si16  1  0.608197  0.376473  0.230269  1
  Si  Si17  1  0.623489  0.391459  0.769484  1
  Si  Si18  1  0.876473  0.108197  0.269731  1
  Si  Si19  1  0.891459  0.123489  0.730516  1
  Si  Si20  1  0.390773  0.622726  0.769515  1
  Si  Si21  1  0.376666  0.608314  0.230406  1
  Si  Si22  1  0.346620  0.114191  0.506870  1
  Si  Si23  1  0.885555  0.653852  0.493838  1
  Si  Si24  1  0.385563  0.153314  0.005705  1
  Si  Si25  1  0.846068  0.614456  0.991192  1
  Si  Si26  1  0.653314  0.885563  0.494295  1
  Si  Si27  1  0.114456  0.346068  0.508808  1
  Si  Si28  1  0.614191  0.846620  0.993130  1
  Si  Si29  1  0.153852  0.385555  0.006162  1
  Ru  Ru30  1  0.671818  0.329540  0.500488  1
  Ru  Ru31  1  0.169328  0.827814  0.999367  1
  Ru  Ru32  1  0.327814  0.669328  0.500633  1
  Ru  Ru33  1  0.829540  0.171818  0.999512  1
  Ru  Ru34  1  0.126345  0.126684  0.625503  1
  Ru  Ru35  1  0.873487  0.874317  0.374459  1
  Ru  Ru36  1  0.374317  0.373487  0.125541  1
  Ru  Ru37  1  0.626684  0.626345  0.874497  1
