# generated using pymatgen
data_Ca9DySi6F
_symmetry_space_group_name_H-M   'P 1'
_cell_length_a   9.06231375
_cell_length_b   9.04365386
_cell_length_c   9.06433133
_cell_angle_alpha   130.15383504
_cell_angle_beta   130.20847916
_cell_angle_gamma   73.02045744
_symmetry_Int_Tables_number   1
_chemical_formula_structural   Ca9DySi6F
_chemical_formula_sum   'Ca9 Dy1 Si6 F1'
_cell_volume   423.68583950
_cell_formula_units_Z   1
loop_
 _symmetry_equiv_pos_site_id
 _symmetry_equiv_pos_as_xyz
  1  'x, y, z'
loop_
 _atom_site_type_symbol
 _atom_site_label
 _atom_site_symmetry_multiplicity
 _atom_site_fract_x
 _atom_site_fract_y
 _atom_site_fract_z
 _atom_site_occupancy
  Ca  Ca0  1  0.432731  0.773925  0.000000  1
  Ca  Ca1  1  0.931387  0.931763  0.644703  1
  Ca  Ca2  1  0.286684  0.287060  0.355297  1
  Ca  Ca3  1  0.711701  0.066481  0.000000  1
  Ca  Ca4  1  0.067767  0.712578  0.000000  1
  Ca  Ca5  1  0.565967  0.565290  0.337415  1
  Ca  Ca6  1  0.228551  0.227875  0.662585  1
  Ca  Ca7  1  0.252313  0.752043  0.503865  1
  Ca  Ca8  1  0.748448  0.248178  0.496135  1
  Dy  Dy9  1  0.776965  0.435814  0.000000  1
  Si  Si10  1  0.994198  0.497913  0.486614  1
  Si  Si11  1  0.507584  0.011300  0.513386  1
  Si  Si12  1  0.127874  0.363185  0.000000  1
  Si  Si13  1  0.358302  0.135658  0.000000  1
  Si  Si14  1  0.865506  0.858499  0.225950  1
  Si  Si15  1  0.639556  0.632550  0.774050  1
  F  F16  1  0.504466  0.499889  0.000000  1
