# generated using pymatgen
data_TaNb5Si6Mo5Ru
_symmetry_space_group_name_H-M   'P 1'
_cell_length_a   7.68267889
_cell_length_b   7.69909231
_cell_length_c   7.68417091
_cell_angle_alpha   126.52888900
_cell_angle_beta   128.21114588
_cell_angle_gamma   77.60678493
_symmetry_Int_Tables_number   1
_chemical_formula_structural   TaNb5Si6Mo5Ru
_chemical_formula_sum   'Ta1 Nb5 Si6 Mo5 Ru1'
_cell_volume   278.35664766
_cell_formula_units_Z   1
loop_
 _symmetry_equiv_pos_site_id
 _symmetry_equiv_pos_as_xyz
  1  'x, y, z'
loop_
 _atom_site_type_symbol
 _atom_site_label
 _atom_site_symmetry_multiplicity
 _atom_site_fract_x
 _atom_site_fract_y
 _atom_site_fract_z
 _atom_site_occupancy
  Ta  Ta0  1  0.242919  0.092784  0.345052  1
  Nb  Nb1  1  0.951341  0.915411  0.465330  1
  Nb  Nb2  1  0.055854  0.502272  0.950253  1
  Nb  Nb3  1  0.551427  0.504000  0.447923  1
  Nb  Nb4  1  0.450380  0.915026  0.962295  1
  Nb  Nb5  1  0.746415  0.090387  0.848468  1
  Si  Si6  1  0.752920  0.503427  0.249011  1
  Si  Si7  1  0.256126  0.503436  0.750120  1
  Si  Si8  1  0.665246  0.178661  0.512858  1
  Si  Si9  1  0.329746  0.833823  0.501003  1
  Si  Si10  1  0.165525  0.172403  0.006773  1
  Si  Si11  1  0.828275  0.827554  0.001380  1
  Mo  Mo12  1  0.500732  0.761576  0.259506  1
  Mo  Mo13  1  0.999229  0.759096  0.761396  1
  Mo  Mo14  1  0.872272  0.245532  0.374945  1
  Mo  Mo15  1  0.129964  0.502666  0.371675  1
  Mo  Mo16  1  0.372067  0.247233  0.874621  1
  Ru  Ru17  1  0.629563  0.502511  0.875192  1
