# generated using pymatgen
data_Ti3NbV4Si3P
_symmetry_space_group_name_H-M   'P 1'
_cell_length_a   3.34251100
_cell_length_b   6.54654250
_cell_length_c   7.88022958
_cell_angle_alpha   89.84190923
_cell_angle_beta   90.00000000
_cell_angle_gamma   90.00000000
_symmetry_Int_Tables_number   1
_chemical_formula_structural   Ti3NbV4Si3P
_chemical_formula_sum   'Ti3 Nb1 V4 Si3 P1'
_cell_volume   172.43366294
_cell_formula_units_Z   1
loop_
 _symmetry_equiv_pos_site_id
 _symmetry_equiv_pos_as_xyz
  1  'x, y, z'
loop_
 _atom_site_type_symbol
 _atom_site_label
 _atom_site_symmetry_multiplicity
 _atom_site_fract_x
 _atom_site_fract_y
 _atom_site_fract_z
 _atom_site_occupancy
  Ti  Ti0  1  0.750000  0.448101  0.828600  1
  Ti  Ti1  1  0.750000  0.958121  0.665885  1
  Ti  Ti2  1  0.250000  0.049784  0.334621  1
  Nb  Nb3  1  0.250000  0.549338  0.166154  1
  V  V4  1  0.250000  0.622308  0.561858  1
  V  V5  1  0.750000  0.367633  0.444218  1
  V  V6  1  0.750000  0.874612  0.059365  1
  V  V7  1  0.250000  0.129958  0.935687  1
  Si  Si8  1  0.250000  0.750985  0.857923  1
  Si  Si9  1  0.750000  0.247166  0.140580  1
  Si  Si10  1  0.750000  0.751320  0.364263  1
  P  P11  1  0.250000  0.250675  0.640844  1
