# generated using pymatgen
data_Th3Cd3RuAu2
_symmetry_space_group_name_H-M   'P 1'
_cell_length_a   7.88137200
_cell_length_b   7.88137218
_cell_length_c   3.91729200
_cell_angle_alpha   90.00000000
_cell_angle_beta   90.00000000
_cell_angle_gamma   120.00000764
_symmetry_Int_Tables_number   1
_chemical_formula_structural   Th3Cd3RuAu2
_chemical_formula_sum   'Th3 Cd3 Ru1 Au2'
_cell_volume   210.72701104
_cell_formula_units_Z   1
loop_
 _symmetry_equiv_pos_site_id
 _symmetry_equiv_pos_as_xyz
  1  'x, y, z'
loop_
 _atom_site_type_symbol
 _atom_site_label
 _atom_site_symmetry_multiplicity
 _atom_site_fract_x
 _atom_site_fract_y
 _atom_site_fract_z
 _atom_site_occupancy
  Th  Th0  1  0.578342  0.602088  0.000000  1
  Th  Th1  1  0.397912  0.976254  0.000000  1
  Th  Th2  1  0.023746  0.421658  0.000000  1
  Cd  Cd3  1  0.995066  0.737995  0.500000  1
  Cd  Cd4  1  0.262005  0.257071  0.500000  1
  Cd  Cd5  1  0.742929  0.004934  0.500000  1
  Ru  Ru6  1  0.333333  0.666667  0.500000  1
  Au  Au7  1  0.000000  0.000000  0.000000  1
  Au  Au8  1  0.666667  0.333333  0.500000  1
