# generated using pymatgen
data_Hf2TaNbBr18
_symmetry_space_group_name_H-M   'P 1'
_cell_length_a   12.52165600
_cell_length_b   7.30954623
_cell_length_c   9.98770431
_cell_angle_alpha   75.59879778
_cell_angle_beta   90.00000000
_cell_angle_gamma   90.00000000
_symmetry_Int_Tables_number   1
_chemical_formula_structural   Hf2TaNbBr18
_chemical_formula_sum   'Hf2 Ta1 Nb1 Br18'
_cell_volume   885.42633860
_cell_formula_units_Z   1
loop_
 _symmetry_equiv_pos_site_id
 _symmetry_equiv_pos_as_xyz
  1  'x, y, z'
loop_
 _atom_site_type_symbol
 _atom_site_label
 _atom_site_symmetry_multiplicity
 _atom_site_fract_x
 _atom_site_fract_y
 _atom_site_fract_z
 _atom_site_occupancy
  Hf  Hf0  1  0.250000  0.757206  0.470346  1
  Hf  Hf1  1  0.750000  0.242540  0.530409  1
  Ta  Ta2  1  0.750000  0.354753  0.143997  1
  Nb  Nb3  1  0.250000  0.644800  0.857724  1
  Br  Br4  1  0.611356  0.440455  0.321596  1
  Br  Br5  1  0.110927  0.559400  0.677324  1
  Br  Br6  1  0.389073  0.559400  0.677324  1
  Br  Br7  1  0.888644  0.440455  0.321596  1
  Br  Br8  1  0.750000  0.683233  0.011130  1
  Br  Br9  1  0.250000  0.314823  0.989290  1
  Br  Br10  1  0.750000  0.513763  0.639428  1
  Br  Br11  1  0.250000  0.486228  0.360423  1
  Br  Br12  1  0.750000  0.026099  0.332784  1
  Br  Br13  1  0.250000  0.975102  0.666127  1
  Br  Br14  1  0.896300  0.245769  0.022703  1
  Br  Br15  1  0.397195  0.755054  0.977655  1
  Br  Br16  1  0.102805  0.755054  0.977655  1
  Br  Br17  1  0.603700  0.245769  0.022703  1
  Br  Br18  1  0.902534  0.056508  0.653965  1
  Br  Br19  1  0.402528  0.943541  0.345927  1
  Br  Br20  1  0.097472  0.943541  0.345927  1
  Br  Br21  1  0.597466  0.056508  0.653965  1
