# generated using pymatgen
data_PrInSn5Ir4
_symmetry_space_group_name_H-M   'P 1'
_cell_length_a   6.98930252
_cell_length_b   7.07213629
_cell_length_c   6.99691088
_cell_angle_alpha   119.89847079
_cell_angle_beta   119.50263455
_cell_angle_gamma   90.79282463
_symmetry_Int_Tables_number   1
_chemical_formula_structural   PrInSn5Ir4
_chemical_formula_sum   'Pr1 In1 Sn5 Ir4'
_cell_volume   245.05001970
_cell_formula_units_Z   1
loop_
 _symmetry_equiv_pos_site_id
 _symmetry_equiv_pos_as_xyz
  1  'x, y, z'
loop_
 _atom_site_type_symbol
 _atom_site_label
 _atom_site_symmetry_multiplicity
 _atom_site_fract_x
 _atom_site_fract_y
 _atom_site_fract_z
 _atom_site_occupancy
  Pr  Pr0  1  0.000554  0.000184  0.000000  1
  In  In1  1  0.466171  0.125680  0.000000  1
  Sn  Sn2  1  0.132310  0.462329  0.000000  1
  Sn  Sn3  1  0.869369  0.870053  0.334711  1
  Sn  Sn4  1  0.500348  0.002134  0.502322  1
  Sn  Sn5  1  0.998026  0.499812  0.497678  1
  Sn  Sn6  1  0.534658  0.535342  0.665290  1
  Ir  Ir7  1  0.762782  0.399112  0.000000  1
  Ir  Ir8  1  0.392639  0.755651  0.000000  1
  Ir  Ir9  1  0.606036  0.609316  0.368930  1
  Ir  Ir10  1  0.237105  0.240385  0.631071  1
