# generated using pymatgen
data_Tb8Sc12Si15Hg
_symmetry_space_group_name_H-M   'P 1'
_cell_length_a   7.15825221
_cell_length_b   7.41443749
_cell_length_c   14.12004351
_cell_angle_alpha   89.94445958
_cell_angle_beta   89.63988365
_cell_angle_gamma   90.25635018
_symmetry_Int_Tables_number   1
_chemical_formula_structural   Tb8Sc12Si15Hg
_chemical_formula_sum   'Tb8 Sc12 Si15 Hg1'
_cell_volume   749.39035215
_cell_formula_units_Z   1
loop_
 _symmetry_equiv_pos_site_id
 _symmetry_equiv_pos_as_xyz
  1  'x, y, z'
loop_
 _atom_site_type_symbol
 _atom_site_label
 _atom_site_symmetry_multiplicity
 _atom_site_fract_x
 _atom_site_fract_y
 _atom_site_fract_z
 _atom_site_occupancy
  Tb  Tb0  1  0.012578  0.175374  0.097604  1
  Tb  Tb1  1  0.987131  0.825485  0.903805  1
  Tb  Tb2  1  0.487098  0.676215  0.903426  1
  Tb  Tb3  1  0.988016  0.831591  0.598470  1
  Tb  Tb4  1  0.512450  0.324218  0.096914  1
  Tb  Tb5  1  0.008288  0.171001  0.398210  1
  Tb  Tb6  1  0.512386  0.322760  0.398923  1
  Tb  Tb7  1  0.496017  0.681276  0.600316  1
  Sc  Sc8  1  0.162175  0.500947  0.754341  1
  Sc  Sc9  1  0.837343  0.498910  0.250104  1
  Sc  Sc10  1  0.337840  0.000586  0.248777  1
  Sc  Sc11  1  0.664440  0.997364  0.751612  1
  Sc  Sc12  1  0.341458  0.168197  0.628802  1
  Sc  Sc13  1  0.665077  0.824483  0.373054  1
  Sc  Sc14  1  0.167210  0.677916  0.370919  1
  Sc  Sc15  1  0.669781  0.823763  0.124242  1
  Sc  Sc16  1  0.824685  0.324969  0.626318  1
  Sc  Sc17  1  0.328749  0.174870  0.876148  1
  Sc  Sc18  1  0.829945  0.322862  0.876054  1
  Sc  Sc19  1  0.169393  0.676578  0.124970  1
  Si  Si20  1  0.034848  0.121821  0.751412  1
  Si  Si21  1  0.964260  0.882573  0.247985  1
  Si  Si22  1  0.466024  0.616687  0.247986  1
  Si  Si23  1  0.533350  0.384241  0.752152  1
  Si  Si24  1  0.284918  0.872947  0.751737  1
  Si  Si25  1  0.713129  0.126205  0.247797  1
  Si  Si26  1  0.213887  0.373134  0.248275  1
  Si  Si27  1  0.788759  0.626978  0.752504  1
  Si  Si28  1  0.833768  0.538929  0.459143  1
  Si  Si29  1  0.340562  0.962348  0.460182  1
  Si  Si30  1  0.844581  0.535416  0.038839  1
  Si  Si31  1  0.658137  0.037590  0.537771  1
  Si  Si32  1  0.155099  0.463875  0.961806  1
  Si  Si33  1  0.655346  0.035138  0.960322  1
  Si  Si34  1  0.343699  0.964695  0.039577  1
  Hg  Hg35  1  0.167573  0.458058  0.539502  1
