# generated using pymatgen
data_Zr6Sc2Al15Ir7
_symmetry_space_group_name_H-M   'P 1'
_cell_length_a   8.89713884
_cell_length_b   8.89713790
_cell_length_c   8.89713900
_cell_angle_alpha   120.21023215
_cell_angle_beta   119.94636779
_cell_angle_gamma   89.86458543
_symmetry_Int_Tables_number   1
_chemical_formula_structural   Zr6Sc2Al15Ir7
_chemical_formula_sum   'Zr6 Sc2 Al15 Ir7'
_cell_volume   497.41350873
_cell_formula_units_Z   1
loop_
 _symmetry_equiv_pos_site_id
 _symmetry_equiv_pos_as_xyz
  1  'x, y, z'
loop_
 _atom_site_type_symbol
 _atom_site_label
 _atom_site_symmetry_multiplicity
 _atom_site_fract_x
 _atom_site_fract_y
 _atom_site_fract_z
 _atom_site_occupancy
  Zr  Zr0  1  0.799847  0.293806  0.081916  1
  Zr  Zr1  1  0.211889  0.293806  0.493958  1
  Zr  Zr2  1  0.198701  0.698701  0.500000  1
  Zr  Zr3  1  0.211889  0.717930  0.918084  1
  Zr  Zr4  1  0.799847  0.717930  0.506042  1
  Zr  Zr5  1  0.779968  0.279968  0.500000  1
  Sc  Sc6  1  0.378732  0.119148  0.740416  1
  Sc  Sc7  1  0.378732  0.638316  0.259584  1
  Al  Al8  1  0.988709  0.488709  0.500000  1
  Al  Al9  1  0.160639  0.336567  0.175927  1
  Al  Al10  1  0.160639  0.984713  0.824073  1
  Al  Al11  1  0.153932  0.344283  0.809648  1
  Al  Al12  1  0.534635  0.344283  0.190352  1
  Al  Al13  1  0.841435  0.657538  0.816103  1
  Al  Al14  1  0.841435  0.025330  0.183897  1
  Al  Al15  1  0.839149  0.659822  0.179328  1
  Al  Al16  1  0.480495  0.659822  0.820672  1
  Al  Al17  1  0.378728  0.122107  0.256622  1
  Al  Al18  1  0.865486  0.122107  0.743378  1
  Al  Al19  1  0.620708  0.874316  0.253609  1
  Al  Al20  1  0.620708  0.367099  0.746391  1
  Al  Al21  1  0.620757  0.877860  0.742897  1
  Al  Al22  1  0.134961  0.877860  0.257103  1
  Ir  Ir23  1  0.994643  0.998575  0.498623  1
  Ir  Ir24  1  0.499952  0.998575  0.003931  1
  Ir  Ir25  1  0.500948  0.500948  0.000000  1
  Ir  Ir26  1  0.499952  0.496020  0.501377  1
  Ir  Ir27  1  0.994643  0.496020  0.996069  1
  Ir  Ir28  1  0.999686  0.999686  0.000000  1
  Ir  Ir29  1  0.508150  0.008150  0.500000  1
