# generated using pymatgen
data_NdTm(BIr)8
_symmetry_space_group_name_H-M   'P 1'
_cell_length_a   7.66397900
_cell_length_b   7.66397900
_cell_length_c   3.99698900
_cell_angle_alpha   90.00000000
_cell_angle_beta   90.00000000
_cell_angle_gamma   90.00000000
_symmetry_Int_Tables_number   1
_chemical_formula_structural   NdTm(BIr)8
_chemical_formula_sum   'Nd1 Tm1 B8 Ir8'
_cell_volume   234.76944063
_cell_formula_units_Z   1
loop_
 _symmetry_equiv_pos_site_id
 _symmetry_equiv_pos_as_xyz
  1  'x, y, z'
loop_
 _atom_site_type_symbol
 _atom_site_label
 _atom_site_symmetry_multiplicity
 _atom_site_fract_x
 _atom_site_fract_y
 _atom_site_fract_z
 _atom_site_occupancy
  Nd  Nd0  1  0.000000  0.000000  0.500000  1
  Tm  Tm1  1  0.500000  0.500000  0.000000  1
  B  B2  1  0.657705  0.776802  0.611818  1
  B  B3  1  0.158023  0.280190  0.890875  1
  B  B4  1  0.280190  0.841977  0.109125  1
  B  B5  1  0.719810  0.158023  0.109125  1
  B  B6  1  0.342295  0.223198  0.611818  1
  B  B7  1  0.841977  0.719810  0.890875  1
  B  B8  1  0.223198  0.657705  0.388182  1
  B  B9  1  0.776802  0.342295  0.388182  1
  Ir  Ir10  1  0.342782  0.110494  0.111302  1
  Ir  Ir11  1  0.657218  0.889506  0.111302  1
  Ir  Ir12  1  0.608347  0.162353  0.612239  1
  Ir  Ir13  1  0.110494  0.657218  0.888698  1
  Ir  Ir14  1  0.162353  0.391653  0.387761  1
  Ir  Ir15  1  0.837647  0.608347  0.387761  1
  Ir  Ir16  1  0.889506  0.342782  0.888698  1
  Ir  Ir17  1  0.391653  0.837647  0.612239  1
