# generated using pymatgen
data_La8Nd8Cd4Ni3Ru
_symmetry_space_group_name_H-M   'P 1'
_cell_length_a   10.00295381
_cell_length_b   10.00295377
_cell_length_c   10.03156407
_cell_angle_alpha   59.53094539
_cell_angle_beta   59.53094500
_cell_angle_gamma   59.76550786
_symmetry_Int_Tables_number   1
_chemical_formula_structural   La8Nd8Cd4Ni3Ru
_chemical_formula_sum   'La8 Nd8 Cd4 Ni3 Ru1'
_cell_volume   703.44473487
_cell_formula_units_Z   1
loop_
 _symmetry_equiv_pos_site_id
 _symmetry_equiv_pos_as_xyz
  1  'x, y, z'
loop_
 _atom_site_type_symbol
 _atom_site_label
 _atom_site_symmetry_multiplicity
 _atom_site_fract_x
 _atom_site_fract_y
 _atom_site_fract_z
 _atom_site_occupancy
  La  La0  1  0.596353  0.596353  0.598236  1
  La  La1  1  0.597191  0.597191  0.208520  1
  La  La2  1  0.598916  0.208486  0.597276  1
  La  La3  1  0.208486  0.598916  0.597276  1
  La  La4  1  0.062574  0.438059  0.438369  1
  La  La5  1  0.439122  0.058270  0.058811  1
  La  La6  1  0.438059  0.062574  0.438369  1
  La  La7  1  0.058270  0.439122  0.058811  1
  Nd  Nd8  1  0.440115  0.440115  0.059507  1
  Nd  Nd9  1  0.057551  0.057551  0.439900  1
  Nd  Nd10  1  0.186296  0.816224  0.816151  1
  Nd  Nd11  1  0.807092  0.187865  0.187605  1
  Nd  Nd12  1  0.816224  0.186296  0.816151  1
  Nd  Nd13  1  0.187865  0.807092  0.187605  1
  Nd  Nd14  1  0.815881  0.815881  0.186919  1
  Nd  Nd15  1  0.188094  0.188094  0.806887  1
  Cd  Cd16  1  0.830621  0.830621  0.829194  1
  Cd  Cd17  1  0.830043  0.830043  0.508662  1
  Cd  Cd18  1  0.828843  0.508692  0.830018  1
  Cd  Cd19  1  0.508692  0.828843  0.830018  1
  Ni  Ni20  1  0.392847  0.392847  0.825643  1
  Ni  Ni21  1  0.394192  0.826017  0.392659  1
  Ni  Ni22  1  0.826017  0.394192  0.392659  1
  Ru  Ru23  1  0.390657  0.390657  0.394757  1
