# generated using pymatgen
data_NaP12Ir3Os
_symmetry_space_group_name_H-M   'P 1'
_cell_length_a   7.03140130
_cell_length_b   7.03140272
_cell_length_c   7.03140204
_cell_angle_alpha   109.52690210
_cell_angle_beta   109.52691714
_cell_angle_gamma   109.52690916
_symmetry_Int_Tables_number   1
_chemical_formula_structural   NaP12Ir3Os
_chemical_formula_sum   'Na1 P12 Ir3 Os1'
_cell_volume   267.05776894
_cell_formula_units_Z   1
loop_
 _symmetry_equiv_pos_site_id
 _symmetry_equiv_pos_as_xyz
  1  'x, y, z'
loop_
 _atom_site_type_symbol
 _atom_site_label
 _atom_site_symmetry_multiplicity
 _atom_site_fract_x
 _atom_site_fract_y
 _atom_site_fract_z
 _atom_site_occupancy
  Na  Na0  1  0.000000  0.000000  0.000000  1
  P  P1  1  0.139950  0.783657  0.643200  1
  P  P2  1  0.142807  0.496326  0.357167  1
  P  P3  1  0.857193  0.503674  0.642833  1
  P  P4  1  0.357167  0.142807  0.496326  1
  P  P5  1  0.783657  0.643200  0.139950  1
  P  P6  1  0.860050  0.216343  0.356800  1
  P  P7  1  0.643200  0.139950  0.783657  1
  P  P8  1  0.503674  0.642833  0.857193  1
  P  P9  1  0.642833  0.857193  0.503674  1
  P  P10  1  0.496326  0.357167  0.142807  1
  P  P11  1  0.356800  0.860050  0.216343  1
  P  P12  1  0.216343  0.356800  0.860050  1
  Ir  Ir13  1  0.500000  0.000000  0.000000  1
  Ir  Ir14  1  0.000000  0.500000  0.000000  1
  Ir  Ir15  1  0.000000  0.000000  0.500000  1
  Os  Os16  1  0.500000  0.500000  0.500000  1
