# generated using pymatgen
data_TmTh6FeCo2
_symmetry_space_group_name_H-M   'P 1'
_cell_length_a   9.74732952
_cell_length_b   9.73985038
_cell_length_c   6.13435885
_cell_angle_alpha   89.94475412
_cell_angle_beta   90.11040705
_cell_angle_gamma   120.02540147
_symmetry_Int_Tables_number   1
_chemical_formula_structural   TmTh6FeCo2
_chemical_formula_sum   'Tm2 Th12 Fe2 Co4'
_cell_volume   504.22655858
_cell_formula_units_Z   2
loop_
 _symmetry_equiv_pos_site_id
 _symmetry_equiv_pos_as_xyz
  1  'x, y, z'
loop_
 _atom_site_type_symbol
 _atom_site_label
 _atom_site_symmetry_multiplicity
 _atom_site_fract_x
 _atom_site_fract_y
 _atom_site_fract_z
 _atom_site_occupancy
  Tm  Tm0  1  0.333313  0.666561  0.046755  1
  Tm  Tm1  1  0.666753  0.333439  0.546755  1
  Th  Th2  1  0.127787  0.872913  0.239629  1
  Th  Th3  1  0.254877  0.127087  0.739629  1
  Th  Th4  1  0.871567  0.747019  0.741213  1
  Th  Th5  1  0.124546  0.252981  0.241213  1
  Th  Th6  1  0.746929  0.875689  0.239686  1
  Th  Th7  1  0.871242  0.124311  0.739686  1
  Th  Th8  1  0.543166  0.458197  0.066992  1
  Th  Th9  1  0.084968  0.541803  0.566992  1
  Th  Th10  1  0.458848  0.913153  0.567343  1
  Th  Th11  1  0.545696  0.086847  0.067343  1
  Th  Th12  1  0.912745  0.454520  0.065104  1
  Th  Th13  1  0.458225  0.545480  0.565104  1
  Fe  Fe14  1  0.817941  0.183859  0.284173  1
  Fe  Fe15  1  0.634083  0.816141  0.784173  1
  Co  Co16  1  0.182973  0.366013  0.789045  1
  Co  Co17  1  0.816959  0.633987  0.289045  1
  Co  Co18  1  0.365417  0.183455  0.290060  1
  Co  Co19  1  0.181964  0.816545  0.790060  1
