# generated using pymatgen
data_La3Pr5(CdIr)2
_symmetry_space_group_name_H-M   'P 1'
_cell_length_a   10.03148352
_cell_length_b   10.10312618
_cell_length_c   10.10312623
_cell_angle_alpha   59.53140688
_cell_angle_beta   60.23430042
_cell_angle_gamma   60.23429691
_symmetry_Int_Tables_number   1
_chemical_formula_structural   La3Pr5(CdIr)2
_chemical_formula_sum   'La6 Pr10 Cd4 Ir4'
_cell_volume   723.96632269
_cell_formula_units_Z   2
loop_
 _symmetry_equiv_pos_site_id
 _symmetry_equiv_pos_as_xyz
  1  'x, y, z'
loop_
 _atom_site_type_symbol
 _atom_site_label
 _atom_site_symmetry_multiplicity
 _atom_site_fract_x
 _atom_site_fract_y
 _atom_site_fract_z
 _atom_site_occupancy
  La  La0  1  0.345451  0.348149  0.348149  1
  La  La1  1  0.348149  0.345451  0.958250  1
  La  La2  1  0.348149  0.958250  0.345451  1
  La  La3  1  0.958250  0.348149  0.348149  1
  La  La4  1  0.811765  0.188235  0.188235  1
  La  La5  1  0.188235  0.811765  0.811765  1
  Pr  Pr6  1  0.191923  0.808077  0.191923  1
  Pr  Pr7  1  0.808077  0.191923  0.808077  1
  Pr  Pr8  1  0.191923  0.191923  0.808077  1
  Pr  Pr9  1  0.808077  0.808077  0.191923  1
  Pr  Pr10  1  0.936801  0.563199  0.563199  1
  Pr  Pr11  1  0.563199  0.936801  0.936801  1
  Pr  Pr12  1  0.561715  0.938285  0.561715  1
  Pr  Pr13  1  0.938285  0.561715  0.938285  1
  Pr  Pr14  1  0.561715  0.561715  0.938285  1
  Pr  Pr15  1  0.938285  0.938285  0.561715  1
  Cd  Cd16  1  0.580007  0.579448  0.579448  1
  Cd  Cd17  1  0.579448  0.580007  0.261096  1
  Cd  Cd18  1  0.579448  0.261096  0.580007  1
  Cd  Cd19  1  0.261096  0.579448  0.579448  1
  Ir  Ir20  1  0.136649  0.143994  0.143994  1
  Ir  Ir21  1  0.143994  0.136649  0.575362  1
  Ir  Ir22  1  0.143994  0.575362  0.136649  1
  Ir  Ir23  1  0.575362  0.143994  0.143994  1
