# generated using pymatgen
data_Y4InAgPd4
_symmetry_space_group_name_H-M   'P 1'
_cell_length_a   7.71139200
_cell_length_b   7.71139200
_cell_length_c   3.73803500
_cell_angle_alpha   90.00000000
_cell_angle_beta   90.00000000
_cell_angle_gamma   90.00000000
_symmetry_Int_Tables_number   1
_chemical_formula_structural   Y4InAgPd4
_chemical_formula_sum   'Y4 In1 Ag1 Pd4'
_cell_volume   222.28436916
_cell_formula_units_Z   1
loop_
 _symmetry_equiv_pos_site_id
 _symmetry_equiv_pos_as_xyz
  1  'x, y, z'
loop_
 _atom_site_type_symbol
 _atom_site_label
 _atom_site_symmetry_multiplicity
 _atom_site_fract_x
 _atom_site_fract_y
 _atom_site_fract_z
 _atom_site_occupancy
  Y  Y0  1  0.672403  0.170915  0.500000  1
  Y  Y1  1  0.327597  0.829085  0.500000  1
  Y  Y2  1  0.170915  0.327597  0.500000  1
  Y  Y3  1  0.829085  0.672403  0.500000  1
  In  In4  1  0.000000  0.000000  0.000000  1
  Ag  Ag5  1  0.500000  0.500000  0.000000  1
  Pd  Pd6  1  0.132441  0.627275  0.000000  1
  Pd  Pd7  1  0.867559  0.372725  0.000000  1
  Pd  Pd8  1  0.627275  0.867559  0.000000  1
  Pd  Pd9  1  0.372725  0.132441  0.000000  1
