# generated using pymatgen
data_Th2Ga9IrOs2
_symmetry_space_group_name_H-M   'P 1'
_cell_length_a   7.70322434
_cell_length_b   7.70323232
_cell_length_c   9.61067900
_cell_angle_alpha   90.00000000
_cell_angle_beta   90.00000000
_cell_angle_gamma   119.93974234
_symmetry_Int_Tables_number   1
_chemical_formula_structural   Th2Ga9IrOs2
_chemical_formula_sum   'Th4 Ga18 Ir2 Os4'
_cell_volume   494.18962919
_cell_formula_units_Z   2
loop_
 _symmetry_equiv_pos_site_id
 _symmetry_equiv_pos_as_xyz
  1  'x, y, z'
loop_
 _atom_site_type_symbol
 _atom_site_label
 _atom_site_symmetry_multiplicity
 _atom_site_fract_x
 _atom_site_fract_y
 _atom_site_fract_z
 _atom_site_occupancy
  Th  Th0  1  0.996758  0.665793  0.250000  1
  Th  Th1  1  0.003242  0.334207  0.750000  1
  Th  Th2  1  0.665792  0.996756  0.250000  1
  Th  Th3  1  0.334208  0.003244  0.750000  1
  Ga  Ga4  1  0.130468  0.130469  0.250000  1
  Ga  Ga5  1  0.869532  0.869531  0.750000  1
  Ga  Ga6  1  0.004808  0.334993  0.077535  1
  Ga  Ga7  1  0.995192  0.665007  0.922465  1
  Ga  Ga8  1  0.995192  0.665007  0.577535  1
  Ga  Ga9  1  0.334994  0.004808  0.422465  1
  Ga  Ga10  1  0.004808  0.334993  0.422465  1
  Ga  Ga11  1  0.665006  0.995192  0.577535  1
  Ga  Ga12  1  0.665006  0.995192  0.922465  1
  Ga  Ga13  1  0.334994  0.004808  0.077535  1
  Ga  Ga14  1  0.339182  0.339182  0.559423  1
  Ga  Ga15  1  0.660818  0.660818  0.440577  1
  Ga  Ga16  1  0.660818  0.660818  0.059423  1
  Ga  Ga17  1  0.339182  0.339182  0.940577  1
  Ga  Ga18  1  0.336824  0.543401  0.250000  1
  Ga  Ga19  1  0.663176  0.456599  0.750000  1
  Ga  Ga20  1  0.543401  0.336824  0.250000  1
  Ga  Ga21  1  0.456599  0.663176  0.750000  1
  Ir  Ir22  1  0.000000  0.000000  0.000000  1
  Ir  Ir23  1  0.000000  0.000000  0.500000  1
  Os  Os24  1  0.672806  0.327194  0.000000  1
  Os  Os25  1  0.327194  0.672806  0.000000  1
  Os  Os26  1  0.327194  0.672806  0.500000  1
  Os  Os27  1  0.672806  0.327194  0.500000  1
