# generated using pymatgen
data_Rb3Ho(BO3)2
_symmetry_space_group_name_H-M   'P 1'
_cell_length_a   5.66848200
_cell_length_b   7.12186800
_cell_length_c   9.50233000
_cell_angle_alpha   90.00000000
_cell_angle_beta   90.00000000
_cell_angle_gamma   90.00000000
_symmetry_Int_Tables_number   1
_chemical_formula_structural   Rb3Ho(BO3)2
_chemical_formula_sum   'Rb6 Ho2 B4 O12'
_cell_volume   383.61077788
_cell_formula_units_Z   2
loop_
 _symmetry_equiv_pos_site_id
 _symmetry_equiv_pos_as_xyz
  1  'x, y, z'
loop_
 _atom_site_type_symbol
 _atom_site_label
 _atom_site_symmetry_multiplicity
 _atom_site_fract_x
 _atom_site_fract_y
 _atom_site_fract_z
 _atom_site_occupancy
  Rb  Rb0  1  0.000000  0.233260  0.333853  1
  Rb  Rb1  1  0.000000  0.766740  0.666147  1
  Rb  Rb2  1  0.500000  0.733260  0.166147  1
  Rb  Rb3  1  0.500000  0.500000  0.500000  1
  Rb  Rb4  1  0.500000  0.266740  0.833853  1
  Rb  Rb5  1  0.000000  0.000000  0.000000  1
  Ho  Ho6  1  0.000000  0.500000  0.000000  1
  Ho  Ho7  1  0.500000  0.000000  0.500000  1
  B  B8  1  0.000000  0.769357  0.332900  1
  B  B9  1  0.000000  0.230643  0.667100  1
  B  B10  1  0.500000  0.730643  0.832900  1
  B  B11  1  0.500000  0.269357  0.167100  1
  O  O12  1  0.713936  0.312941  0.100067  1
  O  O13  1  0.213936  0.187059  0.600067  1
  O  O14  1  0.500000  0.183968  0.300404  1
  O  O15  1  0.713936  0.687059  0.899933  1
  O  O16  1  0.286064  0.312941  0.100067  1
  O  O17  1  0.213936  0.812941  0.399933  1
  O  O18  1  0.786064  0.187059  0.600067  1
  O  O19  1  0.286064  0.687059  0.899933  1
  O  O20  1  0.786064  0.812941  0.399933  1
  O  O21  1  0.000000  0.316032  0.800404  1
  O  O22  1  0.000000  0.683968  0.199596  1
  O  O23  1  0.500000  0.816032  0.699596  1
