# generated using pymatgen
data_Tb2YSi4(PPd10)2
_symmetry_space_group_name_H-M   'P 1'
_cell_length_a   8.70659223
_cell_length_b   8.70659295
_cell_length_c   8.69737400
_cell_angle_alpha   60.03502021
_cell_angle_beta   60.03501748
_cell_angle_gamma   59.92996857
_symmetry_Int_Tables_number   1
_chemical_formula_structural   Tb2YSi4(PPd10)2
_chemical_formula_sum   'Tb2 Y1 Si4 P2 Pd20'
_cell_volume   466.19610634
_cell_formula_units_Z   1
loop_
 _symmetry_equiv_pos_site_id
 _symmetry_equiv_pos_as_xyz
  1  'x, y, z'
loop_
 _atom_site_type_symbol
 _atom_site_label
 _atom_site_symmetry_multiplicity
 _atom_site_fract_x
 _atom_site_fract_y
 _atom_site_fract_z
 _atom_site_occupancy
  Tb  Tb0  1  0.250000  0.250000  0.250000  1
  Tb  Tb1  1  0.750000  0.750000  0.750000  1
  Y  Y2  1  0.000000  0.000000  0.000000  1
  Si  Si3  1  0.733734  0.266266  0.266266  1
  Si  Si4  1  0.266266  0.733734  0.733734  1
  Si  Si5  1  0.266266  0.733734  0.266266  1
  Si  Si6  1  0.733734  0.266266  0.733734  1
  P  P7  1  0.265103  0.265103  0.734897  1
  P  P8  1  0.734897  0.734897  0.265103  1
  Pd  Pd9  1  0.383763  0.383763  0.385550  1
  Pd  Pd10  1  0.616237  0.616237  0.614450  1
  Pd  Pd11  1  0.383763  0.383763  0.846923  1
  Pd  Pd12  1  0.385550  0.846923  0.383763  1
  Pd  Pd13  1  0.616237  0.616237  0.153077  1
  Pd  Pd14  1  0.614450  0.153077  0.616237  1
  Pd  Pd15  1  0.846923  0.385550  0.383763  1
  Pd  Pd16  1  0.153077  0.614450  0.616237  1
  Pd  Pd17  1  0.345583  0.001147  0.998853  1
  Pd  Pd18  1  0.654417  0.998853  0.001147  1
  Pd  Pd19  1  0.001147  0.345583  0.654417  1
  Pd  Pd20  1  0.998853  0.654417  0.345583  1
  Pd  Pd21  1  0.001147  0.345583  0.998853  1
  Pd  Pd22  1  0.654417  0.998853  0.345583  1
  Pd  Pd23  1  0.998853  0.654417  0.001147  1
  Pd  Pd24  1  0.345583  0.001147  0.654417  1
  Pd  Pd25  1  0.000000  0.000000  0.346525  1
  Pd  Pd26  1  0.000000  0.000000  0.653475  1
  Pd  Pd27  1  0.653475  0.346525  0.000000  1
  Pd  Pd28  1  0.346525  0.653475  0.000000  1
