# generated using pymatgen
data_Cs2CeCu2SnSe6
_symmetry_space_group_name_H-M   'P 1'
_cell_length_a   8.18333196
_cell_length_b   8.18333193
_cell_length_c   10.89510530
_cell_angle_alpha   89.00963915
_cell_angle_beta   90.99036104
_cell_angle_gamma   150.29515261
_symmetry_Int_Tables_number   1
_chemical_formula_structural   Cs2CeCu2SnSe6
_chemical_formula_sum   'Cs2 Ce1 Cu2 Sn1 Se6'
_cell_volume   361.48823296
_cell_formula_units_Z   1
loop_
 _symmetry_equiv_pos_site_id
 _symmetry_equiv_pos_as_xyz
  1  'x, y, z'
loop_
 _atom_site_type_symbol
 _atom_site_label
 _atom_site_symmetry_multiplicity
 _atom_site_fract_x
 _atom_site_fract_y
 _atom_site_fract_z
 _atom_site_occupancy
  Cs  Cs0  1  0.741760  0.258239  0.247799  1
  Cs  Cs1  1  0.258239  0.741760  0.752201  1
  Ce  Ce2  1  0.000000  0.000000  0.500000  1
  Cu  Cu3  1  0.464941  0.535059  0.265693  1
  Cu  Cu4  1  0.535059  0.464941  0.734307  1
  Sn  Sn5  1  0.000000  0.000000  0.000000  1
  Se  Se6  1  0.392521  0.607478  0.061926  1
  Se  Se7  1  0.049466  0.950533  0.245392  1
  Se  Se8  1  0.380379  0.619620  0.447461  1
  Se  Se9  1  0.619620  0.380379  0.552540  1
  Se  Se10  1  0.950533  0.049466  0.754608  1
  Se  Se11  1  0.607478  0.392521  0.938074  1
