# generated using pymatgen
data_Gd2Al5Ga4Ir3
_symmetry_space_group_name_H-M   'P 1'
_cell_length_a   7.54549582
_cell_length_b   7.54321499
_cell_length_c   9.55188500
_cell_angle_alpha   90.08561844
_cell_angle_beta   89.87900707
_cell_angle_gamma   119.63183624
_symmetry_Int_Tables_number   1
_chemical_formula_structural   Gd2Al5Ga4Ir3
_chemical_formula_sum   'Gd4 Al10 Ga8 Ir6'
_cell_volume   472.56571116
_cell_formula_units_Z   2
loop_
 _symmetry_equiv_pos_site_id
 _symmetry_equiv_pos_as_xyz
  1  'x, y, z'
loop_
 _atom_site_type_symbol
 _atom_site_label
 _atom_site_symmetry_multiplicity
 _atom_site_fract_x
 _atom_site_fract_y
 _atom_site_fract_z
 _atom_site_occupancy
  Gd  Gd0  1  0.996756  0.667240  0.745850  1
  Gd  Gd1  1  0.003244  0.332760  0.254150  1
  Gd  Gd2  1  0.671823  0.998588  0.749238  1
  Gd  Gd3  1  0.328177  0.001412  0.250762  1
  Al  Al4  1  0.997416  0.665212  0.070742  1
  Al  Al5  1  0.334564  0.001047  0.927570  1
  Al  Al6  1  0.002584  0.334788  0.929258  1
  Al  Al7  1  0.665436  0.998953  0.072430  1
  Al  Al8  1  0.663967  0.996662  0.426616  1
  Al  Al9  1  0.336033  0.003338  0.573384  1
  Al  Al10  1  0.333697  0.333728  0.055027  1
  Al  Al11  1  0.666303  0.666272  0.944973  1
  Al  Al12  1  0.666620  0.665923  0.553759  1
  Al  Al13  1  0.333380  0.334077  0.446241  1
  Ga  Ga14  1  0.130496  0.126949  0.750745  1
  Ga  Ga15  1  0.869504  0.873051  0.249255  1
  Ga  Ga16  1  0.000322  0.333604  0.579827  1
  Ga  Ga17  1  0.999678  0.666396  0.420173  1
  Ga  Ga18  1  0.341101  0.548253  0.750969  1
  Ga  Ga19  1  0.658899  0.451747  0.249031  1
  Ga  Ga20  1  0.545807  0.339634  0.750142  1
  Ga  Ga21  1  0.454193  0.660366  0.249858  1
  Ir  Ir22  1  0.667069  0.326176  0.499191  1
  Ir  Ir23  1  0.332931  0.673824  0.500809  1
  Ir  Ir24  1  0.328239  0.671469  0.000624  1
  Ir  Ir25  1  0.671761  0.328531  0.999376  1
  Ir  Ir26  1  0.000000  0.000000  0.500000  1
  Ir  Ir27  1  0.000000  0.000000  0.000000  1
