# generated using pymatgen
data_Zr8Co5Hg4Pd3
_symmetry_space_group_name_H-M   'P 1'
_cell_length_a   7.32599518
_cell_length_b   7.32599548
_cell_length_c   6.70651918
_cell_angle_alpha   90.04688300
_cell_angle_beta   90.04688161
_cell_angle_gamma   89.04252765
_symmetry_Int_Tables_number   1
_chemical_formula_structural   Zr8Co5Hg4Pd3
_chemical_formula_sum   'Zr8 Co5 Hg4 Pd3'
_cell_volume   359.88978264
_cell_formula_units_Z   1
loop_
 _symmetry_equiv_pos_site_id
 _symmetry_equiv_pos_as_xyz
  1  'x, y, z'
loop_
 _atom_site_type_symbol
 _atom_site_label
 _atom_site_symmetry_multiplicity
 _atom_site_fract_x
 _atom_site_fract_y
 _atom_site_fract_z
 _atom_site_occupancy
  Zr  Zr0  1  0.659365  0.659365  0.508229  1
  Zr  Zr1  1  0.805277  0.184171  0.504867  1
  Zr  Zr2  1  0.669744  0.669744  0.992800  1
  Zr  Zr3  1  0.819121  0.168125  0.994525  1
  Zr  Zr4  1  0.184171  0.805277  0.504867  1
  Zr  Zr5  1  0.340671  0.340671  0.000269  1
  Zr  Zr6  1  0.168125  0.819121  0.994525  1
  Zr  Zr7  1  0.353156  0.353156  0.499384  1
  Co  Co8  1  0.628357  0.375437  0.233991  1
  Co  Co9  1  0.375392  0.626992  0.765943  1
  Co  Co10  1  0.870763  0.870763  0.735973  1
  Co  Co11  1  0.626992  0.375392  0.765943  1
  Co  Co12  1  0.375437  0.628357  0.233991  1
  Hg  Hg13  1  0.998608  0.496466  0.248969  1
  Hg  Hg14  1  0.502473  0.997212  0.749540  1
  Hg  Hg15  1  0.496466  0.998608  0.248969  1
  Hg  Hg16  1  0.997212  0.502473  0.749540  1
  Pd  Pd17  1  0.129992  0.129992  0.267948  1
  Pd  Pd18  1  0.870685  0.870685  0.268266  1
  Pd  Pd19  1  0.127993  0.127993  0.731460  1
