# generated using pymatgen
data_Nd2InSnRh2
_symmetry_space_group_name_H-M   'P 1'
_cell_length_a   7.61765500
_cell_length_b   7.62462667
_cell_length_c   8.16373400
_cell_angle_alpha   89.99980347
_cell_angle_beta   90.00000000
_cell_angle_gamma   119.96975341
_symmetry_Int_Tables_number   1
_chemical_formula_structural   Nd2InSnRh2
_chemical_formula_sum   'Nd6 In3 Sn3 Rh6'
_cell_volume   410.76331167
_cell_formula_units_Z   3
loop_
 _symmetry_equiv_pos_site_id
 _symmetry_equiv_pos_as_xyz
  1  'x, y, z'
loop_
 _atom_site_type_symbol
 _atom_site_label
 _atom_site_symmetry_multiplicity
 _atom_site_fract_x
 _atom_site_fract_y
 _atom_site_fract_z
 _atom_site_occupancy
  Nd  Nd0  1  0.588257  0.999854  0.751863  1
  Nd  Nd1  1  0.412358  0.411942  0.750788  1
  Nd  Nd2  1  0.000497  0.588180  0.750812  1
  Nd  Nd3  1  0.588402  0.000146  0.248137  1
  Nd  Nd4  1  0.412319  0.411820  0.249188  1
  Nd  Nd5  1  0.000415  0.588058  0.249212  1
  In  In6  1  0.252895  0.000000  0.000000  1
  In  In7  1  0.750474  0.749778  0.499970  1
  In  In8  1  0.000696  0.250222  0.500030  1
  Sn  Sn9  1  0.999679  0.252602  0.999829  1
  Sn  Sn10  1  0.747077  0.747398  0.000171  1
  Sn  Sn11  1  0.248301  0.000000  0.500000  1
  Rh  Rh12  1  0.669792  0.334862  0.999890  1
  Rh  Rh13  1  0.663148  0.331925  0.500089  1
  Rh  Rh14  1  0.334929  0.665138  0.000110  1
  Rh  Rh15  1  0.331221  0.668075  0.499911  1
  Rh  Rh16  1  0.999734  0.999928  0.753373  1
  Rh  Rh17  1  0.999805  0.000072  0.246627  1
