# generated using pymatgen
data_Mn2AgCl9
_symmetry_space_group_name_H-M   'P 1'
_cell_length_a   7.16577437
_cell_length_b   6.87987276
_cell_length_c   16.67394202
_cell_angle_alpha   89.80487598
_cell_angle_beta   92.97331740
_cell_angle_gamma   121.42367647
_symmetry_Int_Tables_number   1
_chemical_formula_structural   Mn2AgCl9
_chemical_formula_sum   'Mn4 Ag2 Cl18'
_cell_volume   700.24403816
_cell_formula_units_Z   2
loop_
 _symmetry_equiv_pos_site_id
 _symmetry_equiv_pos_as_xyz
  1  'x, y, z'
loop_
 _atom_site_type_symbol
 _atom_site_label
 _atom_site_symmetry_multiplicity
 _atom_site_fract_x
 _atom_site_fract_y
 _atom_site_fract_z
 _atom_site_occupancy
  Mn  Mn0  1  0.841037  0.020933  0.166255  1
  Mn  Mn1  1  0.674481  0.026215  0.334563  1
  Mn  Mn2  1  0.319267  0.981673  0.667732  1
  Mn  Mn3  1  0.149651  0.972066  0.836342  1
  Ag  Ag4  1  0.945623  0.255115  0.537672  1
  Ag  Ag5  1  0.197652  0.739267  0.034239  1
  Cl  Cl6  1  0.955654  0.118229  0.862026  1
  Cl  Cl7  1  0.781447  0.349595  0.402404  1
  Cl  Cl8  1  0.678634  0.159044  0.652560  1
  Cl  Cl9  1  0.637204  0.176689  0.210473  1
  Cl  Cl10  1  0.959003  0.818037  0.709764  1
  Cl  Cl11  1  0.750927  0.873364  0.438796  1
  Cl  Cl12  1  0.605955  0.721382  0.249670  1
  Cl  Cl13  1  0.608868  0.845947  0.058754  1
  Cl  Cl14  1  0.379815  0.128560  0.942989  1
  Cl  Cl15  1  0.379750  0.278338  0.756951  1
  Cl  Cl16  1  0.254971  0.150002  0.563948  1
  Cl  Cl17  1  0.035767  0.180143  0.288795  1
  Cl  Cl18  1  0.360758  0.824996  0.786872  1
  Cl  Cl19  1  0.068628  0.330830  0.100332  1
  Cl  Cl20  1  0.332241  0.871692  0.356227  1
  Cl  Cl21  1  0.243226  0.674095  0.595350  1
  Cl  Cl22  1  0.028620  0.850123  0.148420  1
  Cl  Cl23  1  0.938649  0.645837  0.898480  1
