# generated using pymatgen
data_Ca5YMoRuO12
_symmetry_space_group_name_H-M   'P 1'
_cell_length_a   6.57819329
_cell_length_b   6.56267999
_cell_length_c   6.59793864
_cell_angle_alpha   91.98059774
_cell_angle_beta   92.24348380
_cell_angle_gamma   92.21113781
_symmetry_Int_Tables_number   1
_chemical_formula_structural   Ca5YMoRuO12
_chemical_formula_sum   'Ca5 Y1 Mo1 Ru1 O12'
_cell_volume   284.22092679
_cell_formula_units_Z   1
loop_
 _symmetry_equiv_pos_site_id
 _symmetry_equiv_pos_as_xyz
  1  'x, y, z'
loop_
 _atom_site_type_symbol
 _atom_site_label
 _atom_site_symmetry_multiplicity
 _atom_site_fract_x
 _atom_site_fract_y
 _atom_site_fract_z
 _atom_site_occupancy
  Ca  Ca0  1  0.740778  0.927889  0.435750  1
  Ca  Ca1  1  0.560770  0.255987  0.074337  1
  Ca  Ca2  1  0.437380  0.740328  0.927271  1
  Ca  Ca3  1  0.260040  0.068915  0.565290  1
  Ca  Ca4  1  0.073050  0.566685  0.258010  1
  Y  Y5  1  0.926346  0.431310  0.740842  1
  Mo  Mo6  1  0.999630  0.000300  0.001465  1
  Ru  Ru7  1  0.498392  0.499819  0.499562  1
  O  O8  1  0.941247  0.288883  0.061115  1
  O  O9  1  0.932697  0.072832  0.713021  1
  O  O10  1  0.793091  0.578372  0.460430  1
  O  O11  1  0.718062  0.933938  0.056896  1
  O  O12  1  0.589645  0.451047  0.790006  1
  O  O13  1  0.547525  0.213012  0.421288  1
  O  O14  1  0.453074  0.785440  0.581139  1
  O  O15  1  0.419608  0.548691  0.215315  1
  O  O16  1  0.281013  0.062995  0.940191  1
  O  O17  1  0.208325  0.420576  0.554892  1
  O  O18  1  0.067817  0.941994  0.279030  1
  O  O19  1  0.051510  0.710986  0.924151  1
