# generated using pymatgen
data_Ti4Zn3GaCo8
_symmetry_space_group_name_H-M   'P 1'
_cell_length_a   13.62912025
_cell_length_b   13.62912052
_cell_length_c   13.62911833
_cell_angle_alpha   17.29897589
_cell_angle_beta   17.29897344
_cell_angle_gamma   17.29896798
_symmetry_Int_Tables_number   1
_chemical_formula_structural   Ti4Zn3GaCo8
_chemical_formula_sum   'Ti4 Zn3 Ga1 Co8'
_cell_volume   195.33439726
_cell_formula_units_Z   1
loop_
 _symmetry_equiv_pos_site_id
 _symmetry_equiv_pos_as_xyz
  1  'x, y, z'
loop_
 _atom_site_type_symbol
 _atom_site_label
 _atom_site_symmetry_multiplicity
 _atom_site_fract_x
 _atom_site_fract_y
 _atom_site_fract_z
 _atom_site_occupancy
  Ti  Ti0  1  0.874673  0.874673  0.874673  1
  Ti  Ti1  1  0.125327  0.125327  0.125327  1
  Ti  Ti2  1  0.375928  0.375928  0.375928  1
  Ti  Ti3  1  0.624072  0.624072  0.624072  1
  Zn  Zn4  1  0.249805  0.249805  0.249805  1
  Zn  Zn5  1  0.500000  0.500000  0.500000  1
  Zn  Zn6  1  0.750195  0.750195  0.750195  1
  Ga  Ga7  1  0.000000  0.000000  0.000000  1
  Co  Co8  1  0.187460  0.187460  0.187460  1
  Co  Co9  1  0.437522  0.437522  0.437522  1
  Co  Co10  1  0.687044  0.687044  0.687044  1
  Co  Co11  1  0.937924  0.937924  0.937924  1
  Co  Co12  1  0.812540  0.812540  0.812540  1
  Co  Co13  1  0.062076  0.062076  0.062076  1
  Co  Co14  1  0.312956  0.312956  0.312956  1
  Co  Co15  1  0.562478  0.562478  0.562478  1
