# generated using pymatgen
data_Lu8Zr3TiPb10
_symmetry_space_group_name_H-M   'P 1'
_cell_length_a   6.23048797
_cell_length_b   9.27027494
_cell_length_c   11.38586749
_cell_angle_alpha   113.93902950
_cell_angle_beta   105.76100195
_cell_angle_gamma   90.27879013
_symmetry_Int_Tables_number   1
_chemical_formula_structural   Lu8Zr3TiPb10
_chemical_formula_sum   'Lu8 Zr3 Ti1 Pb10'
_cell_volume   573.48803897
_cell_formula_units_Z   1
loop_
 _symmetry_equiv_pos_site_id
 _symmetry_equiv_pos_as_xyz
  1  'x, y, z'
loop_
 _atom_site_type_symbol
 _atom_site_label
 _atom_site_symmetry_multiplicity
 _atom_site_fract_x
 _atom_site_fract_y
 _atom_site_fract_z
 _atom_site_occupancy
  Lu  Lu0  1  0.437373  0.671985  0.875473  1
  Lu  Lu1  1  0.562023  0.327560  0.123688  1
  Lu  Lu2  1  0.938100  0.203487  0.875473  1
  Lu  Lu3  1  0.061665  0.796128  0.123688  1
  Lu  Lu4  1  0.146403  0.258587  0.292347  1
  Lu  Lu5  1  0.854822  0.742324  0.708475  1
  Lu  Lu6  1  0.645944  0.033762  0.292347  1
  Lu  Lu7  1  0.353653  0.966150  0.708475  1
  Zr  Zr8  1  0.443427  0.693427  0.386855  1
  Zr  Zr9  1  0.943454  0.693454  0.386908  1
  Zr  Zr10  1  0.056704  0.306704  0.613408  1
  Ti  Ti11  1  0.558203  0.308203  0.616406  1
  Pb  Pb12  1  0.292774  0.589632  0.580443  1
  Pb  Pb13  1  0.706234  0.406753  0.421781  1
  Pb  Pb14  1  0.787670  0.990811  0.580443  1
  Pb  Pb15  1  0.215546  0.015028  0.421781  1
  Pb  Pb16  1  0.249649  0.999649  0.999298  1
  Pb  Pb17  1  0.750288  0.000288  0.000577  1
  Pb  Pb18  1  0.073670  0.470877  0.147758  1
  Pb  Pb19  1  0.918389  0.525426  0.848309  1
  Pb  Pb20  1  0.574087  0.676881  0.147758  1
  Pb  Pb21  1  0.429921  0.322884  0.848309  1
