# generated using pymatgen
data_La6FeCoI6
_symmetry_space_group_name_H-M   'P 1'
_cell_length_a   4.41849700
_cell_length_b   9.57129501
_cell_length_c   12.30820015
_cell_angle_alpha   86.75057191
_cell_angle_beta   90.00000000
_cell_angle_gamma   90.00000000
_symmetry_Int_Tables_number   1
_chemical_formula_structural   La6FeCoI6
_chemical_formula_sum   'La6 Fe1 Co1 I6'
_cell_volume   519.68599332
_cell_formula_units_Z   1
loop_
 _symmetry_equiv_pos_site_id
 _symmetry_equiv_pos_as_xyz
  1  'x, y, z'
loop_
 _atom_site_type_symbol
 _atom_site_label
 _atom_site_symmetry_multiplicity
 _atom_site_fract_x
 _atom_site_fract_y
 _atom_site_fract_z
 _atom_site_occupancy
  La  La0  1  0.250000  0.312412  0.882401  1
  La  La1  1  0.750000  0.684108  0.122472  1
  La  La2  1  0.750000  0.114311  0.674757  1
  La  La3  1  0.250000  0.885498  0.317708  1
  La  La4  1  0.750000  0.090765  0.096003  1
  La  La5  1  0.250000  0.905963  0.900923  1
  Fe  Fe6  1  0.250000  0.886442  0.133358  1
  Co  Co7  1  0.750000  0.115259  0.870850  1
  I  I8  1  0.750000  0.130502  0.376323  1
  I  I9  1  0.250000  0.871658  0.622209  1
  I  I10  1  0.250000  0.363203  0.619115  1
  I  I11  1  0.750000  0.636729  0.383236  1
  I  I12  1  0.750000  0.608735  0.862545  1
  I  I13  1  0.250000  0.394413  0.138100  1
