# generated using pymatgen
data_Tb2Dy2Al18Rh5Au
_symmetry_space_group_name_H-M   'P 1'
_cell_length_a   7.59352737
_cell_length_b   7.59319820
_cell_length_c   9.47949106
_cell_angle_alpha   89.94898692
_cell_angle_beta   89.93304341
_cell_angle_gamma   119.48634751
_symmetry_Int_Tables_number   1
_chemical_formula_structural   Tb2Dy2Al18Rh5Au
_chemical_formula_sum   'Tb2 Dy2 Al18 Rh5 Au1'
_cell_volume   475.78168048
_cell_formula_units_Z   1
loop_
 _symmetry_equiv_pos_site_id
 _symmetry_equiv_pos_as_xyz
  1  'x, y, z'
loop_
 _atom_site_type_symbol
 _atom_site_label
 _atom_site_symmetry_multiplicity
 _atom_site_fract_x
 _atom_site_fract_y
 _atom_site_fract_z
 _atom_site_occupancy
  Tb  Tb0  1  0.674090  0.995583  0.250525  1
  Tb  Tb1  1  0.325910  0.004417  0.749475  1
  Dy  Dy2  1  0.995602  0.674064  0.250577  1
  Dy  Dy3  1  0.004398  0.325936  0.749423  1
  Al  Al4  1  0.135386  0.135312  0.257134  1
  Al  Al5  1  0.864614  0.864688  0.742866  1
  Al  Al6  1  0.001537  0.344522  0.079006  1
  Al  Al7  1  0.998463  0.655478  0.920994  1
  Al  Al8  1  0.000310  0.663960  0.573927  1
  Al  Al9  1  0.335766  0.999555  0.425943  1
  Al  Al10  1  0.999690  0.336040  0.426073  1
  Al  Al11  1  0.664234  0.000445  0.574057  1
  Al  Al12  1  0.655744  0.998583  0.920904  1
  Al  Al13  1  0.344256  0.001417  0.079096  1
  Al  Al14  1  0.333171  0.333286  0.550631  1
  Al  Al15  1  0.666829  0.666714  0.449369  1
  Al  Al16  1  0.658406  0.658293  0.055748  1
  Al  Al17  1  0.341594  0.341707  0.944252  1
  Al  Al18  1  0.339479  0.550951  0.251268  1
  Al  Al19  1  0.660521  0.449049  0.748732  1
  Al  Al20  1  0.551080  0.339703  0.251274  1
  Al  Al21  1  0.448920  0.660297  0.748726  1
  Rh  Rh22  1  0.671922  0.328239  0.999999  1
  Rh  Rh23  1  0.328078  0.671761  0.000001  1
  Rh  Rh24  1  0.328052  0.671790  0.500006  1
  Rh  Rh25  1  0.671948  0.328210  0.499994  1
  Rh  Rh26  1  0.000000  0.000000  0.500000  1
  Au  Au27  1  0.000000  0.000000  0.000000  1
