# generated using pymatgen
data_SmDy5(MoO7)2
_symmetry_space_group_name_H-M   'P 1'
_cell_length_a   6.46278164
_cell_length_b   6.46278106
_cell_length_c   7.54300501
_cell_angle_alpha   90.02596892
_cell_angle_beta   89.97403288
_cell_angle_gamma   109.29586582
_symmetry_Int_Tables_number   1
_chemical_formula_structural   SmDy5(MoO7)2
_chemical_formula_sum   'Sm1 Dy5 Mo2 O14'
_cell_volume   297.35458412
_cell_formula_units_Z   1
loop_
 _symmetry_equiv_pos_site_id
 _symmetry_equiv_pos_as_xyz
  1  'x, y, z'
loop_
 _atom_site_type_symbol
 _atom_site_label
 _atom_site_symmetry_multiplicity
 _atom_site_fract_x
 _atom_site_fract_y
 _atom_site_fract_z
 _atom_site_occupancy
  Sm  Sm0  1  0.500000  0.500000  0.000000  1
  Dy  Dy1  1  0.500000  0.500000  0.500000  1
  Dy  Dy2  1  0.535453  0.000549  0.748360  1
  Dy  Dy3  1  0.000549  0.535453  0.251640  1
  Dy  Dy4  1  0.464547  0.999451  0.251640  1
  Dy  Dy5  1  0.999451  0.464547  0.748360  1
  Mo  Mo6  1  0.000000  0.000000  0.500000  1
  Mo  Mo7  1  0.000000  0.000000  0.000000  1
  O  O8  1  0.678099  0.925477  0.470295  1
  O  O9  1  0.925477  0.678099  0.529705  1
  O  O10  1  0.677579  0.926153  0.029834  1
  O  O11  1  0.926153  0.677579  0.970166  1
  O  O12  1  0.321901  0.074523  0.529705  1
  O  O13  1  0.074523  0.321901  0.470295  1
  O  O14  1  0.322421  0.073847  0.970166  1
  O  O15  1  0.073847  0.322421  0.029834  1
  O  O16  1  0.927553  0.072447  0.750119  1
  O  O17  1  0.072447  0.927553  0.249881  1
  O  O18  1  0.367704  0.632296  0.744671  1
  O  O19  1  0.632296  0.367704  0.255329  1
  O  O20  1  0.637398  0.362602  0.745052  1
  O  O21  1  0.362602  0.637398  0.254948  1
