# generated using pymatgen
data_Tb3Ho7OsRu3
_symmetry_space_group_name_H-M   'P 1'
_cell_length_a   6.34572149
_cell_length_b   7.29220883
_cell_length_c   8.45917879
_cell_angle_alpha   96.81013990
_cell_angle_beta   112.12659357
_cell_angle_gamma   89.81761845
_symmetry_Int_Tables_number   1
_chemical_formula_structural   Tb3Ho7OsRu3
_chemical_formula_sum   'Tb3 Ho7 Os1 Ru3'
_cell_volume   359.68984825
_cell_formula_units_Z   1
loop_
 _symmetry_equiv_pos_site_id
 _symmetry_equiv_pos_as_xyz
  1  'x, y, z'
loop_
 _atom_site_type_symbol
 _atom_site_label
 _atom_site_symmetry_multiplicity
 _atom_site_fract_x
 _atom_site_fract_y
 _atom_site_fract_z
 _atom_site_occupancy
  Tb  Tb0  1  0.978684  0.916466  0.186835  1
  Tb  Tb1  1  0.791917  0.584288  0.814826  1
  Tb  Tb2  1  0.022108  0.084720  0.813630  1
  Ho  Ho3  1  0.209079  0.415825  0.186957  1
  Ho  Ho4  1  0.640855  0.814564  0.434082  1
  Ho  Ho5  1  0.204109  0.684156  0.564268  1
  Ho  Ho6  1  0.359859  0.185082  0.565350  1
  Ho  Ho7  1  0.793634  0.315117  0.434355  1
  Ho  Ho8  1  0.420872  0.749094  0.000348  1
  Ho  Ho9  1  0.580135  0.250974  0.000678  1
  Os  Os10  1  0.822042  0.576143  0.219661  1
  Ru  Ru11  1  0.602399  0.924810  0.778617  1
  Ru  Ru12  1  0.176891  0.423154  0.779492  1
  Ru  Ru13  1  0.397416  0.075607  0.220902  1
