# generated using pymatgen
data_SmGdLu6(WO6)4
_symmetry_space_group_name_H-M   'P 1'
_cell_length_a   5.35306100
_cell_length_b   7.64519343
_cell_length_c   11.38026402
_cell_angle_alpha   75.26429934
_cell_angle_beta   90.00000000
_cell_angle_gamma   90.00000000
_symmetry_Int_Tables_number   1
_chemical_formula_structural   SmGdLu6(WO6)4
_chemical_formula_sum   'Sm1 Gd1 Lu6 W4 O24'
_cell_volume   450.42100436
_cell_formula_units_Z   1
loop_
 _symmetry_equiv_pos_site_id
 _symmetry_equiv_pos_as_xyz
  1  'x, y, z'
loop_
 _atom_site_type_symbol
 _atom_site_label
 _atom_site_symmetry_multiplicity
 _atom_site_fract_x
 _atom_site_fract_y
 _atom_site_fract_z
 _atom_site_occupancy
  Sm  Sm0  1  0.314195  0.500000  0.750000  1
  Gd  Gd1  1  0.685651  0.500000  0.250000  1
  Lu  Lu2  1  0.257093  0.000000  0.750000  1
  Lu  Lu3  1  0.183925  0.796374  0.078242  1
  Lu  Lu4  1  0.183925  0.203626  0.421758  1
  Lu  Lu5  1  0.742873  0.000000  0.250000  1
  Lu  Lu6  1  0.815890  0.203227  0.921981  1
  Lu  Lu7  1  0.815890  0.796773  0.578019  1
  W  W8  1  0.744451  0.727444  0.884846  1
  W  W9  1  0.255622  0.727283  0.384489  1
  W  W10  1  0.744451  0.272556  0.615154  1
  W  W11  1  0.255622  0.272717  0.115511  1
  O  O12  1  0.541675  0.154351  0.069370  1
  O  O13  1  0.041951  0.056189  0.104508  1
  O  O14  1  0.016938  0.719625  0.768349  1
  O  O15  1  0.457904  0.154443  0.569297  1
  O  O16  1  0.352219  0.489164  0.386481  1
  O  O17  1  0.958233  0.056324  0.604151  1
  O  O18  1  0.542333  0.798005  0.724515  1
  O  O19  1  0.457824  0.797582  0.224486  1
  O  O20  1  0.144071  0.639078  0.547805  1
  O  O21  1  0.041951  0.943811  0.395492  1
  O  O22  1  0.457904  0.845557  0.930703  1
  O  O23  1  0.457824  0.202418  0.275514  1
  O  O24  1  0.855443  0.361023  0.451548  1
  O  O25  1  0.649632  0.489094  0.887058  1
  O  O26  1  0.352219  0.510836  0.113519  1
  O  O27  1  0.958233  0.943676  0.895849  1
  O  O28  1  0.541675  0.845649  0.430630  1
  O  O29  1  0.981983  0.281659  0.231467  1
  O  O30  1  0.542333  0.201995  0.775485  1
  O  O31  1  0.855443  0.638977  0.048452  1
  O  O32  1  0.016938  0.280375  0.731651  1
  O  O33  1  0.144071  0.360922  0.952195  1
  O  O34  1  0.981983  0.718341  0.268533  1
  O  O35  1  0.649632  0.510906  0.612942  1
