# generated using pymatgen
data_Dy16Cd3Co3AgIr
_symmetry_space_group_name_H-M   'P 1'
_cell_length_a   9.54034870
_cell_length_b   9.48836744
_cell_length_c   9.48836719
_cell_angle_alpha   59.96461744
_cell_angle_beta   60.12428877
_cell_angle_gamma   60.12428895
_symmetry_Int_Tables_number   1
_chemical_formula_structural   Dy16Cd3Co3AgIr
_chemical_formula_sum   'Dy16 Cd3 Co3 Ag1 Ir1'
_cell_volume   608.31546133
_cell_formula_units_Z   1
loop_
 _symmetry_equiv_pos_site_id
 _symmetry_equiv_pos_as_xyz
  1  'x, y, z'
loop_
 _atom_site_type_symbol
 _atom_site_label
 _atom_site_symmetry_multiplicity
 _atom_site_fract_x
 _atom_site_fract_y
 _atom_site_fract_z
 _atom_site_occupancy
  Dy  Dy0  1  0.589947  0.600218  0.600218  1
  Dy  Dy1  1  0.590872  0.602022  0.207359  1
  Dy  Dy2  1  0.590872  0.207359  0.602022  1
  Dy  Dy3  1  0.212530  0.596626  0.596626  1
  Dy  Dy4  1  0.066092  0.438663  0.438663  1
  Dy  Dy5  1  0.438165  0.061121  0.061121  1
  Dy  Dy6  1  0.439322  0.060320  0.437419  1
  Dy  Dy7  1  0.066663  0.436608  0.055739  1
  Dy  Dy8  1  0.439322  0.437419  0.060320  1
  Dy  Dy9  1  0.066663  0.055739  0.436608  1
  Dy  Dy10  1  0.184693  0.812563  0.812563  1
  Dy  Dy11  1  0.812120  0.188292  0.188292  1
  Dy  Dy12  1  0.812698  0.187308  0.808264  1
  Dy  Dy13  1  0.185233  0.812735  0.186574  1
  Dy  Dy14  1  0.812698  0.808264  0.187308  1
  Dy  Dy15  1  0.185233  0.186574  0.812735  1
  Cd  Cd16  1  0.832213  0.830862  0.509676  1
  Cd  Cd17  1  0.832213  0.509676  0.830862  1
  Cd  Cd18  1  0.507978  0.831594  0.831594  1
  Co  Co19  1  0.390833  0.390736  0.390736  1
  Co  Co20  1  0.392016  0.392708  0.827942  1
  Co  Co21  1  0.392016  0.827942  0.392708  1
  Ag  Ag22  1  0.833433  0.832463  0.832463  1
  Ir  Ir23  1  0.826175  0.392187  0.392187  1
