# generated using pymatgen
data_YbScCo5Si14Ir
_symmetry_space_group_name_H-M   'P 1'
_cell_length_a   7.68788256
_cell_length_b   7.66482163
_cell_length_c   7.66431259
_cell_angle_alpha   57.36168792
_cell_angle_beta   57.17253554
_cell_angle_gamma   57.18693151
_symmetry_Int_Tables_number   1
_chemical_formula_structural   YbScCo5Si14Ir
_chemical_formula_sum   'Yb1 Sc1 Co5 Si14 Ir1'
_cell_volume   299.05190257
_cell_formula_units_Z   1
loop_
 _symmetry_equiv_pos_site_id
 _symmetry_equiv_pos_as_xyz
  1  'x, y, z'
loop_
 _atom_site_type_symbol
 _atom_site_label
 _atom_site_symmetry_multiplicity
 _atom_site_fract_x
 _atom_site_fract_y
 _atom_site_fract_z
 _atom_site_occupancy
  Yb  Yb0  1  0.999950  0.999280  0.002311  1
  Sc  Sc1  1  0.498927  0.499225  0.500960  1
  Co  Co2  1  0.073201  0.431327  0.748136  1
  Co  Co3  1  0.253365  0.925581  0.568940  1
  Co  Co4  1  0.567334  0.254406  0.925122  1
  Co  Co5  1  0.927505  0.569274  0.252226  1
  Co  Co6  1  0.432416  0.745244  0.074191  1
  Si  Si7  1  0.750532  0.739150  0.761195  1
  Si  Si8  1  0.249485  0.250043  0.248998  1
  Si  Si9  1  0.856489  0.074471  0.673015  1
  Si  Si10  1  0.668432  0.848538  0.071960  1
  Si  Si11  1  0.076636  0.666863  0.848254  1
  Si  Si12  1  0.644284  0.826275  0.427105  1
  Si  Si13  1  0.426395  0.650734  0.831553  1
  Si  Si14  1  0.830871  0.430417  0.649996  1
  Si  Si15  1  0.166736  0.571661  0.350908  1
  Si  Si16  1  0.564907  0.358790  0.159198  1
  Si  Si17  1  0.337970  0.169649  0.575778  1
  Si  Si18  1  0.931936  0.342447  0.141457  1
  Si  Si19  1  0.334883  0.149897  0.925241  1
  Si  Si20  1  0.161656  0.921769  0.331501  1
  Ir  Ir21  1  0.746091  0.074961  0.431953  1
