# generated using pymatgen
data_Ho6Co15Ni(MoP6)2
_symmetry_space_group_name_H-M   'P 1'
_cell_length_a   3.71488800
_cell_length_b   10.50550900
_cell_length_c   12.19971400
_cell_angle_alpha   90.00000000
_cell_angle_beta   90.00000000
_cell_angle_gamma   90.00000000
_symmetry_Int_Tables_number   1
_chemical_formula_structural   Ho6Co15Ni(MoP6)2
_chemical_formula_sum   'Ho6 Co15 Ni1 Mo2 P12'
_cell_volume   476.11566802
_cell_formula_units_Z   1
loop_
 _symmetry_equiv_pos_site_id
 _symmetry_equiv_pos_as_xyz
  1  'x, y, z'
loop_
 _atom_site_type_symbol
 _atom_site_label
 _atom_site_symmetry_multiplicity
 _atom_site_fract_x
 _atom_site_fract_y
 _atom_site_fract_z
 _atom_site_occupancy
  Ho  Ho0  1  0.000000  0.500000  0.522860  1
  Ho  Ho1  1  0.500000  0.000000  0.475548  1
  Ho  Ho2  1  0.500000  0.819095  0.205335  1
  Ho  Ho3  1  0.500000  0.180905  0.205335  1
  Ho  Ho4  1  0.000000  0.682135  0.795550  1
  Ho  Ho5  1  0.000000  0.317865  0.795550  1
  Co  Co6  1  0.000000  0.500000  0.987067  1
  Co  Co7  1  0.500000  0.000000  0.013499  1
  Co  Co8  1  0.500000  0.296588  0.431796  1
  Co  Co9  1  0.500000  0.703412  0.431796  1
  Co  Co10  1  0.000000  0.203242  0.568055  1
  Co  Co11  1  0.000000  0.796758  0.568055  1
  Co  Co12  1  0.500000  0.877998  0.706824  1
  Co  Co13  1  0.500000  0.122002  0.706824  1
  Co  Co14  1  0.000000  0.621953  0.293130  1
  Co  Co15  1  0.000000  0.378047  0.293130  1
  Co  Co16  1  0.500000  0.332480  0.989923  1
  Co  Co17  1  0.500000  0.667520  0.989923  1
  Co  Co18  1  0.000000  0.167542  0.010038  1
  Co  Co19  1  0.000000  0.832458  0.010038  1
  Co  Co20  1  0.000000  0.000000  0.298818  1
  Ni  Ni21  1  0.500000  0.500000  0.701236  1
  Mo  Mo22  1  0.500000  0.500000  0.156036  1
  Mo  Mo23  1  0.000000  0.000000  0.843496  1
  P  P24  1  0.500000  0.311291  0.615652  1
  P  P25  1  0.500000  0.688709  0.615652  1
  P  P26  1  0.000000  0.188210  0.383786  1
  P  P27  1  0.000000  0.811790  0.383786  1
  P  P28  1  0.500000  0.500000  0.881079  1
  P  P29  1  0.000000  0.000000  0.119759  1
  P  P30  1  0.500000  0.844722  0.892729  1
  P  P31  1  0.500000  0.155278  0.892729  1
  P  P32  1  0.000000  0.655849  0.107666  1
  P  P33  1  0.000000  0.344151  0.107666  1
  P  P34  1  0.500000  0.500000  0.349599  1
  P  P35  1  0.000000  0.000000  0.650035  1
