# generated using pymatgen
data_Cs5Ti(MoH9)3
_symmetry_space_group_name_H-M   'P 1'
_cell_length_a   9.82750200
_cell_length_b   9.19679490
_cell_length_c   5.30565200
_cell_angle_alpha   90.00000000
_cell_angle_beta   90.00000000
_cell_angle_gamma   117.89880493
_symmetry_Int_Tables_number   1
_chemical_formula_structural   Cs5Ti(MoH9)3
_chemical_formula_sum   'Cs5 Ti1 Mo3 H27'
_cell_volume   423.79937026
_cell_formula_units_Z   1
loop_
 _symmetry_equiv_pos_site_id
 _symmetry_equiv_pos_as_xyz
  1  'x, y, z'
loop_
 _atom_site_type_symbol
 _atom_site_label
 _atom_site_symmetry_multiplicity
 _atom_site_fract_x
 _atom_site_fract_y
 _atom_site_fract_z
 _atom_site_occupancy
  Cs  Cs0  1  0.723795  0.748869  0.500000  1
  Cs  Cs1  1  0.276205  0.025074  0.500000  1
  Cs  Cs2  1  0.000000  0.644183  0.000000  1
  Cs  Cs3  1  0.437283  0.383420  0.000000  1
  Cs  Cs4  1  0.562717  0.946137  0.000000  1
  Ti  Ti5  1  0.000000  0.268428  0.500000  1
  Mo  Mo6  1  0.731591  0.323333  0.500000  1
  Mo  Mo7  1  0.268409  0.591744  0.500000  1
  Mo  Mo8  1  0.000000  0.075749  0.000000  1
  H  H9  1  0.891281  0.346937  0.697635  1
  H  H10  1  0.720520  0.409182  0.776963  1
  H  H11  1  0.581877  0.192989  0.693412  1
  H  H12  1  0.108719  0.455658  0.302365  1
  H  H13  1  0.581877  0.192989  0.306588  1
  H  H14  1  0.891281  0.346937  0.302365  1
  H  H15  1  0.720520  0.409182  0.223037  1
  H  H16  1  0.279480  0.688663  0.776963  1
  H  H17  1  0.418123  0.611113  0.693412  1
  H  H18  1  0.170975  0.067274  0.000000  1
  H  H19  1  0.829025  0.896297  0.000000  1
  H  H20  1  0.000000  0.267335  0.000000  1
  H  H21  1  0.881261  0.079174  0.250940  1
  H  H22  1  0.118739  0.197914  0.749060  1
  H  H23  1  0.000000  0.935062  0.781522  1
  H  H24  1  0.000000  0.935062  0.218478  1
  H  H25  1  0.118739  0.197914  0.250940  1
  H  H26  1  0.881261  0.079174  0.749060  1
  H  H27  1  0.156574  0.690368  0.500000  1
  H  H28  1  0.412504  0.797143  0.500000  1
  H  H29  1  0.232461  0.377644  0.500000  1
  H  H30  1  0.587496  0.384639  0.500000  1
  H  H31  1  0.843426  0.533794  0.500000  1
  H  H32  1  0.767539  0.145183  0.500000  1
  H  H33  1  0.108719  0.455658  0.697635  1
  H  H34  1  0.279480  0.688663  0.223037  1
  H  H35  1  0.418123  0.611113  0.306588  1
