# generated using pymatgen
data_LaNd15Cd4(PdRu)2
_symmetry_space_group_name_H-M   'P 1'
_cell_length_a   9.98681973
_cell_length_b   9.98681946
_cell_length_c   10.05128900
_cell_angle_alpha   59.64808069
_cell_angle_beta   59.64808194
_cell_angle_gamma   59.77714306
_symmetry_Int_Tables_number   1
_chemical_formula_structural   LaNd15Cd4(PdRu)2
_chemical_formula_sum   'La1 Nd15 Cd4 Pd2 Ru2'
_cell_volume   703.88468036
_cell_formula_units_Z   1
loop_
 _symmetry_equiv_pos_site_id
 _symmetry_equiv_pos_as_xyz
  1  'x, y, z'
loop_
 _atom_site_type_symbol
 _atom_site_label
 _atom_site_symmetry_multiplicity
 _atom_site_fract_x
 _atom_site_fract_y
 _atom_site_fract_z
 _atom_site_occupancy
  La  La0  1  0.344358  0.344358  0.359104  1
  Nd  Nd1  1  0.349107  0.349107  0.944785  1
  Nd  Nd2  1  0.344526  0.954111  0.349129  1
  Nd  Nd3  1  0.954111  0.344526  0.349129  1
  Nd  Nd4  1  0.816643  0.189335  0.190345  1
  Nd  Nd5  1  0.188523  0.816499  0.803201  1
  Nd  Nd6  1  0.189335  0.816643  0.190345  1
  Nd  Nd7  1  0.816499  0.188523  0.803201  1
  Nd  Nd8  1  0.188733  0.188733  0.812880  1
  Nd  Nd9  1  0.806749  0.806749  0.193399  1
  Nd  Nd10  1  0.934869  0.559795  0.567640  1
  Nd  Nd11  1  0.558642  0.937141  0.938740  1
  Nd  Nd12  1  0.559795  0.934869  0.567640  1
  Nd  Nd13  1  0.937141  0.558642  0.938740  1
  Nd  Nd14  1  0.562896  0.562896  0.938035  1
  Nd  Nd15  1  0.937738  0.937738  0.561542  1
  Cd  Cd16  1  0.579968  0.579968  0.579701  1
  Cd  Cd17  1  0.580587  0.580587  0.259436  1
  Cd  Cd18  1  0.582465  0.257318  0.581137  1
  Cd  Cd19  1  0.257318  0.582465  0.581137  1
  Pd  Pd20  1  0.146150  0.573262  0.139666  1
  Pd  Pd21  1  0.573262  0.146150  0.139666  1
  Ru  Ru22  1  0.143372  0.143372  0.138480  1
  Ru  Ru23  1  0.147213  0.147213  0.572921  1
