# generated using pymatgen
data_ScNbCo4As3
_symmetry_space_group_name_H-M   'P 1'
_cell_length_a   3.75045900
_cell_length_b   10.80916700
_cell_length_c   12.36448400
_cell_angle_alpha   90.00000000
_cell_angle_beta   90.00000000
_cell_angle_gamma   90.00000000
_symmetry_Int_Tables_number   1
_chemical_formula_structural   ScNbCo4As3
_chemical_formula_sum   'Sc4 Nb4 Co16 As12'
_cell_volume   501.24799184
_cell_formula_units_Z   4
loop_
 _symmetry_equiv_pos_site_id
 _symmetry_equiv_pos_as_xyz
  1  'x, y, z'
loop_
 _atom_site_type_symbol
 _atom_site_label
 _atom_site_symmetry_multiplicity
 _atom_site_fract_x
 _atom_site_fract_y
 _atom_site_fract_z
 _atom_site_occupancy
  Sc  Sc0  1  0.250000  0.578971  0.706248  1
  Sc  Sc1  1  0.250000  0.921029  0.206248  1
  Sc  Sc2  1  0.750000  0.421029  0.293752  1
  Sc  Sc3  1  0.750000  0.078971  0.793752  1
  Nb  Nb4  1  0.250000  0.706133  0.989990  1
  Nb  Nb5  1  0.250000  0.793867  0.489990  1
  Nb  Nb6  1  0.750000  0.293867  0.010010  1
  Nb  Nb7  1  0.750000  0.206133  0.510010  1
  Co  Co8  1  0.250000  0.405592  0.486721  1
  Co  Co9  1  0.250000  0.094408  0.986721  1
  Co  Co10  1  0.750000  0.594408  0.513279  1
  Co  Co11  1  0.750000  0.905592  0.013279  1
  Co  Co12  1  0.250000  0.216928  0.175203  1
  Co  Co13  1  0.250000  0.283073  0.675203  1
  Co  Co14  1  0.750000  0.783073  0.824797  1
  Co  Co15  1  0.750000  0.716927  0.324797  1
  Co  Co16  1  0.250000  0.887197  0.700171  1
  Co  Co17  1  0.250000  0.612803  0.200171  1
  Co  Co18  1  0.750000  0.112803  0.299829  1
  Co  Co19  1  0.750000  0.387197  0.799829  1
  Co  Co20  1  0.250000  0.464342  0.932858  1
  Co  Co21  1  0.250000  0.035658  0.432858  1
  Co  Co22  1  0.750000  0.535658  0.067142  1
  Co  Co23  1  0.750000  0.964342  0.567142  1
  As  As24  1  0.250000  0.420220  0.121256  1
  As  As25  1  0.250000  0.079780  0.621256  1
  As  As26  1  0.750000  0.579780  0.878744  1
  As  As27  1  0.750000  0.920220  0.378744  1
  As  As28  1  0.250000  0.261502  0.859555  1
  As  As29  1  0.250000  0.238498  0.359555  1
  As  As30  1  0.750000  0.738498  0.140445  1
  As  As31  1  0.750000  0.761502  0.640445  1
  As  As32  1  0.250000  0.588151  0.387533  1
  As  As33  1  0.250000  0.911849  0.887533  1
  As  As34  1  0.750000  0.411849  0.612467  1
  As  As35  1  0.750000  0.088151  0.112467  1
