# generated using pymatgen
data_La4YbCoBi2
_symmetry_space_group_name_H-M   'P 1'
_cell_length_a   8.31498832
_cell_length_b   9.41656739
_cell_length_c   12.82100757
_cell_angle_alpha   89.77529143
_cell_angle_beta   90.33113025
_cell_angle_gamma   90.15110358
_symmetry_Int_Tables_number   1
_chemical_formula_structural   La4YbCoBi2
_chemical_formula_sum   'La16 Yb4 Co4 Bi8'
_cell_volume   1003.83963999
_cell_formula_units_Z   4
loop_
 _symmetry_equiv_pos_site_id
 _symmetry_equiv_pos_as_xyz
  1  'x, y, z'
loop_
 _atom_site_type_symbol
 _atom_site_label
 _atom_site_symmetry_multiplicity
 _atom_site_fract_x
 _atom_site_fract_y
 _atom_site_fract_z
 _atom_site_occupancy
  La  La0  1  0.363914  0.749058  0.688691  1
  La  La1  1  0.636584  0.249726  0.308611  1
  La  La2  1  0.860509  0.250033  0.805980  1
  La  La3  1  0.139203  0.751122  0.197998  1
  La  La4  1  0.889262  0.749934  0.812056  1
  La  La5  1  0.111328  0.249629  0.185283  1
  La  La6  1  0.389677  0.249242  0.681886  1
  La  La7  1  0.605948  0.749476  0.320242  1
  La  La8  1  0.819586  0.538186  0.061497  1
  La  La9  1  0.684551  0.970536  0.562758  1
  La  La10  1  0.813142  0.966418  0.062691  1
  La  La11  1  0.185867  0.028283  0.936248  1
  La  La12  1  0.071450  0.749222  0.493833  1
  La  La13  1  0.933578  0.253213  0.506514  1
  La  La14  1  0.558042  0.249574  0.006775  1
  La  La15  1  0.433916  0.748181  0.994195  1
  Yb  Yb16  1  0.682776  0.539089  0.568359  1
  Yb  Yb17  1  0.320957  0.464392  0.432454  1
  Yb  Yb18  1  0.183830  0.460672  0.930561  1
  Yb  Yb19  1  0.316677  0.035908  0.431436  1
  Co  Co20  1  0.071778  0.759364  0.995993  1
  Co  Co21  1  0.923314  0.245833  0.010810  1
  Co  Co22  1  0.581468  0.240303  0.507654  1
  Co  Co23  1  0.424229  0.753138  0.498167  1
  Bi  Bi24  1  0.575473  0.504129  0.825675  1
  Bi  Bi25  1  0.427083  0.495995  0.175147  1
  Bi  Bi26  1  0.077343  0.493566  0.672803  1
  Bi  Bi27  1  0.422159  0.003822  0.174592  1
  Bi  Bi28  1  0.921769  0.506014  0.325760  1
  Bi  Bi29  1  0.576986  0.994417  0.824242  1
  Bi  Bi30  1  0.919625  0.994745  0.328515  1
  Bi  Bi31  1  0.077975  0.006778  0.672572  1
