# generated using pymatgen
data_Pa2Al3Zn14
_symmetry_space_group_name_H-M   'P 1'
_cell_length_a   6.81266882
_cell_length_b   6.84724838
_cell_length_c   6.81266683
_cell_angle_alpha   83.21808629
_cell_angle_beta   83.12636640
_cell_angle_gamma   83.21809569
_symmetry_Int_Tables_number   1
_chemical_formula_structural   Pa2Al3Zn14
_chemical_formula_sum   'Pa2 Al3 Zn14'
_cell_volume   311.55893579
_cell_formula_units_Z   1
loop_
 _symmetry_equiv_pos_site_id
 _symmetry_equiv_pos_as_xyz
  1  'x, y, z'
loop_
 _atom_site_type_symbol
 _atom_site_label
 _atom_site_symmetry_multiplicity
 _atom_site_fract_x
 _atom_site_fract_y
 _atom_site_fract_z
 _atom_site_occupancy
  Pa  Pa0  1  0.661198  0.659795  0.661198  1
  Pa  Pa1  1  0.337292  0.338300  0.337292  1
  Al  Al2  1  0.353508  0.354311  0.837467  1
  Al  Al3  1  0.837467  0.354311  0.353508  1
  Al  Al4  1  0.100792  0.099259  0.100792  1
  Zn  Zn5  1  0.898841  0.899357  0.898841  1
  Zn  Zn6  1  0.999491  0.997433  0.502644  1
  Zn  Zn7  1  0.998217  0.504562  0.998217  1
  Zn  Zn8  1  0.502644  0.997433  0.999491  1
  Zn  Zn9  1  0.298027  0.702725  0.000741  1
  Zn  Zn10  1  0.701248  0.999773  0.299414  1
  Zn  Zn11  1  0.000494  0.297875  0.702681  1
  Zn  Zn12  1  0.702681  0.297875  0.000494  1
  Zn  Zn13  1  0.299414  0.999773  0.701248  1
  Zn  Zn14  1  0.000741  0.702725  0.298027  1
  Zn  Zn15  1  0.160955  0.648837  0.644963  1
  Zn  Zn16  1  0.644963  0.648837  0.160955  1
  Zn  Zn17  1  0.647515  0.157491  0.647515  1
  Zn  Zn18  1  0.354512  0.839327  0.354512  1
