# generated using pymatgen
data_Li3Lu4Si6Pd
_symmetry_space_group_name_H-M   'P 1'
_cell_length_a   9.02736024
_cell_length_b   9.02736062
_cell_length_c   6.56377400
_cell_angle_alpha   90.29324723
_cell_angle_beta   89.70675276
_cell_angle_gamma   153.41229207
_symmetry_Int_Tables_number   1
_chemical_formula_structural   Li3Lu4Si6Pd
_chemical_formula_sum   'Li3 Lu4 Si6 Pd1'
_cell_volume   239.40183634
_cell_formula_units_Z   1
loop_
 _symmetry_equiv_pos_site_id
 _symmetry_equiv_pos_as_xyz
  1  'x, y, z'
loop_
 _atom_site_type_symbol
 _atom_site_label
 _atom_site_symmetry_multiplicity
 _atom_site_fract_x
 _atom_site_fract_y
 _atom_site_fract_z
 _atom_site_occupancy
  Li  Li0  1  0.192412  0.807588  0.441763  1
  Li  Li1  1  0.190307  0.809693  0.059525  1
  Li  Li2  1  0.811196  0.188804  0.939334  1
  Lu  Lu3  1  0.550114  0.449886  0.252386  1
  Lu  Lu4  1  0.447272  0.552728  0.750348  1
  Lu  Lu5  1  0.343919  0.656081  0.245681  1
  Lu  Lu6  1  0.656235  0.343765  0.748507  1
  Si  Si7  1  0.940149  0.059851  0.072507  1
  Si  Si8  1  0.060929  0.939071  0.930933  1
  Si  Si9  1  0.060222  0.939778  0.571705  1
  Si  Si10  1  0.937847  0.062153  0.431567  1
  Si  Si11  1  0.720376  0.279624  0.249324  1
  Si  Si12  1  0.280584  0.719416  0.749244  1
  Pd  Pd13  1  0.808436  0.191564  0.557177  1
