# generated using pymatgen
data_Gd7Ho(Si3Ir)4
_symmetry_space_group_name_H-M   'P 1'
_cell_length_a   8.19509200
_cell_length_b   8.19141785
_cell_length_c   7.96945800
_cell_angle_alpha   90.00000000
_cell_angle_beta   90.00000000
_cell_angle_gamma   120.01483857
_symmetry_Int_Tables_number   1
_chemical_formula_structural   Gd7Ho(Si3Ir)4
_chemical_formula_sum   'Gd7 Ho1 Si12 Ir4'
_cell_volume   463.24141017
_cell_formula_units_Z   1
loop_
 _symmetry_equiv_pos_site_id
 _symmetry_equiv_pos_as_xyz
  1  'x, y, z'
loop_
 _atom_site_type_symbol
 _atom_site_label
 _atom_site_symmetry_multiplicity
 _atom_site_fract_x
 _atom_site_fract_y
 _atom_site_fract_z
 _atom_site_occupancy
  Gd  Gd0  1  0.492000  0.983999  0.750000  1
  Gd  Gd1  1  0.982157  0.490824  0.250000  1
  Gd  Gd2  1  0.016240  0.508198  0.750000  1
  Gd  Gd3  1  0.508667  0.490824  0.250000  1
  Gd  Gd4  1  0.491958  0.508198  0.750000  1
  Gd  Gd5  1  0.999993  0.999988  0.250000  1
  Gd  Gd6  1  0.999943  0.999885  0.750000  1
  Ho  Ho7  1  0.508479  0.016956  0.250000  1
  Si  Si8  1  0.167017  0.334034  0.000883  1
  Si  Si9  1  0.833533  0.667065  0.999446  1
  Si  Si10  1  0.666531  0.833211  0.001362  1
  Si  Si11  1  0.833533  0.667065  0.500554  1
  Si  Si12  1  0.332780  0.166321  0.000897  1
  Si  Si13  1  0.167017  0.334034  0.499117  1
  Si  Si14  1  0.166680  0.833211  0.001362  1
  Si  Si15  1  0.332780  0.166321  0.499103  1
  Si  Si16  1  0.833540  0.166321  0.000897  1
  Si  Si17  1  0.666531  0.833211  0.498638  1
  Si  Si18  1  0.833540  0.166321  0.499103  1
  Si  Si19  1  0.166680  0.833211  0.498638  1
  Ir  Ir20  1  0.333844  0.667689  0.032523  1
  Ir  Ir21  1  0.666356  0.332710  0.973947  1
  Ir  Ir22  1  0.666356  0.332710  0.526053  1
  Ir  Ir23  1  0.333844  0.667689  0.467477  1
