# generated using pymatgen
data_ThWF8
_symmetry_space_group_name_H-M   'P 1'
_cell_length_a   8.14601663
_cell_length_b   8.41715500
_cell_length_c   16.21414300
_cell_angle_alpha   90.00000000
_cell_angle_beta   101.05982689
_cell_angle_gamma   90.00000000
_symmetry_Int_Tables_number   1
_chemical_formula_structural   ThWF8
_chemical_formula_sum   'Th8 W8 F64'
_cell_volume   1091.09558617
_cell_formula_units_Z   8
loop_
 _symmetry_equiv_pos_site_id
 _symmetry_equiv_pos_as_xyz
  1  'x, y, z'
loop_
 _atom_site_type_symbol
 _atom_site_label
 _atom_site_symmetry_multiplicity
 _atom_site_fract_x
 _atom_site_fract_y
 _atom_site_fract_z
 _atom_site_occupancy
  Th  Th0  1  0.774966  0.095771  0.321941  1
  Th  Th1  1  0.225034  0.595771  0.178059  1
  Th  Th2  1  0.225034  0.904229  0.678059  1
  Th  Th3  1  0.774966  0.404229  0.821941  1
  Th  Th4  1  0.664967  0.599461  0.391136  1
  Th  Th5  1  0.335033  0.099461  0.108864  1
  Th  Th6  1  0.335033  0.400539  0.608864  1
  Th  Th7  1  0.664967  0.900539  0.891136  1
  W  W8  1  0.290833  0.221748  0.364168  1
  W  W9  1  0.709167  0.721748  0.135832  1
  W  W10  1  0.709167  0.778252  0.635832  1
  W  W11  1  0.290833  0.278252  0.864168  1
  W  W12  1  0.827312  0.235177  0.579324  1
  W  W13  1  0.172688  0.735177  0.920676  1
  W  W14  1  0.172688  0.764823  0.420676  1
  W  W15  1  0.827312  0.264823  0.079324  1
  F  F16  1  0.577572  0.273524  0.569613  1
  F  F17  1  0.422428  0.773524  0.930387  1
  F  F18  1  0.422428  0.726476  0.430387  1
  F  F19  1  0.577572  0.226476  0.069613  1
  F  F20  1  0.038723  0.217624  0.354428  1
  F  F21  1  0.961277  0.717624  0.145572  1
  F  F22  1  0.961277  0.782376  0.645572  1
  F  F23  1  0.038723  0.282376  0.854428  1
  F  F24  1  0.446554  0.412190  0.408211  1
  F  F25  1  0.553446  0.912190  0.091789  1
  F  F26  1  0.553446  0.587810  0.591789  1
  F  F27  1  0.446554  0.087810  0.908211  1
  F  F28  1  0.041672  0.372298  0.588945  1
  F  F29  1  0.958328  0.872298  0.911055  1
  F  F30  1  0.958328  0.627702  0.411055  1
  F  F31  1  0.041672  0.127702  0.088945  1
  F  F32  1  0.244936  0.125925  0.246862  1
  F  F33  1  0.755064  0.625925  0.253138  1
  F  F34  1  0.755064  0.874075  0.753138  1
  F  F35  1  0.244936  0.374075  0.746862  1
  F  F36  1  0.843791  0.282310  0.703520  1
  F  F37  1  0.156209  0.782310  0.796480  1
  F  F38  1  0.156209  0.717690  0.296480  1
  F  F39  1  0.843791  0.217690  0.203520  1
  F  F40  1  0.846991  0.136592  0.466590  1
  F  F41  1  0.153009  0.636592  0.033410  1
  F  F42  1  0.153009  0.863408  0.533410  1
  F  F43  1  0.846991  0.363408  0.966590  1
  F  F44  1  0.532227  0.139453  0.380926  1
  F  F45  1  0.467773  0.639453  0.119074  1
  F  F46  1  0.467773  0.860547  0.619074  1
  F  F47  1  0.532227  0.360547  0.880926  1
  F  F48  1  0.795115  0.915070  0.209535  1
  F  F49  1  0.204885  0.415070  0.290465  1
  F  F50  1  0.204885  0.084930  0.790465  1
  F  F51  1  0.795115  0.584930  0.709535  1
  F  F52  1  0.265409  0.243131  0.488302  1
  F  F53  1  0.734591  0.743131  0.011698  1
  F  F54  1  0.734591  0.756869  0.511698  1
  F  F55  1  0.265409  0.256869  0.988302  1
  F  F56  1  0.979328  0.910121  0.375314  1
  F  F57  1  0.020672  0.410121  0.124686  1
  F  F58  1  0.020672  0.089879  0.624686  1
  F  F59  1  0.979328  0.589879  0.875314  1
  F  F60  1  0.278872  0.983917  0.398945  1
  F  F61  1  0.721128  0.483917  0.101055  1
  F  F62  1  0.721128  0.016083  0.601055  1
  F  F63  1  0.278872  0.516083  0.898945  1
  F  F64  1  0.457876  0.616229  0.277862  1
  F  F65  1  0.542124  0.116229  0.222138  1
  F  F66  1  0.542124  0.383771  0.722138  1
  F  F67  1  0.457876  0.883771  0.777862  1
  F  F68  1  0.652064  0.859019  0.347878  1
  F  F69  1  0.347936  0.359019  0.152122  1
  F  F70  1  0.347936  0.140981  0.652122  1
  F  F71  1  0.652064  0.640981  0.847878  1
  F  F72  1  0.771824  0.433817  0.505579  1
  F  F73  1  0.228175  0.933817  0.994421  1
  F  F74  1  0.228175  0.566183  0.494421  1
  F  F75  1  0.771824  0.066183  0.005579  1
  F  F76  1  0.726950  0.364292  0.333745  1
  F  F77  1  0.273050  0.864292  0.166255  1
  F  F78  1  0.273050  0.635708  0.666255  1
  F  F79  1  0.726950  0.135708  0.833745  1
