# generated using pymatgen
data_Dy3Sc3(Si3Pt2)4
_symmetry_space_group_name_H-M   'P 1'
_cell_length_a   4.15205500
_cell_length_b   8.42345550
_cell_length_c   13.00494700
_cell_angle_alpha   80.75673193
_cell_angle_beta   90.00000000
_cell_angle_gamma   90.00000000
_symmetry_Int_Tables_number   1
_chemical_formula_structural   Dy3Sc3(Si3Pt2)4
_chemical_formula_sum   'Dy3 Sc3 Si12 Pt8'
_cell_volume   448.93744565
_cell_formula_units_Z   1
loop_
 _symmetry_equiv_pos_site_id
 _symmetry_equiv_pos_as_xyz
  1  'x, y, z'
loop_
 _atom_site_type_symbol
 _atom_site_label
 _atom_site_symmetry_multiplicity
 _atom_site_fract_x
 _atom_site_fract_y
 _atom_site_fract_z
 _atom_site_occupancy
  Dy  Dy0  1  0.750000  0.419299  0.807155  1
  Dy  Dy1  1  0.750000  0.926473  0.809882  1
  Dy  Dy2  1  0.250000  0.072819  0.189798  1
  Sc  Sc3  1  0.250000  0.765044  0.436297  1
  Sc  Sc4  1  0.250000  0.583597  0.195938  1
  Sc  Sc5  1  0.750000  0.234471  0.562581  1
  Si  Si6  1  0.750000  0.589029  0.561934  1
  Si  Si7  1  0.750000  0.124371  0.007904  1
  Si  Si8  1  0.750000  0.877226  0.563164  1
  Si  Si9  1  0.250000  0.697009  0.714891  1
  Si  Si10  1  0.750000  0.304152  0.284325  1
  Si  Si11  1  0.750000  0.803380  0.279492  1
  Si  Si12  1  0.250000  0.873803  0.995093  1
  Si  Si13  1  0.250000  0.194715  0.720418  1
  Si  Si14  1  0.250000  0.380165  0.999579  1
  Si  Si15  1  0.250000  0.122133  0.435763  1
  Si  Si16  1  0.750000  0.621231  0.002813  1
  Si  Si17  1  0.250000  0.410815  0.434968  1
  Pt  Pt18  1  0.750000  0.353974  0.100575  1
  Pt  Pt19  1  0.250000  0.971667  0.621509  1
  Pt  Pt20  1  0.750000  0.846408  0.093817  1
  Pt  Pt21  1  0.750000  0.028406  0.376887  1
  Pt  Pt22  1  0.250000  0.648983  0.900002  1
  Pt  Pt23  1  0.250000  0.150826  0.908775  1
  Pt  Pt24  1  0.750000  0.532477  0.375132  1
  Pt  Pt25  1  0.250000  0.467527  0.621311  1
