# generated using pymatgen
data_YbCe4Si3
_symmetry_space_group_name_H-M   'P 1'
_cell_length_a   8.49232642
_cell_length_b   8.49232592
_cell_length_c   8.49232648
_cell_angle_alpha   125.62598720
_cell_angle_beta   125.62598397
_cell_angle_gamma   80.50373224
_symmetry_Int_Tables_number   1
_chemical_formula_structural   YbCe4Si3
_chemical_formula_sum   'Yb2 Ce8 Si6'
_cell_volume   390.31928380
_cell_formula_units_Z   2
loop_
 _symmetry_equiv_pos_site_id
 _symmetry_equiv_pos_as_xyz
  1  'x, y, z'
loop_
 _atom_site_type_symbol
 _atom_site_label
 _atom_site_symmetry_multiplicity
 _atom_site_fract_x
 _atom_site_fract_y
 _atom_site_fract_z
 _atom_site_occupancy
  Yb  Yb0  1  0.500000  0.500000  0.000000  1
  Yb  Yb1  1  0.000000  0.000000  0.000000  1
  Ce  Ce2  1  0.524507  0.662472  0.500000  1
  Ce  Ce3  1  0.837528  0.975493  0.500000  1
  Ce  Ce4  1  0.337528  0.837528  0.862035  1
  Ce  Ce5  1  0.475493  0.337528  0.500000  1
  Ce  Ce6  1  0.162472  0.024507  0.500000  1
  Ce  Ce7  1  0.975493  0.475493  0.137965  1
  Ce  Ce8  1  0.662472  0.162472  0.137965  1
  Ce  Ce9  1  0.024507  0.524507  0.862035  1
  Si  Si10  1  0.886964  0.613036  0.500000  1
  Si  Si11  1  0.386964  0.886964  0.273928  1
  Si  Si12  1  0.613036  0.113036  0.726072  1
  Si  Si13  1  0.113036  0.386964  0.500000  1
  Si  Si14  1  0.250000  0.250000  0.000000  1
  Si  Si15  1  0.750000  0.750000  0.000000  1
