# generated using pymatgen
data_Dy3Zr(Al3Rh)6
_symmetry_space_group_name_H-M   'P 1'
_cell_length_a   7.53636128
_cell_length_b   7.52825191
_cell_length_c   9.42031700
_cell_angle_alpha   90.00000000
_cell_angle_beta   90.00000000
_cell_angle_gamma   119.54313886
_symmetry_Int_Tables_number   1
_chemical_formula_structural   Dy3Zr(Al3Rh)6
_chemical_formula_sum   'Dy3 Zr1 Al18 Rh6'
_cell_volume   464.97861871
_cell_formula_units_Z   1
loop_
 _symmetry_equiv_pos_site_id
 _symmetry_equiv_pos_as_xyz
  1  'x, y, z'
loop_
 _atom_site_type_symbol
 _atom_site_label
 _atom_site_symmetry_multiplicity
 _atom_site_fract_x
 _atom_site_fract_y
 _atom_site_fract_z
 _atom_site_occupancy
  Dy  Dy0  1  0.006176  0.328103  0.250000  1
  Dy  Dy1  1  0.671346  0.995511  0.750000  1
  Dy  Dy2  1  0.329111  0.006393  0.250000  1
  Zr  Zr3  1  0.996019  0.671430  0.750000  1
  Al  Al4  1  0.123549  0.121551  0.750000  1
  Al  Al5  1  0.872122  0.870480  0.250000  1
  Al  Al6  1  0.999996  0.338134  0.580002  1
  Al  Al7  1  0.999719  0.665040  0.428948  1
  Al  Al8  1  0.999719  0.665040  0.071052  1
  Al  Al9  1  0.332344  0.997811  0.919958  1
  Al  Al10  1  0.999996  0.338134  0.919998  1
  Al  Al11  1  0.664511  0.998339  0.075096  1
  Al  Al12  1  0.664511  0.998339  0.424904  1
  Al  Al13  1  0.332344  0.997811  0.580042  1
  Al  Al14  1  0.333591  0.333512  0.048316  1
  Al  Al15  1  0.669274  0.667347  0.943745  1
  Al  Al16  1  0.669274  0.667347  0.556255  1
  Al  Al17  1  0.333591  0.333512  0.451684  1
  Al  Al18  1  0.336207  0.551160  0.750000  1
  Al  Al19  1  0.661411  0.451260  0.250000  1
  Al  Al20  1  0.556494  0.344605  0.750000  1
  Al  Al21  1  0.449662  0.659325  0.250000  1
  Rh  Rh22  1  0.672594  0.328094  0.501277  1
  Rh  Rh23  1  0.327819  0.672495  0.501868  1
  Rh  Rh24  1  0.327819  0.672495  0.998132  1
  Rh  Rh25  1  0.672594  0.328094  0.998723  1
  Rh  Rh26  1  0.999104  0.999319  0.501213  1
  Rh  Rh27  1  0.999104  0.999319  0.998787  1
