# generated using pymatgen
data_Hf18MnVCoRe7
_symmetry_space_group_name_H-M   'P 1'
_cell_length_a   8.57203700
_cell_length_b   8.57203692
_cell_length_c   8.44846200
_cell_angle_alpha   90.00000000
_cell_angle_beta   90.00000000
_cell_angle_gamma   119.99999645
_symmetry_Int_Tables_number   1
_chemical_formula_structural   Hf18MnVCoRe7
_chemical_formula_sum   'Hf18 Mn1 V1 Co1 Re7'
_cell_volume   537.62118286
_cell_formula_units_Z   1
loop_
 _symmetry_equiv_pos_site_id
 _symmetry_equiv_pos_as_xyz
  1  'x, y, z'
loop_
 _atom_site_type_symbol
 _atom_site_label
 _atom_site_symmetry_multiplicity
 _atom_site_fract_x
 _atom_site_fract_y
 _atom_site_fract_z
 _atom_site_occupancy
  Hf  Hf0  1  0.199478  0.800522  0.443057  1
  Hf  Hf1  1  0.199478  0.398957  0.443057  1
  Hf  Hf2  1  0.601043  0.800522  0.443057  1
  Hf  Hf3  1  0.800916  0.199084  0.558338  1
  Hf  Hf4  1  0.800916  0.601829  0.558338  1
  Hf  Hf5  1  0.398171  0.199084  0.558338  1
  Hf  Hf6  1  0.801013  0.198987  0.940552  1
  Hf  Hf7  1  0.801013  0.602024  0.940552  1
  Hf  Hf8  1  0.397976  0.198987  0.940552  1
  Hf  Hf9  1  0.200573  0.799427  0.058166  1
  Hf  Hf10  1  0.200573  0.401147  0.058166  1
  Hf  Hf11  1  0.598853  0.799427  0.058166  1
  Hf  Hf12  1  0.540150  0.459850  0.250051  1
  Hf  Hf13  1  0.540150  0.080300  0.250051  1
  Hf  Hf14  1  0.919700  0.459850  0.250051  1
  Hf  Hf15  1  0.458936  0.541064  0.750043  1
  Hf  Hf16  1  0.458936  0.917873  0.750043  1
  Hf  Hf17  1  0.082127  0.541064  0.750043  1
  Mn  Mn18  1  0.333333  0.666667  0.250993  1
  V  V19  1  0.000000  0.000000  0.497361  1
  Co  Co20  1  0.666667  0.333333  0.750541  1
  Re  Re21  1  0.889245  0.110755  0.253916  1
  Re  Re22  1  0.889245  0.778490  0.253916  1
  Re  Re23  1  0.221510  0.110755  0.253916  1
  Re  Re24  1  0.110400  0.889600  0.745860  1
  Re  Re25  1  0.110400  0.220799  0.745860  1
  Re  Re26  1  0.779201  0.889600  0.745860  1
  Re  Re27  1  0.000000  0.000000  0.001157  1
