# generated using pymatgen
data_Ca5Zr3(Ni4As3)4
_symmetry_space_group_name_H-M   'P 1'
_cell_length_a   12.77992700
_cell_length_b   12.77992600
_cell_length_c   3.91077600
_cell_angle_alpha   90.00000000
_cell_angle_beta   90.00000000
_cell_angle_gamma   120.00000517
_symmetry_Int_Tables_number   1
_chemical_formula_structural   Ca5Zr3(Ni4As3)4
_chemical_formula_sum   'Ca5 Zr3 Ni16 As12'
_cell_volume   553.15935644
_cell_formula_units_Z   1
loop_
 _symmetry_equiv_pos_site_id
 _symmetry_equiv_pos_as_xyz
  1  'x, y, z'
loop_
 _atom_site_type_symbol
 _atom_site_label
 _atom_site_symmetry_multiplicity
 _atom_site_fract_x
 _atom_site_fract_y
 _atom_site_fract_z
 _atom_site_occupancy
  Ca  Ca0  1  0.183428  0.183428  0.500000  1
  Ca  Ca1  1  0.816572  0.000000  0.500000  1
  Ca  Ca2  1  0.000000  0.816572  0.500000  1
  Ca  Ca3  1  0.333333  0.666667  0.000000  1
  Ca  Ca4  1  0.666667  0.333333  0.000000  1
  Zr  Zr5  1  0.563493  0.563493  0.000000  1
  Zr  Zr6  1  0.436507  0.000000  0.000000  1
  Zr  Zr7  1  0.000000  0.436507  0.000000  1
  Ni  Ni8  1  0.722606  0.722606  0.500000  1
  Ni  Ni9  1  0.277394  0.000000  0.500000  1
  Ni  Ni10  1  0.000000  0.277394  0.500000  1
  Ni  Ni11  1  0.184159  0.377891  0.000000  1
  Ni  Ni12  1  0.622109  0.806268  0.000000  1
  Ni  Ni13  1  0.193732  0.815841  0.000000  1
  Ni  Ni14  1  0.806268  0.622109  0.000000  1
  Ni  Ni15  1  0.815841  0.193732  0.000000  1
  Ni  Ni16  1  0.377891  0.184159  0.000000  1
  Ni  Ni17  1  0.361692  0.482461  0.500000  1
  Ni  Ni18  1  0.517539  0.879232  0.500000  1
  Ni  Ni19  1  0.120768  0.638308  0.500000  1
  Ni  Ni20  1  0.879232  0.517539  0.500000  1
  Ni  Ni21  1  0.638308  0.120768  0.500000  1
  Ni  Ni22  1  0.482461  0.361692  0.500000  1
  Ni  Ni23  1  0.000000  0.000000  0.000000  1
  As  As24  1  0.821237  0.821237  0.000000  1
  As  As25  1  0.178763  0.000000  0.000000  1
  As  As26  1  0.000000  0.178763  0.000000  1
  As  As27  1  0.171842  0.478314  0.500000  1
  As  As28  1  0.521686  0.693528  0.500000  1
  As  As29  1  0.306472  0.828158  0.500000  1
  As  As30  1  0.693528  0.521686  0.500000  1
  As  As31  1  0.828158  0.306472  0.500000  1
  As  As32  1  0.478314  0.171842  0.500000  1
  As  As33  1  0.355084  0.355084  0.000000  1
  As  As34  1  0.644916  0.000000  0.000000  1
  As  As35  1  0.000000  0.644916  0.000000  1
