# generated using pymatgen
data_AcAl9Fe2
_symmetry_space_group_name_H-M   'P 1'
_cell_length_a   7.92625100
_cell_length_b   7.92625149
_cell_length_c   3.91932500
_cell_angle_alpha   90.00000000
_cell_angle_beta   90.00000000
_cell_angle_gamma   120.00000213
_symmetry_Int_Tables_number   1
_chemical_formula_structural   AcAl9Fe2
_chemical_formula_sum   'Ac1 Al9 Fe2'
_cell_volume   213.24436756
_cell_formula_units_Z   1
loop_
 _symmetry_equiv_pos_site_id
 _symmetry_equiv_pos_as_xyz
  1  'x, y, z'
loop_
 _atom_site_type_symbol
 _atom_site_label
 _atom_site_symmetry_multiplicity
 _atom_site_fract_x
 _atom_site_fract_y
 _atom_site_fract_z
 _atom_site_occupancy
  Ac  Ac0  1  0.000000  0.000000  0.000000  1
  Al  Al1  1  0.500000  0.000000  0.000000  1
  Al  Al2  1  0.000000  0.500001  0.000000  1
  Al  Al3  1  0.500000  0.500001  0.000000  1
  Al  Al4  1  0.428997  0.214498  0.499999  1
  Al  Al5  1  0.785503  0.214498  0.499999  1
  Al  Al6  1  0.214498  0.428997  0.499999  1
  Al  Al7  1  0.785502  0.571003  0.499999  1
  Al  Al8  1  0.214498  0.785502  0.499999  1
  Al  Al9  1  0.571003  0.785502  0.499999  1
  Fe  Fe10  1  0.666667  0.333333  0.000000  1
  Fe  Fe11  1  0.333334  0.666667  0.000000  1
