# generated using pymatgen
data_Dy3PaIn2Ir3
_symmetry_space_group_name_H-M   'P 1'
_cell_length_a   7.49724110
_cell_length_b   7.34660650
_cell_length_c   4.22012100
_cell_angle_alpha   90.00000000
_cell_angle_beta   90.00000000
_cell_angle_gamma   119.33755291
_symmetry_Int_Tables_number   1
_chemical_formula_structural   Dy3PaIn2Ir3
_chemical_formula_sum   'Dy3 Pa1 In2 Ir3'
_cell_volume   202.63025199
_cell_formula_units_Z   1
loop_
 _symmetry_equiv_pos_site_id
 _symmetry_equiv_pos_as_xyz
  1  'x, y, z'
loop_
 _atom_site_type_symbol
 _atom_site_label
 _atom_site_symmetry_multiplicity
 _atom_site_fract_x
 _atom_site_fract_y
 _atom_site_fract_z
 _atom_site_occupancy
  Dy  Dy0  1  0.568112  0.592699  0.000000  1
  Dy  Dy1  1  0.431888  0.024588  0.000000  1
  Dy  Dy2  1  0.000000  0.376684  0.000000  1
  Pa  Pa3  1  0.000000  0.734130  0.500000  1
  In  In4  1  0.257023  0.256043  0.500000  1
  In  In5  1  0.742977  0.999020  0.500000  1
  Ir  Ir6  1  0.000000  0.981863  0.000000  1
  Ir  Ir7  1  0.683578  0.359276  0.500000  1
  Ir  Ir8  1  0.316422  0.675698  0.500000  1
