# generated using pymatgen
data_Zr3PaS8
_symmetry_space_group_name_H-M   'P 1'
_cell_length_a   7.73101753
_cell_length_b   7.73101759
_cell_length_c   7.73101787
_cell_angle_alpha   56.85100764
_cell_angle_beta   56.85100213
_cell_angle_gamma   56.85100187
_symmetry_Int_Tables_number   1
_chemical_formula_structural   Zr3PaS8
_chemical_formula_sum   'Zr3 Pa1 S8'
_cell_volume   302.99337895
_cell_formula_units_Z   1
loop_
 _symmetry_equiv_pos_site_id
 _symmetry_equiv_pos_as_xyz
  1  'x, y, z'
loop_
 _atom_site_type_symbol
 _atom_site_label
 _atom_site_symmetry_multiplicity
 _atom_site_fract_x
 _atom_site_fract_y
 _atom_site_fract_z
 _atom_site_occupancy
  Zr  Zr0  1  0.125000  0.625001  0.125000  1
  Zr  Zr1  1  0.625001  0.125000  0.125000  1
  Zr  Zr2  1  0.125000  0.125000  0.625001  1
  Pa  Pa3  1  0.125000  0.125000  0.125000  1
  S  S4  1  0.875850  0.875850  0.360514  1
  S  S5  1  0.889484  0.374150  0.374150  1
  S  S6  1  0.366855  0.366855  0.366855  1
  S  S7  1  0.374150  0.889484  0.374150  1
  S  S8  1  0.883145  0.883145  0.883145  1
  S  S9  1  0.360514  0.875850  0.875850  1
  S  S10  1  0.875850  0.360514  0.875850  1
  S  S11  1  0.374150  0.374150  0.889484  1
