# generated using pymatgen
data_Ho4Er6IrRu3
_symmetry_space_group_name_H-M   'P 1'
_cell_length_a   6.30250435
_cell_length_b   7.28559994
_cell_length_c   8.39848046
_cell_angle_alpha   96.80790414
_cell_angle_beta   111.93800030
_cell_angle_gamma   90.12750323
_symmetry_Int_Tables_number   1
_chemical_formula_structural   Ho4Er6IrRu3
_chemical_formula_sum   'Ho4 Er6 Ir1 Ru3'
_cell_volume   354.73755030
_cell_formula_units_Z   1
loop_
 _symmetry_equiv_pos_site_id
 _symmetry_equiv_pos_as_xyz
  1  'x, y, z'
loop_
 _atom_site_type_symbol
 _atom_site_label
 _atom_site_symmetry_multiplicity
 _atom_site_fract_x
 _atom_site_fract_y
 _atom_site_fract_z
 _atom_site_occupancy
  Ho  Ho0  1  0.792442  0.582322  0.814420  1
  Ho  Ho1  1  0.978491  0.914985  0.187188  1
  Ho  Ho2  1  0.208353  0.415456  0.186234  1
  Ho  Ho3  1  0.024226  0.085562  0.814554  1
  Er  Er4  1  0.204877  0.683986  0.564473  1
  Er  Er5  1  0.641990  0.815796  0.434391  1
  Er  Er6  1  0.793832  0.314955  0.434811  1
  Er  Er7  1  0.356918  0.185732  0.563743  1
  Er  Er8  1  0.419786  0.749705  0.000343  1
  Er  Er9  1  0.580263  0.251351  0.000752  1
  Ir  Ir10  1  0.600899  0.923302  0.778703  1
  Ru  Ru11  1  0.823693  0.576721  0.220292  1
  Ru  Ru12  1  0.396425  0.075916  0.220761  1
  Ru  Ru13  1  0.177805  0.424208  0.779334  1
