# generated using pymatgen
data_Y2Co3Si4Ir2Rh
_symmetry_space_group_name_H-M   'P 1'
_cell_length_a   6.47115488
_cell_length_b   6.54745549
_cell_length_c   6.46740914
_cell_angle_alpha   131.46447328
_cell_angle_beta   113.87571878
_cell_angle_gamma   85.82790328
_symmetry_Int_Tables_number   1
_chemical_formula_structural   Y2Co3Si4Ir2Rh
_chemical_formula_sum   'Y2 Co3 Si4 Ir2 Rh1'
_cell_volume   179.98606528
_cell_formula_units_Z   1
loop_
 _symmetry_equiv_pos_site_id
 _symmetry_equiv_pos_as_xyz
  1  'x, y, z'
loop_
 _atom_site_type_symbol
 _atom_site_label
 _atom_site_symmetry_multiplicity
 _atom_site_fract_x
 _atom_site_fract_y
 _atom_site_fract_z
 _atom_site_occupancy
  Y  Y0  1  0.253713  0.530620  0.280273  1
  Y  Y1  1  0.751734  0.469334  0.724487  1
  Co  Co2  1  0.720245  0.000065  0.720193  1
  Co  Co3  1  0.219479  0.499771  0.719332  1
  Co  Co4  1  0.277426  0.999782  0.277600  1
  Si  Si5  1  0.078907  0.876880  0.809578  1
  Si  Si6  1  0.930939  0.122959  0.200618  1
  Si  Si7  1  0.563567  0.780645  0.201342  1
  Si  Si8  1  0.422688  0.220373  0.784266  1
  Ir  Ir9  1  0.779842  0.498945  0.279967  1
  Ir  Ir10  1  0.002538  0.011336  0.510926  1
  Rh  Rh11  1  0.498921  0.989290  0.991418  1
