# generated using pymatgen
data_Ce4Al6IrAu
_symmetry_space_group_name_H-M   'P 1'
_cell_length_a   5.73754000
_cell_length_b   5.73753952
_cell_length_c   8.48925000
_cell_angle_alpha   90.00000000
_cell_angle_beta   90.00000000
_cell_angle_gamma   119.99997968
_symmetry_Int_Tables_number   1
_chemical_formula_structural   Ce4Al6IrAu
_chemical_formula_sum   'Ce4 Al6 Ir1 Au1'
_cell_volume   242.02011360
_cell_formula_units_Z   1
loop_
 _symmetry_equiv_pos_site_id
 _symmetry_equiv_pos_as_xyz
  1  'x, y, z'
loop_
 _atom_site_type_symbol
 _atom_site_label
 _atom_site_symmetry_multiplicity
 _atom_site_fract_x
 _atom_site_fract_y
 _atom_site_fract_z
 _atom_site_occupancy
  Ce  Ce0  1  0.333333  0.666667  0.414651  1
  Ce  Ce1  1  0.666667  0.333333  0.585349  1
  Ce  Ce2  1  0.666667  0.333333  0.910961  1
  Ce  Ce3  1  0.333333  0.666667  0.089039  1
  Al  Al4  1  0.834791  0.165209  0.241993  1
  Al  Al5  1  0.834791  0.669581  0.241993  1
  Al  Al6  1  0.330419  0.165209  0.241993  1
  Al  Al7  1  0.165209  0.834791  0.758007  1
  Al  Al8  1  0.165209  0.330419  0.758007  1
  Al  Al9  1  0.669581  0.834791  0.758007  1
  Ir  Ir10  1  0.000000  0.000000  0.000000  1
  Au  Au11  1  0.000000  0.000000  0.500000  1
