# generated using pymatgen
data_Lu2Ga3Tc14C3
_symmetry_space_group_name_H-M   'P 1'
_cell_length_a   6.93814854
_cell_length_b   6.93814960
_cell_length_c   6.93814853
_cell_angle_alpha   82.08335585
_cell_angle_beta   82.08335506
_cell_angle_gamma   82.08336162
_symmetry_Int_Tables_number   1
_chemical_formula_structural   Lu2Ga3Tc14C3
_chemical_formula_sum   'Lu2 Ga3 Tc14 C3'
_cell_volume   325.24241476
_cell_formula_units_Z   1
loop_
 _symmetry_equiv_pos_site_id
 _symmetry_equiv_pos_as_xyz
  1  'x, y, z'
loop_
 _atom_site_type_symbol
 _atom_site_label
 _atom_site_symmetry_multiplicity
 _atom_site_fract_x
 _atom_site_fract_y
 _atom_site_fract_z
 _atom_site_occupancy
  Lu  Lu0  1  0.344381  0.344381  0.344381  1
  Lu  Lu1  1  0.655619  0.655619  0.655619  1
  Ga  Ga2  1  0.000000  0.000000  0.500000  1
  Ga  Ga3  1  0.000000  0.500000  0.000000  1
  Ga  Ga4  1  0.500000  0.000000  0.000000  1
  Tc  Tc5  1  0.096349  0.096349  0.096349  1
  Tc  Tc6  1  0.903651  0.903651  0.903651  1
  Tc  Tc7  1  0.723072  0.276928  0.000000  1
  Tc  Tc8  1  0.276928  0.000000  0.723072  1
  Tc  Tc9  1  0.000000  0.723072  0.276928  1
  Tc  Tc10  1  0.276928  0.723072  0.000000  1
  Tc  Tc11  1  0.723072  0.000000  0.276928  1
  Tc  Tc12  1  0.000000  0.276928  0.723072  1
  Tc  Tc13  1  0.152514  0.647205  0.647205  1
  Tc  Tc14  1  0.647205  0.647205  0.152514  1
  Tc  Tc15  1  0.647205  0.152514  0.647205  1
  Tc  Tc16  1  0.352795  0.847486  0.352795  1
  Tc  Tc17  1  0.352795  0.352795  0.847486  1
  Tc  Tc18  1  0.847486  0.352795  0.352795  1
  C  C19  1  0.500000  0.500000  0.000000  1
  C  C20  1  0.500000  0.000000  0.500000  1
  C  C21  1  0.000000  0.500000  0.500000  1
