# generated using pymatgen
data_Ti20(Si3S)3
_symmetry_space_group_name_H-M   'P 1'
_cell_length_a   6.56690057
_cell_length_b   7.63962300
_cell_length_c   9.76661668
_cell_angle_alpha   90.00000000
_cell_angle_beta   89.99178995
_cell_angle_gamma   90.00000000
_symmetry_Int_Tables_number   1
_chemical_formula_structural   Ti20(Si3S)3
_chemical_formula_sum   'Ti20 Si9 S3'
_cell_volume   489.97791609
_cell_formula_units_Z   1
loop_
 _symmetry_equiv_pos_site_id
 _symmetry_equiv_pos_as_xyz
  1  'x, y, z'
loop_
 _atom_site_type_symbol
 _atom_site_label
 _atom_site_symmetry_multiplicity
 _atom_site_fract_x
 _atom_site_fract_y
 _atom_site_fract_z
 _atom_site_occupancy
  Ti  Ti0  1  0.840869  0.750000  0.212867  1
  Ti  Ti1  1  0.651644  0.750000  0.707280  1
  Ti  Ti2  1  0.150478  0.250000  0.790696  1
  Ti  Ti3  1  0.347262  0.250000  0.293056  1
  Ti  Ti4  1  0.332306  0.750000  0.276571  1
  Ti  Ti5  1  0.167610  0.750000  0.776014  1
  Ti  Ti6  1  0.661321  0.250000  0.717090  1
  Ti  Ti7  1  0.837066  0.250000  0.220728  1
  Ti  Ti8  1  0.686245  0.951080  0.438523  1
  Ti  Ti9  1  0.811097  0.546279  0.938268  1
  Ti  Ti10  1  0.311531  0.450593  0.561856  1
  Ti  Ti11  1  0.192280  0.055537  0.061418  1
  Ti  Ti12  1  0.311531  0.049407  0.561856  1
  Ti  Ti13  1  0.192280  0.444463  0.061418  1
  Ti  Ti14  1  0.686245  0.548920  0.438523  1
  Ti  Ti15  1  0.811097  0.953721  0.938268  1
  Ti  Ti16  1  0.025701  0.750000  0.498126  1
  Ti  Ti17  1  0.480936  0.750000  0.997916  1
  Ti  Ti18  1  0.971054  0.250000  0.500937  1
  Ti  Ti19  1  0.531076  0.250000  0.999470  1
  Si  Si20  1  0.566241  0.506909  0.175451  1
  Si  Si21  1  0.932044  0.991256  0.674167  1
  Si  Si22  1  0.432531  0.008793  0.825662  1
  Si  Si23  1  0.065978  0.491244  0.324891  1
  Si  Si24  1  0.432531  0.491207  0.825662  1
  Si  Si25  1  0.065978  0.008756  0.324891  1
  Si  Si26  1  0.566241  0.993091  0.175451  1
  Si  Si27  1  0.932044  0.508744  0.674167  1
  Si  Si28  1  0.094884  0.750000  0.027609  1
  S  S29  1  0.410710  0.750000  0.520053  1
  S  S30  1  0.915424  0.250000  0.981471  1
  S  S31  1  0.585768  0.250000  0.479643  1
