# generated using pymatgen
data_Cs2TbSm(GeSe4)2
_symmetry_space_group_name_H-M   'P 1'
_cell_length_a   6.82144582
_cell_length_b   7.16034286
_cell_length_c   18.76591100
_cell_angle_alpha   89.99996566
_cell_angle_beta   89.99993586
_cell_angle_gamma   89.94369454
_symmetry_Int_Tables_number   1
_chemical_formula_structural   Cs2TbSm(GeSe4)2
_chemical_formula_sum   'Cs4 Tb2 Sm2 Ge4 Se16'
_cell_volume   916.59966743
_cell_formula_units_Z   2
loop_
 _symmetry_equiv_pos_site_id
 _symmetry_equiv_pos_as_xyz
  1  'x, y, z'
loop_
 _atom_site_type_symbol
 _atom_site_label
 _atom_site_symmetry_multiplicity
 _atom_site_fract_x
 _atom_site_fract_y
 _atom_site_fract_z
 _atom_site_occupancy
  Cs  Cs0  1  0.995960  0.006471  0.031341  1
  Cs  Cs1  1  0.504039  0.993530  0.531342  1
  Cs  Cs2  1  0.495403  0.493311  0.968452  1
  Cs  Cs3  1  0.004599  0.506690  0.468453  1
  Tb  Tb4  1  0.206683  0.518076  0.727301  1
  Tb  Tb5  1  0.293317  0.481923  0.227302  1
  Sm  Sm6  1  0.706676  0.983532  0.272507  1
  Sm  Sm7  1  0.793324  0.016469  0.772507  1
  Ge  Ge8  1  0.289587  0.981403  0.832926  1
  Ge  Ge9  1  0.210413  0.018596  0.332926  1
  Ge  Ge10  1  0.789663  0.518685  0.166981  1
  Ge  Ge11  1  0.710336  0.481314  0.666982  1
  Se  Se12  1  0.401191  0.905205  0.716459  1
  Se  Se13  1  0.098810  0.094795  0.216459  1
  Se  Se14  1  0.907057  0.591649  0.282856  1
  Se  Se15  1  0.592942  0.408351  0.782856  1
  Se  Se16  1  0.095619  0.257997  0.845399  1
  Se  Se17  1  0.404381  0.742003  0.345399  1
  Se  Se18  1  0.592068  0.245347  0.153955  1
  Se  Se19  1  0.907931  0.754653  0.653954  1
  Se  Se20  1  0.054486  0.739855  0.853742  1
  Se  Se21  1  0.445515  0.260144  0.353742  1
  Se  Se22  1  0.550326  0.756791  0.146501  1
  Se  Se23  1  0.949674  0.243209  0.646501  1
  Se  Se24  1  0.432290  0.486098  0.592255  1
  Se  Se25  1  0.067710  0.513902  0.092255  1
  Se  Se26  1  0.935983  0.014005  0.409324  1
  Se  Se27  1  0.564017  0.985995  0.909323  1
