# generated using pymatgen
data_FeCu5F18
_symmetry_space_group_name_H-M   'P 1'
_cell_length_a   7.22009674
_cell_length_b   7.27596851
_cell_length_c   7.39834916
_cell_angle_alpha   90.00497534
_cell_angle_beta   89.73372182
_cell_angle_gamma   119.58512838
_symmetry_Int_Tables_number   1
_chemical_formula_structural   FeCu5F18
_chemical_formula_sum   'Fe1 Cu5 F18'
_cell_volume   337.98204724
_cell_formula_units_Z   1
loop_
 _symmetry_equiv_pos_site_id
 _symmetry_equiv_pos_as_xyz
  1  'x, y, z'
loop_
 _atom_site_type_symbol
 _atom_site_label
 _atom_site_symmetry_multiplicity
 _atom_site_fract_x
 _atom_site_fract_y
 _atom_site_fract_z
 _atom_site_occupancy
  Fe  Fe0  1  0.500000  0.000000  0.000000  1
  Cu  Cu1  1  0.000000  0.500000  0.500000  1
  Cu  Cu2  1  0.000000  0.500000  0.000000  1
  Cu  Cu3  1  0.500000  0.000000  0.500000  1
  Cu  Cu4  1  0.500000  0.500000  0.500000  1
  Cu  Cu5  1  0.500000  0.500000  0.000000  1
  F  F6  1  0.788650  0.579024  0.043702  1
  F  F7  1  0.211350  0.420976  0.956298  1
  F  F8  1  0.206747  0.412132  0.544416  1
  F  F9  1  0.793253  0.587868  0.455584  1
  F  F10  1  0.584503  0.789745  0.956312  1
  F  F11  1  0.415497  0.210255  0.043688  1
  F  F12  1  0.420466  0.211791  0.454731  1
  F  F13  1  0.579534  0.788209  0.545269  1
  F  F14  1  0.787022  0.215310  0.552041  1
  F  F15  1  0.212978  0.784690  0.447959  1
  F  F16  1  0.205533  0.786473  0.052333  1
  F  F17  1  0.794467  0.213527  0.947667  1
  F  F18  1  0.991127  0.427571  0.250861  1
  F  F19  1  0.008873  0.572429  0.749139  1
  F  F20  1  0.420463  0.991103  0.745904  1
  F  F21  1  0.579537  0.008897  0.254096  1
  F  F22  1  0.538555  0.461205  0.748632  1
  F  F23  1  0.461445  0.538795  0.251368  1
