# generated using pymatgen
data_V6Fe12Si5Ni
_symmetry_space_group_name_H-M   'P 1'
_cell_length_a   3.92664200
_cell_length_b   5.78369100
_cell_length_c   11.76827000
_cell_angle_alpha   90.00000000
_cell_angle_beta   89.99976155
_cell_angle_gamma   90.00000000
_symmetry_Int_Tables_number   1
_chemical_formula_structural   V6Fe12Si5Ni
_chemical_formula_sum   'V6 Fe12 Si5 Ni1'
_cell_volume   267.26310749
_cell_formula_units_Z   1
loop_
 _symmetry_equiv_pos_site_id
 _symmetry_equiv_pos_as_xyz
  1  'x, y, z'
loop_
 _atom_site_type_symbol
 _atom_site_label
 _atom_site_symmetry_multiplicity
 _atom_site_fract_x
 _atom_site_fract_y
 _atom_site_fract_z
 _atom_site_occupancy
  V  V0  1  0.000000  0.500000  0.000000  1
  V  V1  1  0.500010  0.000000  0.155301  1
  V  V2  1  0.000007  0.500000  0.333247  1
  V  V3  1  0.500000  0.000000  0.499999  1
  V  V4  1  0.999992  0.500000  0.666753  1
  V  V5  1  0.499989  0.000000  0.844700  1
  Fe  Fe6  1  0.500000  0.266257  0.000000  1
  Fe  Fe7  1  0.500000  0.733744  0.000000  1
  Fe  Fe8  1  0.000012  0.257079  0.170846  1
  Fe  Fe9  1  0.000012  0.742918  0.170846  1
  Fe  Fe10  1  0.500007  0.248146  0.334464  1
  Fe  Fe11  1  0.500007  0.751851  0.334464  1
  Fe  Fe12  1  0.000000  0.248111  0.499999  1
  Fe  Fe13  1  0.000000  0.751888  0.499999  1
  Fe  Fe14  1  0.499993  0.248146  0.665536  1
  Fe  Fe15  1  0.499993  0.751851  0.665536  1
  Fe  Fe16  1  0.999988  0.257079  0.829154  1
  Fe  Fe17  1  0.999988  0.742918  0.829154  1
  Si  Si18  1  0.500010  0.500000  0.168886  1
  Si  Si19  1  0.000008  0.000000  0.331510  1
  Si  Si20  1  0.500000  0.500000  0.499999  1
  Si  Si21  1  0.999992  0.000000  0.668490  1
  Si  Si22  1  0.499990  0.500000  0.831114  1
  Ni  Ni23  1  0.000000  0.000000  0.000000  1
