# generated using pymatgen
data_Tb9Ho(InSb)3
_symmetry_space_group_name_H-M   'P 1'
_cell_length_a   9.02385912
_cell_length_b   9.00047170
_cell_length_c   6.58944702
_cell_angle_alpha   90.00656566
_cell_angle_beta   90.00278734
_cell_angle_gamma   120.10420308
_symmetry_Int_Tables_number   1
_chemical_formula_structural   Tb9Ho(InSb)3
_chemical_formula_sum   'Tb9 Ho1 In3 Sb3'
_cell_volume   462.99915387
_cell_formula_units_Z   1
loop_
 _symmetry_equiv_pos_site_id
 _symmetry_equiv_pos_as_xyz
  1  'x, y, z'
loop_
 _atom_site_type_symbol
 _atom_site_label
 _atom_site_symmetry_multiplicity
 _atom_site_fract_x
 _atom_site_fract_y
 _atom_site_fract_z
 _atom_site_occupancy
  Tb  Tb0  1  0.330964  0.666083  0.000686  1
  Tb  Tb1  1  0.665024  0.333983  0.499429  1
  Tb  Tb2  1  0.664855  0.333908  0.000609  1
  Tb  Tb3  1  0.760795  0.000009  0.749893  1
  Tb  Tb4  1  0.762945  0.759905  0.250112  1
  Tb  Tb5  1  0.003305  0.240214  0.250085  1
  Tb  Tb6  1  0.002229  0.762736  0.749801  1
  Tb  Tb7  1  0.239371  0.237316  0.749826  1
  Tb  Tb8  1  0.238070  0.999859  0.250152  1
  Ho  Ho9  1  0.331059  0.666176  0.499255  1
  In  In10  1  0.396450  0.999315  0.749600  1
  In  In11  1  0.395025  0.396958  0.250483  1
  In  In12  1  0.999122  0.603565  0.250489  1
  Sb  Sb13  1  0.998199  0.392109  0.749599  1
  Sb  Sb14  1  0.605531  0.608286  0.749559  1
  Sb  Sb15  1  0.607054  0.999580  0.250423  1
