# generated using pymatgen
data_Pr11In9IrPd3
_symmetry_space_group_name_H-M   'P 1'
_cell_length_a   13.55384811
_cell_length_b   13.59453625
_cell_length_c   3.86915600
_cell_angle_alpha   90.00000000
_cell_angle_beta   90.00000000
_cell_angle_gamma   111.49055037
_symmetry_Int_Tables_number   1
_chemical_formula_structural   Pr11In9IrPd3
_chemical_formula_sum   'Pr11 In9 Ir1 Pd3'
_cell_volume   663.36012453
_cell_formula_units_Z   1
loop_
 _symmetry_equiv_pos_site_id
 _symmetry_equiv_pos_as_xyz
  1  'x, y, z'
loop_
 _atom_site_type_symbol
 _atom_site_label
 _atom_site_symmetry_multiplicity
 _atom_site_fract_x
 _atom_site_fract_y
 _atom_site_fract_z
 _atom_site_occupancy
  Pr  Pr0  1  0.500180  0.500321  0.500000  1
  Pr  Pr1  1  0.807156  0.807731  0.500000  1
  Pr  Pr2  1  0.185660  0.193186  0.500000  1
  Pr  Pr3  1  0.571821  0.918432  0.500000  1
  Pr  Pr4  1  0.429166  0.082556  0.500000  1
  Pr  Pr5  1  0.917640  0.571242  0.500000  1
  Pr  Pr6  1  0.080454  0.423580  0.500000  1
  Pr  Pr7  1  0.130135  0.871051  0.500000  1
  Pr  Pr8  1  0.877572  0.134619  0.500000  1
  Pr  Pr9  1  0.341036  0.658658  0.500000  1
  Pr  Pr10  1  0.660057  0.341997  0.500000  1
  In  In11  1  0.339912  0.866555  0.000000  1
  In  In12  1  0.660817  0.133710  0.000000  1
  In  In13  1  0.865454  0.338115  0.000000  1
  In  In14  1  0.133849  0.660138  0.000000  1
  In  In15  1  0.575992  0.719553  0.000000  1
  In  In16  1  0.422991  0.280269  0.000000  1
  In  In17  1  0.719638  0.576657  0.000000  1
  In  In18  1  0.279802  0.422028  0.000000  1
  In  In19  1  0.998861  0.999275  0.000000  1
  Ir  Ir20  1  0.051344  0.255480  0.000000  1
  Pd  Pd21  1  0.747641  0.948296  0.000000  1
  Pd  Pd22  1  0.252049  0.048491  0.000000  1
  Pd  Pd23  1  0.950772  0.748059  0.000000  1
