# generated using pymatgen
data_Pr6Al3ZnPt13
_symmetry_space_group_name_H-M   'P 1'
_cell_length_a   8.42117174
_cell_length_b   8.37103543
_cell_length_c   8.42117200
_cell_angle_alpha   109.35065867
_cell_angle_beta   109.59151206
_cell_angle_gamma   109.35066892
_symmetry_Int_Tables_number   1
_chemical_formula_structural   Pr6Al3ZnPt13
_chemical_formula_sum   'Pr6 Al3 Zn1 Pt13'
_cell_volume   457.66355018
_cell_formula_units_Z   1
loop_
 _symmetry_equiv_pos_site_id
 _symmetry_equiv_pos_as_xyz
  1  'x, y, z'
loop_
 _atom_site_type_symbol
 _atom_site_label
 _atom_site_symmetry_multiplicity
 _atom_site_fract_x
 _atom_site_fract_y
 _atom_site_fract_z
 _atom_site_occupancy
  Pr  Pr0  1  0.700291  0.698074  0.000000  1
  Pr  Pr1  1  0.299709  0.997782  0.299709  1
  Pr  Pr2  1  0.000000  0.301926  0.299709  1
  Pr  Pr3  1  0.299709  0.301926  0.000000  1
  Pr  Pr4  1  0.700291  0.002218  0.700291  1
  Pr  Pr5  1  0.000000  0.698074  0.700291  1
  Al  Al6  1  0.000000  0.000000  0.500000  1
  Al  Al7  1  0.500000  0.000000  0.000000  1
  Al  Al8  1  0.500000  0.500000  0.500000  1
  Zn  Zn9  1  0.000000  0.500000  0.000000  1
  Pt  Pt10  1  0.319869  0.319869  0.639737  1
  Pt  Pt11  1  0.680131  0.000000  0.319869  1
  Pt  Pt12  1  0.000000  0.679605  0.325489  1
  Pt  Pt13  1  0.674511  0.320395  0.000000  1
  Pt  Pt14  1  0.325489  0.645884  0.325489  1
  Pt  Pt15  1  0.000000  0.320395  0.674511  1
  Pt  Pt16  1  0.325489  0.679605  0.000000  1
  Pt  Pt17  1  0.319869  0.000000  0.680131  1
  Pt  Pt18  1  0.639737  0.319869  0.319869  1
  Pt  Pt19  1  0.680131  0.680131  0.360263  1
  Pt  Pt20  1  0.674511  0.354116  0.674511  1
  Pt  Pt21  1  0.360263  0.680131  0.680131  1
  Pt  Pt22  1  0.000000  0.000000  0.000000  1
