# generated using pymatgen
data_La14Ir5Pd
_symmetry_space_group_name_H-M   'P 1'
_cell_length_a   10.27762000
_cell_length_b   10.25567197
_cell_length_c   6.60420921
_cell_angle_alpha   90.18420485
_cell_angle_beta   90.00000000
_cell_angle_gamma   120.07081881
_symmetry_Int_Tables_number   1
_chemical_formula_structural   La14Ir5Pd
_chemical_formula_sum   'La14 Ir5 Pd1'
_cell_volume   602.41360611
_cell_formula_units_Z   1
loop_
 _symmetry_equiv_pos_site_id
 _symmetry_equiv_pos_as_xyz
  1  'x, y, z'
loop_
 _atom_site_type_symbol
 _atom_site_label
 _atom_site_symmetry_multiplicity
 _atom_site_fract_x
 _atom_site_fract_y
 _atom_site_fract_z
 _atom_site_occupancy
  La  La0  1  0.336310  0.672622  0.467430  1
  La  La1  1  0.666505  0.333009  0.972116  1
  La  La2  1  0.125312  0.875214  0.246433  1
  La  La3  1  0.749902  0.875214  0.246433  1
  La  La4  1  0.123920  0.247840  0.237420  1
  La  La5  1  0.865457  0.119384  0.748423  1
  La  La6  1  0.253927  0.119384  0.748423  1
  La  La7  1  0.875273  0.750546  0.746075  1
  La  La8  1  0.539758  0.462209  0.434773  1
  La  La9  1  0.922451  0.462209  0.434773  1
  La  La10  1  0.538957  0.077913  0.432164  1
  La  La11  1  0.469196  0.542717  0.939251  1
  La  La12  1  0.073521  0.542717  0.939251  1
  La  La13  1  0.460988  0.921976  0.935034  1
  Ir  Ir14  1  0.814722  0.189235  0.192806  1
  Ir  Ir15  1  0.374512  0.189235  0.192806  1
  Ir  Ir16  1  0.811908  0.623817  0.192083  1
  Ir  Ir17  1  0.186828  0.809585  0.693817  1
  Ir  Ir18  1  0.622757  0.809585  0.693817  1
  Pd  Pd19  1  0.187796  0.375590  0.692460  1
