# generated using pymatgen
data_Hf4Ni(AsRu)6
_symmetry_space_group_name_H-M   'P 1'
_cell_length_a   7.03930110
_cell_length_b   7.03930090
_cell_length_c   7.03930117
_cell_angle_alpha   109.24282160
_cell_angle_beta   109.92900122
_cell_angle_gamma   109.24281138
_symmetry_Int_Tables_number   1
_chemical_formula_structural   Hf4Ni(AsRu)6
_chemical_formula_sum   'Hf4 Ni1 As6 Ru6'
_cell_volume   268.50100437
_cell_formula_units_Z   1
loop_
 _symmetry_equiv_pos_site_id
 _symmetry_equiv_pos_as_xyz
  1  'x, y, z'
loop_
 _atom_site_type_symbol
 _atom_site_label
 _atom_site_symmetry_multiplicity
 _atom_site_fract_x
 _atom_site_fract_y
 _atom_site_fract_z
 _atom_site_occupancy
  Hf  Hf0  1  0.002207  0.004413  0.502207  1
  Hf  Hf1  1  0.497793  0.995587  0.997793  1
  Hf  Hf2  1  0.002207  0.500000  0.997793  1
  Hf  Hf3  1  0.497793  0.500000  0.502207  1
  Ni  Ni4  1  0.750000  0.500000  0.250000  1
  As  As5  1  0.313077  0.000000  0.313077  1
  As  As6  1  0.995152  0.313092  0.308244  1
  As  As7  1  0.995152  0.686908  0.682059  1
  As  As8  1  0.317941  0.313092  0.004848  1
  As  As9  1  0.691756  0.686908  0.004848  1
  As  As10  1  0.686923  0.000000  0.686923  1
  Ru  Ru11  1  0.504074  0.748286  0.252359  1
  Ru  Ru12  1  0.504074  0.251714  0.755788  1
  Ru  Ru13  1  0.747641  0.251714  0.495926  1
  Ru  Ru14  1  0.244212  0.748286  0.495926  1
  Ru  Ru15  1  0.250000  0.500000  0.750000  1
  Ru  Ru16  1  0.000000  0.000000  0.000000  1
