# generated using pymatgen
data_Y16InHg3Rh4
_symmetry_space_group_name_H-M   'P 1'
_cell_length_a   9.64613541
_cell_length_b   9.65746667
_cell_length_c   9.65746700
_cell_angle_alpha   60.00000231
_cell_angle_beta   59.96113611
_cell_angle_gamma   59.96113518
_symmetry_Int_Tables_number   1
_chemical_formula_structural   Y16InHg3Rh4
_chemical_formula_sum   'Y16 In1 Hg3 Rh4'
_cell_volume   635.78378166
_cell_formula_units_Z   1
loop_
 _symmetry_equiv_pos_site_id
 _symmetry_equiv_pos_as_xyz
  1  'x, y, z'
loop_
 _atom_site_type_symbol
 _atom_site_label
 _atom_site_symmetry_multiplicity
 _atom_site_fract_x
 _atom_site_fract_y
 _atom_site_fract_z
 _atom_site_occupancy
  Y  Y0  1  0.601682  0.601186  0.601186  1
  Y  Y1  1  0.601682  0.601186  0.195948  1
  Y  Y2  1  0.601682  0.195948  0.601186  1
  Y  Y3  1  0.192639  0.602454  0.602454  1
  Y  Y4  1  0.060982  0.438682  0.438682  1
  Y  Y5  1  0.438780  0.060398  0.060398  1
  Y  Y6  1  0.438780  0.060398  0.440426  1
  Y  Y7  1  0.060982  0.438682  0.061654  1
  Y  Y8  1  0.438780  0.440426  0.060398  1
  Y  Y9  1  0.060982  0.061654  0.438682  1
  Y  Y10  1  0.184123  0.814026  0.814026  1
  Y  Y11  1  0.812319  0.186838  0.186838  1
  Y  Y12  1  0.812319  0.186838  0.814006  1
  Y  Y13  1  0.184123  0.814026  0.187824  1
  Y  Y14  1  0.812319  0.814006  0.186838  1
  Y  Y15  1  0.184123  0.187824  0.814026  1
  In  In16  1  0.507568  0.830811  0.830811  1
  Hg  Hg17  1  0.835628  0.834809  0.834809  1
  Hg  Hg18  1  0.835628  0.834809  0.494753  1
  Hg  Hg19  1  0.835628  0.494753  0.834809  1
  Rh  Rh20  1  0.392556  0.393190  0.393190  1
  Rh  Rh21  1  0.392556  0.393190  0.821061  1
  Rh  Rh22  1  0.392556  0.821061  0.393190  1
  Rh  Rh23  1  0.821580  0.392807  0.392807  1
