# generated using pymatgen
data_Nb4V4GaSi3
_symmetry_space_group_name_H-M   'P 1'
_cell_length_a   3.39350800
_cell_length_b   6.63787280
_cell_length_c   8.02545595
_cell_angle_alpha   89.80386931
_cell_angle_beta   90.00000000
_cell_angle_gamma   90.00000000
_symmetry_Int_Tables_number   1
_chemical_formula_structural   Nb4V4GaSi3
_chemical_formula_sum   'Nb4 V4 Ga1 Si3'
_cell_volume   180.77774886
_cell_formula_units_Z   1
loop_
 _symmetry_equiv_pos_site_id
 _symmetry_equiv_pos_as_xyz
  1  'x, y, z'
loop_
 _atom_site_type_symbol
 _atom_site_label
 _atom_site_symmetry_multiplicity
 _atom_site_fract_x
 _atom_site_fract_y
 _atom_site_fract_z
 _atom_site_occupancy
  Nb  Nb0  1  0.250000  0.045921  0.830714  1
  Nb  Nb1  1  0.250000  0.546814  0.672131  1
  Nb  Nb2  1  0.750000  0.957641  0.161293  1
  Nb  Nb3  1  0.750000  0.442038  0.330965  1
  V  V4  1  0.250000  0.132407  0.440288  1
  V  V5  1  0.250000  0.626435  0.058387  1
  V  V6  1  0.750000  0.876660  0.566808  1
  V  V7  1  0.750000  0.372201  0.938588  1
  Ga  Ga8  1  0.250000  0.751213  0.361499  1
  Si  Si9  1  0.250000  0.252387  0.137228  1
  Si  Si10  1  0.750000  0.249215  0.639487  1
  Si  Si11  1  0.750000  0.747068  0.862615  1
