# generated using pymatgen
data_Tm4TaMoOs6
_symmetry_space_group_name_H-M   'P 1'
_cell_length_a   5.48484429
_cell_length_b   5.48484284
_cell_length_c   8.51114817
_cell_angle_alpha   90.01942709
_cell_angle_beta   89.98057521
_cell_angle_gamma   120.04860483
_symmetry_Int_Tables_number   1
_chemical_formula_structural   Tm4TaMoOs6
_chemical_formula_sum   'Tm4 Ta1 Mo1 Os6'
_cell_volume   221.63294899
_cell_formula_units_Z   1
loop_
 _symmetry_equiv_pos_site_id
 _symmetry_equiv_pos_as_xyz
  1  'x, y, z'
loop_
 _atom_site_type_symbol
 _atom_site_label
 _atom_site_symmetry_multiplicity
 _atom_site_fract_x
 _atom_site_fract_y
 _atom_site_fract_z
 _atom_site_occupancy
  Tm  Tm0  1  0.666647  0.333353  0.566318  1
  Tm  Tm1  1  0.333353  0.666647  0.433682  1
  Tm  Tm2  1  0.333345  0.666655  0.063614  1
  Tm  Tm3  1  0.666655  0.333345  0.936386  1
  Ta  Ta4  1  0.000000  0.000000  0.500000  1
  Mo  Mo5  1  0.000000  0.000000  0.000000  1
  Os  Os6  1  0.173458  0.346979  0.751735  1
  Os  Os7  1  0.173486  0.826514  0.751754  1
  Os  Os8  1  0.653021  0.826542  0.751735  1
  Os  Os9  1  0.826542  0.653021  0.248265  1
  Os  Os10  1  0.826514  0.173486  0.248246  1
  Os  Os11  1  0.346979  0.173458  0.248265  1
