# generated using pymatgen
data_Pr11NdCo(PtBr4)3
_symmetry_space_group_name_H-M   'P 1'
_cell_length_a   10.52097476
_cell_length_b   10.51542781
_cell_length_c   10.52247325
_cell_angle_alpha   109.27056454
_cell_angle_beta   109.29136993
_cell_angle_gamma   109.20456073
_symmetry_Int_Tables_number   1
_chemical_formula_structural   Pr11NdCo(PtBr4)3
_chemical_formula_sum   'Pr11 Nd1 Co1 Pt3 Br12'
_cell_volume   903.23229718
_cell_formula_units_Z   1
loop_
 _symmetry_equiv_pos_site_id
 _symmetry_equiv_pos_as_xyz
  1  'x, y, z'
loop_
 _atom_site_type_symbol
 _atom_site_label
 _atom_site_symmetry_multiplicity
 _atom_site_fract_x
 _atom_site_fract_y
 _atom_site_fract_z
 _atom_site_occupancy
  Pr  Pr0  1  0.750063  0.237070  0.263043  1
  Pr  Pr1  1  0.750004  0.013534  0.486454  1
  Pr  Pr2  1  0.239764  0.467916  0.477194  1
  Pr  Pr3  1  0.263169  0.749784  0.236917  1
  Pr  Pr4  1  0.032391  0.260566  0.022837  1
  Pr  Pr5  1  0.022340  0.031801  0.260599  1
  Pr  Pr6  1  0.486511  0.749898  0.013703  1
  Pr  Pr7  1  0.477520  0.239847  0.467988  1
  Pr  Pr8  1  0.013693  0.486375  0.749989  1
  Pr  Pr9  1  0.260589  0.022988  0.032132  1
  Pr  Pr10  1  0.237133  0.263204  0.750257  1
  Nd  Nd11  1  0.466673  0.476766  0.238946  1
  Co  Co12  1  0.250411  0.250362  0.249994  1
  Pt  Pt13  1  0.499386  0.000653  0.250009  1
  Pt  Pt14  1  0.000720  0.250047  0.499486  1
  Pt  Pt15  1  0.250599  0.499378  0.001132  1
  Br  Br16  1  0.249949  0.753763  0.746253  1
  Br  Br17  1  0.510588  0.505631  0.755097  1
  Br  Br18  1  0.989684  0.745144  0.994543  1
  Br  Br19  1  0.746285  0.250131  0.753832  1
  Br  Br20  1  0.994519  0.989516  0.744974  1
  Br  Br21  1  0.250135  0.994374  0.505621  1
  Br  Br22  1  0.753706  0.510403  0.504184  1
  Br  Br23  1  0.505959  0.251375  0.995777  1
  Br  Br24  1  0.752987  0.745411  0.250041  1
  Br  Br25  1  0.745025  0.994414  0.989514  1
  Br  Br26  1  0.994403  0.505734  0.250005  1
  Br  Br27  1  0.505795  0.753916  0.509478  1
