# generated using pymatgen
data_PaAgF6
_symmetry_space_group_name_H-M   'P 1'
_cell_length_a   5.70914700
_cell_length_b   5.73608862
_cell_length_c   11.65841148
_cell_angle_alpha   75.86006953
_cell_angle_beta   75.99838201
_cell_angle_gamma   59.85369464
_symmetry_Int_Tables_number   1
_chemical_formula_structural   PaAgF6
_chemical_formula_sum   'Pa2 Ag2 F12'
_cell_volume   316.89516008
_cell_formula_units_Z   2
loop_
 _symmetry_equiv_pos_site_id
 _symmetry_equiv_pos_as_xyz
  1  'x, y, z'
loop_
 _atom_site_type_symbol
 _atom_site_label
 _atom_site_symmetry_multiplicity
 _atom_site_fract_x
 _atom_site_fract_y
 _atom_site_fract_z
 _atom_site_occupancy
  Pa  Pa0  1  0.738671  0.757304  0.749861  1
  Pa  Pa1  1  0.261329  0.242696  0.250139  1
  Ag  Ag2  1  0.500000  0.500000  0.500000  1
  Ag  Ag3  1  0.000000  0.000000  0.000000  1
  F  F4  1  0.482273  0.776384  0.639831  1
  F  F5  1  0.517727  0.223616  0.360169  1
  F  F6  1  0.753547  0.105243  0.640972  1
  F  F7  1  0.246453  0.894757  0.359028  1
  F  F8  1  0.723080  0.412243  0.860740  1
  F  F9  1  0.276920  0.587757  0.139260  1
  F  F10  1  0.991548  0.741840  0.860826  1
  F  F11  1  0.008452  0.258160  0.139174  1
  F  F12  1  0.610607  0.986286  0.141484  1
  F  F13  1  0.389393  0.013714  0.858516  1
  F  F14  1  0.914054  0.492395  0.361702  1
  F  F15  1  0.085946  0.507605  0.638298  1
