# generated using pymatgen
data_HoEr2CdSn3Ir2
_symmetry_space_group_name_H-M   'P 1'
_cell_length_a   7.67921702
_cell_length_b   7.68308488
_cell_length_c   3.92336200
_cell_angle_alpha   90.00000000
_cell_angle_beta   90.00000000
_cell_angle_gamma   119.99220979
_symmetry_Int_Tables_number   1
_chemical_formula_structural   HoEr2CdSn3Ir2
_chemical_formula_sum   'Ho1 Er2 Cd1 Sn3 Ir2'
_cell_volume   200.48213203
_cell_formula_units_Z   1
loop_
 _symmetry_equiv_pos_site_id
 _symmetry_equiv_pos_as_xyz
  1  'x, y, z'
loop_
 _atom_site_type_symbol
 _atom_site_label
 _atom_site_symmetry_multiplicity
 _atom_site_fract_x
 _atom_site_fract_y
 _atom_site_fract_z
 _atom_site_occupancy
  Ho  Ho0  1  0.383667  0.410291  0.500000  1
  Er  Er1  1  0.589633  0.973003  0.500000  1
  Er  Er2  1  0.027150  0.616842  0.500000  1
  Cd  Cd3  1  0.666806  0.333281  0.000000  1
  Sn  Sn4  1  0.744369  0.745534  0.000000  1
  Sn  Sn5  1  0.254564  0.998712  0.000000  1
  Sn  Sn6  1  0.001058  0.255666  0.000000  1
  Ir  Ir7  1  0.333062  0.666947  0.000000  1
  Ir  Ir8  1  0.999692  0.999724  0.500000  1
