# generated using pymatgen
data_Y3BePt5
_symmetry_space_group_name_H-M   'P 1'
_cell_length_a   8.21015662
_cell_length_b   8.21015708
_cell_length_c   8.21015700
_cell_angle_alpha   129.30363033
_cell_angle_beta   126.50905319
_cell_angle_gamma   76.79830261
_symmetry_Int_Tables_number   1
_chemical_formula_structural   Y3BePt5
_chemical_formula_sum   'Y6 Be2 Pt10'
_cell_volume   334.24785671
_cell_formula_units_Z   2
loop_
 _symmetry_equiv_pos_site_id
 _symmetry_equiv_pos_as_xyz
  1  'x, y, z'
loop_
 _atom_site_type_symbol
 _atom_site_label
 _atom_site_symmetry_multiplicity
 _atom_site_fract_x
 _atom_site_fract_y
 _atom_site_fract_z
 _atom_site_occupancy
  Y  Y0  1  0.276050  0.558751  0.724846  1
  Y  Y1  1  0.723950  0.448797  0.282701  1
  Y  Y2  1  0.333903  0.058751  0.282701  1
  Y  Y3  1  0.666097  0.948797  0.724846  1
  Y  Y4  1  0.104268  0.753170  0.357438  1
  Y  Y5  1  0.895732  0.253170  0.648902  1
  Be  Be6  1  0.709170  0.755027  0.964197  1
  Be  Be7  1  0.290830  0.255027  0.045857  1
  Pt  Pt8  1  0.046554  0.907095  0.735062  1
  Pt  Pt9  1  0.953447  0.688507  0.860542  1
  Pt  Pt10  1  0.672035  0.407095  0.860542  1
  Pt  Pt11  1  0.327965  0.188507  0.735062  1
  Pt  Pt12  1  0.954035  0.100842  0.272516  1
  Pt  Pt13  1  0.045965  0.318480  0.146807  1
  Pt  Pt14  1  0.328327  0.600842  0.146807  1
  Pt  Pt15  1  0.671673  0.818480  0.272516  1
  Pt  Pt16  1  0.500132  0.504530  0.504662  1
  Pt  Pt17  1  0.499868  0.004530  0.004398  1
