# generated using pymatgen
data_Cs3Pu(VSe4)2
_symmetry_space_group_name_H-M   'P 1'
_cell_length_a   10.54998545
_cell_length_b   7.29411400
_cell_length_c   12.42221800
_cell_angle_alpha   90.00000000
_cell_angle_beta   89.40104371
_cell_angle_gamma   90.00000000
_symmetry_Int_Tables_number   1
_chemical_formula_structural   Cs3Pu(VSe4)2
_chemical_formula_sum   'Cs6 Pu2 V4 Se16'
_cell_volume   955.87218311
_cell_formula_units_Z   2
loop_
 _symmetry_equiv_pos_site_id
 _symmetry_equiv_pos_as_xyz
  1  'x, y, z'
loop_
 _atom_site_type_symbol
 _atom_site_label
 _atom_site_symmetry_multiplicity
 _atom_site_fract_x
 _atom_site_fract_y
 _atom_site_fract_z
 _atom_site_occupancy
  Cs  Cs0  1  0.369047  0.804568  0.084211  1
  Cs  Cs1  1  0.398001  0.306923  0.341282  1
  Cs  Cs2  1  0.845930  0.306655  0.435661  1
  Cs  Cs3  1  0.154070  0.806655  0.564340  1
  Cs  Cs4  1  0.601999  0.806923  0.658718  1
  Cs  Cs5  1  0.630954  0.304568  0.915789  1
  Pu  Pu6  1  0.891702  0.780264  0.145182  1
  Pu  Pu7  1  0.108298  0.280264  0.854818  1
  V  V8  1  0.087188  0.337698  0.149869  1
  V  V9  1  0.641506  0.804048  0.309122  1
  V  V10  1  0.358494  0.304047  0.690878  1
  V  V11  1  0.912812  0.837698  0.850131  1
  Se  Se12  1  0.931692  0.408386  0.030825  1
  Se  Se13  1  0.271285  0.307261  0.050526  1
  Se  Se14  1  0.673893  0.046368  0.195118  1
  Se  Se15  1  0.660318  0.552898  0.196672  1
  Se  Se16  1  0.054004  0.070656  0.245278  1
  Se  Se17  1  0.092855  0.582758  0.265459  1
  Se  Se18  1  0.450705  0.812470  0.393190  1
  Se  Se19  1  0.817782  0.801327  0.414450  1
  Se  Se20  1  0.182219  0.301326  0.585550  1
  Se  Se21  1  0.549294  0.312469  0.606810  1
  Se  Se22  1  0.907145  0.082757  0.734541  1
  Se  Se23  1  0.945996  0.570656  0.754722  1
  Se  Se24  1  0.339682  0.052899  0.803328  1
  Se  Se25  1  0.326107  0.546366  0.804882  1
  Se  Se26  1  0.728714  0.807262  0.949474  1
  Se  Se27  1  0.068308  0.908386  0.969174  1
