# generated using pymatgen
data_Tb6ErCo17P12
_symmetry_space_group_name_H-M   'P 1'
_cell_length_a   3.74215600
_cell_length_b   10.65782900
_cell_length_c   12.47073300
_cell_angle_alpha   90.00000000
_cell_angle_beta   90.00000000
_cell_angle_gamma   90.00000000
_symmetry_Int_Tables_number   1
_chemical_formula_structural   Tb6ErCo17P12
_chemical_formula_sum   'Tb6 Er1 Co17 P12'
_cell_volume   497.37347091
_cell_formula_units_Z   1
loop_
 _symmetry_equiv_pos_site_id
 _symmetry_equiv_pos_as_xyz
  1  'x, y, z'
loop_
 _atom_site_type_symbol
 _atom_site_label
 _atom_site_symmetry_multiplicity
 _atom_site_fract_x
 _atom_site_fract_y
 _atom_site_fract_z
 _atom_site_occupancy
  Tb  Tb0  1  0.000000  0.500000  0.532415  1
  Tb  Tb1  1  0.500000  0.000000  0.478561  1
  Tb  Tb2  1  0.500000  0.821595  0.207942  1
  Tb  Tb3  1  0.500000  0.178405  0.207942  1
  Tb  Tb4  1  0.000000  0.683968  0.794937  1
  Tb  Tb5  1  0.000000  0.316032  0.794937  1
  Er  Er6  1  0.500000  0.500000  0.155516  1
  Co  Co7  1  0.000000  0.000000  0.834175  1
  Co  Co8  1  0.500000  0.500000  0.703626  1
  Co  Co9  1  0.000000  0.000000  0.294338  1
  Co  Co10  1  0.000000  0.500000  0.980591  1
  Co  Co11  1  0.500000  0.000000  0.012746  1
  Co  Co12  1  0.500000  0.323985  0.985304  1
  Co  Co13  1  0.500000  0.676015  0.985304  1
  Co  Co14  1  0.000000  0.158494  0.997738  1
  Co  Co15  1  0.000000  0.841506  0.997738  1
  Co  Co16  1  0.500000  0.292191  0.437362  1
  Co  Co17  1  0.500000  0.707809  0.437362  1
  Co  Co18  1  0.000000  0.200742  0.571216  1
  Co  Co19  1  0.000000  0.799258  0.571216  1
  Co  Co20  1  0.500000  0.881233  0.707372  1
  Co  Co21  1  0.500000  0.118767  0.707372  1
  Co  Co22  1  0.000000  0.621517  0.308599  1
  Co  Co23  1  0.000000  0.378483  0.308599  1
  P  P24  1  0.500000  0.500000  0.881630  1
  P  P25  1  0.000000  0.000000  0.114976  1
  P  P26  1  0.500000  0.500000  0.365414  1
  P  P27  1  0.000000  0.000000  0.654776  1
  P  P28  1  0.500000  0.306783  0.618498  1
  P  P29  1  0.500000  0.693217  0.618498  1
  P  P30  1  0.000000  0.188176  0.388297  1
  P  P31  1  0.000000  0.811824  0.388297  1
  P  P32  1  0.500000  0.854785  0.886804  1
  P  P33  1  0.500000  0.145215  0.886804  1
  P  P34  1  0.000000  0.668640  0.091549  1
  P  P35  1  0.000000  0.331360  0.091549  1
