# generated using pymatgen
data_CsHoSc9(C2I9)2
_symmetry_space_group_name_H-M   'P 1'
_cell_length_a   11.33631530
_cell_length_b   11.25958233
_cell_length_c   11.14604009
_cell_angle_alpha   112.46929111
_cell_angle_beta   85.73674697
_cell_angle_gamma   121.16027037
_symmetry_Int_Tables_number   1
_chemical_formula_structural   CsHoSc9(C2I9)2
_chemical_formula_sum   'Cs1 Ho1 Sc9 C4 I18'
_cell_volume   1111.23205131
_cell_formula_units_Z   1
loop_
 _symmetry_equiv_pos_site_id
 _symmetry_equiv_pos_as_xyz
  1  'x, y, z'
loop_
 _atom_site_type_symbol
 _atom_site_label
 _atom_site_symmetry_multiplicity
 _atom_site_fract_x
 _atom_site_fract_y
 _atom_site_fract_z
 _atom_site_occupancy
  Cs  Cs0  1  0.499256  0.000396  0.500652  1
  Ho  Ho1  1  0.894986  0.055555  0.999525  1
  Sc  Sc2  1  0.697013  0.733370  0.723526  1
  Sc  Sc3  1  0.273719  0.347137  0.015708  1
  Sc  Sc4  1  0.092707  0.370951  0.279739  1
  Sc  Sc5  1  0.965541  0.035566  0.318514  1
  Sc  Sc6  1  0.909924  0.630333  0.722064  1
  Sc  Sc7  1  0.097773  0.946400  0.000637  1
  Sc  Sc8  1  0.036002  0.964211  0.681618  1
  Sc  Sc9  1  0.303156  0.263144  0.273931  1
  Sc  Sc10  1  0.727423  0.652244  0.984198  1
  C  C11  1  0.149329  0.213906  0.113524  1
  C  C12  1  0.851810  0.785380  0.886280  1
  C  C13  1  0.930422  0.864557  0.807897  1
  C  C14  1  0.070668  0.134496  0.191697  1
  I  I15  1  0.462572  0.534083  0.836100  1
  I  I16  1  0.371973  0.045032  0.154439  1
  I  I17  1  0.788679  0.859013  0.509715  1
  I  I18  1  0.846974  0.312961  0.160576  1
  I  I19  1  0.538610  0.464735  0.163420  1
  I  I20  1  0.213070  0.139948  0.489554  1
  I  I21  1  0.311202  0.103266  0.828228  1
  I  I22  1  0.686260  0.894222  0.175035  1
  I  I23  1  0.963974  0.756593  0.169558  1
  I  I24  1  0.935429  0.284623  0.489813  1
  I  I25  1  0.039734  0.247067  0.827227  1
  I  I26  1  0.067195  0.716022  0.511350  1
  I  I27  1  0.255089  0.605920  0.174377  1
  I  I28  1  0.746193  0.393765  0.825827  1
  I  I29  1  0.660076  0.456803  0.520357  1
  I  I30  1  0.153195  0.698974  0.848728  1
  I  I31  1  0.618022  0.947688  0.837274  1
  I  I32  1  0.342022  0.541642  0.478915  1
