# generated using pymatgen
data_Mn(IBr4)3
_symmetry_space_group_name_H-M   'P 1'
_cell_length_a   22.10419300
_cell_length_b   7.45935204
_cell_length_c   9.72457736
_cell_angle_alpha   63.18198915
_cell_angle_beta   90.00000000
_cell_angle_gamma   90.00000000
_symmetry_Int_Tables_number   1
_chemical_formula_structural   Mn(IBr4)3
_chemical_formula_sum   'Mn2 I6 Br24'
_cell_volume   1430.96001111
_cell_formula_units_Z   2
loop_
 _symmetry_equiv_pos_site_id
 _symmetry_equiv_pos_as_xyz
  1  'x, y, z'
loop_
 _atom_site_type_symbol
 _atom_site_label
 _atom_site_symmetry_multiplicity
 _atom_site_fract_x
 _atom_site_fract_y
 _atom_site_fract_z
 _atom_site_occupancy
  Mn  Mn0  1  0.462894  0.262498  0.759600  1
  Mn  Mn1  1  0.962894  0.737502  0.740400  1
  I  I2  1  0.716890  0.624527  0.213445  1
  I  I3  1  0.216890  0.375473  0.286555  1
  I  I4  1  0.284960  0.372836  0.786278  1
  I  I5  1  0.784960  0.627164  0.713722  1
  I  I6  1  0.531698  0.740298  0.241608  1
  I  I7  1  0.031698  0.259702  0.258392  1
  Br  Br8  1  0.770854  0.314483  0.215421  1
  Br  Br9  1  0.270854  0.685517  0.284579  1
  Br  Br10  1  0.233326  0.686552  0.784573  1
  Br  Br11  1  0.733326  0.313448  0.715427  1
  Br  Br12  1  0.815742  0.824960  0.203465  1
  Br  Br13  1  0.315742  0.175040  0.296535  1
  Br  Br14  1  0.187537  0.168632  0.796190  1
  Br  Br15  1  0.687537  0.831368  0.703810  1
  Br  Br16  1  0.903663  0.462299  0.731207  1
  Br  Br17  1  0.403663  0.537701  0.768793  1
  Br  Br18  1  0.104119  0.570347  0.270580  1
  Br  Br19  1  0.604119  0.429653  0.229420  1
  Br  Br20  1  0.049786  0.548387  0.765509  1
  Br  Br21  1  0.549786  0.451613  0.734491  1
  Br  Br22  1  0.935952  0.478269  0.225558  1
  Br  Br23  1  0.435952  0.521731  0.274442  1
  Br  Br24  1  0.015106  0.005816  0.746666  1
  Br  Br25  1  0.515106  0.994184  0.753334  1
  Br  Br26  1  0.974481  0.955289  0.256767  1
  Br  Br27  1  0.474481  0.044711  0.243233  1
  Br  Br28  1  0.868157  0.926110  0.713514  1
  Br  Br29  1  0.368157  0.073890  0.786486  1
  Br  Br30  1  0.144832  0.052990  0.291364  1
  Br  Br31  1  0.644832  0.947010  0.208636  1
