# generated using pymatgen
data_In2(SeO3)3
_symmetry_space_group_name_H-M   'P 1'
_cell_length_a   8.47971600
_cell_length_b   8.47971696
_cell_length_c   7.74275300
_cell_angle_alpha   90.00000000
_cell_angle_beta   90.00000000
_cell_angle_gamma   119.99999056
_symmetry_Int_Tables_number   1
_chemical_formula_structural   In2(SeO3)3
_chemical_formula_sum   'In4 Se6 O18'
_cell_volume   482.15729462
_cell_formula_units_Z   2
loop_
 _symmetry_equiv_pos_site_id
 _symmetry_equiv_pos_as_xyz
  1  'x, y, z'
loop_
 _atom_site_type_symbol
 _atom_site_label
 _atom_site_symmetry_multiplicity
 _atom_site_fract_x
 _atom_site_fract_y
 _atom_site_fract_z
 _atom_site_occupancy
  In  In0  1  0.333333  0.666667  0.040253  1
  In  In1  1  0.666667  0.333333  0.540253  1
  In  In2  1  0.666667  0.333333  0.959747  1
  In  In3  1  0.333333  0.666667  0.459747  1
  Se  Se4  1  0.276716  0.304336  0.750000  1
  Se  Se5  1  0.304336  0.027619  0.250000  1
  Se  Se6  1  0.027619  0.723284  0.750000  1
  Se  Se7  1  0.972381  0.276716  0.250000  1
  Se  Se8  1  0.723284  0.695664  0.250000  1
  Se  Se9  1  0.695664  0.972381  0.750000  1
  O  O10  1  0.408355  0.160594  0.426064  1
  O  O11  1  0.247761  0.408355  0.926064  1
  O  O12  1  0.160594  0.752239  0.926064  1
  O  O13  1  0.839406  0.247761  0.426064  1
  O  O14  1  0.752239  0.591645  0.426064  1
  O  O15  1  0.591645  0.839406  0.926064  1
  O  O16  1  0.591645  0.839406  0.573936  1
  O  O17  1  0.752239  0.591645  0.073936  1
  O  O18  1  0.839406  0.247761  0.073936  1
  O  O19  1  0.160594  0.752239  0.573936  1
  O  O20  1  0.124005  0.515963  0.250000  1
  O  O21  1  0.608041  0.124005  0.750000  1
  O  O22  1  0.515963  0.391959  0.750000  1
  O  O23  1  0.484037  0.608041  0.250000  1
  O  O24  1  0.391959  0.875995  0.250000  1
  O  O25  1  0.875995  0.484037  0.750000  1
  O  O26  1  0.408355  0.160594  0.073936  1
  O  O27  1  0.247761  0.408355  0.573936  1
