# generated using pymatgen
data_TbSm5C2Br11
_symmetry_space_group_name_H-M   'P 1'
_cell_length_a   9.18534743
_cell_length_b   10.27291797
_cell_length_c   14.32450600
_cell_angle_alpha   88.29861002
_cell_angle_beta   104.17967763
_cell_angle_gamma   109.96084123
_symmetry_Int_Tables_number   1
_chemical_formula_structural   TbSm5C2Br11
_chemical_formula_sum   'Tb2 Sm10 C4 Br22'
_cell_volume   1229.59787805
_cell_formula_units_Z   2
loop_
 _symmetry_equiv_pos_site_id
 _symmetry_equiv_pos_as_xyz
  1  'x, y, z'
loop_
 _atom_site_type_symbol
 _atom_site_label
 _atom_site_symmetry_multiplicity
 _atom_site_fract_x
 _atom_site_fract_y
 _atom_site_fract_z
 _atom_site_occupancy
  Tb  Tb0  1  0.375176  0.469535  0.120404  1
  Tb  Tb1  1  0.624824  0.530465  0.879596  1
  Sm  Sm2  1  0.415016  0.786824  0.269200  1
  Sm  Sm3  1  0.584984  0.213176  0.730800  1
  Sm  Sm4  1  0.626970  0.567860  0.373367  1
  Sm  Sm5  1  0.373030  0.432140  0.626633  1
  Sm  Sm6  1  0.843482  0.642316  0.198901  1
  Sm  Sm7  1  0.156518  0.357684  0.801099  1
  Sm  Sm8  1  0.630019  0.856774  0.090924  1
  Sm  Sm9  1  0.369981  0.143226  0.909076  1
  Sm  Sm10  1  0.870096  0.960300  0.348944  1
  Sm  Sm11  1  0.129904  0.039700  0.651056  1
  C  C12  1  0.433439  0.346177  0.797281  1
  C  C13  1  0.566561  0.653823  0.202719  1
  C  C14  1  0.313847  0.230463  0.740529  1
  C  C15  1  0.686153  0.769537  0.259471  1
  Br  Br16  1  0.385654  0.308355  0.277358  1
  Br  Br17  1  0.614346  0.691645  0.722642  1
  Br  Br18  1  0.126530  0.559645  0.150359  1
  Br  Br19  1  0.873470  0.440355  0.849641  1
  Br  Br20  1  0.621377  0.380472  0.063166  1
  Br  Br21  1  0.378623  0.619528  0.936834  1
  Br  Br22  1  0.121011  0.210481  0.480828  1
  Br  Br23  1  0.878989  0.789519  0.519172  1
  Br  Br24  1  0.616442  0.032984  0.388552  1
  Br  Br25  1  0.383558  0.967016  0.611448  1
  Br  Br26  1  0.126424  0.866100  0.303213  1
  Br  Br27  1  0.873576  0.133900  0.696787  1
  Br  Br28  1  0.132215  0.535332  0.649159  1
  Br  Br29  1  0.867785  0.464668  0.350841  1
  Br  Br30  1  0.620073  0.374567  0.560437  1
  Br  Br31  1  0.379927  0.625433  0.439563  1
  Br  Br32  1  0.142491  0.222626  0.984168  1
  Br  Br33  1  0.857509  0.777374  0.015832  1
  Br  Br34  1  0.625345  0.045978  0.901090  1
  Br  Br35  1  0.374655  0.954022  0.098910  1
  Br  Br36  1  0.128569  0.888163  0.822977  1
  Br  Br37  1  0.871431  0.111837  0.177023  1
