# generated using pymatgen
data_Y5Fe18NiP12
_symmetry_space_group_name_H-M   'P 1'
_cell_length_a   11.98954200
_cell_length_b   11.98954204
_cell_length_c   3.70660800
_cell_angle_alpha   90.00000000
_cell_angle_beta   90.00000000
_cell_angle_gamma   119.99999988
_symmetry_Int_Tables_number   1
_chemical_formula_structural   Y5Fe18NiP12
_chemical_formula_sum   'Y5 Fe18 Ni1 P12'
_cell_volume   461.43706806
_cell_formula_units_Z   1
loop_
 _symmetry_equiv_pos_site_id
 _symmetry_equiv_pos_as_xyz
  1  'x, y, z'
loop_
 _atom_site_type_symbol
 _atom_site_label
 _atom_site_symmetry_multiplicity
 _atom_site_fract_x
 _atom_site_fract_y
 _atom_site_fract_z
 _atom_site_occupancy
  Y  Y0  1  0.666667  0.333333  0.000000  1
  Y  Y1  1  0.333333  0.666667  0.000000  1
  Y  Y2  1  0.187069  0.187069  0.500000  1
  Y  Y3  1  0.812931  0.000000  0.500000  1
  Y  Y4  1  0.000000  0.812931  0.500000  1
  Fe  Fe5  1  0.819077  0.198288  0.000000  1
  Fe  Fe6  1  0.801712  0.620788  0.000000  1
  Fe  Fe7  1  0.379212  0.180923  0.000000  1
  Fe  Fe8  1  0.198288  0.819077  0.000000  1
  Fe  Fe9  1  0.620788  0.801712  0.000000  1
  Fe  Fe10  1  0.180923  0.379212  0.000000  1
  Fe  Fe11  1  0.557368  0.557368  0.000000  1
  Fe  Fe12  1  0.442632  0.000000  0.000000  1
  Fe  Fe13  1  0.000000  0.442632  0.000000  1
  Fe  Fe14  1  0.639543  0.121673  0.500000  1
  Fe  Fe15  1  0.878327  0.517871  0.500000  1
  Fe  Fe16  1  0.482129  0.360457  0.500000  1
  Fe  Fe17  1  0.121673  0.639543  0.500000  1
  Fe  Fe18  1  0.517871  0.878327  0.500000  1
  Fe  Fe19  1  0.360457  0.482129  0.500000  1
  Fe  Fe20  1  0.714637  0.714637  0.500000  1
  Fe  Fe21  1  0.285363  0.000000  0.500000  1
  Fe  Fe22  1  0.000000  0.285363  0.500000  1
  Ni  Ni23  1  0.000000  0.000000  0.000000  1
  P  P24  1  0.371035  0.371035  0.000000  1
  P  P25  1  0.628965  0.000000  0.000000  1
  P  P26  1  0.000000  0.628965  0.000000  1
  P  P27  1  0.833960  0.312407  0.500000  1
  P  P28  1  0.687593  0.521554  0.500000  1
  P  P29  1  0.478446  0.166040  0.500000  1
  P  P30  1  0.312407  0.833960  0.500000  1
  P  P31  1  0.521554  0.687593  0.500000  1
  P  P32  1  0.166040  0.478446  0.500000  1
  P  P33  1  0.814256  0.814256  0.000000  1
  P  P34  1  0.185744  0.000000  0.000000  1
  P  P35  1  0.000000  0.185744  0.000000  1
