# generated using pymatgen
data_Zr5(TlS5)2
_symmetry_space_group_name_H-M   'P 1'
_cell_length_a   6.32974193
_cell_length_b   11.12954436
_cell_length_c   9.13293100
_cell_angle_alpha   56.19683255
_cell_angle_beta   69.62221173
_cell_angle_gamma   89.86429937
_symmetry_Int_Tables_number   1
_chemical_formula_structural   Zr5(TlS5)2
_chemical_formula_sum   'Zr5 Tl2 S10'
_cell_volume   485.81052591
_cell_formula_units_Z   1
loop_
 _symmetry_equiv_pos_site_id
 _symmetry_equiv_pos_as_xyz
  1  'x, y, z'
loop_
 _atom_site_type_symbol
 _atom_site_label
 _atom_site_symmetry_multiplicity
 _atom_site_fract_x
 _atom_site_fract_y
 _atom_site_fract_z
 _atom_site_occupancy
  Zr  Zr0  1  0.400000  0.800000  0.200000  1
  Zr  Zr1  1  0.800746  0.599344  0.402017  1
  Zr  Zr2  1  0.201385  0.398745  0.596870  1
  Zr  Zr3  1  0.598615  0.201255  0.803130  1
  Zr  Zr4  1  0.999254  0.000656  0.997983  1
  Tl  Tl5  1  0.784642  0.071087  0.428999  1
  Tl  Tl6  1  0.015358  0.528913  0.971001  1
  S  S7  1  0.993800  0.836147  0.344498  1
  S  S8  1  0.593550  0.035443  0.146215  1
  S  S9  1  0.190293  0.236979  0.945063  1
  S  S10  1  0.795515  0.436475  0.745240  1
  S  S11  1  0.393153  0.635410  0.544011  1
  S  S12  1  0.406847  0.964590  0.855989  1
  S  S13  1  0.004485  0.163525  0.654760  1
  S  S14  1  0.609707  0.363021  0.454937  1
  S  S15  1  0.206450  0.564557  0.253785  1
  S  S16  1  0.806200  0.763853  0.055502  1
