# generated using pymatgen
data_YbZr(Ni2As)4
_symmetry_space_group_name_H-M   'P 1'
_cell_length_a   7.15527251
_cell_length_b   7.15527251
_cell_length_c   3.75464800
_cell_angle_alpha   90.00000000
_cell_angle_beta   90.00000000
_cell_angle_gamma   89.32671028
_symmetry_Int_Tables_number   1
_chemical_formula_structural   YbZr(Ni2As)4
_chemical_formula_sum   'Yb1 Zr1 Ni8 As4'
_cell_volume   192.21691315
_cell_formula_units_Z   1
loop_
 _symmetry_equiv_pos_site_id
 _symmetry_equiv_pos_as_xyz
  1  'x, y, z'
loop_
 _atom_site_type_symbol
 _atom_site_label
 _atom_site_symmetry_multiplicity
 _atom_site_fract_x
 _atom_site_fract_y
 _atom_site_fract_z
 _atom_site_occupancy
  Yb  Yb0  1  0.500000  0.500000  0.000000  1
  Zr  Zr1  1  0.000000  0.000000  0.500000  1
  Ni  Ni2  1  0.590635  0.153945  0.500000  1
  Ni  Ni3  1  0.409365  0.846055  0.500000  1
  Ni  Ni4  1  0.089364  0.345092  0.000000  1
  Ni  Ni5  1  0.910636  0.654908  0.000000  1
  Ni  Ni6  1  0.153945  0.590635  0.500000  1
  Ni  Ni7  1  0.846055  0.409365  0.500000  1
  Ni  Ni8  1  0.345092  0.089364  0.000000  1
  Ni  Ni9  1  0.654908  0.910636  0.000000  1
  As  As10  1  0.723665  0.723665  0.500000  1
  As  As11  1  0.276335  0.276335  0.500000  1
  As  As12  1  0.210714  0.789286  0.000000  1
  As  As13  1  0.789286  0.210714  0.000000  1
