# generated using pymatgen
data_Rb4NdUTe6
_symmetry_space_group_name_H-M   'P 1'
_cell_length_a   8.28912015
_cell_length_b   8.28911987
_cell_length_c   8.98711847
_cell_angle_alpha   81.02263593
_cell_angle_beta   81.02263780
_cell_angle_gamma   120.02600604
_symmetry_Int_Tables_number   1
_chemical_formula_structural   Rb4NdUTe6
_chemical_formula_sum   'Rb4 Nd1 U1 Te6'
_cell_volume   507.90619037
_cell_formula_units_Z   1
loop_
 _symmetry_equiv_pos_site_id
 _symmetry_equiv_pos_as_xyz
  1  'x, y, z'
loop_
 _atom_site_type_symbol
 _atom_site_label
 _atom_site_symmetry_multiplicity
 _atom_site_fract_x
 _atom_site_fract_y
 _atom_site_fract_z
 _atom_site_occupancy
  Rb  Rb0  1  0.499997  0.500003  0.000000  1
  Rb  Rb1  1  0.655547  0.344453  0.500000  1
  Rb  Rb2  1  0.344349  0.655651  0.500000  1
  Rb  Rb3  1  0.000084  0.999916  0.500000  1
  Nd  Nd4  1  0.832394  0.167606  0.000000  1
  U  U5  1  0.167659  0.832341  0.000000  1
  Te  Te6  1  0.816597  0.799788  0.202093  1
  Te  Te7  1  0.200212  0.183403  0.797907  1
  Te  Te8  1  0.413590  0.044575  0.204704  1
  Te  Te9  1  0.552174  0.938029  0.794959  1
  Te  Te10  1  0.955425  0.586410  0.795296  1
  Te  Te11  1  0.061971  0.447826  0.205041  1
