# generated using pymatgen
data_La6Tl6CdIn2P
_symmetry_space_group_name_H-M   'P 1'
_cell_length_a   8.76174464
_cell_length_b   8.76174515
_cell_length_c   8.79159319
_cell_angle_alpha   119.94802333
_cell_angle_beta   119.97674750
_cell_angle_gamma   89.87020404
_symmetry_Int_Tables_number   1
_chemical_formula_structural   La6Tl6CdIn2P
_chemical_formula_sum   'La6 Tl6 Cd1 In2 P1'
_cell_volume   478.31474295
_cell_formula_units_Z   1
loop_
 _symmetry_equiv_pos_site_id
 _symmetry_equiv_pos_as_xyz
  1  'x, y, z'
loop_
 _atom_site_type_symbol
 _atom_site_label
 _atom_site_symmetry_multiplicity
 _atom_site_fract_x
 _atom_site_fract_y
 _atom_site_fract_z
 _atom_site_occupancy
  La  La0  1  0.771228  0.771228  0.000000  1
  La  La1  1  0.228731  0.228731  0.000000  1
  La  La2  1  0.314994  0.858501  0.174512  1
  La  La3  1  0.683987  0.140480  0.825488  1
  La  La4  1  0.856844  0.688313  0.544810  1
  La  La5  1  0.143503  0.312034  0.455190  1
  Tl  Tl6  1  0.979237  0.452519  0.787082  1
  Tl  Tl7  1  0.665437  0.192155  0.212918  1
  Tl  Tl8  1  0.451940  0.662470  0.473327  1
  Tl  Tl9  1  0.189143  0.978612  0.526673  1
  Tl  Tl10  1  0.018277  0.546311  0.213668  1
  Tl  Tl11  1  0.332642  0.804609  0.786332  1
  Cd  Cd12  1  0.501579  0.501579  0.000000  1
  In  In13  1  0.552753  0.334035  0.524413  1
  In  In14  1  0.809620  0.028340  0.475587  1
  P  P15  1  0.000084  0.000084  0.000000  1
