# generated using pymatgen
data_Tb3Lu5Hg4
_symmetry_space_group_name_H-M   'P 1'
_cell_length_a   5.01395300
_cell_length_b   7.06474791
_cell_length_c   9.12142726
_cell_angle_alpha   89.95718046
_cell_angle_beta   90.00000000
_cell_angle_gamma   90.00000000
_symmetry_Int_Tables_number   1
_chemical_formula_structural   Tb3Lu5Hg4
_chemical_formula_sum   'Tb3 Lu5 Hg4'
_cell_volume   323.10197022
_cell_formula_units_Z   1
loop_
 _symmetry_equiv_pos_site_id
 _symmetry_equiv_pos_as_xyz
  1  'x, y, z'
loop_
 _atom_site_type_symbol
 _atom_site_label
 _atom_site_symmetry_multiplicity
 _atom_site_fract_x
 _atom_site_fract_y
 _atom_site_fract_z
 _atom_site_occupancy
  Tb  Tb0  1  0.250000  0.483875  0.192224  1
  Tb  Tb1  1  0.750000  0.016169  0.692076  1
  Tb  Tb2  1  0.250000  0.984524  0.308159  1
  Lu  Lu3  1  0.750000  0.664357  0.427115  1
  Lu  Lu4  1  0.250000  0.336834  0.576621  1
  Lu  Lu5  1  0.750000  0.165299  0.071430  1
  Lu  Lu6  1  0.250000  0.832348  0.925436  1
  Lu  Lu7  1  0.750000  0.516883  0.808802  1
  Hg  Hg8  1  0.750000  0.243075  0.396359  1
  Hg  Hg9  1  0.250000  0.756655  0.603492  1
  Hg  Hg10  1  0.750000  0.741390  0.100813  1
  Hg  Hg11  1  0.250000  0.258593  0.897472  1
