# generated using pymatgen
data_Lu20TlHg2Bi9
_symmetry_space_group_name_H-M   'P 1'
_cell_length_a   8.08409651
_cell_length_b   9.34861100
_cell_length_c   11.80002200
_cell_angle_alpha   90.00000000
_cell_angle_beta   89.87092291
_cell_angle_gamma   90.00000000
_symmetry_Int_Tables_number   1
_chemical_formula_structural   Lu20TlHg2Bi9
_chemical_formula_sum   'Lu20 Tl1 Hg2 Bi9'
_cell_volume   891.78526810
_cell_formula_units_Z   1
loop_
 _symmetry_equiv_pos_site_id
 _symmetry_equiv_pos_as_xyz
  1  'x, y, z'
loop_
 _atom_site_type_symbol
 _atom_site_label
 _atom_site_symmetry_multiplicity
 _atom_site_fract_x
 _atom_site_fract_y
 _atom_site_fract_z
 _atom_site_occupancy
  Lu  Lu0  1  0.033468  0.250000  0.508112  1
  Lu  Lu1  1  0.970388  0.750000  0.491989  1
  Lu  Lu2  1  0.465804  0.750000  0.007734  1
  Lu  Lu3  1  0.521596  0.250000  0.991832  1
  Lu  Lu4  1  0.348201  0.250000  0.290163  1
  Lu  Lu5  1  0.658093  0.750000  0.711001  1
  Lu  Lu6  1  0.146222  0.750000  0.791563  1
  Lu  Lu7  1  0.844454  0.250000  0.215456  1
  Lu  Lu8  1  0.197934  0.250000  0.779575  1
  Lu  Lu9  1  0.815333  0.750000  0.213286  1
  Lu  Lu10  1  0.307399  0.750000  0.282410  1
  Lu  Lu11  1  0.682805  0.250000  0.710789  1
  Lu  Lu12  1  0.193110  0.055598  0.060494  1
  Lu  Lu13  1  0.811231  0.929150  0.944169  1
  Lu  Lu14  1  0.311011  0.940650  0.558290  1
  Lu  Lu15  1  0.811231  0.570850  0.944169  1
  Lu  Lu16  1  0.687222  0.066618  0.445353  1
  Lu  Lu17  1  0.193110  0.444402  0.060494  1
  Lu  Lu18  1  0.687222  0.433382  0.445353  1
  Lu  Lu19  1  0.311011  0.559350  0.558290  1
  Tl  Tl20  1  0.592896  0.750000  0.455553  1
  Hg  Hg21  1  0.403761  0.250000  0.539109  1
  Hg  Hg22  1  0.094945  0.750000  0.041566  1
  Bi  Bi23  1  0.906613  0.250000  0.954581  1
  Bi  Bi24  1  0.055599  0.001595  0.322222  1
  Bi  Bi25  1  0.942349  0.999931  0.677614  1
  Bi  Bi26  1  0.445553  0.998115  0.822152  1
  Bi  Bi27  1  0.942349  0.500069  0.677614  1
  Bi  Bi28  1  0.558968  0.000993  0.177347  1
  Bi  Bi29  1  0.055599  0.498405  0.322222  1
  Bi  Bi30  1  0.558968  0.499007  0.177347  1
  Bi  Bi31  1  0.445553  0.501885  0.822152  1
