# generated using pymatgen
data_Yb(BiO2)7
_symmetry_space_group_name_H-M   'P 1'
_cell_length_a   6.69759031
_cell_length_b   6.82932216
_cell_length_c   7.88517941
_cell_angle_alpha   106.95096616
_cell_angle_beta   89.41370195
_cell_angle_gamma   99.57465174
_symmetry_Int_Tables_number   1
_chemical_formula_structural   Yb(BiO2)7
_chemical_formula_sum   'Yb1 Bi7 O14'
_cell_volume   339.91281553
_cell_formula_units_Z   1
loop_
 _symmetry_equiv_pos_site_id
 _symmetry_equiv_pos_as_xyz
  1  'x, y, z'
loop_
 _atom_site_type_symbol
 _atom_site_label
 _atom_site_symmetry_multiplicity
 _atom_site_fract_x
 _atom_site_fract_y
 _atom_site_fract_z
 _atom_site_occupancy
  Yb  Yb0  1  0.461374  0.001741  0.251533  1
  Bi  Bi1  1  0.001026  0.001604  0.500420  1
  Bi  Bi2  1  0.532621  0.997758  0.745811  1
  Bi  Bi3  1  0.998663  0.001329  0.002348  1
  Bi  Bi4  1  0.253560  0.526660  0.886817  1
  Bi  Bi5  1  0.731342  0.478678  0.123710  1
  Bi  Bi6  1  0.729675  0.469773  0.602640  1
  Bi  Bi7  1  0.275432  0.523792  0.378191  1
  O  O8  1  0.457605  0.646948  0.176305  1
  O  O9  1  0.531973  0.347989  0.813946  1
  O  O10  1  0.299770  0.939627  0.945024  1
  O  O11  1  0.699078  0.059971  0.044707  1
  O  O12  1  0.294612  0.915289  0.514131  1
  O  O13  1  0.706104  0.084304  0.492502  1
  O  O14  1  0.537062  0.356235  0.352584  1
  O  O15  1  0.470757  0.652647  0.647929  1
  O  O16  1  0.927533  0.674228  0.969216  1
  O  O17  1  0.090622  0.328897  0.046219  1
  O  O18  1  0.096162  0.326643  0.629098  1
  O  O19  1  0.899717  0.672824  0.377254  1
  O  O20  1  0.885105  0.917895  0.729778  1
  O  O21  1  0.120207  0.075169  0.269838  1
