# generated using pymatgen
data_Yb3ErTm4(B6Ru)4
_symmetry_space_group_name_H-M   'P 1'
_cell_length_a   3.62722200
_cell_length_b   9.09725181
_cell_length_c   11.48148400
_cell_angle_alpha   89.93962371
_cell_angle_beta   90.00000000
_cell_angle_gamma   90.00000000
_symmetry_Int_Tables_number   1
_chemical_formula_structural   Yb3ErTm4(B6Ru)4
_chemical_formula_sum   'Yb3 Er1 Tm4 B24 Ru4'
_cell_volume   378.86295031
_cell_formula_units_Z   1
loop_
 _symmetry_equiv_pos_site_id
 _symmetry_equiv_pos_as_xyz
  1  'x, y, z'
loop_
 _atom_site_type_symbol
 _atom_site_label
 _atom_site_symmetry_multiplicity
 _atom_site_fract_x
 _atom_site_fract_y
 _atom_site_fract_z
 _atom_site_occupancy
  Yb  Yb0  1  0.000000  0.324747  0.414708  1
  Yb  Yb1  1  0.000000  0.675137  0.584799  1
  Yb  Yb2  1  0.000000  0.823558  0.085904  1
  Er  Er3  1  0.000000  0.175880  0.915188  1
  Tm  Tm4  1  0.000000  0.941055  0.366705  1
  Tm  Tm5  1  0.000000  0.058065  0.631450  1
  Tm  Tm6  1  0.000000  0.442974  0.132782  1
  Tm  Tm7  1  0.000000  0.558648  0.868030  1
  B  B8  1  0.500000  0.553450  0.432870  1
  B  B9  1  0.500000  0.445812  0.567966  1
  B  B10  1  0.500000  0.054099  0.066626  1
  B  B11  1  0.500000  0.946105  0.933203  1
  B  B12  1  0.500000  0.748991  0.417381  1
  B  B13  1  0.500000  0.250816  0.582806  1
  B  B14  1  0.500000  0.249475  0.081715  1
  B  B15  1  0.500000  0.751294  0.917757  1
  B  B16  1  0.500000  0.791073  0.264045  1
  B  B17  1  0.500000  0.208219  0.736430  1
  B  B18  1  0.500000  0.291241  0.234948  1
  B  B19  1  0.500000  0.709770  0.764746  1
  B  B20  1  0.500000  0.630630  0.185514  1
  B  B21  1  0.500000  0.369092  0.815677  1
  B  B22  1  0.500000  0.130829  0.313812  1
  B  B23  1  0.500000  0.869684  0.685074  1
  B  B24  1  0.500000  0.982919  0.210680  1
  B  B25  1  0.500000  0.017466  0.788641  1
  B  B26  1  0.500000  0.483430  0.288852  1
  B  B27  1  0.500000  0.516281  0.711934  1
  B  B28  1  0.500000  0.598646  0.027213  1
  B  B29  1  0.500000  0.400526  0.972812  1
  B  B30  1  0.500000  0.096612  0.472914  1
  B  B31  1  0.500000  0.903161  0.526133  1
  Ru  Ru32  1  0.000000  0.639181  0.320134  1
  Ru  Ru33  1  0.000000  0.359460  0.681484  1
  Ru  Ru34  1  0.000000  0.138851  0.179092  1
  Ru  Ru35  1  0.000000  0.862824  0.819974  1
