# generated using pymatgen
data_Ce2Tc5(PRh)7
_symmetry_space_group_name_H-M   'P 1'
_cell_length_a   3.95622805
_cell_length_b   9.52663331
_cell_length_c   9.54382201
_cell_angle_alpha   119.51821962
_cell_angle_beta   89.99647136
_cell_angle_gamma   89.99085891
_symmetry_Int_Tables_number   1
_chemical_formula_structural   Ce2Tc5(PRh)7
_chemical_formula_sum   'Ce2 Tc5 P7 Rh7'
_cell_volume   313.01251333
_cell_formula_units_Z   1
loop_
 _symmetry_equiv_pos_site_id
 _symmetry_equiv_pos_as_xyz
  1  'x, y, z'
loop_
 _atom_site_type_symbol
 _atom_site_label
 _atom_site_symmetry_multiplicity
 _atom_site_fract_x
 _atom_site_fract_y
 _atom_site_fract_z
 _atom_site_occupancy
  Ce  Ce0  1  0.261931  0.668984  0.334523  1
  Ce  Ce1  1  0.761997  0.332544  0.665976  1
  Tc  Tc2  1  0.761963  0.093402  0.869737  1
  Tc  Tc3  1  0.761851  0.127033  0.222988  1
  Tc  Tc4  1  0.761841  0.776980  0.903319  1
  Tc  Tc5  1  0.261868  0.884744  0.158351  1
  Tc  Tc6  1  0.261953  0.842364  0.726292  1
  P  P7  1  0.261678  0.997537  0.997714  1
  P  P8  1  0.761928  0.884607  0.601927  1
  P  P9  1  0.761887  0.398926  0.287117  1
  P  P10  1  0.761846  0.718234  0.116419  1
  P  P11  1  0.261959  0.113288  0.406625  1
  P  P12  1  0.261983  0.591721  0.704733  1
  P  P13  1  0.261945  0.294751  0.885535  1
  Rh  Rh14  1  0.261878  0.272324  0.114257  1
  Rh  Rh15  1  0.761956  0.609490  0.557380  1
  Rh  Rh16  1  0.761874  0.442841  0.055058  1
  Rh  Rh17  1  0.761939  0.946840  0.391074  1
  Rh  Rh18  1  0.261899  0.369985  0.436561  1
  Rh  Rh19  1  0.261854  0.562672  0.931936  1
  Rh  Rh20  1  0.261970  0.070733  0.632479  1
