# generated using pymatgen
data_K4Sb3PPt4
_symmetry_space_group_name_H-M   'P 1'
_cell_length_a   7.00989831
_cell_length_b   7.00989855
_cell_length_c   7.00989881
_cell_angle_alpha   90.44510765
_cell_angle_beta   89.55489938
_cell_angle_gamma   89.55489576
_symmetry_Int_Tables_number   1
_chemical_formula_structural   K4Sb3PPt4
_chemical_formula_sum   'K4 Sb3 P1 Pt4'
_cell_volume   344.42580220
_cell_formula_units_Z   1
loop_
 _symmetry_equiv_pos_site_id
 _symmetry_equiv_pos_as_xyz
  1  'x, y, z'
loop_
 _atom_site_type_symbol
 _atom_site_label
 _atom_site_symmetry_multiplicity
 _atom_site_fract_x
 _atom_site_fract_y
 _atom_site_fract_z
 _atom_site_occupancy
  K  K0  1  0.889330  0.886620  0.875236  1
  K  K1  1  0.624764  0.110670  0.386620  1
  K  K2  1  0.113380  0.375236  0.610670  1
  K  K3  1  0.381197  0.618803  0.118803  1
  Sb  Sb4  1  0.589865  0.597352  0.585601  1
  Sb  Sb5  1  0.914399  0.410135  0.097352  1
  Sb  Sb6  1  0.402648  0.085601  0.910135  1
  P  P7  1  0.095896  0.904104  0.404104  1
  Pt  Pt8  1  0.144483  0.127559  0.178194  1
  Pt  Pt9  1  0.321806  0.855517  0.627559  1
  Pt  Pt10  1  0.872441  0.678194  0.355517  1
  Pt  Pt11  1  0.649791  0.350209  0.850209  1
