# generated using pymatgen
data_Ca2Al5Ga2Au
_symmetry_space_group_name_H-M   'P 1'
_cell_length_a   4.21598100
_cell_length_b   4.21598100
_cell_length_c   11.40106300
_cell_angle_alpha   90.00000000
_cell_angle_beta   90.00000000
_cell_angle_gamma   90.00000000
_symmetry_Int_Tables_number   1
_chemical_formula_structural   Ca2Al5Ga2Au
_chemical_formula_sum   'Ca2 Al5 Ga2 Au1'
_cell_volume   202.64814632
_cell_formula_units_Z   1
loop_
 _symmetry_equiv_pos_site_id
 _symmetry_equiv_pos_as_xyz
  1  'x, y, z'
loop_
 _atom_site_type_symbol
 _atom_site_label
 _atom_site_symmetry_multiplicity
 _atom_site_fract_x
 _atom_site_fract_y
 _atom_site_fract_z
 _atom_site_occupancy
  Ca  Ca0  1  0.000000  0.000000  0.000715  1
  Ca  Ca1  1  0.500000  0.500000  0.499706  1
  Al  Al2  1  0.000000  0.500000  0.250577  1
  Al  Al3  1  0.500000  0.000000  0.746806  1
  Al  Al4  1  0.500000  0.000000  0.250577  1
  Al  Al5  1  0.000000  0.500000  0.746806  1
  Al  Al6  1  0.500000  0.500000  0.892075  1
  Ga  Ga7  1  0.000000  0.000000  0.608396  1
  Ga  Ga8  1  0.000000  0.000000  0.390490  1
  Au  Au9  1  0.500000  0.500000  0.113852  1
