# generated using pymatgen
data_Tb3Lu(P3Ir4)2
_symmetry_space_group_name_H-M   'P 1'
_cell_length_a   4.01454800
_cell_length_b   11.29310400
_cell_length_c   12.97056400
_cell_angle_alpha   90.00000000
_cell_angle_beta   90.00000000
_cell_angle_gamma   90.00000000
_symmetry_Int_Tables_number   1
_chemical_formula_structural   Tb3Lu(P3Ir4)2
_chemical_formula_sum   'Tb6 Lu2 P12 Ir16'
_cell_volume   588.04267366
_cell_formula_units_Z   2
loop_
 _symmetry_equiv_pos_site_id
 _symmetry_equiv_pos_as_xyz
  1  'x, y, z'
loop_
 _atom_site_type_symbol
 _atom_site_label
 _atom_site_symmetry_multiplicity
 _atom_site_fract_x
 _atom_site_fract_y
 _atom_site_fract_z
 _atom_site_occupancy
  Tb  Tb0  1  0.000000  0.500000  0.522196  1
  Tb  Tb1  1  0.500000  0.000000  0.477804  1
  Tb  Tb2  1  0.500000  0.821347  0.203955  1
  Tb  Tb3  1  0.500000  0.178653  0.203955  1
  Tb  Tb4  1  0.000000  0.678653  0.796045  1
  Tb  Tb5  1  0.000000  0.321347  0.796045  1
  Lu  Lu6  1  0.500000  0.500000  0.159144  1
  Lu  Lu7  1  0.000000  0.000000  0.840856  1
  P  P8  1  0.500000  0.500000  0.879538  1
  P  P9  1  0.000000  0.000000  0.120462  1
  P  P10  1  0.500000  0.500000  0.363214  1
  P  P11  1  0.000000  0.000000  0.636786  1
  P  P12  1  0.500000  0.312633  0.616660  1
  P  P13  1  0.500000  0.687367  0.616660  1
  P  P14  1  0.000000  0.187367  0.383340  1
  P  P15  1  0.000000  0.812633  0.383340  1
  P  P16  1  0.500000  0.841914  0.887945  1
  P  P17  1  0.500000  0.158086  0.887945  1
  P  P18  1  0.000000  0.658086  0.112055  1
  P  P19  1  0.000000  0.341914  0.112055  1
  Ir  Ir20  1  0.500000  0.500000  0.700825  1
  Ir  Ir21  1  0.000000  0.000000  0.299175  1
  Ir  Ir22  1  0.000000  0.500000  0.987306  1
  Ir  Ir23  1  0.500000  0.000000  0.012694  1
  Ir  Ir24  1  0.500000  0.330246  0.983262  1
  Ir  Ir25  1  0.500000  0.669754  0.983262  1
  Ir  Ir26  1  0.000000  0.169754  0.016738  1
  Ir  Ir27  1  0.000000  0.830246  0.016738  1
  Ir  Ir28  1  0.500000  0.290089  0.431582  1
  Ir  Ir29  1  0.500000  0.709911  0.431582  1
  Ir  Ir30  1  0.000000  0.209911  0.568418  1
  Ir  Ir31  1  0.000000  0.790089  0.568418  1
  Ir  Ir32  1  0.500000  0.871518  0.707567  1
  Ir  Ir33  1  0.500000  0.128482  0.707567  1
  Ir  Ir34  1  0.000000  0.628482  0.292433  1
  Ir  Ir35  1  0.000000  0.371518  0.292433  1
