# generated using pymatgen
data_Li8YbSm7Pt8
_symmetry_space_group_name_H-M   'P 1'
_cell_length_a   9.56039330
_cell_length_b   9.56039180
_cell_length_c   7.23753600
_cell_angle_alpha   90.21814107
_cell_angle_beta   89.78184698
_cell_angle_gamma   130.80816530
_symmetry_Int_Tables_number   1
_chemical_formula_structural   Li8YbSm7Pt8
_chemical_formula_sum   'Li8 Yb1 Sm7 Pt8'
_cell_volume   500.70046026
_cell_formula_units_Z   1
loop_
 _symmetry_equiv_pos_site_id
 _symmetry_equiv_pos_as_xyz
  1  'x, y, z'
loop_
 _atom_site_type_symbol
 _atom_site_label
 _atom_site_symmetry_multiplicity
 _atom_site_fract_x
 _atom_site_fract_y
 _atom_site_fract_z
 _atom_site_occupancy
  Li  Li0  1  0.848227  0.151773  0.878532  1
  Li  Li1  1  0.845660  0.652472  0.625791  1
  Li  Li2  1  0.347528  0.154340  0.625791  1
  Li  Li3  1  0.151976  0.848024  0.378429  1
  Li  Li4  1  0.153979  0.347864  0.126495  1
  Li  Li5  1  0.652136  0.846021  0.126495  1
  Li  Li6  1  0.652019  0.347981  0.381011  1
  Li  Li7  1  0.347219  0.652781  0.876656  1
  Yb  Yb8  1  0.465183  0.534817  0.454332  1
  Sm  Sm9  1  0.533867  0.962835  0.550573  1
  Sm  Sm10  1  0.037165  0.466133  0.550573  1
  Sm  Sm11  1  0.534551  0.465449  0.953273  1
  Sm  Sm12  1  0.464195  0.034050  0.051401  1
  Sm  Sm13  1  0.965950  0.535805  0.051401  1
  Sm  Sm14  1  0.965128  0.034872  0.454510  1
  Sm  Sm15  1  0.033992  0.966008  0.955013  1
  Pt  Pt16  1  0.813336  0.186664  0.258104  1
  Pt  Pt17  1  0.813931  0.686482  0.247037  1
  Pt  Pt18  1  0.313518  0.186069  0.247037  1
  Pt  Pt19  1  0.185915  0.814085  0.756073  1
  Pt  Pt20  1  0.187327  0.313166  0.749673  1
  Pt  Pt21  1  0.686834  0.812673  0.749673  1
  Pt  Pt22  1  0.687827  0.312173  0.756925  1
  Pt  Pt23  1  0.312538  0.687462  0.253202  1
