# generated using pymatgen
data_Sc2Ti(AsRu)3
_symmetry_space_group_name_H-M   'P 1'
_cell_length_a   7.63153459
_cell_length_b   7.63153453
_cell_length_c   7.63153483
_cell_angle_alpha   128.52911865
_cell_angle_beta   121.15252312
_cell_angle_gamma   81.93882910
_symmetry_Int_Tables_number   1
_chemical_formula_structural   Sc2Ti(AsRu)3
_chemical_formula_sum   'Sc4 Ti2 As6 Ru6'
_cell_volume   286.35095647
_cell_formula_units_Z   2
loop_
 _symmetry_equiv_pos_site_id
 _symmetry_equiv_pos_as_xyz
  1  'x, y, z'
loop_
 _atom_site_type_symbol
 _atom_site_label
 _atom_site_symmetry_multiplicity
 _atom_site_fract_x
 _atom_site_fract_y
 _atom_site_fract_z
 _atom_site_occupancy
  Sc  Sc0  1  0.470978  0.242143  0.271165  1
  Sc  Sc1  1  0.529022  0.800187  0.771165  1
  Sc  Sc2  1  0.747773  0.665883  0.418109  1
  Sc  Sc3  1  0.252227  0.670336  0.918109  1
  Ti  Ti4  1  0.050552  0.844772  0.294220  1
  Ti  Ti5  1  0.949448  0.243668  0.794220  1
  As  As6  1  0.841268  0.579082  0.755845  1
  As  As7  1  0.158732  0.914575  0.737814  1
  As  As8  1  0.676761  0.914575  0.255845  1
  As  As9  1  0.323239  0.579082  0.237814  1
  As  As10  1  0.278737  0.282661  0.503924  1
  As  As11  1  0.721263  0.225187  0.003924  1
  Ru  Ru12  1  0.660622  0.491628  0.904407  1
  Ru  Ru13  1  0.339378  0.243785  0.831007  1
  Ru  Ru14  1  0.912779  0.243785  0.404407  1
  Ru  Ru15  1  0.087221  0.491628  0.331007  1
  Ru  Ru16  1  0.000000  0.003710  0.003710  1
  Ru  Ru17  1  0.500000  0.003710  0.503710  1
