# generated using pymatgen
data_SrLaTi2O6
_symmetry_space_group_name_H-M   'P 1'
_cell_length_a   5.59035808
_cell_length_b   5.59035849
_cell_length_c   7.86219500
_cell_angle_alpha   90.00000000
_cell_angle_beta   90.00000000
_cell_angle_gamma   90.74324933
_symmetry_Int_Tables_number   1
_chemical_formula_structural   SrLaTi2O6
_chemical_formula_sum   'Sr2 La2 Ti4 O12'
_cell_volume   245.68947588
_cell_formula_units_Z   2
loop_
 _symmetry_equiv_pos_site_id
 _symmetry_equiv_pos_as_xyz
  1  'x, y, z'
loop_
 _atom_site_type_symbol
 _atom_site_label
 _atom_site_symmetry_multiplicity
 _atom_site_fract_x
 _atom_site_fract_y
 _atom_site_fract_z
 _atom_site_occupancy
  Sr  Sr0  1  0.998265  0.001735  0.750000  1
  Sr  Sr1  1  0.001735  0.998265  0.250000  1
  La  La2  1  0.497680  0.502320  0.750000  1
  La  La3  1  0.502320  0.497680  0.250000  1
  Ti  Ti4  1  0.500000  0.000000  0.500000  1
  Ti  Ti5  1  0.000000  0.500000  0.500000  1
  Ti  Ti6  1  0.500000  0.000000  0.000000  1
  Ti  Ti7  1  0.000000  0.500000  0.000000  1
  O  O8  1  0.747755  0.747755  0.500000  1
  O  O9  1  0.747755  0.747755  0.000000  1
  O  O10  1  0.252245  0.252245  0.500000  1
  O  O11  1  0.252245  0.252245  0.000000  1
  O  O12  1  0.741948  0.258052  0.541566  1
  O  O13  1  0.258052  0.741948  0.458434  1
  O  O14  1  0.741948  0.258052  0.958434  1
  O  O15  1  0.258052  0.741948  0.041566  1
  O  O16  1  0.462960  0.953074  0.750000  1
  O  O17  1  0.953074  0.462960  0.250000  1
  O  O18  1  0.537040  0.046926  0.250000  1
  O  O19  1  0.046926  0.537040  0.750000  1
