# generated using pymatgen
data_Er7Tm3(InBi)3
_symmetry_space_group_name_H-M   'P 1'
_cell_length_a   6.50086300
_cell_length_b   8.97624467
_cell_length_c   8.97716900
_cell_angle_alpha   119.99584338
_cell_angle_beta   89.99870651
_cell_angle_gamma   89.99939003
_symmetry_Int_Tables_number   1
_chemical_formula_structural   Er7Tm3(InBi)3
_chemical_formula_sum   'Er7 Tm3 In3 Bi3'
_cell_volume   453.68447410
_cell_formula_units_Z   1
loop_
 _symmetry_equiv_pos_site_id
 _symmetry_equiv_pos_as_xyz
  1  'x, y, z'
loop_
 _atom_site_type_symbol
 _atom_site_label
 _atom_site_symmetry_multiplicity
 _atom_site_fract_x
 _atom_site_fract_y
 _atom_site_fract_z
 _atom_site_occupancy
  Er  Er0  1  0.492504  0.333341  0.666661  1
  Er  Er1  1  0.750082  0.236094  0.000016  1
  Er  Er2  1  0.750078  0.763676  0.763764  1
  Er  Er3  1  0.750075  0.999896  0.236213  1
  Er  Er4  1  0.249943  0.762310  0.000043  1
  Er  Er5  1  0.249930  0.237971  0.237826  1
  Er  Er6  1  0.249913  0.000041  0.762151  1
  Tm  Tm7  1  0.492393  0.666673  0.333331  1
  Tm  Tm8  1  0.007569  0.666676  0.333343  1
  Tm  Tm9  1  0.007598  0.333334  0.666649  1
  In  In10  1  0.249853  0.393869  0.000127  1
  In  In11  1  0.249862  0.606402  0.606266  1
  In  In12  1  0.249864  0.999898  0.393612  1
  Bi  Bi13  1  0.750115  0.603798  0.000174  1
  Bi  Bi14  1  0.750107  0.396216  0.396065  1
  Bi  Bi15  1  0.750111  0.999805  0.603760  1
