# generated using pymatgen
data_Ho3SnBi2Rh3
_symmetry_space_group_name_H-M   'P 1'
_cell_length_a   7.54211200
_cell_length_b   7.63601279
_cell_length_c   3.95160800
_cell_angle_alpha   90.00000000
_cell_angle_beta   90.00000000
_cell_angle_gamma   119.59405084
_symmetry_Int_Tables_number   1
_chemical_formula_structural   Ho3SnBi2Rh3
_chemical_formula_sum   'Ho3 Sn1 Bi2 Rh3'
_cell_volume   197.89104791
_cell_formula_units_Z   1
loop_
 _symmetry_equiv_pos_site_id
 _symmetry_equiv_pos_as_xyz
  1  'x, y, z'
loop_
 _atom_site_type_symbol
 _atom_site_label
 _atom_site_symmetry_multiplicity
 _atom_site_fract_x
 _atom_site_fract_y
 _atom_site_fract_z
 _atom_site_occupancy
  Ho  Ho0  1  0.591221  0.000000  0.000000  1
  Ho  Ho1  1  0.010769  0.607144  0.000000  1
  Ho  Ho2  1  0.403625  0.392856  0.000000  1
  Sn  Sn3  1  0.263796  0.000000  0.500000  1
  Bi  Bi4  1  0.002276  0.265854  0.500000  1
  Bi  Bi5  1  0.736422  0.734146  0.500000  1
  Rh  Rh6  1  0.329368  0.672776  0.500000  1
  Rh  Rh7  1  0.656593  0.327224  0.500000  1
  Rh  Rh8  1  0.005931  0.000000  0.000000  1
