# generated using pymatgen
data_Li3Sm2Th2ZnRh4
_symmetry_space_group_name_H-M   'P 1'
_cell_length_a   3.95339700
_cell_length_b   7.14972270
_cell_length_c   8.60458918
_cell_angle_alpha   91.94500713
_cell_angle_beta   90.00000000
_cell_angle_gamma   90.00000000
_symmetry_Int_Tables_number   1
_chemical_formula_structural   Li3Sm2Th2ZnRh4
_chemical_formula_sum   'Li3 Sm2 Th2 Zn1 Rh4'
_cell_volume   243.07454501
_cell_formula_units_Z   1
loop_
 _symmetry_equiv_pos_site_id
 _symmetry_equiv_pos_as_xyz
  1  'x, y, z'
loop_
 _atom_site_type_symbol
 _atom_site_label
 _atom_site_symmetry_multiplicity
 _atom_site_fract_x
 _atom_site_fract_y
 _atom_site_fract_z
 _atom_site_occupancy
  Li  Li0  1  0.250000  0.126148  0.943804  1
  Li  Li1  1  0.750000  0.876786  0.054941  1
  Li  Li2  1  0.250000  0.625342  0.551933  1
  Sm  Sm3  1  0.250000  0.051374  0.321433  1
  Sm  Sm4  1  0.750000  0.952414  0.680003  1
  Th  Th5  1  0.250000  0.541600  0.190973  1
  Th  Th6  1  0.750000  0.456385  0.810463  1
  Zn  Zn7  1  0.750000  0.372383  0.444943  1
  Rh  Rh8  1  0.750000  0.745850  0.368703  1
  Rh  Rh9  1  0.250000  0.253893  0.629083  1
  Rh  Rh10  1  0.750000  0.274703  0.125597  1
  Rh  Rh11  1  0.250000  0.723121  0.878124  1
