# generated using pymatgen
data_Hf3Nb(SiRh5)2
_symmetry_space_group_name_H-M   'P 1'
_cell_length_a   4.02672200
_cell_length_b   5.55334682
_cell_length_c   10.81766257
_cell_angle_alpha   89.90701039
_cell_angle_beta   90.00000000
_cell_angle_gamma   90.00000000
_symmetry_Int_Tables_number   1
_chemical_formula_structural   Hf3Nb(SiRh5)2
_chemical_formula_sum   'Hf3 Nb1 Si2 Rh10'
_cell_volume   241.90191335
_cell_formula_units_Z   1
loop_
 _symmetry_equiv_pos_site_id
 _symmetry_equiv_pos_as_xyz
  1  'x, y, z'
loop_
 _atom_site_type_symbol
 _atom_site_label
 _atom_site_symmetry_multiplicity
 _atom_site_fract_x
 _atom_site_fract_y
 _atom_site_fract_z
 _atom_site_occupancy
  Hf  Hf0  1  0.500000  0.822563  0.358494  1
  Hf  Hf1  1  0.500000  0.675800  0.860223  1
  Hf  Hf2  1  0.500000  0.323628  0.141423  1
  Nb  Nb3  1  0.500000  0.174474  0.642171  1
  Si  Si4  1  0.000000  0.498291  0.500438  1
  Si  Si5  1  0.000000  0.000151  0.000116  1
  Rh  Rh6  1  0.500000  0.180703  0.893519  1
  Rh  Rh7  1  0.500000  0.819201  0.102558  1
  Rh  Rh8  1  0.500000  0.685839  0.603424  1
  Rh  Rh9  1  0.500000  0.316489  0.400561  1
  Rh  Rh10  1  0.000000  0.424566  0.737193  1
  Rh  Rh11  1  0.000000  0.570384  0.260034  1
  Rh  Rh12  1  0.000000  0.004914  0.503068  1
  Rh  Rh13  1  0.000000  0.499618  0.999049  1
  Rh  Rh14  1  0.000000  0.070902  0.241337  1
  Rh  Rh15  1  0.000000  0.932477  0.756392  1
