# generated using pymatgen
data_CaMg2Cu(Ni3B)2
_symmetry_space_group_name_H-M   'P 1'
_cell_length_a   7.40702207
_cell_length_b   7.40702270
_cell_length_c   7.40702177
_cell_angle_alpha   39.66401246
_cell_angle_beta   39.66401836
_cell_angle_gamma   39.66400901
_symmetry_Int_Tables_number   1
_chemical_formula_structural   CaMg2Cu(Ni3B)2
_chemical_formula_sum   'Ca1 Mg2 Cu1 Ni6 B2'
_cell_volume   149.07948227
_cell_formula_units_Z   1
loop_
 _symmetry_equiv_pos_site_id
 _symmetry_equiv_pos_as_xyz
  1  'x, y, z'
loop_
 _atom_site_type_symbol
 _atom_site_label
 _atom_site_symmetry_multiplicity
 _atom_site_fract_x
 _atom_site_fract_y
 _atom_site_fract_z
 _atom_site_occupancy
  Ca  Ca0  1  0.500000  0.500000  0.500000  1
  Mg  Mg1  1  0.647573  0.647573  0.647573  1
  Mg  Mg2  1  0.352427  0.352427  0.352427  1
  Cu  Cu3  1  0.000000  0.000000  0.000000  1
  Ni  Ni4  1  0.568327  0.068810  0.068810  1
  Ni  Ni5  1  0.068810  0.068810  0.568327  1
  Ni  Ni6  1  0.068810  0.568327  0.068810  1
  Ni  Ni7  1  0.931190  0.431673  0.931190  1
  Ni  Ni8  1  0.931190  0.931190  0.431673  1
  Ni  Ni9  1  0.431673  0.931190  0.931190  1
  B  B10  1  0.833157  0.833157  0.833157  1
  B  B11  1  0.166843  0.166843  0.166843  1
