# generated using pymatgen
data_Mg2Tc5(NiP)7
_symmetry_space_group_name_H-M   'P 1'
_cell_length_a   9.18441579
_cell_length_b   9.32606016
_cell_length_c   3.63949100
_cell_angle_alpha   90.00000000
_cell_angle_beta   90.00000000
_cell_angle_gamma   119.97994728
_symmetry_Int_Tables_number   1
_chemical_formula_structural   Mg2Tc5(NiP)7
_chemical_formula_sum   'Mg2 Tc5 Ni7 P7'
_cell_volume   270.02796949
_cell_formula_units_Z   1
loop_
 _symmetry_equiv_pos_site_id
 _symmetry_equiv_pos_as_xyz
  1  'x, y, z'
loop_
 _atom_site_type_symbol
 _atom_site_label
 _atom_site_symmetry_multiplicity
 _atom_site_fract_x
 _atom_site_fract_y
 _atom_site_fract_z
 _atom_site_occupancy
  Mg  Mg0  1  0.003292  0.000583  0.000000  1
  Mg  Mg1  1  0.335518  0.666354  0.500000  1
  Tc  Tc2  1  0.060896  0.771111  0.500000  1
  Tc  Tc3  1  0.720407  0.942271  0.500000  1
  Tc  Tc4  1  0.875848  0.418691  0.500000  1
  Tc  Tc5  1  0.545267  0.129135  0.500000  1
  Tc  Tc6  1  0.562234  0.458131  0.500000  1
  Ni  Ni7  1  0.378509  0.213329  0.000000  1
  Ni  Ni8  1  0.793116  0.176426  0.000000  1
  Ni  Ni9  1  0.820120  0.605518  0.000000  1
  Ni  Ni10  1  0.593676  0.697577  0.000000  1
  Ni  Ni11  1  0.305364  0.902856  0.000000  1
  Ni  Ni12  1  0.112761  0.409225  0.000000  1
  Ni  Ni13  1  0.221464  0.278788  0.500000  1
  P  P14  1  0.257163  0.050235  0.500000  1
  P  P15  1  0.957062  0.213353  0.500000  1
  P  P16  1  0.789721  0.737105  0.500000  1
  P  P17  1  0.370277  0.448455  0.000000  1
  P  P18  1  0.551875  0.923779  0.000000  1
  P  P19  1  0.080629  0.626145  0.000000  1
  P  P20  1  0.664804  0.330930  0.000000  1
