# generated using pymatgen
data_La5NpPaO12
_symmetry_space_group_name_H-M   'P 1'
_cell_length_a   6.88828169
_cell_length_b   6.94065868
_cell_length_c   6.86197303
_cell_angle_alpha   99.65294414
_cell_angle_beta   98.59258741
_cell_angle_gamma   98.79197527
_symmetry_Int_Tables_number   1
_chemical_formula_structural   La5NpPaO12
_chemical_formula_sum   'La5 Np1 Pa1 O12'
_cell_volume   314.41963482
_cell_formula_units_Z   1
loop_
 _symmetry_equiv_pos_site_id
 _symmetry_equiv_pos_as_xyz
  1  'x, y, z'
loop_
 _atom_site_type_symbol
 _atom_site_label
 _atom_site_symmetry_multiplicity
 _atom_site_fract_x
 _atom_site_fract_y
 _atom_site_fract_z
 _atom_site_occupancy
  La  La0  1  0.602358  0.140293  0.303687  1
  La  La1  1  0.396158  0.862798  0.694523  1
  La  La2  1  0.696872  0.394215  0.859585  1
  La  La3  1  0.856466  0.694777  0.392292  1
  La  La4  1  0.139820  0.302847  0.605287  1
  Np  Np5  1  0.307234  0.601620  0.139326  1
  Pa  Pa6  1  0.003795  0.999417  0.003072  1
  O  O7  1  0.437795  0.179526  0.594113  1
  O  O8  1  0.936748  0.691529  0.053773  1
  O  O9  1  0.189397  0.584985  0.415745  1
  O  O10  1  0.825929  0.414888  0.562805  1
  O  O11  1  0.554179  0.817358  0.394881  1
  O  O12  1  0.567686  0.437810  0.177270  1
  O  O13  1  0.402692  0.572718  0.844709  1
  O  O14  1  0.946810  0.066375  0.307497  1
  O  O15  1  0.053469  0.933150  0.693127  1
  O  O16  1  0.697825  0.054136  0.930884  1
  O  O17  1  0.079554  0.313191  0.959270  1
  O  O18  1  0.305212  0.938367  0.068155  1
