# generated using pymatgen
data_Tm2Lu14Cd4Co3Ru
_symmetry_space_group_name_H-M   'P 1'
_cell_length_a   9.35443287
_cell_length_b   9.35443441
_cell_length_c   9.35260975
_cell_angle_alpha   59.65151864
_cell_angle_beta   59.65151734
_cell_angle_gamma   59.64206725
_symmetry_Int_Tables_number   1
_chemical_formula_structural   Tm2Lu14Cd4Co3Ru
_chemical_formula_sum   'Tm2 Lu14 Cd4 Co3 Ru1'
_cell_volume   574.07539255
_cell_formula_units_Z   1
loop_
 _symmetry_equiv_pos_site_id
 _symmetry_equiv_pos_as_xyz
  1  'x, y, z'
loop_
 _atom_site_type_symbol
 _atom_site_label
 _atom_site_symmetry_multiplicity
 _atom_site_fract_x
 _atom_site_fract_y
 _atom_site_fract_z
 _atom_site_occupancy
  Tm  Tm0  1  0.346277  0.346277  0.346473  1
  Tm  Tm1  1  0.350324  0.350324  0.958536  1
  Lu  Lu2  1  0.350107  0.959049  0.350152  1
  Lu  Lu3  1  0.959049  0.350107  0.350152  1
  Lu  Lu4  1  0.808873  0.187409  0.187368  1
  Lu  Lu5  1  0.187044  0.812188  0.811911  1
  Lu  Lu6  1  0.187409  0.808873  0.187368  1
  Lu  Lu7  1  0.812188  0.187044  0.811911  1
  Lu  Lu8  1  0.187212  0.187212  0.808974  1
  Lu  Lu9  1  0.811941  0.811941  0.187148  1
  Lu  Lu10  1  0.937181  0.562744  0.562523  1
  Lu  Lu11  1  0.558875  0.938841  0.938928  1
  Lu  Lu12  1  0.562744  0.937181  0.562523  1
  Lu  Lu13  1  0.938841  0.558875  0.938928  1
  Lu  Lu14  1  0.562899  0.562899  0.936939  1
  Lu  Lu15  1  0.939170  0.939170  0.558431  1
  Cd  Cd16  1  0.581053  0.581053  0.580290  1
  Cd  Cd17  1  0.580545  0.580545  0.257366  1
  Cd  Cd18  1  0.580678  0.257165  0.580427  1
  Cd  Cd19  1  0.257165  0.580678  0.580427  1
  Co  Co20  1  0.140837  0.140837  0.577768  1
  Co  Co21  1  0.140291  0.578318  0.141401  1
  Co  Co22  1  0.578318  0.140291  0.141401  1
  Ru  Ru23  1  0.140974  0.140974  0.142657  1
