# generated using pymatgen
data_Pr9Th(Si9Au)2
_symmetry_space_group_name_H-M   'P 1'
_cell_length_a   4.23992617
_cell_length_b   4.31902434
_cell_length_c   34.71318900
_cell_angle_alpha   86.43585859
_cell_angle_beta   86.48126640
_cell_angle_gamma   89.99998627
_symmetry_Int_Tables_number   1
_chemical_formula_structural   Pr9Th(Si9Au)2
_chemical_formula_sum   'Pr9 Th1 Si18 Au2'
_cell_volume   633.24963776
_cell_formula_units_Z   1
loop_
 _symmetry_equiv_pos_site_id
 _symmetry_equiv_pos_as_xyz
  1  'x, y, z'
loop_
 _atom_site_type_symbol
 _atom_site_label
 _atom_site_symmetry_multiplicity
 _atom_site_fract_x
 _atom_site_fract_y
 _atom_site_fract_z
 _atom_site_occupancy
  Pr  Pr0  1  0.948876  0.449151  0.100465  1
  Pr  Pr1  1  0.351031  0.850568  0.298787  1
  Pr  Pr2  1  0.751104  0.252181  0.496109  1
  Pr  Pr3  1  0.148733  0.649462  0.701641  1
  Pr  Pr4  1  0.547387  0.047307  0.905080  1
  Pr  Pr5  1  0.999833  0.999261  0.001446  1
  Pr  Pr6  1  0.400651  0.400640  0.199250  1
  Pr  Pr7  1  0.801593  0.801761  0.397436  1
  Pr  Pr8  1  0.202637  0.202571  0.594985  1
  Th  Th9  1  0.601341  0.600267  0.798301  1
  Si  Si10  1  0.466630  0.966530  0.066306  1
  Si  Si11  1  0.868693  0.367789  0.264578  1
  Si  Si12  1  0.268765  0.768884  0.462776  1
  Si  Si13  1  0.667047  0.167041  0.665963  1
  Si  Si14  1  0.066380  0.565085  0.868709  1
  Si  Si15  1  0.916766  0.916574  0.166240  1
  Si  Si16  1  0.317671  0.317990  0.364641  1
  Si  Si17  1  0.718123  0.719758  0.562649  1
  Si  Si18  1  0.116855  0.118239  0.766447  1
  Si  Si19  1  0.515843  0.515594  0.968724  1
  Si  Si20  1  0.433207  0.933310  0.133456  1
  Si  Si21  1  0.834377  0.334334  0.331855  1
  Si  Si22  1  0.234613  0.734680  0.530267  1
  Si  Si23  1  0.633350  0.132138  0.733714  1
  Si  Si24  1  0.032283  0.531757  0.936204  1
  Si  Si25  1  0.481473  0.481774  0.035680  1
  Si  Si26  1  0.883088  0.883458  0.233509  1
  Si  Si27  1  0.283808  0.284254  0.431875  1
  Au  Au28  1  0.683610  0.683616  0.632513  1
  Au  Au29  1  0.081433  0.081225  0.835995  1
