# generated using pymatgen
data_Ce8Lu11Si16Hg
_symmetry_space_group_name_H-M   'P 1'
_cell_length_a   7.37431000
_cell_length_b   7.72461291
_cell_length_c   14.65103900
_cell_angle_alpha   90.00000000
_cell_angle_beta   90.00000000
_cell_angle_gamma   90.07661333
_symmetry_Int_Tables_number   1
_chemical_formula_structural   Ce8Lu11Si16Hg
_chemical_formula_sum   'Ce8 Lu11 Si16 Hg1'
_cell_volume   834.57650055
_cell_formula_units_Z   1
loop_
 _symmetry_equiv_pos_site_id
 _symmetry_equiv_pos_as_xyz
  1  'x, y, z'
loop_
 _atom_site_type_symbol
 _atom_site_label
 _atom_site_symmetry_multiplicity
 _atom_site_fract_x
 _atom_site_fract_y
 _atom_site_fract_z
 _atom_site_occupancy
  Ce  Ce0  1  0.015420  0.176193  0.401569  1
  Ce  Ce1  1  0.514687  0.324934  0.402058  1
  Ce  Ce2  1  0.488056  0.685241  0.899663  1
  Ce  Ce3  1  0.488056  0.685241  0.600337  1
  Ce  Ce4  1  0.976493  0.825683  0.600490  1
  Ce  Ce5  1  0.976493  0.825683  0.899510  1
  Ce  Ce6  1  0.514687  0.324934  0.097942  1
  Ce  Ce7  1  0.015420  0.176193  0.098431  1
  Lu  Lu8  1  0.339432  0.175150  0.624690  1
  Lu  Lu9  1  0.673957  0.817610  0.374689  1
  Lu  Lu10  1  0.173937  0.677088  0.377660  1
  Lu  Lu11  1  0.822479  0.312675  0.875632  1
  Lu  Lu12  1  0.822479  0.312675  0.624368  1
  Lu  Lu13  1  0.840481  0.486641  0.250000  1
  Lu  Lu14  1  0.338135  0.011198  0.250000  1
  Lu  Lu15  1  0.339432  0.175150  0.875310  1
  Lu  Lu16  1  0.173937  0.677088  0.122340  1
  Lu  Lu17  1  0.673957  0.817610  0.125311  1
  Lu  Lu18  1  0.155964  0.506423  0.750000  1
  Si  Si19  1  0.262354  0.873184  0.750000  1
  Si  Si20  1  0.466089  0.609791  0.250000  1
  Si  Si21  1  0.047028  0.118045  0.750000  1
  Si  Si22  1  0.528588  0.409490  0.750000  1
  Si  Si23  1  0.152617  0.469205  0.541035  1
  Si  Si24  1  0.968598  0.885279  0.250000  1
  Si  Si25  1  0.716548  0.123101  0.250000  1
  Si  Si26  1  0.848589  0.530510  0.036284  1
  Si  Si27  1  0.347923  0.969486  0.039241  1
  Si  Si28  1  0.152617  0.469205  0.958965  1
  Si  Si29  1  0.655795  0.037280  0.526925  1
  Si  Si30  1  0.347923  0.969486  0.460759  1
  Si  Si31  1  0.848589  0.530510  0.463716  1
  Si  Si32  1  0.785520  0.608316  0.750000  1
  Si  Si33  1  0.217083  0.374821  0.250000  1
  Si  Si34  1  0.655795  0.037280  0.973075  1
  Hg  Hg35  1  0.654844  0.991599  0.750000  1
