# generated using pymatgen
data_CeY3(BRu)16
_symmetry_space_group_name_H-M   'P 1'
_cell_length_a   7.49919519
_cell_length_b   7.49919475
_cell_length_c   9.22355729
_cell_angle_alpha   113.99125051
_cell_angle_beta   113.99124920
_cell_angle_gamma   89.98970011
_symmetry_Int_Tables_number   1
_chemical_formula_structural   CeY3(BRu)16
_chemical_formula_sum   'Ce1 Y3 B16 Ru16'
_cell_volume   424.40070536
_cell_formula_units_Z   1
loop_
 _symmetry_equiv_pos_site_id
 _symmetry_equiv_pos_as_xyz
  1  'x, y, z'
loop_
 _atom_site_type_symbol
 _atom_site_label
 _atom_site_symmetry_multiplicity
 _atom_site_fract_x
 _atom_site_fract_y
 _atom_site_fract_z
 _atom_site_occupancy
  Ce  Ce0  1  0.500000  0.000000  0.000000  1
  Y  Y1  1  0.000000  0.500000  0.000000  1
  Y  Y2  1  0.250000  0.250000  0.499999  1
  Y  Y3  1  0.749999  0.749999  0.499999  1
  B  B4  1  0.249640  0.223448  0.165175  1
  B  B5  1  0.750514  0.440701  0.164193  1
  B  B6  1  0.413681  0.723493  0.164193  1
  B  B7  1  0.915535  0.941727  0.165175  1
  B  B8  1  0.838046  0.028604  0.338169  1
  B  B9  1  0.500123  0.309564  0.338169  1
  B  B10  1  0.000726  0.527119  0.336275  1
  B  B11  1  0.335548  0.809155  0.336275  1
  B  B12  1  0.690845  0.164452  0.663726  1
  B  B13  1  0.972880  0.499274  0.663726  1
  B  B14  1  0.471397  0.661955  0.661832  1
  B  B15  1  0.190436  0.999878  0.661832  1
  B  B16  1  0.776507  0.086319  0.835807  1
  B  B17  1  0.276552  0.250360  0.834825  1
  B  B18  1  0.558273  0.584465  0.834825  1
  B  B19  1  0.059299  0.749487  0.835807  1
  Ru  Ru20  1  0.946603  0.209621  0.122527  1
  Ru  Ru21  1  0.446277  0.411282  0.123037  1
  Ru  Ru22  1  0.676758  0.711755  0.123037  1
  Ru  Ru23  1  0.175924  0.912906  0.122527  1
  Ru  Ru24  1  0.573698  0.040600  0.376130  1
  Ru  Ru25  1  0.802432  0.335531  0.376130  1
  Ru  Ru26  1  0.303290  0.540480  0.376118  1
  Ru  Ru27  1  0.072828  0.835637  0.376118  1
  Ru  Ru28  1  0.959519  0.196710  0.623882  1
  Ru  Ru29  1  0.664362  0.427172  0.623882  1
  Ru  Ru30  1  0.164470  0.697568  0.623870  1
  Ru  Ru31  1  0.459400  0.926302  0.623870  1
  Ru  Ru32  1  0.088718  0.053723  0.876963  1
  Ru  Ru33  1  0.587094  0.324076  0.877473  1
  Ru  Ru34  1  0.290379  0.553396  0.877473  1
  Ru  Ru35  1  0.788245  0.823241  0.876963  1
