# generated using pymatgen
data_Tb2Tm2LuSn4
_symmetry_space_group_name_H-M   'P 1'
_cell_length_a   7.97245000
_cell_length_b   8.11309900
_cell_length_c   15.33852700
_cell_angle_alpha   90.00000000
_cell_angle_beta   90.00000000
_cell_angle_gamma   90.00000000
_symmetry_Int_Tables_number   1
_chemical_formula_structural   Tb2Tm2LuSn4
_chemical_formula_sum   'Tb8 Tm8 Lu4 Sn16'
_cell_volume   992.11550020
_cell_formula_units_Z   4
loop_
 _symmetry_equiv_pos_site_id
 _symmetry_equiv_pos_as_xyz
  1  'x, y, z'
loop_
 _atom_site_type_symbol
 _atom_site_label
 _atom_site_symmetry_multiplicity
 _atom_site_fract_x
 _atom_site_fract_y
 _atom_site_fract_z
 _atom_site_occupancy
  Tb  Tb0  1  0.520852  0.320268  0.902854  1
  Tb  Tb1  1  0.020852  0.179732  0.597146  1
  Tb  Tb2  1  0.479148  0.679732  0.402854  1
  Tb  Tb3  1  0.979148  0.820268  0.097146  1
  Tb  Tb4  1  0.479148  0.679732  0.097146  1
  Tb  Tb5  1  0.979148  0.820268  0.402854  1
  Tb  Tb6  1  0.520852  0.320268  0.597146  1
  Tb  Tb7  1  0.020852  0.179732  0.902854  1
  Tm  Tm8  1  0.367129  0.836178  0.877517  1
  Tm  Tm9  1  0.867129  0.663822  0.622483  1
  Tm  Tm10  1  0.632871  0.163822  0.377517  1
  Tm  Tm11  1  0.132871  0.336178  0.122483  1
  Tm  Tm12  1  0.632871  0.163822  0.122483  1
  Tm  Tm13  1  0.132871  0.336178  0.377517  1
  Tm  Tm14  1  0.367129  0.836178  0.622483  1
  Tm  Tm15  1  0.867129  0.663822  0.877517  1
  Lu  Lu16  1  0.197682  0.504081  0.750000  1
  Lu  Lu17  1  0.697682  0.995919  0.750000  1
  Lu  Lu18  1  0.802318  0.495919  0.250000  1
  Lu  Lu19  1  0.302318  0.004081  0.250000  1
  Sn  Sn20  1  0.294817  0.037188  0.041927  1
  Sn  Sn21  1  0.794817  0.462812  0.458073  1
  Sn  Sn22  1  0.705183  0.962812  0.541927  1
  Sn  Sn23  1  0.205183  0.537188  0.958073  1
  Sn  Sn24  1  0.705183  0.962812  0.958073  1
  Sn  Sn25  1  0.205183  0.537188  0.541927  1
  Sn  Sn26  1  0.294817  0.037188  0.458073  1
  Sn  Sn27  1  0.794817  0.462812  0.041927  1
  Sn  Sn28  1  0.563778  0.620987  0.750000  1
  Sn  Sn29  1  0.063778  0.879013  0.750000  1
  Sn  Sn30  1  0.436222  0.379013  0.250000  1
  Sn  Sn31  1  0.936222  0.120987  0.250000  1
  Sn  Sn32  1  0.329537  0.147166  0.750000  1
  Sn  Sn33  1  0.829537  0.352834  0.750000  1
  Sn  Sn34  1  0.670463  0.852834  0.250000  1
  Sn  Sn35  1  0.170463  0.647166  0.250000  1
