# generated using pymatgen
data_TbPr4NdCoBr10
_symmetry_space_group_name_H-M   'P 1'
_cell_length_a   7.60174828
_cell_length_b   9.43253397
_cell_length_c   9.61848459
_cell_angle_alpha   108.53316380
_cell_angle_beta   96.41481762
_cell_angle_gamma   105.46407858
_symmetry_Int_Tables_number   1
_chemical_formula_structural   TbPr4NdCoBr10
_chemical_formula_sum   'Tb1 Pr4 Nd1 Co1 Br10'
_cell_volume   615.50152911
_cell_formula_units_Z   1
loop_
 _symmetry_equiv_pos_site_id
 _symmetry_equiv_pos_as_xyz
  1  'x, y, z'
loop_
 _atom_site_type_symbol
 _atom_site_label
 _atom_site_symmetry_multiplicity
 _atom_site_fract_x
 _atom_site_fract_y
 _atom_site_fract_z
 _atom_site_occupancy
  Tb  Tb0  1  0.646606  0.868824  0.325280  1
  Pr  Pr1  1  0.029727  0.711637  0.408318  1
  Pr  Pr2  1  0.966530  0.286795  0.589130  1
  Pr  Pr3  1  0.867927  0.948900  0.744940  1
  Pr  Pr4  1  0.126812  0.047618  0.253341  1
  Nd  Nd5  1  0.360750  0.136144  0.680438  1
  Co  Co6  1  0.999312  0.999427  0.500301  1
  Br  Br7  1  0.452840  0.821116  0.574805  1
  Br  Br8  1  0.549357  0.172760  0.416156  1
  Br  Br9  1  0.912675  0.628706  0.669582  1
  Br  Br10  1  0.084941  0.368772  0.327475  1
  Br  Br11  1  0.247268  0.080689  0.950376  1
  Br  Br12  1  0.743559  0.913887  0.054317  1
  Br  Br13  1  0.350831  0.454509  0.768302  1
  Br  Br14  1  0.643216  0.555342  0.228732  1
  Br  Br15  1  0.786887  0.255756  0.848606  1
  Br  Br16  1  0.230765  0.749119  0.159902  1
