# generated using pymatgen
data_MgAl3(NiPt3)3
_symmetry_space_group_name_H-M   'P 1'
_cell_length_a   3.94849500
_cell_length_b   3.94849500
_cell_length_c   14.61285800
_cell_angle_alpha   90.00000000
_cell_angle_beta   90.00000000
_cell_angle_gamma   90.00000000
_symmetry_Int_Tables_number   1
_chemical_formula_structural   MgAl3(NiPt3)3
_chemical_formula_sum   'Mg1 Al3 Ni3 Pt9'
_cell_volume   227.82341047
_cell_formula_units_Z   1
loop_
 _symmetry_equiv_pos_site_id
 _symmetry_equiv_pos_as_xyz
  1  'x, y, z'
loop_
 _atom_site_type_symbol
 _atom_site_label
 _atom_site_symmetry_multiplicity
 _atom_site_fract_x
 _atom_site_fract_y
 _atom_site_fract_z
 _atom_site_occupancy
  Mg  Mg0  1  0.000000  0.000000  0.000000  1
  Al  Al1  1  0.000000  0.000000  0.256676  1
  Al  Al2  1  0.000000  0.000000  0.500000  1
  Al  Al3  1  0.000000  0.000000  0.743324  1
  Ni  Ni4  1  0.500000  0.500000  0.257561  1
  Ni  Ni5  1  0.500000  0.500000  0.500000  1
  Ni  Ni6  1  0.500000  0.500000  0.742439  1
  Pt  Pt7  1  0.500000  0.500000  0.000000  1
  Pt  Pt8  1  0.500000  0.000000  0.138945  1
  Pt  Pt9  1  0.500000  0.000000  0.378567  1
  Pt  Pt10  1  0.500000  0.000000  0.621433  1
  Pt  Pt11  1  0.500000  0.000000  0.861055  1
  Pt  Pt12  1  0.000000  0.500000  0.138945  1
  Pt  Pt13  1  0.000000  0.500000  0.378567  1
  Pt  Pt14  1  0.000000  0.500000  0.621433  1
  Pt  Pt15  1  0.000000  0.500000  0.861055  1
