# generated using pymatgen
data_Ba2ScSnO3
_symmetry_space_group_name_H-M   'P 1'
_cell_length_a   4.19324700
_cell_length_b   4.19324700
_cell_length_c   16.44781400
_cell_angle_alpha   90.00000000
_cell_angle_beta   90.00000000
_cell_angle_gamma   90.00000000
_symmetry_Int_Tables_number   1
_chemical_formula_structural   Ba2ScSnO3
_chemical_formula_sum   'Ba4 Sc2 Sn2 O6'
_cell_volume   289.20718349
_cell_formula_units_Z   2
loop_
 _symmetry_equiv_pos_site_id
 _symmetry_equiv_pos_as_xyz
  1  'x, y, z'
loop_
 _atom_site_type_symbol
 _atom_site_label
 _atom_site_symmetry_multiplicity
 _atom_site_fract_x
 _atom_site_fract_y
 _atom_site_fract_z
 _atom_site_occupancy
  Ba  Ba0  1  0.000000  0.500000  0.680292  1
  Ba  Ba1  1  0.500000  0.000000  0.088276  1
  Ba  Ba2  1  0.500000  0.000000  0.319708  1
  Ba  Ba3  1  0.000000  0.500000  0.911724  1
  Sc  Sc4  1  0.000000  0.500000  0.194781  1
  Sc  Sc5  1  0.500000  0.000000  0.805219  1
  Sn  Sn6  1  0.000000  0.500000  0.462115  1
  Sn  Sn7  1  0.500000  0.000000  0.537885  1
  O  O8  1  0.000000  0.500000  0.074224  1
  O  O9  1  0.500000  0.500000  0.785453  1
  O  O10  1  0.000000  0.000000  0.785453  1
  O  O11  1  0.500000  0.500000  0.214547  1
  O  O12  1  0.000000  0.000000  0.214547  1
  O  O13  1  0.500000  0.000000  0.925776  1
