# generated using pymatgen
data_Ti12TlS16
_symmetry_space_group_name_H-M   'P 1'
_cell_length_a   10.14403859
_cell_length_b   10.14403948
_cell_length_c   9.55723000
_cell_angle_alpha   61.88259610
_cell_angle_beta   61.88259342
_cell_angle_gamma   39.28769650
_symmetry_Int_Tables_number   1
_chemical_formula_structural   Ti12TlS16
_chemical_formula_sum   'Ti12 Tl1 S16'
_cell_volume   539.16127953
_cell_formula_units_Z   1
loop_
 _symmetry_equiv_pos_site_id
 _symmetry_equiv_pos_as_xyz
  1  'x, y, z'
loop_
 _atom_site_type_symbol
 _atom_site_label
 _atom_site_symmetry_multiplicity
 _atom_site_fract_x
 _atom_site_fract_y
 _atom_site_fract_z
 _atom_site_occupancy
  Ti  Ti0  1  0.942024  0.942024  0.512455  1
  Ti  Ti1  1  0.442006  0.442006  0.512316  1
  Ti  Ti2  1  0.130700  0.130700  0.354951  1
  Ti  Ti3  1  0.631809  0.631809  0.352063  1
  Ti  Ti4  1  0.050936  0.050936  0.134588  1
  Ti  Ti5  1  0.552647  0.552647  0.133388  1
  Ti  Ti6  1  0.057462  0.558895  0.489899  1
  Ti  Ti7  1  0.558895  0.057462  0.489899  1
  Ti  Ti8  1  0.871939  0.367834  0.643849  1
  Ti  Ti9  1  0.367834  0.871939  0.643849  1
  Ti  Ti10  1  0.945499  0.448314  0.866415  1
  Ti  Ti11  1  0.448314  0.945499  0.866415  1
  Tl  Tl12  1  0.374832  0.374832  0.999789  1
  S  S13  1  0.530493  0.530493  0.639159  1
  S  S14  1  0.029271  0.029271  0.641492  1
  S  S15  1  0.695948  0.695948  0.049318  1
  S  S16  1  0.194284  0.194284  0.050440  1
  S  S17  1  0.400171  0.400171  0.309988  1
  S  S18  1  0.899694  0.899694  0.309727  1
  S  S19  1  0.471501  0.972047  0.356539  1
  S  S20  1  0.972047  0.471501  0.356539  1
  S  S21  1  0.303340  0.803312  0.949990  1
  S  S22  1  0.803312  0.303340  0.949990  1
  S  S23  1  0.600417  0.099593  0.693446  1
  S  S24  1  0.099593  0.600417  0.693446  1
  S  S25  1  0.708090  0.708090  0.666509  1
  S  S26  1  0.208524  0.208524  0.667201  1
  S  S27  1  0.291752  0.791664  0.333168  1
  S  S28  1  0.791664  0.291752  0.333168  1
