# generated using pymatgen
data_TbDy15Cd4Os3Rh
_symmetry_space_group_name_H-M   'P 1'
_cell_length_a   9.71931869
_cell_length_b   9.59499611
_cell_length_c   9.72331400
_cell_angle_alpha   59.55661601
_cell_angle_beta   59.98640102
_cell_angle_gamma   59.51086885
_symmetry_Int_Tables_number   1
_chemical_formula_structural   TbDy15Cd4Os3Rh
_chemical_formula_sum   'Tb1 Dy15 Cd4 Os3 Rh1'
_cell_volume   636.55932052
_cell_formula_units_Z   1
loop_
 _symmetry_equiv_pos_site_id
 _symmetry_equiv_pos_as_xyz
  1  'x, y, z'
loop_
 _atom_site_type_symbol
 _atom_site_label
 _atom_site_symmetry_multiplicity
 _atom_site_fract_x
 _atom_site_fract_y
 _atom_site_fract_z
 _atom_site_occupancy
  Tb  Tb0  1  0.559411  0.563653  0.938468  1
  Dy  Dy1  1  0.155778  0.531818  0.156202  1
  Dy  Dy2  1  0.689966  0.313906  0.306405  1
  Dy  Dy3  1  0.938564  0.563736  0.559214  1
  Dy  Dy4  1  0.938564  0.563736  0.938486  1
  Dy  Dy5  1  0.691504  0.688110  0.310193  1
  Dy  Dy6  1  0.559469  0.944885  0.936307  1
  Dy  Dy7  1  0.151521  0.152461  0.151420  1
  Dy  Dy8  1  0.310356  0.688250  0.310385  1
  Dy  Dy9  1  0.544057  0.152349  0.151797  1
  Dy  Dy10  1  0.306689  0.313957  0.689677  1
  Dy  Dy11  1  0.310356  0.688250  0.691008  1
  Dy  Dy12  1  0.151521  0.152461  0.544599  1
  Dy  Dy13  1  0.689966  0.313906  0.689723  1
  Dy  Dy14  1  0.935931  0.944867  0.559602  1
  Dy  Dy15  1  0.559469  0.944885  0.559341  1
  Cd  Cd16  1  0.920464  0.919554  0.920196  1
  Cd  Cd17  1  0.239748  0.919987  0.920133  1
  Cd  Cd18  1  0.920464  0.919554  0.239786  1
  Cd  Cd19  1  0.919376  0.243280  0.918671  1
  Os  Os20  1  0.363540  0.352281  0.919888  1
  Os  Os21  1  0.363540  0.352281  0.364290  1
  Os  Os22  1  0.920160  0.351860  0.363990  1
  Rh  Rh23  1  0.359587  0.919974  0.360220  1
