# generated using pymatgen
data_Hf18Mo8PdS
_symmetry_space_group_name_H-M   'P 1'
_cell_length_a   8.71194600
_cell_length_b   8.71194502
_cell_length_c   8.56911200
_cell_angle_alpha   90.00000000
_cell_angle_beta   90.00000000
_cell_angle_gamma   119.99999612
_symmetry_Int_Tables_number   1
_chemical_formula_structural   Hf18Mo8PdS
_chemical_formula_sum   'Hf18 Mo8 Pd1 S1'
_cell_volume   563.24425248
_cell_formula_units_Z   1
loop_
 _symmetry_equiv_pos_site_id
 _symmetry_equiv_pos_as_xyz
  1  'x, y, z'
loop_
 _atom_site_type_symbol
 _atom_site_label
 _atom_site_symmetry_multiplicity
 _atom_site_fract_x
 _atom_site_fract_y
 _atom_site_fract_z
 _atom_site_occupancy
  Hf  Hf0  1  0.196376  0.803624  0.449376  1
  Hf  Hf1  1  0.196376  0.392751  0.449376  1
  Hf  Hf2  1  0.607249  0.803624  0.449376  1
  Hf  Hf3  1  0.803068  0.196932  0.549682  1
  Hf  Hf4  1  0.803068  0.606137  0.549682  1
  Hf  Hf5  1  0.393863  0.196932  0.549682  1
  Hf  Hf6  1  0.803068  0.196932  0.950318  1
  Hf  Hf7  1  0.803068  0.606137  0.950318  1
  Hf  Hf8  1  0.393863  0.196932  0.950318  1
  Hf  Hf9  1  0.196376  0.803624  0.050624  1
  Hf  Hf10  1  0.196376  0.392751  0.050624  1
  Hf  Hf11  1  0.607249  0.803624  0.050624  1
  Hf  Hf12  1  0.543368  0.456632  0.250000  1
  Hf  Hf13  1  0.543368  0.086736  0.250000  1
  Hf  Hf14  1  0.913264  0.456632  0.250000  1
  Hf  Hf15  1  0.455955  0.544045  0.750000  1
  Hf  Hf16  1  0.455955  0.911910  0.750000  1
  Hf  Hf17  1  0.088090  0.544045  0.750000  1
  Mo  Mo18  1  0.887874  0.112126  0.250000  1
  Mo  Mo19  1  0.887874  0.775747  0.250000  1
  Mo  Mo20  1  0.224253  0.112126  0.250000  1
  Mo  Mo21  1  0.110703  0.889297  0.750000  1
  Mo  Mo22  1  0.110703  0.221407  0.750000  1
  Mo  Mo23  1  0.778593  0.889297  0.750000  1
  Mo  Mo24  1  0.000000  0.000000  0.498281  1
  Mo  Mo25  1  0.000000  0.000000  0.001719  1
  Pd  Pd26  1  0.333333  0.666667  0.250000  1
  S  S27  1  0.666667  0.333333  0.750000  1
