# generated using pymatgen
data_Tm5Lu3Hg4
_symmetry_space_group_name_H-M   'P 1'
_cell_length_a   5.03687800
_cell_length_b   6.98848825
_cell_length_c   9.04730883
_cell_angle_alpha   90.04610465
_cell_angle_beta   90.00000000
_cell_angle_gamma   90.00000000
_symmetry_Int_Tables_number   1
_chemical_formula_structural   Tm5Lu3Hg4
_chemical_formula_sum   'Tm5 Lu3 Hg4'
_cell_volume   318.46663969
_cell_formula_units_Z   1
loop_
 _symmetry_equiv_pos_site_id
 _symmetry_equiv_pos_as_xyz
  1  'x, y, z'
loop_
 _atom_site_type_symbol
 _atom_site_label
 _atom_site_symmetry_multiplicity
 _atom_site_fract_x
 _atom_site_fract_y
 _atom_site_fract_z
 _atom_site_occupancy
  Tm  Tm0  1  0.750000  0.666949  0.425334  1
  Tm  Tm1  1  0.250000  0.483863  0.191330  1
  Tm  Tm2  1  0.250000  0.985312  0.307882  1
  Tm  Tm3  1  0.750000  0.515698  0.808236  1
  Tm  Tm4  1  0.750000  0.015839  0.692262  1
  Lu  Lu5  1  0.250000  0.834550  0.926053  1
  Lu  Lu6  1  0.250000  0.332901  0.574836  1
  Lu  Lu7  1  0.750000  0.165705  0.074198  1
  Hg  Hg8  1  0.250000  0.258052  0.898746  1
  Hg  Hg9  1  0.250000  0.758090  0.602394  1
  Hg  Hg10  1  0.750000  0.742239  0.100197  1
  Hg  Hg11  1  0.750000  0.240802  0.398532  1
