# generated using pymatgen
data_CeEr2(CoSn)3
_symmetry_space_group_name_H-M   'P 1'
_cell_length_a   7.27323702
_cell_length_b   7.42394892
_cell_length_c   3.82899500
_cell_angle_alpha   90.00000000
_cell_angle_beta   90.00000000
_cell_angle_gamma   120.68785739
_symmetry_Int_Tables_number   1
_chemical_formula_structural   CeEr2(CoSn)3
_chemical_formula_sum   'Ce1 Er2 Co3 Sn3'
_cell_volume   177.79764066
_cell_formula_units_Z   1
loop_
 _symmetry_equiv_pos_site_id
 _symmetry_equiv_pos_as_xyz
  1  'x, y, z'
loop_
 _atom_site_type_symbol
 _atom_site_label
 _atom_site_symmetry_multiplicity
 _atom_site_fract_x
 _atom_site_fract_y
 _atom_site_fract_z
 _atom_site_occupancy
  Ce  Ce0  1  0.000000  0.583567  0.500000  1
  Er  Er1  1  0.407407  0.405695  0.500000  1
  Er  Er2  1  0.592593  0.998288  0.500000  1
  Co  Co3  1  0.310941  0.664422  0.000000  1
  Co  Co4  1  0.000000  0.996103  0.500000  1
  Co  Co5  1  0.689059  0.353479  0.000000  1
  Sn  Sn6  1  0.735660  0.743625  0.000000  1
  Sn  Sn7  1  0.000000  0.246856  0.000000  1
  Sn  Sn8  1  0.264340  0.007964  0.000000  1
