# generated using pymatgen
data_Y3Er5Re2(B12Rh)2
_symmetry_space_group_name_H-M   'P 1'
_cell_length_a   3.66671100
_cell_length_b   9.12633807
_cell_length_c   11.52392212
_cell_angle_alpha   90.41330812
_cell_angle_beta   90.00000000
_cell_angle_gamma   90.00000000
_symmetry_Int_Tables_number   1
_chemical_formula_structural   Y3Er5Re2(B12Rh)2
_chemical_formula_sum   'Y3 Er5 Re2 B24 Rh2'
_cell_volume   385.62239630
_cell_formula_units_Z   1
loop_
 _symmetry_equiv_pos_site_id
 _symmetry_equiv_pos_as_xyz
  1  'x, y, z'
loop_
 _atom_site_type_symbol
 _atom_site_label
 _atom_site_symmetry_multiplicity
 _atom_site_fract_x
 _atom_site_fract_y
 _atom_site_fract_z
 _atom_site_occupancy
  Y  Y0  1  0.000000  0.318226  0.410997  1
  Y  Y1  1  0.000000  0.681791  0.589043  1
  Y  Y2  1  0.000000  0.825793  0.082848  1
  Er  Er3  1  0.000000  0.173927  0.917441  1
  Er  Er4  1  0.000000  0.945355  0.371711  1
  Er  Er5  1  0.000000  0.054811  0.628327  1
  Er  Er6  1  0.000000  0.442239  0.126527  1
  Er  Er7  1  0.000000  0.557491  0.873269  1
  Re  Re8  1  0.000000  0.139038  0.179664  1
  Re  Re9  1  0.000000  0.861496  0.820109  1
  B  B10  1  0.500000  0.554565  0.433950  1
  B  B11  1  0.500000  0.445341  0.566151  1
  B  B12  1  0.500000  0.053472  0.067211  1
  B  B13  1  0.500000  0.947419  0.932322  1
  B  B14  1  0.500000  0.749464  0.420998  1
  B  B15  1  0.500000  0.250584  0.579137  1
  B  B16  1  0.500000  0.248785  0.080999  1
  B  B17  1  0.500000  0.751266  0.918334  1
  B  B18  1  0.500000  0.791284  0.265371  1
  B  B19  1  0.500000  0.208497  0.735139  1
  B  B20  1  0.500000  0.292823  0.234414  1
  B  B21  1  0.500000  0.707216  0.765446  1
  B  B22  1  0.500000  0.631923  0.183482  1
  B  B23  1  0.500000  0.367451  0.816847  1
  B  B24  1  0.500000  0.131498  0.314778  1
  B  B25  1  0.500000  0.868709  0.685255  1
  B  B26  1  0.500000  0.983085  0.213213  1
  B  B27  1  0.500000  0.017663  0.786943  1
  B  B28  1  0.500000  0.483495  0.287388  1
  B  B29  1  0.500000  0.516296  0.712633  1
  B  B30  1  0.500000  0.605080  0.029152  1
  B  B31  1  0.500000  0.394131  0.970620  1
  B  B32  1  0.500000  0.106298  0.471365  1
  B  B33  1  0.500000  0.893755  0.528671  1
  Rh  Rh34  1  0.000000  0.638147  0.320986  1
  Rh  Rh35  1  0.000000  0.361585  0.679260  1
