# generated using pymatgen
data_Er5LuSi10
_symmetry_space_group_name_H-M   'P 1'
_cell_length_a   6.56959724
_cell_length_b   6.56959717
_cell_length_c   8.24414372
_cell_angle_alpha   90.06464144
_cell_angle_beta   89.93535827
_cell_angle_gamma   120.02655792
_symmetry_Int_Tables_number   1
_chemical_formula_structural   Er5LuSi10
_chemical_formula_sum   'Er5 Lu1 Si10'
_cell_volume   308.06121010
_cell_formula_units_Z   1
loop_
 _symmetry_equiv_pos_site_id
 _symmetry_equiv_pos_as_xyz
  1  'x, y, z'
loop_
 _atom_site_type_symbol
 _atom_site_label
 _atom_site_symmetry_multiplicity
 _atom_site_fract_x
 _atom_site_fract_y
 _atom_site_fract_z
 _atom_site_occupancy
  Er  Er0  1  0.330427  0.000054  0.999987  1
  Er  Er1  1  0.330452  0.999930  0.499993  1
  Er  Er2  1  0.999930  0.330452  0.500007  1
  Er  Er3  1  0.000054  0.330427  0.000013  1
  Er  Er4  1  0.669610  0.669610  0.000000  1
  Lu  Lu5  1  0.669326  0.669326  0.500000  1
  Si  Si6  1  0.394586  0.331997  0.250605  1
  Si  Si7  1  0.668728  0.062556  0.250144  1
  Si  Si8  1  0.936589  0.606084  0.250731  1
  Si  Si9  1  0.606084  0.936589  0.749269  1
  Si  Si10  1  0.999582  0.999675  0.250449  1
  Si  Si11  1  0.666712  0.333694  0.749547  1
  Si  Si12  1  0.062556  0.668728  0.749856  1
  Si  Si13  1  0.331997  0.394586  0.749395  1
  Si  Si14  1  0.333694  0.666712  0.250453  1
  Si  Si15  1  0.999675  0.999582  0.749551  1
