# generated using pymatgen
data_AcPr3(MoN3)4
_symmetry_space_group_name_H-M   'P 1'
_cell_length_a   7.44841841
_cell_length_b   7.44841697
_cell_length_c   6.32242156
_cell_angle_alpha   76.98757876
_cell_angle_beta   76.98758042
_cell_angle_gamma   85.55444574
_symmetry_Int_Tables_number   1
_chemical_formula_structural   AcPr3(MoN3)4
_chemical_formula_sum   'Ac1 Pr3 Mo4 N12'
_cell_volume   332.84539757
_cell_formula_units_Z   1
loop_
 _symmetry_equiv_pos_site_id
 _symmetry_equiv_pos_as_xyz
  1  'x, y, z'
loop_
 _atom_site_type_symbol
 _atom_site_label
 _atom_site_symmetry_multiplicity
 _atom_site_fract_x
 _atom_site_fract_y
 _atom_site_fract_z
 _atom_site_occupancy
  Ac  Ac0  1  0.682868  0.317132  0.750000  1
  Pr  Pr1  1  0.314789  0.685211  0.250000  1
  Pr  Pr2  1  0.912765  0.087235  0.250000  1
  Pr  Pr3  1  0.093919  0.906081  0.750000  1
  Mo  Mo4  1  0.619628  0.801300  0.743830  1
  Mo  Mo5  1  0.377143  0.199907  0.259808  1
  Mo  Mo6  1  0.800093  0.622857  0.240192  1
  Mo  Mo7  1  0.198700  0.380372  0.756170  1
  N  N8  1  0.391189  0.880014  0.851352  1
  N  N9  1  0.005519  0.220191  0.849284  1
  N  N10  1  0.667658  0.628956  0.002015  1
  N  N11  1  0.119986  0.608811  0.648648  1
  N  N12  1  0.876285  0.393277  0.339699  1
  N  N13  1  0.225170  0.998825  0.349018  1
  N  N14  1  0.326325  0.370787  0.999999  1
  N  N15  1  0.779809  0.994481  0.650716  1
  N  N16  1  0.606723  0.123715  0.160301  1
  N  N17  1  0.371044  0.332342  0.497985  1
  N  N18  1  0.001175  0.774830  0.150982  1
  N  N19  1  0.629213  0.673675  0.500001  1
