# generated using pymatgen
data_CaY3(Pt2O7)2
_symmetry_space_group_name_H-M   'P 1'
_cell_length_a   7.28525757
_cell_length_b   7.30805749
_cell_length_c   7.28525700
_cell_angle_alpha   60.10314774
_cell_angle_beta   59.99999803
_cell_angle_gamma   60.10314579
_symmetry_Int_Tables_number   1
_chemical_formula_structural   CaY3(Pt2O7)2
_chemical_formula_sum   'Ca1 Y3 Pt4 O14'
_cell_volume   274.69583464
_cell_formula_units_Z   1
loop_
 _symmetry_equiv_pos_site_id
 _symmetry_equiv_pos_as_xyz
  1  'x, y, z'
loop_
 _atom_site_type_symbol
 _atom_site_label
 _atom_site_symmetry_multiplicity
 _atom_site_fract_x
 _atom_site_fract_y
 _atom_site_fract_z
 _atom_site_occupancy
  Ca  Ca0  1  0.625000  0.125000  0.625000  1
  Y  Y1  1  0.625000  0.625000  0.125000  1
  Y  Y2  1  0.625000  0.625000  0.625000  1
  Y  Y3  1  0.125000  0.625000  0.625000  1
  Pt  Pt4  1  0.625000  0.125000  0.125000  1
  Pt  Pt5  1  0.125000  0.125000  0.125000  1
  Pt  Pt6  1  0.125000  0.625000  0.125000  1
  Pt  Pt7  1  0.125000  0.125000  0.625000  1
  O  O8  1  0.036469  0.463708  0.463354  1
  O  O9  1  0.786646  0.786292  0.213531  1
  O  O10  1  0.789607  0.218997  0.201790  1
  O  O11  1  0.752049  0.743854  0.752049  1
  O  O12  1  0.036469  0.463708  0.036469  1
  O  O13  1  0.460393  0.031003  0.460393  1
  O  O14  1  0.048210  0.031003  0.460393  1
  O  O15  1  0.497951  0.506146  0.497951  1
  O  O16  1  0.201790  0.218997  0.789607  1
  O  O17  1  0.213531  0.786292  0.213531  1
  O  O18  1  0.789607  0.218997  0.789607  1
  O  O19  1  0.460393  0.031003  0.048210  1
  O  O20  1  0.463354  0.463708  0.036469  1
  O  O21  1  0.213531  0.786292  0.786646  1
