# generated using pymatgen
data_NaNd2(PRu)6
_symmetry_space_group_name_H-M   'P 1'
_cell_length_a   8.15426856
_cell_length_b   8.15426892
_cell_length_c   5.72769881
_cell_angle_alpha   80.06338100
_cell_angle_beta   80.06338465
_cell_angle_gamma   41.38141277
_symmetry_Int_Tables_number   1
_chemical_formula_structural   NaNd2(PRu)6
_chemical_formula_sum   'Na1 Nd2 P6 Ru6'
_cell_volume   247.44566610
_cell_formula_units_Z   1
loop_
 _symmetry_equiv_pos_site_id
 _symmetry_equiv_pos_as_xyz
  1  'x, y, z'
loop_
 _atom_site_type_symbol
 _atom_site_label
 _atom_site_symmetry_multiplicity
 _atom_site_fract_x
 _atom_site_fract_y
 _atom_site_fract_z
 _atom_site_occupancy
  Na  Na0  1  0.000000  0.000000  0.000000  1
  Nd  Nd1  1  0.665364  0.665364  0.668358  1
  Nd  Nd2  1  0.334636  0.334636  0.331642  1
  P  P3  1  0.877028  0.877028  0.507577  1
  P  P4  1  0.210841  0.210841  0.841225  1
  P  P5  1  0.544937  0.544937  0.179916  1
  P  P6  1  0.455063  0.455063  0.820084  1
  P  P7  1  0.789159  0.789159  0.158775  1
  P  P8  1  0.122972  0.122972  0.492423  1
  Ru  Ru9  1  0.082159  0.583346  0.832872  1
  Ru  Ru10  1  0.416654  0.917841  0.167128  1
  Ru  Ru11  1  0.752533  0.247467  0.500000  1
  Ru  Ru12  1  0.247467  0.752533  0.500000  1
  Ru  Ru13  1  0.583346  0.082159  0.832872  1
  Ru  Ru14  1  0.917841  0.416654  0.167128  1
