# generated using pymatgen
data_Y2HoEr(ReC2)2
_symmetry_space_group_name_H-M   'P 1'
_cell_length_a   5.10462200
_cell_length_b   6.58783400
_cell_length_c   9.85057400
_cell_angle_alpha   90.00000000
_cell_angle_beta   90.00000000
_cell_angle_gamma   90.00000000
_symmetry_Int_Tables_number   1
_chemical_formula_structural   Y2HoEr(ReC2)2
_chemical_formula_sum   'Y4 Ho2 Er2 Re4 C8'
_cell_volume   331.25906604
_cell_formula_units_Z   2
loop_
 _symmetry_equiv_pos_site_id
 _symmetry_equiv_pos_as_xyz
  1  'x, y, z'
loop_
 _atom_site_type_symbol
 _atom_site_label
 _atom_site_symmetry_multiplicity
 _atom_site_fract_x
 _atom_site_fract_y
 _atom_site_fract_z
 _atom_site_occupancy
  Y  Y0  1  0.250000  0.466254  0.784489  1
  Y  Y1  1  0.750000  0.033746  0.284489  1
  Y  Y2  1  0.250000  0.965882  0.715851  1
  Y  Y3  1  0.750000  0.534118  0.215851  1
  Ho  Ho4  1  0.250000  0.322363  0.442993  1
  Ho  Ho5  1  0.750000  0.177637  0.942993  1
  Er  Er6  1  0.250000  0.822708  0.057336  1
  Er  Er7  1  0.750000  0.677292  0.557336  1
  Re  Re8  1  0.250000  0.279524  0.133611  1
  Re  Re9  1  0.750000  0.220476  0.633611  1
  Re  Re10  1  0.250000  0.779533  0.366261  1
  Re  Re11  1  0.750000  0.720467  0.866261  1
  C  C12  1  0.250000  0.174478  0.950989  1
  C  C13  1  0.750000  0.824837  0.049115  1
  C  C14  1  0.250000  0.675163  0.549115  1
  C  C15  1  0.750000  0.325522  0.450989  1
  C  C16  1  0.250000  0.046941  0.258960  1
  C  C17  1  0.750000  0.453059  0.758960  1
  C  C18  1  0.250000  0.547526  0.240395  1
  C  C19  1  0.750000  0.952474  0.740395  1
