# generated using pymatgen
data_KInSn3O8
_symmetry_space_group_name_H-M   'P 1'
_cell_length_a   7.67352161
_cell_length_b   7.67352192
_cell_length_c   10.73121533
_cell_angle_alpha   47.32877437
_cell_angle_beta   47.32877077
_cell_angle_gamma   24.57854560
_symmetry_Int_Tables_number   1
_chemical_formula_structural   KInSn3O8
_chemical_formula_sum   'K1 In1 Sn3 O8'
_cell_volume   189.30810975
_cell_formula_units_Z   1
loop_
 _symmetry_equiv_pos_site_id
 _symmetry_equiv_pos_as_xyz
  1  'x, y, z'
loop_
 _atom_site_type_symbol
 _atom_site_label
 _atom_site_symmetry_multiplicity
 _atom_site_fract_x
 _atom_site_fract_y
 _atom_site_fract_z
 _atom_site_occupancy
  K  K0  1  0.497897  0.497897  0.997828  1
  In  In1  1  0.349013  0.349013  0.816847  1
  Sn  Sn2  1  0.652530  0.652530  0.178327  1
  Sn  Sn3  1  0.165196  0.165196  0.484242  1
  Sn  Sn4  1  0.838327  0.838327  0.513528  1
  O  O5  1  0.142508  0.142508  0.061894  1
  O  O6  1  0.842914  0.842914  0.963485  1
  O  O7  1  0.207425  0.207425  0.635910  1
  O  O8  1  0.798985  0.798985  0.356049  1
  O  O9  1  0.548924  0.548924  0.616681  1
  O  O10  1  0.459448  0.459448  0.376118  1
  O  O11  1  0.163418  0.163418  0.294447  1
  O  O12  1  0.833415  0.833415  0.704645  1
