# generated using pymatgen
data_Tm3Th(Ga8Pt3)3
_symmetry_space_group_name_H-M   'P 1'
_cell_length_a   7.55457376
_cell_length_b   7.60077324
_cell_length_c   13.32347456
_cell_angle_alpha   84.68977753
_cell_angle_beta   79.28124453
_cell_angle_gamma   60.27204463
_symmetry_Int_Tables_number   1
_chemical_formula_structural   Tm3Th(Ga8Pt3)3
_chemical_formula_sum   'Tm3 Th1 Ga24 Pt9'
_cell_volume   652.76278484
_cell_formula_units_Z   1
loop_
 _symmetry_equiv_pos_site_id
 _symmetry_equiv_pos_as_xyz
  1  'x, y, z'
loop_
 _atom_site_type_symbol
 _atom_site_label
 _atom_site_symmetry_multiplicity
 _atom_site_fract_x
 _atom_site_fract_y
 _atom_site_fract_z
 _atom_site_occupancy
  Tm  Tm0  1  0.605432  0.831172  0.191250  1
  Tm  Tm1  1  0.732785  0.497384  0.809759  1
  Tm  Tm2  1  0.266889  0.502325  0.191052  1
  Th  Th3  1  0.393626  0.168734  0.810111  1
  Ga  Ga4  1  0.688252  0.828683  0.941381  1
  Ga  Ga5  1  0.315459  0.166443  0.065353  1
  Ga  Ga6  1  0.145051  0.833495  0.558554  1
  Ga  Ga7  1  0.855151  0.166882  0.439494  1
  Ga  Ga8  1  0.479489  0.167283  0.554399  1
  Ga  Ga9  1  0.521389  0.832200  0.443186  1
  Ga  Ga10  1  0.221816  0.166014  0.322453  1
  Ga  Ga11  1  0.784117  0.829580  0.673712  1
  Ga  Ga12  1  0.439584  0.507503  0.673041  1
  Ga  Ga13  1  0.561872  0.497201  0.322492  1
  Ga  Ga14  1  0.103368  0.163820  0.671458  1
  Ga  Ga15  1  0.893798  0.835653  0.323591  1
  Ga  Ga16  1  0.357285  0.501864  0.941732  1
  Ga  Ga17  1  0.640482  0.504182  0.062551  1
  Ga  Ga18  1  0.013430  0.170200  0.946479  1
  Ga  Ga19  1  0.980013  0.828734  0.059284  1
  Ga  Ga20  1  0.186471  0.500098  0.442158  1
  Ga  Ga21  1  0.813483  0.500275  0.556627  1
  Ga  Ga22  1  0.733227  0.164320  0.181777  1
  Ga  Ga23  1  0.266858  0.830024  0.818445  1
  Ga  Ga24  1  0.055895  0.635154  0.817284  1
  Ga  Ga25  1  0.937523  0.370586  0.183101  1
  Ga  Ga26  1  0.861280  0.041303  0.817255  1
  Ga  Ga27  1  0.143713  0.959188  0.183253  1
  Pt  Pt28  1  0.120625  0.493648  0.639110  1
  Pt  Pt29  1  0.881574  0.505087  0.360219  1
  Pt  Pt30  1  0.658852  0.168942  0.999778  1
  Pt  Pt31  1  0.339466  0.832880  0.001103  1
  Pt  Pt32  1  0.541399  0.165665  0.359104  1
  Pt  Pt33  1  0.458667  0.835484  0.639808  1
  Pt  Pt34  1  0.778788  0.171548  0.637478  1
  Pt  Pt35  1  0.220369  0.828170  0.361739  1
  Pt  Pt36  1  0.002521  0.498278  0.000427  1
