# generated using pymatgen
data_Sr(TcO4)2
_symmetry_space_group_name_H-M   'P 1'
_cell_length_a   6.54093600
_cell_length_b   6.54093655
_cell_length_c   6.50045600
_cell_angle_alpha   90.00000000
_cell_angle_beta   90.00000000
_cell_angle_gamma   120.00000387
_symmetry_Int_Tables_number   1
_chemical_formula_structural   Sr(TcO4)2
_chemical_formula_sum   'Sr1 Tc2 O8'
_cell_volume   240.85422787
_cell_formula_units_Z   1
loop_
 _symmetry_equiv_pos_site_id
 _symmetry_equiv_pos_as_xyz
  1  'x, y, z'
loop_
 _atom_site_type_symbol
 _atom_site_label
 _atom_site_symmetry_multiplicity
 _atom_site_fract_x
 _atom_site_fract_y
 _atom_site_fract_z
 _atom_site_occupancy
  Sr  Sr0  1  0.000000  0.000000  0.500000  1
  Tc  Tc1  1  0.333333  0.666667  0.790216  1
  Tc  Tc2  1  0.666667  0.333333  0.209784  1
  O  O3  1  0.194361  0.818423  0.701511  1
  O  O4  1  0.181577  0.375938  0.701511  1
  O  O5  1  0.333333  0.666667  0.054498  1
  O  O6  1  0.375938  0.194361  0.298489  1
  O  O7  1  0.624062  0.805639  0.701511  1
  O  O8  1  0.666667  0.333333  0.945502  1
  O  O9  1  0.818423  0.624062  0.298489  1
  O  O10  1  0.805639  0.181577  0.298489  1
