# generated using pymatgen
data_Dy3ThAgIr
_symmetry_space_group_name_H-M   'P 1'
_cell_length_a   9.62663125
_cell_length_b   9.62663182
_cell_length_c   9.62663100
_cell_angle_alpha   59.99999939
_cell_angle_beta   59.99999743
_cell_angle_gamma   60.00000025
_symmetry_Int_Tables_number   1
_chemical_formula_structural   Dy3ThAgIr
_chemical_formula_sum   'Dy12 Th4 Ag4 Ir4'
_cell_volume   630.82372184
_cell_formula_units_Z   4
loop_
 _symmetry_equiv_pos_site_id
 _symmetry_equiv_pos_as_xyz
  1  'x, y, z'
loop_
 _atom_site_type_symbol
 _atom_site_label
 _atom_site_symmetry_multiplicity
 _atom_site_fract_x
 _atom_site_fract_y
 _atom_site_fract_z
 _atom_site_occupancy
  Dy  Dy0  1  0.061958  0.438042  0.438042  1
  Dy  Dy1  1  0.438042  0.061958  0.061958  1
  Dy  Dy2  1  0.438042  0.061958  0.438042  1
  Dy  Dy3  1  0.061958  0.438042  0.061958  1
  Dy  Dy4  1  0.438042  0.438042  0.061958  1
  Dy  Dy5  1  0.061958  0.061958  0.438042  1
  Dy  Dy6  1  0.184083  0.815917  0.815917  1
  Dy  Dy7  1  0.815917  0.184083  0.184083  1
  Dy  Dy8  1  0.815917  0.184083  0.815917  1
  Dy  Dy9  1  0.184083  0.815917  0.184083  1
  Dy  Dy10  1  0.815917  0.815917  0.184083  1
  Dy  Dy11  1  0.184083  0.184083  0.815917  1
  Th  Th12  1  0.602001  0.602001  0.602001  1
  Th  Th13  1  0.602001  0.602001  0.193998  1
  Th  Th14  1  0.602001  0.193998  0.602001  1
  Th  Th15  1  0.193998  0.602001  0.602001  1
  Ag  Ag16  1  0.833717  0.833717  0.833717  1
  Ag  Ag17  1  0.833717  0.833717  0.498849  1
  Ag  Ag18  1  0.833717  0.498849  0.833717  1
  Ag  Ag19  1  0.498849  0.833717  0.833717  1
  Ir  Ir20  1  0.393327  0.393327  0.393327  1
  Ir  Ir21  1  0.393327  0.393327  0.820020  1
  Ir  Ir22  1  0.393327  0.820020  0.393327  1
  Ir  Ir23  1  0.820020  0.393327  0.393327  1
