# generated using pymatgen
data_Y(Nb3N4)3
_symmetry_space_group_name_H-M   'P 1'
_cell_length_a   5.31375700
_cell_length_b   5.31375677
_cell_length_c   10.56511500
_cell_angle_alpha   90.00000000
_cell_angle_beta   90.00000000
_cell_angle_gamma   120.00000764
_symmetry_Int_Tables_number   1
_chemical_formula_structural   Y(Nb3N4)3
_chemical_formula_sum   'Y1 Nb9 N12'
_cell_volume   258.34983498
_cell_formula_units_Z   1
loop_
 _symmetry_equiv_pos_site_id
 _symmetry_equiv_pos_as_xyz
  1  'x, y, z'
loop_
 _atom_site_type_symbol
 _atom_site_label
 _atom_site_symmetry_multiplicity
 _atom_site_fract_x
 _atom_site_fract_y
 _atom_site_fract_z
 _atom_site_occupancy
  Y  Y0  1  0.333333  0.666667  0.500000  1
  Nb  Nb1  1  0.666667  0.333333  0.000000  1
  Nb  Nb2  1  0.666667  0.333333  0.500000  1
  Nb  Nb3  1  0.333333  0.666667  0.000000  1
  Nb  Nb4  1  0.674911  0.998807  0.754941  1
  Nb  Nb5  1  0.674911  0.676104  0.245059  1
  Nb  Nb6  1  0.001193  0.325089  0.245059  1
  Nb  Nb7  1  0.001193  0.676104  0.754941  1
  Nb  Nb8  1  0.323896  0.325089  0.754941  1
  Nb  Nb9  1  0.323896  0.998807  0.245059  1
  N  N10  1  0.350341  0.333057  0.369076  1
  N  N11  1  0.666943  0.017283  0.369076  1
  N  N12  1  0.982717  0.649659  0.369076  1
  N  N13  1  0.000064  0.340264  0.880880  1
  N  N14  1  0.659736  0.999936  0.119120  1
  N  N15  1  0.659736  0.659801  0.880880  1
  N  N16  1  0.340199  0.999936  0.880880  1
  N  N17  1  0.666943  0.649659  0.630924  1
  N  N18  1  0.982717  0.333057  0.630924  1
  N  N19  1  0.000064  0.659801  0.119120  1
  N  N20  1  0.350341  0.017283  0.630924  1
  N  N21  1  0.340199  0.340264  0.119120  1
