# generated using pymatgen
data_Tm2Be3Fe14C3
_symmetry_space_group_name_H-M   'P 1'
_cell_length_a   6.32004140
_cell_length_b   6.32004111
_cell_length_c   6.32004136
_cell_angle_alpha   83.33648890
_cell_angle_beta   83.33649459
_cell_angle_gamma   83.33648727
_symmetry_Int_Tables_number   1
_chemical_formula_structural   Tm2Be3Fe14C3
_chemical_formula_sum   'Tm2 Be3 Fe14 C3'
_cell_volume   247.69204878
_cell_formula_units_Z   1
loop_
 _symmetry_equiv_pos_site_id
 _symmetry_equiv_pos_as_xyz
  1  'x, y, z'
loop_
 _atom_site_type_symbol
 _atom_site_label
 _atom_site_symmetry_multiplicity
 _atom_site_fract_x
 _atom_site_fract_y
 _atom_site_fract_z
 _atom_site_occupancy
  Tm  Tm0  1  0.654991  0.654991  0.654991  1
  Tm  Tm1  1  0.345009  0.345009  0.345009  1
  Be  Be2  1  0.000000  0.000000  0.500000  1
  Be  Be3  1  0.500000  0.000000  0.000000  1
  Be  Be4  1  0.000000  0.500000  0.000000  1
  Fe  Fe5  1  0.719944  0.280056  0.000000  1
  Fe  Fe6  1  0.000000  0.719944  0.280056  1
  Fe  Fe7  1  0.280056  0.000000  0.719944  1
  Fe  Fe8  1  0.000000  0.280056  0.719944  1
  Fe  Fe9  1  0.719944  0.000000  0.280056  1
  Fe  Fe10  1  0.280056  0.719944  0.000000  1
  Fe  Fe11  1  0.338635  0.338635  0.860864  1
  Fe  Fe12  1  0.860864  0.338635  0.338635  1
  Fe  Fe13  1  0.338635  0.860864  0.338635  1
  Fe  Fe14  1  0.661365  0.661365  0.139136  1
  Fe  Fe15  1  0.139136  0.661365  0.661365  1
  Fe  Fe16  1  0.661365  0.139136  0.661365  1
  Fe  Fe17  1  0.901180  0.901180  0.901180  1
  Fe  Fe18  1  0.098820  0.098820  0.098820  1
  C  C19  1  0.500000  0.500000  0.000000  1
  C  C20  1  0.000000  0.500000  0.500000  1
  C  C21  1  0.500000  0.000000  0.500000  1
