# generated using pymatgen
data_DyGaCoO5
_symmetry_space_group_name_H-M   'P 1'
_cell_length_a   5.73462500
_cell_length_b   7.31119200
_cell_length_c   8.44251800
_cell_angle_alpha   90.00000000
_cell_angle_beta   90.00000000
_cell_angle_gamma   90.00000000
_symmetry_Int_Tables_number   1
_chemical_formula_structural   DyGaCoO5
_chemical_formula_sum   'Dy4 Ga4 Co4 O20'
_cell_volume   353.96898298
_cell_formula_units_Z   4
loop_
 _symmetry_equiv_pos_site_id
 _symmetry_equiv_pos_as_xyz
  1  'x, y, z'
loop_
 _atom_site_type_symbol
 _atom_site_label
 _atom_site_symmetry_multiplicity
 _atom_site_fract_x
 _atom_site_fract_y
 _atom_site_fract_z
 _atom_site_occupancy
  Dy  Dy0  1  0.500000  0.364206  0.330674  1
  Dy  Dy1  1  0.500000  0.635794  0.669326  1
  Dy  Dy2  1  0.500000  0.135794  0.830674  1
  Dy  Dy3  1  0.500000  0.864206  0.169326  1
  Ga  Ga4  1  0.000000  0.110559  0.147184  1
  Ga  Ga5  1  0.000000  0.889441  0.852816  1
  Ga  Ga6  1  0.000000  0.389441  0.647184  1
  Ga  Ga7  1  0.000000  0.610559  0.352816  1
  Co  Co8  1  0.248657  0.000000  0.500000  1
  Co  Co9  1  0.751343  0.000000  0.500000  1
  Co  Co10  1  0.751343  0.500000  0.000000  1
  Co  Co11  1  0.248657  0.500000  0.000000  1
  O  O12  1  0.500000  0.342201  0.056074  1
  O  O13  1  0.500000  0.657799  0.943926  1
  O  O14  1  0.500000  0.157799  0.556074  1
  O  O15  1  0.500000  0.842201  0.443926  1
  O  O16  1  0.229649  0.000000  0.000000  1
  O  O17  1  0.770351  0.000000  0.000000  1
  O  O18  1  0.770351  0.500000  0.500000  1
  O  O19  1  0.229649  0.500000  0.500000  1
  O  O20  1  0.258822  0.104937  0.295859  1
  O  O21  1  0.741178  0.895063  0.704141  1
  O  O22  1  0.258822  0.895063  0.704141  1
  O  O23  1  0.741178  0.395063  0.795859  1
  O  O24  1  0.741178  0.104937  0.295859  1
  O  O25  1  0.258822  0.604937  0.204141  1
  O  O26  1  0.741178  0.604937  0.204141  1
  O  O27  1  0.258822  0.395063  0.795859  1
  O  O28  1  0.000000  0.353682  0.069787  1
  O  O29  1  0.000000  0.646318  0.930213  1
  O  O30  1  0.000000  0.146318  0.569787  1
  O  O31  1  0.000000  0.853682  0.430213  1
