# generated using pymatgen
data_Fe6Re5W2
_symmetry_space_group_name_H-M   'P 1'
_cell_length_a   4.74454976
_cell_length_b   4.74454867
_cell_length_c   9.11638797
_cell_angle_alpha   74.91682976
_cell_angle_beta   74.91683647
_cell_angle_gamma   59.99999016
_symmetry_Int_Tables_number   1
_chemical_formula_structural   Fe6Re5W2
_chemical_formula_sum   'Fe6 Re5 W2'
_cell_volume   169.51011454
_cell_formula_units_Z   1
loop_
 _symmetry_equiv_pos_site_id
 _symmetry_equiv_pos_as_xyz
  1  'x, y, z'
loop_
 _atom_site_type_symbol
 _atom_site_label
 _atom_site_symmetry_multiplicity
 _atom_site_fract_x
 _atom_site_fract_y
 _atom_site_fract_z
 _atom_site_occupancy
  Fe  Fe0  1  0.906604  0.906604  0.765820  1
  Fe  Fe1  1  0.420969  0.906604  0.765820  1
  Fe  Fe2  1  0.906604  0.420969  0.765820  1
  Fe  Fe3  1  0.093396  0.093396  0.234180  1
  Fe  Fe4  1  0.579031  0.093396  0.234180  1
  Fe  Fe5  1  0.093396  0.579031  0.234180  1
  Re  Re6  1  0.000000  0.000000  0.000000  1
  Re  Re7  1  0.650315  0.650315  0.049056  1
  Re  Re8  1  0.349685  0.349685  0.950944  1
  Re  Re9  1  0.548241  0.548241  0.355277  1
  Re  Re10  1  0.451759  0.451759  0.644723  1
  W  W11  1  0.836266  0.836266  0.491202  1
  W  W12  1  0.163734  0.163734  0.508798  1
