# generated using pymatgen
data_Hf7Cr(Co4As3)4
_symmetry_space_group_name_H-M   'P 1'
_cell_length_a   12.46188776
_cell_length_b   12.46188816
_cell_length_c   3.74013800
_cell_angle_alpha   90.00000000
_cell_angle_beta   90.00000000
_cell_angle_gamma   120.04233321
_symmetry_Int_Tables_number   1
_chemical_formula_structural   Hf7Cr(Co4As3)4
_chemical_formula_sum   'Hf7 Cr1 Co16 As12'
_cell_volume   502.80608485
_cell_formula_units_Z   1
loop_
 _symmetry_equiv_pos_site_id
 _symmetry_equiv_pos_as_xyz
  1  'x, y, z'
loop_
 _atom_site_type_symbol
 _atom_site_label
 _atom_site_symmetry_multiplicity
 _atom_site_fract_x
 _atom_site_fract_y
 _atom_site_fract_z
 _atom_site_occupancy
  Hf  Hf0  1  0.818941  0.818941  0.500000  1
  Hf  Hf1  1  0.998535  0.171984  0.500000  1
  Hf  Hf2  1  0.556098  0.000004  0.000000  1
  Hf  Hf3  1  0.332732  0.664799  0.000000  1
  Hf  Hf4  1  0.664799  0.332732  0.000000  1
  Hf  Hf5  1  0.000004  0.556098  0.000000  1
  Hf  Hf6  1  0.171984  0.998535  0.500000  1
  Cr  Cr7  1  0.444065  0.444065  0.000000  1
  Co  Co8  1  0.627377  0.820120  0.000000  1
  Co  Co9  1  0.376514  0.200812  0.000000  1
  Co  Co10  1  0.000053  0.718055  0.500000  1
  Co  Co11  1  0.284125  0.284125  0.500000  1
  Co  Co12  1  0.877050  0.355679  0.500000  1
  Co  Co13  1  0.718055  0.000053  0.500000  1
  Co  Co14  1  0.820120  0.627377  0.000000  1
  Co  Co15  1  0.177164  0.805504  0.000000  1
  Co  Co16  1  0.355679  0.877050  0.500000  1
  Co  Co17  1  0.127807  0.480472  0.500000  1
  Co  Co18  1  0.643836  0.519165  0.500000  1
  Co  Co19  1  0.001734  0.001734  0.000000  1
  Co  Co20  1  0.519165  0.643836  0.500000  1
  Co  Co21  1  0.480472  0.127807  0.500000  1
  Co  Co22  1  0.200812  0.376514  0.000000  1
  Co  Co23  1  0.805504  0.177164  0.000000  1
  As  As24  1  0.003762  0.345458  0.000000  1
  As  As25  1  0.824617  0.513088  0.500000  1
  As  As26  1  0.688445  0.175603  0.500000  1
  As  As27  1  0.177982  0.177982  0.000000  1
  As  As28  1  0.643177  0.643177  0.000000  1
  As  As29  1  0.824179  0.997779  0.000000  1
  As  As30  1  0.513088  0.824617  0.500000  1
  As  As31  1  0.175603  0.688445  0.500000  1
  As  As32  1  0.345458  0.003762  0.000000  1
  As  As33  1  0.484503  0.318783  0.500000  1
  As  As34  1  0.997779  0.824179  0.000000  1
  As  As35  1  0.318783  0.484503  0.500000  1
