# generated using pymatgen
data_Tb3HoCo18(CuP6)2
_symmetry_space_group_name_H-M   'P 1'
_cell_length_a   3.68393300
_cell_length_b   10.28407111
_cell_length_c   11.83633512
_cell_angle_alpha   90.01655387
_cell_angle_beta   90.00000000
_cell_angle_gamma   90.00000000
_symmetry_Int_Tables_number   1
_chemical_formula_structural   Tb3HoCo18(CuP6)2
_chemical_formula_sum   'Tb3 Ho1 Co18 Cu2 P12'
_cell_volume   448.42934889
_cell_formula_units_Z   1
loop_
 _symmetry_equiv_pos_site_id
 _symmetry_equiv_pos_as_xyz
  1  'x, y, z'
loop_
 _atom_site_type_symbol
 _atom_site_label
 _atom_site_symmetry_multiplicity
 _atom_site_fract_x
 _atom_site_fract_y
 _atom_site_fract_z
 _atom_site_occupancy
  Tb  Tb0  1  0.250000  0.579431  0.701826  1
  Tb  Tb1  1  0.750000  0.418545  0.296873  1
  Tb  Tb2  1  0.750000  0.081201  0.796944  1
  Ho  Ho3  1  0.250000  0.920902  0.201698  1
  Co  Co4  1  0.750000  0.287335  0.008786  1
  Co  Co5  1  0.750000  0.212400  0.508397  1
  Co  Co6  1  0.250000  0.404663  0.487299  1
  Co  Co7  1  0.250000  0.094963  0.987551  1
  Co  Co8  1  0.750000  0.591964  0.514591  1
  Co  Co9  1  0.750000  0.907865  0.015585  1
  Co  Co10  1  0.250000  0.222660  0.175102  1
  Co  Co11  1  0.250000  0.277009  0.675024  1
  Co  Co12  1  0.750000  0.778048  0.826351  1
  Co  Co13  1  0.750000  0.722659  0.326022  1
  Co  Co14  1  0.250000  0.881743  0.698396  1
  Co  Co15  1  0.250000  0.618814  0.198575  1
  Co  Co16  1  0.750000  0.119896  0.300044  1
  Co  Co17  1  0.750000  0.379509  0.800474  1
  Co  Co18  1  0.250000  0.465526  0.931802  1
  Co  Co19  1  0.250000  0.034263  0.431188  1
  Co  Co20  1  0.750000  0.534693  0.066436  1
  Co  Co21  1  0.750000  0.965687  0.565869  1
  Cu  Cu22  1  0.250000  0.712062  0.991308  1
  Cu  Cu23  1  0.250000  0.787827  0.491135  1
  P  P24  1  0.250000  0.420524  0.111533  1
  P  P25  1  0.250000  0.079499  0.611178  1
  P  P26  1  0.750000  0.576338  0.884534  1
  P  P27  1  0.750000  0.923723  0.383681  1
  P  P28  1  0.250000  0.269612  0.867997  1
  P  P29  1  0.250000  0.230258  0.367917  1
  P  P30  1  0.750000  0.730043  0.138944  1
  P  P31  1  0.750000  0.771219  0.638810  1
  P  P32  1  0.250000  0.599491  0.391723  1
  P  P33  1  0.250000  0.900447  0.891783  1
  P  P34  1  0.750000  0.395360  0.607165  1
  P  P35  1  0.750000  0.103821  0.107459  1
