# generated using pymatgen
data_La7Sm2ErSi8O3
_symmetry_space_group_name_H-M   'P 1'
_cell_length_a   10.80921297
_cell_length_b   10.75954945
_cell_length_c   4.59621500
_cell_angle_alpha   90.00000000
_cell_angle_beta   90.00000000
_cell_angle_gamma   119.84813278
_symmetry_Int_Tables_number   1
_chemical_formula_structural   La7Sm2ErSi8O3
_chemical_formula_sum   'La7 Sm2 Er1 Si8 O3'
_cell_volume   463.64085958
_cell_formula_units_Z   1
loop_
 _symmetry_equiv_pos_site_id
 _symmetry_equiv_pos_as_xyz
  1  'x, y, z'
loop_
 _atom_site_type_symbol
 _atom_site_label
 _atom_site_symmetry_multiplicity
 _atom_site_fract_x
 _atom_site_fract_y
 _atom_site_fract_z
 _atom_site_occupancy
  La  La0  1  0.210439  0.787119  0.000000  1
  La  La1  1  0.576693  0.788346  0.000000  1
  La  La2  1  0.789561  0.576681  0.000000  1
  La  La3  1  0.000000  0.000000  0.000000  1
  La  La4  1  0.210439  0.423319  0.000000  1
  La  La5  1  0.423307  0.211654  0.000000  1
  La  La6  1  0.789561  0.212881  0.000000  1
  Sm  Sm7  1  0.500000  0.500000  0.500000  1
  Sm  Sm8  1  0.500000  0.000000  0.500000  1
  Er  Er9  1  0.000000  0.500000  0.500000  1
  Si  Si10  1  0.000000  0.776126  0.500000  1
  Si  Si11  1  0.000000  0.223874  0.500000  1
  Si  Si12  1  0.220919  0.221616  0.500000  1
  Si  Si13  1  0.779081  0.000697  0.500000  1
  Si  Si14  1  0.328204  0.664103  0.500000  1
  Si  Si15  1  0.220919  0.999303  0.500000  1
  Si  Si16  1  0.671796  0.335897  0.500000  1
  Si  Si17  1  0.779081  0.778384  0.500000  1
  O  O18  1  0.000000  0.500000  0.000000  1
  O  O19  1  0.500000  0.500000  0.000000  1
  O  O20  1  0.500000  0.000000  0.000000  1
