# generated using pymatgen
data_Cs7(FeS2)4
_symmetry_space_group_name_H-M   'P 1'
_cell_length_a   10.56669882
_cell_length_b   10.50045723
_cell_length_c   16.92603202
_cell_angle_alpha   64.92656805
_cell_angle_beta   64.89176328
_cell_angle_gamma   47.26206428
_symmetry_Int_Tables_number   1
_chemical_formula_structural   Cs7(FeS2)4
_chemical_formula_sum   'Cs14 Fe8 S16'
_cell_volume   1222.69183338
_cell_formula_units_Z   2
loop_
 _symmetry_equiv_pos_site_id
 _symmetry_equiv_pos_as_xyz
  1  'x, y, z'
loop_
 _atom_site_type_symbol
 _atom_site_label
 _atom_site_symmetry_multiplicity
 _atom_site_fract_x
 _atom_site_fract_y
 _atom_site_fract_z
 _atom_site_occupancy
  Cs  Cs0  1  0.742405  0.249581  0.488570  1
  Cs  Cs1  1  0.995899  0.524251  0.614121  1
  Cs  Cs2  1  0.477924  0.000380  0.886547  1
  Cs  Cs3  1  0.003047  0.476299  0.387589  1
  Cs  Cs4  1  0.523326  0.998468  0.113437  1
  Cs  Cs5  1  0.007591  0.510877  0.863896  1
  Cs  Cs6  1  0.486834  0.993910  0.637602  1
  Cs  Cs7  1  0.995768  0.486150  0.135824  1
  Cs  Cs8  1  0.516058  0.003401  0.363540  1
  Cs  Cs9  1  0.231627  0.767610  0.750197  1
  Cs  Cs10  1  0.769116  0.231741  0.248708  1
  Cs  Cs11  1  0.244824  0.747748  0.987771  1
  Cs  Cs12  1  0.250053  0.758912  0.511382  1
  Cs  Cs13  1  0.751678  0.255514  0.010756  1
  Fe  Fe14  1  0.678866  0.431695  0.667176  1
  Fe  Fe15  1  0.568630  0.320024  0.833871  1
  Fe  Fe16  1  0.320712  0.567580  0.333323  1
  Fe  Fe17  1  0.432390  0.678678  0.166277  1
  Fe  Fe18  1  0.895324  0.212701  0.777387  1
  Fe  Fe19  1  0.788376  0.102511  0.723336  1
  Fe  Fe20  1  0.105224  0.787592  0.221928  1
  Fe  Fe21  1  0.212498  0.897196  0.276861  1
  S  S22  1  0.652811  0.496861  0.789069  1
  S  S23  1  0.505564  0.344169  0.711810  1
  S  S24  1  0.346845  0.503168  0.210980  1
  S  S25  1  0.494614  0.654303  0.288680  1
  S  S26  1  0.961871  0.190937  0.633335  1
  S  S27  1  0.809373  0.036024  0.867266  1
  S  S28  1  0.037904  0.809524  0.366017  1
  S  S29  1  0.192681  0.962939  0.132671  1
  S  S30  1  0.657869  0.614125  0.052134  1
  S  S31  1  0.383572  0.343105  0.448565  1
  S  S32  1  0.342254  0.385798  0.947434  1
  S  S33  1  0.612119  0.658620  0.552722  1
  S  S34  1  0.860074  0.878869  0.686185  1
  S  S35  1  0.118041  0.141445  0.813809  1
  S  S36  1  0.142273  0.119247  0.314688  1
  S  S37  1  0.883963  0.858049  0.184536  1
