# generated using pymatgen
data_Sc2Al2PtRh
_symmetry_space_group_name_H-M   'P 1'
_cell_length_a   4.31098600
_cell_length_b   6.40416600
_cell_length_c   7.62000400
_cell_angle_alpha   90.00000000
_cell_angle_beta   90.00000000
_cell_angle_gamma   90.00000000
_symmetry_Int_Tables_number   1
_chemical_formula_structural   Sc2Al2PtRh
_chemical_formula_sum   'Sc4 Al4 Pt2 Rh2'
_cell_volume   210.37512759
_cell_formula_units_Z   2
loop_
 _symmetry_equiv_pos_site_id
 _symmetry_equiv_pos_as_xyz
  1  'x, y, z'
loop_
 _atom_site_type_symbol
 _atom_site_label
 _atom_site_symmetry_multiplicity
 _atom_site_fract_x
 _atom_site_fract_y
 _atom_site_fract_z
 _atom_site_occupancy
  Sc  Sc0  1  0.250000  0.968910  0.322022  1
  Sc  Sc1  1  0.250000  0.468910  0.177978  1
  Sc  Sc2  1  0.750000  0.025460  0.682787  1
  Sc  Sc3  1  0.750000  0.525460  0.817213  1
  Al  Al4  1  0.250000  0.354516  0.561288  1
  Al  Al5  1  0.250000  0.854516  0.938712  1
  Al  Al6  1  0.750000  0.648540  0.441496  1
  Al  Al7  1  0.750000  0.148540  0.058504  1
  Pt  Pt8  1  0.750000  0.757643  0.118014  1
  Pt  Pt9  1  0.750000  0.257643  0.381986  1
  Rh  Rh10  1  0.250000  0.244930  0.884660  1
  Rh  Rh11  1  0.250000  0.744930  0.615340  1
