# generated using pymatgen
data_La2FeOsBr
_symmetry_space_group_name_H-M   'P 1'
_cell_length_a   4.21825400
_cell_length_b   4.21825439
_cell_length_c   17.36352100
_cell_angle_alpha   90.00000000
_cell_angle_beta   90.00000000
_cell_angle_gamma   120.00001260
_symmetry_Int_Tables_number   1
_chemical_formula_structural   La2FeOsBr
_chemical_formula_sum   'La4 Fe2 Os2 Br2'
_cell_volume   267.56781224
_cell_formula_units_Z   2
loop_
 _symmetry_equiv_pos_site_id
 _symmetry_equiv_pos_as_xyz
  1  'x, y, z'
loop_
 _atom_site_type_symbol
 _atom_site_label
 _atom_site_symmetry_multiplicity
 _atom_site_fract_x
 _atom_site_fract_y
 _atom_site_fract_z
 _atom_site_occupancy
  La  La0  1  0.000000  0.000000  0.109317  1
  La  La1  1  0.000000  0.000000  0.609317  1
  La  La2  1  0.000000  0.000000  0.890550  1
  La  La3  1  0.000000  0.000000  0.390550  1
  Fe  Fe4  1  0.333333  0.666667  0.003744  1
  Fe  Fe5  1  0.666667  0.333333  0.503744  1
  Os  Os6  1  0.666667  0.333333  0.996615  1
  Os  Os7  1  0.333333  0.666667  0.496615  1
  Br  Br8  1  0.666667  0.333333  0.249775  1
  Br  Br9  1  0.333333  0.666667  0.749775  1
