# generated using pymatgen
data_Dy2Ho2LuPb4
_symmetry_space_group_name_H-M   'P 1'
_cell_length_a   8.15296800
_cell_length_b   8.23865600
_cell_length_c   15.58619100
_cell_angle_alpha   90.00000000
_cell_angle_beta   90.00000000
_cell_angle_gamma   90.00000000
_symmetry_Int_Tables_number   1
_chemical_formula_structural   Dy2Ho2LuPb4
_chemical_formula_sum   'Dy8 Ho8 Lu4 Pb16'
_cell_volume   1046.91663660
_cell_formula_units_Z   4
loop_
 _symmetry_equiv_pos_site_id
 _symmetry_equiv_pos_as_xyz
  1  'x, y, z'
loop_
 _atom_site_type_symbol
 _atom_site_label
 _atom_site_symmetry_multiplicity
 _atom_site_fract_x
 _atom_site_fract_y
 _atom_site_fract_z
 _atom_site_occupancy
  Dy  Dy0  1  0.536011  0.323475  0.900107  1
  Dy  Dy1  1  0.036011  0.176525  0.599893  1
  Dy  Dy2  1  0.463989  0.676525  0.400107  1
  Dy  Dy3  1  0.963989  0.823475  0.099893  1
  Dy  Dy4  1  0.463989  0.676525  0.099893  1
  Dy  Dy5  1  0.963989  0.823475  0.400107  1
  Dy  Dy6  1  0.536011  0.323475  0.599893  1
  Dy  Dy7  1  0.036011  0.176525  0.900107  1
  Ho  Ho8  1  0.376614  0.841417  0.879112  1
  Ho  Ho9  1  0.876614  0.658583  0.620888  1
  Ho  Ho10  1  0.623386  0.158583  0.379112  1
  Ho  Ho11  1  0.123386  0.341417  0.120888  1
  Ho  Ho12  1  0.623386  0.158583  0.120888  1
  Ho  Ho13  1  0.123386  0.341417  0.379112  1
  Ho  Ho14  1  0.376614  0.841417  0.620888  1
  Ho  Ho15  1  0.876614  0.658583  0.879112  1
  Lu  Lu16  1  0.208467  0.504419  0.750000  1
  Lu  Lu17  1  0.708467  0.995581  0.750000  1
  Lu  Lu18  1  0.791533  0.495581  0.250000  1
  Lu  Lu19  1  0.291533  0.004419  0.250000  1
  Pb  Pb20  1  0.281262  0.032771  0.043523  1
  Pb  Pb21  1  0.781262  0.467229  0.456477  1
  Pb  Pb22  1  0.718738  0.967229  0.543523  1
  Pb  Pb23  1  0.218738  0.532771  0.956477  1
  Pb  Pb24  1  0.718738  0.967229  0.956477  1
  Pb  Pb25  1  0.218738  0.532771  0.543523  1
  Pb  Pb26  1  0.281262  0.032771  0.456477  1
  Pb  Pb27  1  0.781262  0.467229  0.043523  1
  Pb  Pb28  1  0.571005  0.626234  0.750000  1
  Pb  Pb29  1  0.071005  0.873766  0.750000  1
  Pb  Pb30  1  0.428995  0.373766  0.250000  1
  Pb  Pb31  1  0.928995  0.126234  0.250000  1
  Pb  Pb32  1  0.347733  0.154843  0.750000  1
  Pb  Pb33  1  0.847733  0.345157  0.750000  1
  Pb  Pb34  1  0.652267  0.845157  0.250000  1
  Pb  Pb35  1  0.152267  0.654843  0.250000  1
