# generated using pymatgen
data_Nd4Fe3CuO12
_symmetry_space_group_name_H-M   'P 1'
_cell_length_a   5.48341882
_cell_length_b   5.68816914
_cell_length_c   7.81550836
_cell_angle_alpha   90.28801359
_cell_angle_beta   90.14811325
_cell_angle_gamma   90.03424902
_symmetry_Int_Tables_number   1
_chemical_formula_structural   Nd4Fe3CuO12
_chemical_formula_sum   'Nd4 Fe3 Cu1 O12'
_cell_volume   243.76656228
_cell_formula_units_Z   1
loop_
 _symmetry_equiv_pos_site_id
 _symmetry_equiv_pos_as_xyz
  1  'x, y, z'
loop_
 _atom_site_type_symbol
 _atom_site_label
 _atom_site_symmetry_multiplicity
 _atom_site_fract_x
 _atom_site_fract_y
 _atom_site_fract_z
 _atom_site_occupancy
  Nd  Nd0  1  0.013578  0.940537  0.747453  1
  Nd  Nd1  1  0.515336  0.555958  0.252306  1
  Nd  Nd2  1  0.484664  0.444042  0.747694  1
  Nd  Nd3  1  0.986422  0.059463  0.252547  1
  Fe  Fe4  1  0.500000  0.000000  0.500000  1
  Fe  Fe5  1  0.500000  0.000000  0.000000  1
  Fe  Fe6  1  0.000000  0.500000  0.000000  1
  Cu  Cu7  1  0.000000  0.500000  0.500000  1
  O  O8  1  0.702811  0.292411  0.451886  1
  O  O9  1  0.207275  0.202974  0.547371  1
  O  O10  1  0.796825  0.797017  0.049359  1
  O  O11  1  0.297139  0.703488  0.950650  1
  O  O12  1  0.297189  0.707589  0.548114  1
  O  O13  1  0.792725  0.797026  0.452629  1
  O  O14  1  0.203175  0.202983  0.950641  1
  O  O15  1  0.702861  0.296512  0.049350  1
  O  O16  1  0.091267  0.473736  0.248491  1
  O  O17  1  0.591699  0.026932  0.749248  1
  O  O18  1  0.408301  0.973068  0.250752  1
  O  O19  1  0.908733  0.526264  0.751509  1
