# generated using pymatgen
data_Hf9TaCoTcW2
_symmetry_space_group_name_H-M   'P 1'
_cell_length_a   8.72374777
_cell_length_b   8.71719004
_cell_length_c   8.49703000
_cell_angle_alpha   90.00000000
_cell_angle_beta   90.00000000
_cell_angle_gamma   119.97513386
_symmetry_Int_Tables_number   1
_chemical_formula_structural   Hf9TaCoTcW2
_chemical_formula_sum   'Hf18 Ta2 Co2 Tc2 W4'
_cell_volume   559.73976773
_cell_formula_units_Z   2
loop_
 _symmetry_equiv_pos_site_id
 _symmetry_equiv_pos_as_xyz
  1  'x, y, z'
loop_
 _atom_site_type_symbol
 _atom_site_label
 _atom_site_symmetry_multiplicity
 _atom_site_fract_x
 _atom_site_fract_y
 _atom_site_fract_z
 _atom_site_occupancy
  Hf  Hf0  1  0.202880  0.798509  0.440256  1
  Hf  Hf1  1  0.202880  0.404371  0.440256  1
  Hf  Hf2  1  0.595143  0.797572  0.439945  1
  Hf  Hf3  1  0.799134  0.201690  0.559726  1
  Hf  Hf4  1  0.799134  0.597444  0.559726  1
  Hf  Hf5  1  0.402863  0.201432  0.559272  1
  Hf  Hf6  1  0.799134  0.201690  0.940274  1
  Hf  Hf7  1  0.799134  0.597444  0.940274  1
  Hf  Hf8  1  0.402863  0.201432  0.940728  1
  Hf  Hf9  1  0.202880  0.798509  0.059744  1
  Hf  Hf10  1  0.202880  0.404371  0.059744  1
  Hf  Hf11  1  0.595143  0.797572  0.060055  1
  Hf  Hf12  1  0.542480  0.456470  0.250000  1
  Hf  Hf13  1  0.542480  0.086011  0.250000  1
  Hf  Hf14  1  0.914405  0.457201  0.250000  1
  Hf  Hf15  1  0.457719  0.542215  0.750000  1
  Hf  Hf16  1  0.457719  0.915506  0.750000  1
  Hf  Hf17  1  0.084568  0.542284  0.750000  1
  Ta  Ta18  1  0.997796  0.998897  0.495284  1
  Ta  Ta19  1  0.997796  0.998897  0.004716  1
  Co  Co20  1  0.333931  0.666966  0.250000  1
  Co  Co21  1  0.667277  0.333637  0.750000  1
  Tc  Tc22  1  0.886043  0.115176  0.250000  1
  Tc  Tc23  1  0.886043  0.770868  0.250000  1
  W  W24  1  0.230846  0.115424  0.250000  1
  W  W25  1  0.112578  0.885611  0.750000  1
  W  W26  1  0.112578  0.226965  0.750000  1
  W  W27  1  0.771671  0.885835  0.750000  1
