# generated using pymatgen
data_Y2(SeO3)3
_symmetry_space_group_name_H-M   'P 1'
_cell_length_a   7.12388154
_cell_length_b   8.17577778
_cell_length_c   9.12712031
_cell_angle_alpha   71.41979597
_cell_angle_beta   70.01069961
_cell_angle_gamma   66.07212621
_symmetry_Int_Tables_number   1
_chemical_formula_structural   Y2(SeO3)3
_chemical_formula_sum   'Y4 Se6 O18'
_cell_volume   446.49751860
_cell_formula_units_Z   2
loop_
 _symmetry_equiv_pos_site_id
 _symmetry_equiv_pos_as_xyz
  1  'x, y, z'
loop_
 _atom_site_type_symbol
 _atom_site_label
 _atom_site_symmetry_multiplicity
 _atom_site_fract_x
 _atom_site_fract_y
 _atom_site_fract_z
 _atom_site_occupancy
  Y  Y0  1  0.334638  0.727018  0.590162  1
  Y  Y1  1  0.665362  0.272982  0.409838  1
  Y  Y2  1  0.741398  0.736047  0.798126  1
  Y  Y3  1  0.258602  0.263953  0.201874  1
  Se  Se4  1  0.427734  0.775254  0.198394  1
  Se  Se5  1  0.572266  0.224746  0.801606  1
  Se  Se6  1  0.147994  0.749718  0.964762  1
  Se  Se7  1  0.852006  0.250282  0.035238  1
  Se  Se8  1  0.886403  0.760364  0.414824  1
  Se  Se9  1  0.113597  0.239636  0.585176  1
  O  O10  1  0.648937  0.791616  0.051640  1
  O  O11  1  0.351063  0.208384  0.948360  1
  O  O12  1  0.360983  0.943133  0.304152  1
  O  O13  1  0.639017  0.056867  0.695848  1
  O  O14  1  0.517364  0.595103  0.351166  1
  O  O15  1  0.482636  0.404897  0.648834  1
  O  O16  1  0.166588  0.567206  0.120136  1
  O  O17  1  0.833412  0.432794  0.879864  1
  O  O18  1  0.407394  0.710589  0.849377  1
  O  O19  1  0.592606  0.289411  0.150623  1
  O  O20  1  0.343278  0.252739  0.436657  1
  O  O21  1  0.656722  0.747261  0.563343  1
  O  O22  1  0.967603  0.292713  0.445689  1
  O  O23  1  0.032397  0.707287  0.554311  1
  O  O24  1  0.159226  0.012718  0.653548  1
  O  O25  1  0.840774  0.987282  0.346452  1
  O  O26  1  0.932502  0.306182  0.167598  1
  O  O27  1  0.067498  0.693818  0.832402  1
