# generated using pymatgen
data_Li4Tb3HoSi8
_symmetry_space_group_name_H-M   'P 1'
_cell_length_a   3.79792200
_cell_length_b   7.57604809
_cell_length_c   10.19179603
_cell_angle_alpha   90.00071725
_cell_angle_beta   90.00000000
_cell_angle_gamma   90.00000000
_symmetry_Int_Tables_number   1
_chemical_formula_structural   Li4Tb3HoSi8
_chemical_formula_sum   'Li4 Tb3 Ho1 Si8'
_cell_volume   293.25099002
_cell_formula_units_Z   1
loop_
 _symmetry_equiv_pos_site_id
 _symmetry_equiv_pos_as_xyz
  1  'x, y, z'
loop_
 _atom_site_type_symbol
 _atom_site_label
 _atom_site_symmetry_multiplicity
 _atom_site_fract_x
 _atom_site_fract_y
 _atom_site_fract_z
 _atom_site_occupancy
  Li  Li0  1  0.250000  0.989144  0.391879  1
  Li  Li1  1  0.250000  0.490742  0.108175  1
  Li  Li2  1  0.750000  0.009787  0.607810  1
  Li  Li3  1  0.750000  0.509329  0.891699  1
  Tb  Tb4  1  0.250000  0.140229  0.864337  1
  Tb  Tb5  1  0.250000  0.639363  0.635619  1
  Tb  Tb6  1  0.750000  0.860484  0.136221  1
  Ho  Ho7  1  0.750000  0.361283  0.364132  1
  Si  Si8  1  0.250000  0.232478  0.566798  1
  Si  Si9  1  0.250000  0.731795  0.931495  1
  Si  Si10  1  0.750000  0.766971  0.431437  1
  Si  Si11  1  0.750000  0.269340  0.069891  1
  Si  Si12  1  0.250000  0.655233  0.320499  1
  Si  Si13  1  0.250000  0.157871  0.181021  1
  Si  Si14  1  0.750000  0.342915  0.678632  1
  Si  Si15  1  0.750000  0.843034  0.820353  1
