# generated using pymatgen
data_HoTh2Co9(CuB2)2
_symmetry_space_group_name_H-M   'P 1'
_cell_length_a   5.07906004
_cell_length_b   5.07744457
_cell_length_c   9.89494501
_cell_angle_alpha   89.99886981
_cell_angle_beta   89.99704613
_cell_angle_gamma   120.13778953
_symmetry_Int_Tables_number   1
_chemical_formula_structural   HoTh2Co9(CuB2)2
_chemical_formula_sum   'Ho1 Th2 Co9 Cu2 B4'
_cell_volume   220.68249095
_cell_formula_units_Z   1
loop_
 _symmetry_equiv_pos_site_id
 _symmetry_equiv_pos_as_xyz
  1  'x, y, z'
loop_
 _atom_site_type_symbol
 _atom_site_label
 _atom_site_symmetry_multiplicity
 _atom_site_fract_x
 _atom_site_fract_y
 _atom_site_fract_z
 _atom_site_occupancy
  Ho  Ho0  1  0.000066  0.000009  0.656276  1
  Th  Th1  1  0.999938  0.999866  0.992567  1
  Th  Th2  1  0.000063  0.999995  0.340019  1
  Co  Co3  1  0.500066  0.000013  0.502583  1
  Co  Co4  1  0.500064  0.500020  0.502465  1
  Co  Co5  1  0.000063  0.500017  0.502520  1
  Co  Co6  1  0.500011  0.999951  0.208080  1
  Co  Co7  1  0.500011  0.500020  0.208291  1
  Co  Co8  1  0.000067  0.500011  0.208378  1
  Co  Co9  1  0.500042  0.000004  0.791269  1
  Co  Co10  1  0.500038  0.499958  0.791073  1
  Co  Co11  1  0.999963  0.499939  0.790998  1
  Cu  Cu12  1  0.331931  0.666146  0.999671  1
  Cu  Cu13  1  0.667438  0.334048  0.999593  1
  B  B14  1  0.333476  0.666953  0.351738  1
  B  B15  1  0.666597  0.333053  0.351727  1
  B  B16  1  0.666501  0.333299  0.651368  1
  B  B17  1  0.333565  0.666698  0.651387  1
