# generated using pymatgen
data_LuZn8(GaCu)2
_symmetry_space_group_name_H-M   'P 1'
_cell_length_a   6.72858629
_cell_length_b   6.73910303
_cell_length_c   6.73910346
_cell_angle_alpha   99.00324952
_cell_angle_beta   97.72423905
_cell_angle_gamma   135.26929637
_symmetry_Int_Tables_number   1
_chemical_formula_structural   LuZn8(GaCu)2
_chemical_formula_sum   'Lu1 Zn8 Ga2 Cu2'
_cell_volume   198.71326811
_cell_formula_units_Z   1
loop_
 _symmetry_equiv_pos_site_id
 _symmetry_equiv_pos_as_xyz
  1  'x, y, z'
loop_
 _atom_site_type_symbol
 _atom_site_label
 _atom_site_symmetry_multiplicity
 _atom_site_fract_x
 _atom_site_fract_y
 _atom_site_fract_z
 _atom_site_occupancy
  Lu  Lu0  1  0.000000  0.000000  0.000000  1
  Zn  Zn1  1  0.500000  0.500000  0.500000  1
  Zn  Zn2  1  0.500000  0.000000  0.000000  1
  Zn  Zn3  1  0.667990  0.013440  0.654550  1
  Zn  Zn4  1  0.332010  0.986560  0.345450  1
  Zn  Zn5  1  0.500000  0.272058  0.772058  1
  Zn  Zn6  1  0.500000  0.727942  0.227942  1
  Zn  Zn7  1  0.702171  0.506446  0.195725  1
  Zn  Zn8  1  0.297829  0.493554  0.804275  1
  Ga  Ga9  1  0.000000  0.353419  0.353419  1
  Ga  Ga10  1  0.000000  0.646581  0.646581  1
  Cu  Cu11  1  0.000000  0.000000  0.500000  1
  Cu  Cu12  1  0.000000  0.500000  0.000000  1
