# generated using pymatgen
data_Lu12FeCo3
_symmetry_space_group_name_H-M   'P 1'
_cell_length_a   6.15103013
_cell_length_b   6.86650725
_cell_length_c   8.93843500
_cell_angle_alpha   90.00000000
_cell_angle_beta   90.00000000
_cell_angle_gamma   89.93071442
_symmetry_Int_Tables_number   1
_chemical_formula_structural   Lu12FeCo3
_chemical_formula_sum   'Lu12 Fe1 Co3'
_cell_volume   377.52429568
_cell_formula_units_Z   1
loop_
 _symmetry_equiv_pos_site_id
 _symmetry_equiv_pos_as_xyz
  1  'x, y, z'
loop_
 _atom_site_type_symbol
 _atom_site_label
 _atom_site_symmetry_multiplicity
 _atom_site_fract_x
 _atom_site_fract_y
 _atom_site_fract_z
 _atom_site_occupancy
  Lu  Lu0  1  0.321644  0.676915  0.065749  1
  Lu  Lu1  1  0.176507  0.175179  0.434501  1
  Lu  Lu2  1  0.677716  0.323269  0.564727  1
  Lu  Lu3  1  0.826223  0.824498  0.937637  1
  Lu  Lu4  1  0.677716  0.323269  0.935273  1
  Lu  Lu5  1  0.826223  0.824498  0.562363  1
  Lu  Lu6  1  0.321644  0.676915  0.434251  1
  Lu  Lu7  1  0.176507  0.175179  0.065499  1
  Lu  Lu8  1  0.869375  0.540400  0.250000  1
  Lu  Lu9  1  0.629081  0.042722  0.250000  1
  Lu  Lu10  1  0.133205  0.458692  0.750000  1
  Lu  Lu11  1  0.369531  0.957250  0.750000  1
  Fe  Fe12  1  0.029123  0.890801  0.250000  1
  Co  Co13  1  0.462673  0.390018  0.250000  1
  Co  Co14  1  0.963366  0.110934  0.750000  1
  Co  Co15  1  0.539466  0.609462  0.750000  1
