# generated using pymatgen
data_Mg2Fe11CoP7
_symmetry_space_group_name_H-M   'P 1'
_cell_length_a   8.91078289
_cell_length_b   8.86921144
_cell_length_c   3.57209000
_cell_angle_alpha   90.00000000
_cell_angle_beta   90.00000000
_cell_angle_gamma   120.02312771
_symmetry_Int_Tables_number   1
_chemical_formula_structural   Mg2Fe11CoP7
_chemical_formula_sum   'Mg2 Fe11 Co1 P7'
_cell_volume   244.42894615
_cell_formula_units_Z   1
loop_
 _symmetry_equiv_pos_site_id
 _symmetry_equiv_pos_as_xyz
  1  'x, y, z'
loop_
 _atom_site_type_symbol
 _atom_site_label
 _atom_site_symmetry_multiplicity
 _atom_site_fract_x
 _atom_site_fract_y
 _atom_site_fract_z
 _atom_site_occupancy
  Mg  Mg0  1  0.001562  0.000926  0.000000  1
  Mg  Mg1  1  0.331755  0.665266  0.500000  1
  Fe  Fe2  1  0.051791  0.770939  0.500000  1
  Fe  Fe3  1  0.713100  0.944685  0.500000  1
  Fe  Fe4  1  0.886050  0.428435  0.500000  1
  Fe  Fe5  1  0.546792  0.119058  0.500000  1
  Fe  Fe6  1  0.571714  0.453372  0.500000  1
  Fe  Fe7  1  0.392745  0.214660  0.000000  1
  Fe  Fe8  1  0.785900  0.174606  0.000000  1
  Fe  Fe9  1  0.821679  0.607157  0.000000  1
  Fe  Fe10  1  0.609601  0.707637  0.000000  1
  Fe  Fe11  1  0.293550  0.902977  0.000000  1
  Fe  Fe12  1  0.229464  0.282970  0.500000  1
  Co  Co13  1  0.099958  0.395581  0.000000  1
  P  P14  1  0.261995  0.045991  0.500000  1
  P  P15  1  0.955799  0.216399  0.500000  1
  P  P16  1  0.783020  0.735878  0.500000  1
  P  P17  1  0.371996  0.450434  0.000000  1
  P  P18  1  0.545660  0.920388  0.000000  1
  P  P19  1  0.078457  0.630712  0.000000  1
  P  P20  1  0.667414  0.331927  0.000000  1
