# generated using pymatgen
data_Nb9CdS16
_symmetry_space_group_name_H-M   'P 1'
_cell_length_a   6.72261000
_cell_length_b   6.72260960
_cell_length_c   13.17687100
_cell_angle_alpha   90.00000000
_cell_angle_beta   90.00000000
_cell_angle_gamma   120.00001181
_symmetry_Int_Tables_number   1
_chemical_formula_structural   Nb9CdS16
_chemical_formula_sum   'Nb9 Cd1 S16'
_cell_volume   515.72559165
_cell_formula_units_Z   1
loop_
 _symmetry_equiv_pos_site_id
 _symmetry_equiv_pos_as_xyz
  1  'x, y, z'
loop_
 _atom_site_type_symbol
 _atom_site_label
 _atom_site_symmetry_multiplicity
 _atom_site_fract_x
 _atom_site_fract_y
 _atom_site_fract_z
 _atom_site_occupancy
  Nb  Nb0  1  0.000000  0.000000  0.000000  1
  Nb  Nb1  1  0.000000  0.000000  0.236435  1
  Nb  Nb2  1  0.000000  0.000000  0.763565  1
  Nb  Nb3  1  0.504491  0.495509  0.236899  1
  Nb  Nb4  1  0.504491  0.008982  0.236899  1
  Nb  Nb5  1  0.991018  0.495509  0.236899  1
  Nb  Nb6  1  0.495509  0.504491  0.763101  1
  Nb  Nb7  1  0.495509  0.991018  0.763101  1
  Nb  Nb8  1  0.008982  0.504491  0.763101  1
  Cd  Cd9  1  0.000000  0.000000  0.500000  1
  S  S10  1  0.333333  0.666667  0.883920  1
  S  S11  1  0.666667  0.333333  0.116080  1
  S  S12  1  0.666667  0.333333  0.357711  1
  S  S13  1  0.333333  0.666667  0.642289  1
  S  S14  1  0.167752  0.832248  0.355734  1
  S  S15  1  0.167752  0.335504  0.355734  1
  S  S16  1  0.664496  0.832248  0.355734  1
  S  S17  1  0.832248  0.167752  0.644266  1
  S  S18  1  0.832248  0.664496  0.644266  1
  S  S19  1  0.335504  0.167752  0.644266  1
  S  S20  1  0.832350  0.167650  0.882751  1
  S  S21  1  0.832350  0.664701  0.882751  1
  S  S22  1  0.335299  0.167650  0.882751  1
  S  S23  1  0.167650  0.832350  0.117249  1
  S  S24  1  0.167650  0.335299  0.117249  1
  S  S25  1  0.664701  0.832350  0.117249  1
