# generated using pymatgen
data_Dy4Ho2NiTe2
_symmetry_space_group_name_H-M   'P 1'
_cell_length_a   8.34546300
_cell_length_b   8.34951401
_cell_length_c   3.90627800
_cell_angle_alpha   90.00000000
_cell_angle_beta   90.00000000
_cell_angle_gamma   119.98395567
_symmetry_Int_Tables_number   1
_chemical_formula_structural   Dy4Ho2NiTe2
_chemical_formula_sum   'Dy4 Ho2 Ni1 Te2'
_cell_volume   235.76297565
_cell_formula_units_Z   1
loop_
 _symmetry_equiv_pos_site_id
 _symmetry_equiv_pos_as_xyz
  1  'x, y, z'
loop_
 _atom_site_type_symbol
 _atom_site_label
 _atom_site_symmetry_multiplicity
 _atom_site_fract_x
 _atom_site_fract_y
 _atom_site_fract_z
 _atom_site_occupancy
  Dy  Dy0  1  0.000019  0.402241  0.500000  1
  Dy  Dy1  1  0.597778  0.597759  0.500000  1
  Dy  Dy2  1  0.401682  0.000000  0.500000  1
  Dy  Dy3  1  0.762700  0.000000  0.000000  1
  Ho  Ho4  1  0.000098  0.763220  0.000000  1
  Ho  Ho5  1  0.236878  0.236780  0.000000  1
  Ni  Ni6  1  0.001174  0.000000  0.500000  1
  Te  Te7  1  0.332970  0.666272  0.000000  1
  Te  Te8  1  0.666699  0.333728  0.000000  1
