# generated using pymatgen
data_Ce2Co2Hg
_symmetry_space_group_name_H-M   'P 1'
_cell_length_a   7.69506228
_cell_length_b   7.69506279
_cell_length_c   3.65277100
_cell_angle_alpha   90.00000000
_cell_angle_beta   90.00000000
_cell_angle_gamma   151.94807025
_symmetry_Int_Tables_number   1
_chemical_formula_structural   Ce2Co2Hg
_chemical_formula_sum   'Ce2 Co2 Hg1'
_cell_volume   101.71746512
_cell_formula_units_Z   1
loop_
 _symmetry_equiv_pos_site_id
 _symmetry_equiv_pos_as_xyz
  1  'x, y, z'
loop_
 _atom_site_type_symbol
 _atom_site_label
 _atom_site_symmetry_multiplicity
 _atom_site_fract_x
 _atom_site_fract_y
 _atom_site_fract_z
 _atom_site_occupancy
  Ce  Ce0  1  0.646125  0.353876  0.499999  1
  Ce  Ce1  1  0.353876  0.646125  0.499999  1
  Co  Co2  1  0.816993  0.183008  0.000000  1
  Co  Co3  1  0.183008  0.816993  0.000000  1
  Hg  Hg4  1  0.000000  0.000000  0.000000  1
