# generated using pymatgen
data_LiCaNi4
_symmetry_space_group_name_H-M   'P 1'
_cell_length_a   4.91900896
_cell_length_b   4.91900885
_cell_length_c   4.91900900
_cell_angle_alpha   60.00000568
_cell_angle_beta   60.00000647
_cell_angle_gamma   59.99999965
_symmetry_Int_Tables_number   1
_chemical_formula_structural   LiCaNi4
_chemical_formula_sum   'Li1 Ca1 Ni4'
_cell_volume   84.16235424
_cell_formula_units_Z   1
loop_
 _symmetry_equiv_pos_site_id
 _symmetry_equiv_pos_as_xyz
  1  'x, y, z'
loop_
 _atom_site_type_symbol
 _atom_site_label
 _atom_site_symmetry_multiplicity
 _atom_site_fract_x
 _atom_site_fract_y
 _atom_site_fract_z
 _atom_site_occupancy
  Li  Li0  1  0.500000  0.500000  0.500000  1
  Ca  Ca1  1  0.750000  0.750000  0.750000  1
  Ni  Ni2  1  0.125589  0.125589  0.125589  1
  Ni  Ni3  1  0.623233  0.125589  0.125589  1
  Ni  Ni4  1  0.125589  0.623233  0.125589  1
  Ni  Ni5  1  0.125589  0.125589  0.623233  1
