# generated using pymatgen
data_Ac8Dy3Er9Si16
_symmetry_space_group_name_H-M   'P 1'
_cell_length_a   7.99389201
_cell_length_b   7.99280258
_cell_length_c   14.82670000
_cell_angle_alpha   89.93873149
_cell_angle_beta   89.95933191
_cell_angle_gamma   90.00298159
_symmetry_Int_Tables_number   1
_chemical_formula_structural   Ac8Dy3Er9Si16
_chemical_formula_sum   'Ac8 Dy3 Er9 Si16'
_cell_volume   947.33046819
_cell_formula_units_Z   1
loop_
 _symmetry_equiv_pos_site_id
 _symmetry_equiv_pos_as_xyz
  1  'x, y, z'
loop_
 _atom_site_type_symbol
 _atom_site_label
 _atom_site_symmetry_multiplicity
 _atom_site_fract_x
 _atom_site_fract_y
 _atom_site_fract_z
 _atom_site_occupancy
  Ac  Ac0  1  0.990071  0.641367  0.041396  1
  Ac  Ac1  1  0.009651  0.358477  0.542661  1
  Ac  Ac2  1  0.641790  0.990499  0.957674  1
  Ac  Ac3  1  0.142200  0.509909  0.791553  1
  Ac  Ac4  1  0.858791  0.490540  0.292321  1
  Ac  Ac5  1  0.509049  0.141391  0.207211  1
  Ac  Ac6  1  0.490284  0.858183  0.708575  1
  Ac  Ac7  1  0.358714  0.009468  0.458472  1
  Dy  Dy8  1  0.360710  0.493114  0.374901  1
  Dy  Dy9  1  0.860593  0.006771  0.375708  1
  Dy  Dy10  1  0.993253  0.138735  0.123736  1
  Er  Er11  1  0.005924  0.861287  0.624717  1
  Er  Er12  1  0.638823  0.506094  0.873785  1
  Er  Er13  1  0.493897  0.361265  0.626382  1
  Er  Er14  1  0.506247  0.638979  0.125087  1
  Er  Er15  1  0.139070  0.994246  0.875732  1
  Er  Er16  1  0.683165  0.682422  0.500444  1
  Er  Er17  1  0.817921  0.182526  0.750140  1
  Er  Er18  1  0.183391  0.816599  0.249876  1
  Er  Er19  1  0.317943  0.317810  0.999478  1
  Si  Si20  1  0.065205  0.715809  0.437525  1
  Si  Si21  1  0.934206  0.285059  0.935848  1
  Si  Si22  1  0.715231  0.065948  0.564083  1
  Si  Si23  1  0.215684  0.434868  0.186316  1
  Si  Si24  1  0.784430  0.565612  0.686840  1
  Si  Si25  1  0.434436  0.215731  0.813360  1
  Si  Si26  1  0.565279  0.784045  0.312659  1
  Si  Si27  1  0.284730  0.933654  0.062796  1
  Si  Si28  1  0.849833  0.798340  0.806369  1
  Si  Si29  1  0.151529  0.201336  0.305524  1
  Si  Si30  1  0.797018  0.847861  0.193636  1
  Si  Si31  1  0.297844  0.650954  0.557305  1
  Si  Si32  1  0.700495  0.349973  0.055035  1
  Si  Si33  1  0.651076  0.298812  0.445497  1
  Si  Si34  1  0.349623  0.701910  0.943353  1
  Si  Si35  1  0.201895  0.150405  0.694009  1
