# generated using pymatgen
data_Nb6Co6Si
_symmetry_space_group_name_H-M   'P 1'
_cell_length_a   9.06178057
_cell_length_b   9.06178049
_cell_length_c   9.06178034
_cell_angle_alpha   31.46982075
_cell_angle_beta   31.46982254
_cell_angle_gamma   31.46982372
_symmetry_Int_Tables_number   1
_chemical_formula_structural   Nb6Co6Si
_chemical_formula_sum   'Nb6 Co6 Si1'
_cell_volume   180.03567102
_cell_formula_units_Z   1
loop_
 _symmetry_equiv_pos_site_id
 _symmetry_equiv_pos_as_xyz
  1  'x, y, z'
loop_
 _atom_site_type_symbol
 _atom_site_label
 _atom_site_symmetry_multiplicity
 _atom_site_fract_x
 _atom_site_fract_y
 _atom_site_fract_z
 _atom_site_occupancy
  Nb  Nb0  1  0.830285  0.830285  0.830285  1
  Nb  Nb1  1  0.169715  0.169715  0.169715  1
  Nb  Nb2  1  0.652582  0.652582  0.652582  1
  Nb  Nb3  1  0.347418  0.347418  0.347418  1
  Nb  Nb4  1  0.550109  0.550109  0.550109  1
  Nb  Nb5  1  0.449891  0.449891  0.449891  1
  Co  Co6  1  0.908692  0.408286  0.908692  1
  Co  Co7  1  0.908692  0.908692  0.408286  1
  Co  Co8  1  0.408286  0.908692  0.908692  1
  Co  Co9  1  0.091308  0.591714  0.091308  1
  Co  Co10  1  0.091308  0.091308  0.591714  1
  Co  Co11  1  0.591714  0.091308  0.091308  1
  Si  Si12  1  0.000000  0.000000  0.000000  1
