# generated using pymatgen
data_VCo2Si2Mo
_symmetry_space_group_name_H-M   'P 1'
_cell_length_a   3.55642500
_cell_length_b   6.04942800
_cell_length_c   6.90159500
_cell_angle_alpha   90.00000000
_cell_angle_beta   90.00000000
_cell_angle_gamma   90.00000000
_symmetry_Int_Tables_number   1
_chemical_formula_structural   VCo2Si2Mo
_chemical_formula_sum   'V2 Co4 Si4 Mo2'
_cell_volume   148.48324049
_cell_formula_units_Z   2
loop_
 _symmetry_equiv_pos_site_id
 _symmetry_equiv_pos_as_xyz
  1  'x, y, z'
loop_
 _atom_site_type_symbol
 _atom_site_label
 _atom_site_symmetry_multiplicity
 _atom_site_fract_x
 _atom_site_fract_y
 _atom_site_fract_z
 _atom_site_occupancy
  V  V0  1  0.750000  0.972666  0.826570  1
  V  V1  1  0.250000  0.527334  0.326570  1
  Co  Co2  1  0.250000  0.645727  0.940771  1
  Co  Co3  1  0.250000  0.142610  0.560474  1
  Co  Co4  1  0.750000  0.854273  0.440771  1
  Co  Co5  1  0.750000  0.357390  0.060474  1
  Si  Si6  1  0.250000  0.774531  0.625578  1
  Si  Si7  1  0.250000  0.269041  0.874978  1
  Si  Si8  1  0.750000  0.230959  0.374978  1
  Si  Si9  1  0.750000  0.725469  0.125578  1
  Mo  Mo10  1  0.750000  0.474827  0.671629  1
  Mo  Mo11  1  0.250000  0.025173  0.171629  1
