# generated using pymatgen
data_Y12Al12Cr7FeO48
_symmetry_space_group_name_H-M   'P 1'
_cell_length_a   10.63923702
_cell_length_b   10.63690612
_cell_length_c   10.63923703
_cell_angle_alpha   109.46677861
_cell_angle_beta   109.47565503
_cell_angle_gamma   109.46678048
_symmetry_Int_Tables_number   1
_chemical_formula_structural   Y12Al12Cr7FeO48
_chemical_formula_sum   'Y12 Al12 Cr7 Fe1 O48'
_cell_volume   926.91143237
_cell_formula_units_Z   1
loop_
 _symmetry_equiv_pos_site_id
 _symmetry_equiv_pos_as_xyz
  1  'x, y, z'
loop_
 _atom_site_type_symbol
 _atom_site_label
 _atom_site_symmetry_multiplicity
 _atom_site_fract_x
 _atom_site_fract_y
 _atom_site_fract_z
 _atom_site_occupancy
  Y  Y0  1  0.249998  0.375012  0.124972  1
  Y  Y1  1  0.375028  0.750040  0.125026  1
  Y  Y2  1  0.374974  0.125015  0.250002  1
  Y  Y3  1  0.874980  0.624685  0.249808  1
  Y  Y4  1  0.125171  0.250294  0.374979  1
  Y  Y5  1  0.749808  0.125123  0.374829  1
  Y  Y6  1  0.874828  0.749707  0.625019  1
  Y  Y7  1  0.250192  0.874877  0.625172  1
  Y  Y8  1  0.625024  0.874984  0.749999  1
  Y  Y9  1  0.125020  0.375316  0.750192  1
  Y  Y10  1  0.624973  0.249960  0.874975  1
  Y  Y11  1  0.750003  0.624986  0.875027  1
  Al  Al12  1  0.874974  0.249949  0.125041  1
  Al  Al13  1  0.749692  0.875008  0.124558  1
  Al  Al14  1  0.625041  0.375092  0.250069  1
  Al  Al15  1  0.125131  0.874684  0.249691  1
  Al  Al16  1  0.249931  0.625024  0.374974  1
  Al  Al17  1  0.624559  0.749552  0.374867  1
  Al  Al18  1  0.375441  0.250448  0.625131  1
  Al  Al19  1  0.750070  0.374974  0.625026  1
  Al  Al20  1  0.874868  0.125315  0.750310  1
  Al  Al21  1  0.374957  0.624907  0.749932  1
  Al  Al22  1  0.250309  0.124991  0.875441  1
  Al  Al23  1  0.125025  0.750052  0.874958  1
  Cr  Cr24  1  0.000000  0.000000  0.000000  1
  Cr  Cr25  1  0.500000  0.000000  0.000000  1
  Cr  Cr26  1  0.000000  0.500000  0.000000  1
  Cr  Cr27  1  0.500001  0.500001  0.000000  1
  Cr  Cr28  1  0.500000  0.500000  0.500000  1
  Cr  Cr29  1  0.500001  0.000000  0.500001  1
  Cr  Cr30  1  0.000000  0.500001  0.500001  1
  Fe  Fe31  1  0.000000  0.000000  0.500000  1
  O  O32  1  0.315637  0.901025  0.023362  1
  O  O33  1  0.207792  0.122494  0.023668  1
  O  O34  1  0.707766  0.684454  0.085448  1
  O  O35  1  0.877645  0.401016  0.085387  1
  O  O36  1  0.622364  0.414608  0.098975  1
  O  O37  1  0.976438  0.684233  0.098714  1
  O  O38  1  0.598713  0.914479  0.122275  1
  O  O39  1  0.023390  0.207757  0.122366  1
  O  O40  1  0.476332  0.598826  0.184124  1
  O  O41  1  0.207726  0.585388  0.184363  1
  O  O42  1  0.585388  0.184371  0.207741  1
  O  O43  1  0.122318  0.023312  0.207767  1
  O  O44  1  0.476638  0.377661  0.292275  1
  O  O45  1  0.315875  0.914700  0.292209  1
  O  O46  1  0.914645  0.292337  0.315664  1
  O  O47  1  0.900690  0.023623  0.314716  1
  O  O48  1  0.585448  0.900995  0.377682  1
  O  O49  1  0.292259  0.476629  0.377645  1
  O  O50  1  0.085974  0.877066  0.400689  1
  O  O51  1  0.815663  0.523327  0.401020  1
  O  O52  1  0.098980  0.622308  0.414644  1
  O  O53  1  0.814716  0.791093  0.414026  1
  O  O54  1  0.598975  0.184366  0.476610  1
  O  O55  1  0.377724  0.292205  0.476438  1
  O  O56  1  0.401025  0.815632  0.523389  1
  O  O57  1  0.622276  0.707796  0.523563  1
  O  O58  1  0.901020  0.377691  0.585354  1
  O  O59  1  0.185284  0.208908  0.585975  1
  O  O60  1  0.914024  0.122933  0.599309  1
  O  O61  1  0.184335  0.476671  0.598980  1
  O  O62  1  0.414550  0.099005  0.622316  1
  O  O63  1  0.707742  0.523372  0.622355  1
  O  O64  1  0.085354  0.707664  0.684335  1
  O  O65  1  0.099311  0.976377  0.685284  1
  O  O66  1  0.684124  0.085299  0.707792  1
  O  O67  1  0.523363  0.622339  0.707725  1
  O  O68  1  0.414613  0.815629  0.792259  1
  O  O69  1  0.877682  0.976689  0.792234  1
  O  O70  1  0.523666  0.401174  0.815874  1
  O  O71  1  0.792275  0.414613  0.815637  1
  O  O72  1  0.401286  0.085519  0.877724  1
  O  O73  1  0.976611  0.792244  0.877634  1
  O  O74  1  0.377634  0.585390  0.901025  1
  O  O75  1  0.023562  0.315767  0.901287  1
  O  O76  1  0.292235  0.315544  0.914551  1
  O  O77  1  0.122354  0.598982  0.914611  1
  O  O78  1  0.684363  0.098976  0.976638  1
  O  O79  1  0.792208  0.877506  0.976333  1
