# generated using pymatgen
data_LiHo8InNiIr
_symmetry_space_group_name_H-M   'P 1'
_cell_length_a   9.50649697
_cell_length_b   9.56678958
_cell_length_c   9.54577069
_cell_angle_alpha   60.48711369
_cell_angle_beta   60.05173211
_cell_angle_gamma   59.90233595
_symmetry_Int_Tables_number   1
_chemical_formula_structural   LiHo8InNiIr
_chemical_formula_sum   'Li2 Ho16 In2 Ni2 Ir2'
_cell_volume   615.88927548
_cell_formula_units_Z   2
loop_
 _symmetry_equiv_pos_site_id
 _symmetry_equiv_pos_as_xyz
  1  'x, y, z'
loop_
 _atom_site_type_symbol
 _atom_site_label
 _atom_site_symmetry_multiplicity
 _atom_site_fract_x
 _atom_site_fract_y
 _atom_site_fract_z
 _atom_site_occupancy
  Li  Li0  1  0.428448  0.427810  0.426063  1
  Li  Li1  1  0.427347  0.426170  0.721670  1
  Ho  Ho2  1  0.442797  0.436292  0.058056  1
  Ho  Ho3  1  0.648672  0.653800  0.049198  1
  Ho  Ho4  1  0.191089  0.808355  0.187902  1
  Ho  Ho5  1  0.063438  0.436113  0.061298  1
  Ho  Ho6  1  0.187670  0.810274  0.808608  1
  Ho  Ho7  1  0.064067  0.439718  0.437051  1
  Ho  Ho8  1  0.811638  0.187210  0.190863  1
  Ho  Ho9  1  0.648096  0.654686  0.650776  1
  Ho  Ho10  1  0.814593  0.186071  0.806498  1
  Ho  Ho11  1  0.186405  0.179604  0.819371  1
  Ho  Ho12  1  0.040281  0.654616  0.655395  1
  Ho  Ho13  1  0.438014  0.064382  0.063623  1
  Ho  Ho14  1  0.061109  0.062274  0.435793  1
  Ho  Ho15  1  0.648612  0.044032  0.654522  1
  Ho  Ho16  1  0.809410  0.806582  0.190328  1
  Ho  Ho17  1  0.438716  0.064808  0.434330  1
  In  In18  1  0.414928  0.744845  0.420593  1
  In  In19  1  0.744916  0.415095  0.420372  1
  Ni  Ni20  1  0.425533  0.857058  0.858578  1
  Ni  Ni21  1  0.853194  0.859180  0.859704  1
  Ir  Ir22  1  0.852706  0.425272  0.863135  1
  Ir  Ir23  1  0.858326  0.855752  0.426274  1
