# generated using pymatgen
data_Mg6B6Ir10Ru
_symmetry_space_group_name_H-M   'P 1'
_cell_length_a   2.94819100
_cell_length_b   8.71072500
_cell_length_c   11.58850100
_cell_angle_alpha   90.00000000
_cell_angle_beta   90.00000000
_cell_angle_gamma   90.00000000
_symmetry_Int_Tables_number   1
_chemical_formula_structural   Mg6B6Ir10Ru
_chemical_formula_sum   'Mg6 B6 Ir10 Ru1'
_cell_volume   297.60291571
_cell_formula_units_Z   1
loop_
 _symmetry_equiv_pos_site_id
 _symmetry_equiv_pos_as_xyz
  1  'x, y, z'
loop_
 _atom_site_type_symbol
 _atom_site_label
 _atom_site_symmetry_multiplicity
 _atom_site_fract_x
 _atom_site_fract_y
 _atom_site_fract_z
 _atom_site_occupancy
  Mg  Mg0  1  0.500000  0.000000  0.500000  1
  Mg  Mg1  1  0.500000  0.500000  0.000000  1
  Mg  Mg2  1  0.500000  0.655229  0.500000  1
  Mg  Mg3  1  0.500000  0.344771  0.500000  1
  Mg  Mg4  1  0.500000  0.000000  0.199766  1
  Mg  Mg5  1  0.500000  0.000000  0.800234  1
  B  B6  1  0.500000  0.814965  0.000000  1
  B  B7  1  0.500000  0.185035  0.000000  1
  B  B8  1  0.500000  0.685783  0.268384  1
  B  B9  1  0.500000  0.314217  0.268384  1
  B  B10  1  0.500000  0.314217  0.731616  1
  B  B11  1  0.500000  0.685783  0.731616  1
  Ir  Ir12  1  0.000000  0.500000  0.309759  1
  Ir  Ir13  1  0.000000  0.500000  0.690241  1
  Ir  Ir14  1  0.000000  0.719367  0.122289  1
  Ir  Ir15  1  0.000000  0.280633  0.122289  1
  Ir  Ir16  1  0.000000  0.280633  0.877711  1
  Ir  Ir17  1  0.000000  0.719367  0.877711  1
  Ir  Ir18  1  0.000000  0.824852  0.351851  1
  Ir  Ir19  1  0.000000  0.175148  0.351851  1
  Ir  Ir20  1  0.000000  0.175148  0.648149  1
  Ir  Ir21  1  0.000000  0.824852  0.648149  1
  Ru  Ru22  1  0.000000  0.000000  0.000000  1
