# generated using pymatgen
data_PrEr19(CoBi5)2
_symmetry_space_group_name_H-M   'P 1'
_cell_length_a   8.03969384
_cell_length_b   9.37453300
_cell_length_c   12.08776917
_cell_angle_alpha   90.00000000
_cell_angle_beta   90.18782823
_cell_angle_gamma   90.00000000
_symmetry_Int_Tables_number   1
_chemical_formula_structural   PrEr19(CoBi5)2
_chemical_formula_sum   'Pr1 Er19 Co2 Bi10'
_cell_volume   911.03062758
_cell_formula_units_Z   1
loop_
 _symmetry_equiv_pos_site_id
 _symmetry_equiv_pos_as_xyz
  1  'x, y, z'
loop_
 _atom_site_type_symbol
 _atom_site_label
 _atom_site_symmetry_multiplicity
 _atom_site_fract_x
 _atom_site_fract_y
 _atom_site_fract_z
 _atom_site_occupancy
  Pr  Pr0  1  0.575061  0.500000  0.773101  1
  Er  Er1  1  0.430208  0.176108  0.562928  1
  Er  Er2  1  0.570125  0.823292  0.062843  1
  Er  Er3  1  0.071547  0.730800  0.436096  1
  Er  Er4  1  0.927542  0.269528  0.936549  1
  Er  Er5  1  0.071547  0.269200  0.436096  1
  Er  Er6  1  0.927542  0.730472  0.936549  1
  Er  Er7  1  0.430208  0.823892  0.562928  1
  Er  Er8  1  0.570125  0.176708  0.062843  1
  Er  Er9  1  0.427604  0.500000  0.272182  1
  Er  Er10  1  0.906537  0.000000  0.200514  1
  Er  Er11  1  0.093251  0.000000  0.699383  1
  Er  Er12  1  0.258486  0.500000  0.993559  1
  Er  Er13  1  0.742392  0.500000  0.493306  1
  Er  Er14  1  0.196124  0.000000  0.997578  1
  Er  Er15  1  0.801426  0.000000  0.494900  1
  Er  Er16  1  0.088479  0.500000  0.717857  1
  Er  Er17  1  0.911460  0.500000  0.220709  1
  Er  Er18  1  0.370903  0.000000  0.308763  1
  Er  Er19  1  0.630318  0.000000  0.808831  1
  Co  Co20  1  0.174799  0.000000  0.487864  1
  Co  Co21  1  0.825015  0.000000  0.989447  1
  Bi  Bi22  1  0.819234  0.745688  0.669329  1
  Bi  Bi23  1  0.186311  0.258949  0.172169  1
  Bi  Bi24  1  0.679517  0.241684  0.325334  1
  Bi  Bi25  1  0.315081  0.761527  0.826262  1
  Bi  Bi26  1  0.679517  0.758316  0.325334  1
  Bi  Bi27  1  0.315081  0.238473  0.826262  1
  Bi  Bi28  1  0.819234  0.254312  0.669329  1
  Bi  Bi29  1  0.186311  0.741051  0.172169  1
  Bi  Bi30  1  0.344996  0.500000  0.525403  1
  Bi  Bi31  1  0.654018  0.500000  0.033589  1
