# generated using pymatgen
data_Yb3GdAs3
_symmetry_space_group_name_H-M   'P 1'
_cell_length_a   8.86755400
_cell_length_b   8.86755400
_cell_length_c   8.86755400
_cell_angle_alpha   90.00000000
_cell_angle_beta   90.00000000
_cell_angle_gamma   90.00000000
_symmetry_Int_Tables_number   1
_chemical_formula_structural   Yb3GdAs3
_chemical_formula_sum   'Yb12 Gd4 As12'
_cell_volume   697.28693110
_cell_formula_units_Z   4
loop_
 _symmetry_equiv_pos_site_id
 _symmetry_equiv_pos_as_xyz
  1  'x, y, z'
loop_
 _atom_site_type_symbol
 _atom_site_label
 _atom_site_symmetry_multiplicity
 _atom_site_fract_x
 _atom_site_fract_y
 _atom_site_fract_z
 _atom_site_occupancy
  Yb  Yb0  1  0.569454  0.430546  0.930546  1
  Yb  Yb1  1  0.182520  0.317480  0.682520  1
  Yb  Yb2  1  0.927850  0.427850  0.072150  1
  Yb  Yb3  1  0.069454  0.069454  0.069454  1
  Yb  Yb4  1  0.427850  0.072150  0.927850  1
  Yb  Yb5  1  0.072150  0.927850  0.427850  1
  Yb  Yb6  1  0.682520  0.182520  0.317480  1
  Yb  Yb7  1  0.430546  0.930546  0.569454  1
  Yb  Yb8  1  0.572150  0.572150  0.572150  1
  Yb  Yb9  1  0.930546  0.569454  0.430546  1
  Yb  Yb10  1  0.317480  0.682520  0.182520  1
  Yb  Yb11  1  0.817480  0.817480  0.817480  1
  Gd  Gd12  1  0.816951  0.183049  0.683049  1
  Gd  Gd13  1  0.316951  0.316951  0.316951  1
  Gd  Gd14  1  0.683049  0.816951  0.183049  1
  Gd  Gd15  1  0.183049  0.683049  0.816951  1
  As  As16  1  0.878481  0.496211  0.749857  1
  As  As17  1  0.250143  0.378481  0.003789  1
  As  As18  1  0.003789  0.250143  0.378481  1
  As  As19  1  0.750143  0.121519  0.996211  1
  As  As20  1  0.378481  0.003789  0.250143  1
  As  As21  1  0.121519  0.996211  0.750143  1
  As  As22  1  0.503789  0.249857  0.621519  1
  As  As23  1  0.749857  0.878481  0.496211  1
  As  As24  1  0.496211  0.749857  0.878481  1
  As  As25  1  0.249857  0.621519  0.503789  1
  As  As26  1  0.621519  0.503789  0.249857  1
  As  As27  1  0.996211  0.750143  0.121519  1
