# generated using pymatgen
data_U4Ni3IrS12
_symmetry_space_group_name_H-M   'P 1'
_cell_length_a   5.95952502
_cell_length_b   7.06980954
_cell_length_c   8.34162052
_cell_angle_alpha   90.15239099
_cell_angle_beta   89.76759729
_cell_angle_gamma   90.11076204
_symmetry_Int_Tables_number   1
_chemical_formula_structural   U4Ni3IrS12
_chemical_formula_sum   'U4 Ni3 Ir1 S12'
_cell_volume   351.45026788
_cell_formula_units_Z   1
loop_
 _symmetry_equiv_pos_site_id
 _symmetry_equiv_pos_as_xyz
  1  'x, y, z'
loop_
 _atom_site_type_symbol
 _atom_site_label
 _atom_site_symmetry_multiplicity
 _atom_site_fract_x
 _atom_site_fract_y
 _atom_site_fract_z
 _atom_site_occupancy
  U  U0  1  0.436471  0.867412  0.250065  1
  U  U1  1  0.063673  0.367362  0.249977  1
  U  U2  1  0.563529  0.132588  0.749935  1
  U  U3  1  0.936327  0.632638  0.750023  1
  Ni  Ni4  1  0.000000  0.000000  0.500000  1
  Ni  Ni5  1  0.500000  0.500000  0.500000  1
  Ni  Ni6  1  0.000000  0.000000  0.000000  1
  Ir  Ir7  1  0.500000  0.500000  0.000000  1
  S  S8  1  0.171498  0.666798  0.052455  1
  S  S9  1  0.327997  0.166565  0.447620  1
  S  S10  1  0.828141  0.333326  0.552506  1
  S  S11  1  0.671788  0.833107  0.947641  1
  S  S12  1  0.828502  0.333202  0.947545  1
  S  S13  1  0.672003  0.833435  0.552380  1
  S  S14  1  0.171859  0.666674  0.447494  1
  S  S15  1  0.328212  0.166893  0.052359  1
  S  S16  1  0.852621  0.037534  0.250050  1
  S  S17  1  0.647906  0.537651  0.250267  1
  S  S18  1  0.147379  0.962466  0.749950  1
  S  S19  1  0.352094  0.462349  0.749733  1
