# generated using pymatgen
data_Li3Eu2Tl
_symmetry_space_group_name_H-M   'P 1'
_cell_length_a   6.07628200
_cell_length_b   6.07628014
_cell_length_c   9.89067600
_cell_angle_alpha   90.00000000
_cell_angle_beta   90.00000000
_cell_angle_gamma   119.99999925
_symmetry_Int_Tables_number   1
_chemical_formula_structural   Li3Eu2Tl
_chemical_formula_sum   'Li6 Eu4 Tl2'
_cell_volume   316.25130030
_cell_formula_units_Z   2
loop_
 _symmetry_equiv_pos_site_id
 _symmetry_equiv_pos_as_xyz
  1  'x, y, z'
loop_
 _atom_site_type_symbol
 _atom_site_label
 _atom_site_symmetry_multiplicity
 _atom_site_fract_x
 _atom_site_fract_y
 _atom_site_fract_z
 _atom_site_occupancy
  Li  Li0  1  0.162080  0.324160  0.750000  1
  Li  Li1  1  0.162080  0.837920  0.750000  1
  Li  Li2  1  0.324160  0.162080  0.250000  1
  Li  Li3  1  0.837920  0.675840  0.250000  1
  Li  Li4  1  0.675840  0.837920  0.750000  1
  Li  Li5  1  0.837920  0.162080  0.250000  1
  Eu  Eu6  1  0.333333  0.666667  0.442432  1
  Eu  Eu7  1  0.666667  0.333333  0.557568  1
  Eu  Eu8  1  0.666667  0.333333  0.942432  1
  Eu  Eu9  1  0.333333  0.666667  0.057568  1
  Tl  Tl10  1  0.000000  0.000000  0.000000  1
  Tl  Tl11  1  0.000000  0.000000  0.500000  1
