# generated using pymatgen
data_Ho4Hf3AlPt4
_symmetry_space_group_name_H-M   'P 1'
_cell_length_a   4.56652000
_cell_length_b   7.06998738
_cell_length_c   8.14067515
_cell_angle_alpha   87.05967846
_cell_angle_beta   90.00000000
_cell_angle_gamma   90.00000000
_symmetry_Int_Tables_number   1
_chemical_formula_structural   Ho4Hf3AlPt4
_chemical_formula_sum   'Ho4 Hf3 Al1 Pt4'
_cell_volume   262.47763482
_cell_formula_units_Z   1
loop_
 _symmetry_equiv_pos_site_id
 _symmetry_equiv_pos_as_xyz
  1  'x, y, z'
loop_
 _atom_site_type_symbol
 _atom_site_label
 _atom_site_symmetry_multiplicity
 _atom_site_fract_x
 _atom_site_fract_y
 _atom_site_fract_z
 _atom_site_occupancy
  Ho  Ho0  1  0.250000  0.472096  0.186863  1
  Ho  Ho1  1  0.750000  0.517266  0.815173  1
  Ho  Ho2  1  0.750000  0.039337  0.671037  1
  Ho  Ho3  1  0.250000  0.988241  0.337450  1
  Hf  Hf4  1  0.250000  0.855457  0.923596  1
  Hf  Hf5  1  0.750000  0.137975  0.070672  1
  Hf  Hf6  1  0.750000  0.640767  0.435568  1
  Al  Al7  1  0.250000  0.358369  0.572217  1
  Pt  Pt8  1  0.250000  0.726071  0.610040  1
  Pt  Pt9  1  0.750000  0.269951  0.381313  1
  Pt  Pt10  1  0.750000  0.764539  0.102304  1
  Pt  Pt11  1  0.250000  0.229932  0.893766  1
