# generated using pymatgen
data_Dy15Ho5(Ir2Ru)4
_symmetry_space_group_name_H-M   'P 1'
_cell_length_a   10.81652017
_cell_length_b   10.81630115
_cell_length_c   6.42608001
_cell_angle_alpha   89.99755542
_cell_angle_beta   90.00697147
_cell_angle_gamma   89.98109997
_symmetry_Int_Tables_number   1
_chemical_formula_structural   Dy15Ho5(Ir2Ru)4
_chemical_formula_sum   'Dy15 Ho5 Ir8 Ru4'
_cell_volume   751.81751013
_cell_formula_units_Z   1
loop_
 _symmetry_equiv_pos_site_id
 _symmetry_equiv_pos_as_xyz
  1  'x, y, z'
loop_
 _atom_site_type_symbol
 _atom_site_label
 _atom_site_symmetry_multiplicity
 _atom_site_fract_x
 _atom_site_fract_y
 _atom_site_fract_z
 _atom_site_occupancy
  Dy  Dy0  1  0.293140  0.086710  0.377588  1
  Dy  Dy1  1  0.293216  0.913433  0.877705  1
  Dy  Dy2  1  0.706809  0.086572  0.877727  1
  Dy  Dy3  1  0.706849  0.913340  0.377593  1
  Dy  Dy4  1  0.586670  0.793192  0.877644  1
  Dy  Dy5  1  0.586604  0.206784  0.377713  1
  Dy  Dy6  1  0.413417  0.793224  0.377727  1
  Dy  Dy7  1  0.413317  0.206812  0.877736  1
  Dy  Dy8  1  0.206749  0.413256  0.622305  1
  Dy  Dy9  1  0.206728  0.586500  0.122323  1
  Dy  Dy10  1  0.793314  0.413331  0.122297  1
  Dy  Dy11  1  0.793151  0.586706  0.622383  1
  Dy  Dy12  1  0.913302  0.706833  0.122433  1
  Dy  Dy13  1  0.913462  0.293174  0.622313  1
  Dy  Dy14  1  0.086592  0.706835  0.622276  1
  Ho  Ho15  1  0.086649  0.293260  0.122169  1
  Ho  Ho16  1  0.000014  0.000026  0.499896  1
  Ho  Ho17  1  0.000031  0.000097  0.999984  1
  Ho  Ho18  1  0.499999  0.499978  0.999986  1
  Ho  Ho19  1  0.499993  0.500013  0.499939  1
  Ir  Ir20  1  0.848095  0.152180  0.249939  1
  Ir  Ir21  1  0.847947  0.847869  0.750024  1
  Ir  Ir22  1  0.152016  0.152272  0.750351  1
  Ir  Ir23  1  0.152047  0.847929  0.250002  1
  Ir  Ir24  1  0.652073  0.347958  0.750020  1
  Ir  Ir25  1  0.652077  0.652076  0.250022  1
  Ir  Ir26  1  0.347696  0.347884  0.249924  1
  Ir  Ir27  1  0.347915  0.652009  0.750049  1
  Ru  Ru28  1  0.499974  0.999969  0.121585  1
  Ru  Ru29  1  0.500005  0.000012  0.621570  1
  Ru  Ru30  1  0.000075  0.499860  0.878566  1
  Ru  Ru31  1  0.000075  0.499904  0.378211  1
