# generated using pymatgen
data_Er3Sc5Ga3Os
_symmetry_space_group_name_H-M   'P 1'
_cell_length_a   9.53625700
_cell_length_b   9.53625741
_cell_length_c   6.82170900
_cell_angle_alpha   90.00000000
_cell_angle_beta   90.00000000
_cell_angle_gamma   120.00000206
_symmetry_Int_Tables_number   1
_chemical_formula_structural   Er3Sc5Ga3Os
_chemical_formula_sum   'Er6 Sc10 Ga6 Os2'
_cell_volume   537.25408208
_cell_formula_units_Z   2
loop_
 _symmetry_equiv_pos_site_id
 _symmetry_equiv_pos_as_xyz
  1  'x, y, z'
loop_
 _atom_site_type_symbol
 _atom_site_label
 _atom_site_symmetry_multiplicity
 _atom_site_fract_x
 _atom_site_fract_y
 _atom_site_fract_z
 _atom_site_occupancy
  Er  Er0  1  0.469638  0.530362  0.292999  1
  Er  Er1  1  0.530362  0.469638  0.792999  1
  Er  Er2  1  0.469638  0.939276  0.292999  1
  Er  Er3  1  0.060724  0.530362  0.292999  1
  Er  Er4  1  0.939276  0.469638  0.792999  1
  Er  Er5  1  0.530362  0.060724  0.792999  1
  Sc  Sc6  1  0.000000  0.000000  0.266477  1
  Sc  Sc7  1  0.000000  0.000000  0.766477  1
  Sc  Sc8  1  0.169723  0.830277  0.990744  1
  Sc  Sc9  1  0.830277  0.169723  0.490744  1
  Sc  Sc10  1  0.169723  0.339447  0.990744  1
  Sc  Sc11  1  0.660553  0.830277  0.990744  1
  Sc  Sc12  1  0.339447  0.169723  0.490744  1
  Sc  Sc13  1  0.830277  0.660553  0.490744  1
  Sc  Sc14  1  0.333333  0.666667  0.660677  1
  Sc  Sc15  1  0.666667  0.333333  0.160677  1
  Ga  Ga16  1  0.162580  0.837420  0.550944  1
  Ga  Ga17  1  0.837420  0.162580  0.050944  1
  Ga  Ga18  1  0.162580  0.325159  0.550944  1
  Ga  Ga19  1  0.674841  0.837420  0.550944  1
  Ga  Ga20  1  0.325159  0.162580  0.050944  1
  Ga  Ga21  1  0.837420  0.674841  0.050944  1
  Os  Os22  1  0.333333  0.666667  0.041848  1
  Os  Os23  1  0.666667  0.333333  0.541848  1
