# generated using pymatgen
data_Li2Yb2PrMgPt3
_symmetry_space_group_name_H-M   'P 1'
_cell_length_a   7.23658930
_cell_length_b   7.26575895
_cell_length_c   4.18955400
_cell_angle_alpha   90.00000000
_cell_angle_beta   90.00000000
_cell_angle_gamma   120.16948946
_symmetry_Int_Tables_number   1
_chemical_formula_structural   Li2Yb2PrMgPt3
_chemical_formula_sum   'Li2 Yb2 Pr1 Mg1 Pt3'
_cell_volume   190.44477974
_cell_formula_units_Z   1
loop_
 _symmetry_equiv_pos_site_id
 _symmetry_equiv_pos_as_xyz
  1  'x, y, z'
loop_
 _atom_site_type_symbol
 _atom_site_label
 _atom_site_symmetry_multiplicity
 _atom_site_fract_x
 _atom_site_fract_y
 _atom_site_fract_z
 _atom_site_occupancy
  Li  Li0  1  0.999057  0.232973  0.500000  1
  Li  Li1  1  0.759677  0.764006  0.500000  1
  Yb  Yb2  1  0.413098  0.417476  0.000000  1
  Yb  Yb3  1  0.595216  0.999372  0.000000  1
  Pr  Pr4  1  0.995504  0.580960  0.000000  1
  Mg  Mg5  1  0.241771  0.004750  0.500000  1
  Pt  Pt6  1  0.004469  0.999121  0.000000  1
  Pt  Pt7  1  0.659255  0.329008  0.500000  1
  Pt  Pt8  1  0.331955  0.672334  0.500000  1
