# generated using pymatgen
data_Hf3Zr7Sn2Sb5
_symmetry_space_group_name_H-M   'P 1'
_cell_length_a   5.88682455
_cell_length_b   8.65607963
_cell_length_c   8.64613202
_cell_angle_alpha   120.03228089
_cell_angle_beta   89.93215288
_cell_angle_gamma   90.16246479
_symmetry_Int_Tables_number   1
_chemical_formula_structural   Hf3Zr7Sn2Sb5
_chemical_formula_sum   'Hf3 Zr7 Sn2 Sb5'
_cell_volume   381.42724088
_cell_formula_units_Z   1
loop_
 _symmetry_equiv_pos_site_id
 _symmetry_equiv_pos_as_xyz
  1  'x, y, z'
loop_
 _atom_site_type_symbol
 _atom_site_label
 _atom_site_symmetry_multiplicity
 _atom_site_fract_x
 _atom_site_fract_y
 _atom_site_fract_z
 _atom_site_occupancy
  Hf  Hf0  1  0.499571  0.333571  0.667713  1
  Hf  Hf1  1  0.499712  0.665750  0.332149  1
  Hf  Hf2  1  0.001742  0.666206  0.332695  1
  Zr  Zr3  1  0.001416  0.333525  0.667459  1
  Zr  Zr4  1  0.770999  0.269250  0.000392  1
  Zr  Zr5  1  0.773229  0.733074  0.732255  1
  Zr  Zr6  1  0.773280  0.000106  0.267387  1
  Zr  Zr7  1  0.226757  0.729553  0.000280  1
  Zr  Zr8  1  0.226682  0.268659  0.268475  1
  Zr  Zr9  1  0.226676  0.999622  0.731203  1
  Sn  Sn10  1  0.257859  0.614200  0.613801  1
  Sn  Sn11  1  0.257881  0.999761  0.385864  1
  Sb  Sb12  1  0.743498  0.613696  0.000304  1
  Sb  Sb13  1  0.744011  0.388498  0.388805  1
  Sb  Sb14  1  0.743964  0.999097  0.610904  1
  Sb  Sb15  1  0.255187  0.386093  0.000322  1
  Sb  Sb16  1  0.497534  0.999341  0.999993  1
