# generated using pymatgen
data_Sm2Hf3Zr(SnRh)6
_symmetry_space_group_name_H-M   'P 1'
_cell_length_a   7.48441137
_cell_length_b   7.48072475
_cell_length_c   7.47937700
_cell_angle_alpha   90.00000000
_cell_angle_beta   90.00000000
_cell_angle_gamma   119.92592909
_symmetry_Int_Tables_number   1
_chemical_formula_structural   Sm2Hf3Zr(SnRh)6
_chemical_formula_sum   'Sm2 Hf3 Zr1 Sn6 Rh6'
_cell_volume   362.92847977
_cell_formula_units_Z   1
loop_
 _symmetry_equiv_pos_site_id
 _symmetry_equiv_pos_as_xyz
  1  'x, y, z'
loop_
 _atom_site_type_symbol
 _atom_site_label
 _atom_site_symmetry_multiplicity
 _atom_site_fract_x
 _atom_site_fract_y
 _atom_site_fract_z
 _atom_site_occupancy
  Sm  Sm0  1  0.002697  0.408393  0.250000  1
  Sm  Sm1  1  0.594913  0.591209  0.250000  1
  Hf  Hf2  1  0.994194  0.388432  0.750000  1
  Hf  Hf3  1  0.605139  0.612519  0.750000  1
  Hf  Hf4  1  0.395881  0.999480  0.750000  1
  Zr  Zr5  1  0.400591  0.996772  0.250000  1
  Sn  Sn6  1  0.267881  0.265317  0.511372  1
  Sn  Sn7  1  0.000389  0.734196  0.512037  1
  Sn  Sn8  1  0.000389  0.734196  0.987963  1
  Sn  Sn9  1  0.731572  0.000682  0.495101  1
  Sn  Sn10  1  0.731572  0.000682  0.004899  1
  Sn  Sn11  1  0.267881  0.265317  0.988628  1
  Rh  Rh12  1  0.334828  0.672605  0.538347  1
  Rh  Rh13  1  0.663595  0.328552  0.539829  1
  Rh  Rh14  1  0.334828  0.672605  0.961653  1
  Rh  Rh15  1  0.992685  0.000760  0.750000  1
  Rh  Rh16  1  0.017374  0.999728  0.250000  1
  Rh  Rh17  1  0.663595  0.328552  0.960171  1
