# generated using pymatgen
data_Nd3InSnPt3Pb
_symmetry_space_group_name_H-M   'P 1'
_cell_length_a   7.69887600
_cell_length_b   7.69935120
_cell_length_c   4.14639800
_cell_angle_alpha   90.00000000
_cell_angle_beta   90.00000000
_cell_angle_gamma   119.48249889
_symmetry_Int_Tables_number   1
_chemical_formula_structural   Nd3InSnPt3Pb
_chemical_formula_sum   'Nd3 In1 Sn1 Pt3 Pb1'
_cell_volume   213.95588832
_cell_formula_units_Z   1
loop_
 _symmetry_equiv_pos_site_id
 _symmetry_equiv_pos_as_xyz
  1  'x, y, z'
loop_
 _atom_site_type_symbol
 _atom_site_label
 _atom_site_symmetry_multiplicity
 _atom_site_fract_x
 _atom_site_fract_y
 _atom_site_fract_z
 _atom_site_occupancy
  Nd  Nd0  1  0.592834  0.591415  0.000000  1
  Nd  Nd1  1  0.408194  0.996008  0.000000  1
  Nd  Nd2  1  0.997849  0.411716  0.000000  1
  In  In3  1  0.999319  0.745515  0.500000  1
  Sn  Sn4  1  0.745202  0.996847  0.500000  1
  Pt  Pt5  1  0.987119  0.992843  0.000000  1
  Pt  Pt6  1  0.335956  0.676689  0.500000  1
  Pt  Pt7  1  0.677412  0.335069  0.500000  1
  Pb  Pb8  1  0.256115  0.253898  0.500000  1
