# generated using pymatgen
data_YTh3(ZnGe)4
_symmetry_space_group_name_H-M   'P 1'
_cell_length_a   4.21562800
_cell_length_b   4.21562805
_cell_length_c   16.80136200
_cell_angle_alpha   90.00000000
_cell_angle_beta   90.00000000
_cell_angle_gamma   119.99999960
_symmetry_Int_Tables_number   1
_chemical_formula_structural   YTh3(ZnGe)4
_chemical_formula_sum   'Y1 Th3 Zn4 Ge4'
_cell_volume   258.58283271
_cell_formula_units_Z   1
loop_
 _symmetry_equiv_pos_site_id
 _symmetry_equiv_pos_as_xyz
  1  'x, y, z'
loop_
 _atom_site_type_symbol
 _atom_site_label
 _atom_site_symmetry_multiplicity
 _atom_site_fract_x
 _atom_site_fract_y
 _atom_site_fract_z
 _atom_site_occupancy
  Y  Y0  1  0.000000  0.000000  0.250000  1
  Th  Th1  1  0.000000  0.000000  0.750000  1
  Th  Th2  1  0.000000  0.000000  0.496502  1
  Th  Th3  1  0.000000  0.000000  0.003498  1
  Zn  Zn4  1  0.666667  0.333333  0.871470  1
  Zn  Zn5  1  0.666667  0.333333  0.628530  1
  Zn  Zn6  1  0.333333  0.666667  0.142854  1
  Zn  Zn7  1  0.333333  0.666667  0.357146  1
  Ge  Ge8  1  0.666667  0.333333  0.122500  1
  Ge  Ge9  1  0.666667  0.333333  0.377500  1
  Ge  Ge10  1  0.333333  0.666667  0.880363  1
  Ge  Ge11  1  0.333333  0.666667  0.619637  1
