# generated using pymatgen
data_Y5Ho7Tc4
_symmetry_space_group_name_H-M   'P 1'
_cell_length_a   6.25463667
_cell_length_b   7.44805526
_cell_length_c   9.13070268
_cell_angle_alpha   90.01727383
_cell_angle_beta   89.92135581
_cell_angle_gamma   90.04999518
_symmetry_Int_Tables_number   1
_chemical_formula_structural   Y5Ho7Tc4
_chemical_formula_sum   'Y5 Ho7 Tc4'
_cell_volume   425.35210248
_cell_formula_units_Z   1
loop_
 _symmetry_equiv_pos_site_id
 _symmetry_equiv_pos_as_xyz
  1  'x, y, z'
loop_
 _atom_site_type_symbol
 _atom_site_label
 _atom_site_symmetry_multiplicity
 _atom_site_fract_x
 _atom_site_fract_y
 _atom_site_fract_z
 _atom_site_occupancy
  Y  Y0  1  0.626082  0.040287  0.249314  1
  Y  Y1  1  0.373449  0.959163  0.750227  1
  Y  Y2  1  0.126918  0.459707  0.750559  1
  Y  Y3  1  0.873373  0.540354  0.249274  1
  Y  Y4  1  0.658675  0.325042  0.562295  1
  Ho  Ho5  1  0.158366  0.174203  0.062473  1
  Ho  Ho6  1  0.841554  0.825286  0.937443  1
  Ho  Ho7  1  0.658970  0.325592  0.937566  1
  Ho  Ho8  1  0.841022  0.825943  0.562538  1
  Ho  Ho9  1  0.341277  0.674885  0.062435  1
  Ho  Ho10  1  0.159091  0.173892  0.437173  1
  Ho  Ho11  1  0.340437  0.674938  0.437095  1
  Tc  Tc12  1  0.451281  0.385745  0.249052  1
  Tc  Tc13  1  0.547316  0.615605  0.751312  1
  Tc  Tc14  1  0.954584  0.113848  0.751032  1
  Tc  Tc15  1  0.047606  0.885511  0.250214  1
