# generated using pymatgen
data_Ho3Er9(Si2Ni)4
_symmetry_space_group_name_H-M   'P 1'
_cell_length_a   4.10456500
_cell_length_b   11.15071702
_cell_length_c   11.18131502
_cell_angle_alpha   90.00687589
_cell_angle_beta   90.00000000
_cell_angle_gamma   90.00000000
_symmetry_Int_Tables_number   1
_chemical_formula_structural   Ho3Er9(Si2Ni)4
_chemical_formula_sum   'Ho3 Er9 Si8 Ni4'
_cell_volume   511.75584583
_cell_formula_units_Z   1
loop_
 _symmetry_equiv_pos_site_id
 _symmetry_equiv_pos_as_xyz
  1  'x, y, z'
loop_
 _atom_site_type_symbol
 _atom_site_label
 _atom_site_symmetry_multiplicity
 _atom_site_fract_x
 _atom_site_fract_y
 _atom_site_fract_z
 _atom_site_occupancy
  Ho  Ho0  1  0.250000  0.374891  0.057069  1
  Ho  Ho1  1  0.750000  0.625151  0.942839  1
  Ho  Ho2  1  0.750000  0.875181  0.443086  1
  Er  Er3  1  0.250000  0.125358  0.557502  1
  Er  Er4  1  0.250000  0.695794  0.215333  1
  Er  Er5  1  0.750000  0.303898  0.784600  1
  Er  Er6  1  0.750000  0.195769  0.284910  1
  Er  Er7  1  0.250000  0.804261  0.715169  1
  Er  Er8  1  0.250000  0.440527  0.382241  1
  Er  Er9  1  0.750000  0.559250  0.617661  1
  Er  Er10  1  0.750000  0.940637  0.117969  1
  Er  Er11  1  0.250000  0.059534  0.881909  1
  Si  Si12  1  0.250000  0.686040  0.476330  1
  Si  Si13  1  0.750000  0.313489  0.523646  1
  Si  Si14  1  0.750000  0.185880  0.023685  1
  Si  Si15  1  0.250000  0.814091  0.976374  1
  Si  Si16  1  0.250000  0.004244  0.303686  1
  Si  Si17  1  0.750000  0.996439  0.696142  1
  Si  Si18  1  0.750000  0.503999  0.196636  1
  Si  Si19  1  0.250000  0.495845  0.803323  1
  Ni  Ni20  1  0.250000  0.133595  0.129164  1
  Ni  Ni21  1  0.750000  0.866722  0.870612  1
  Ni  Ni22  1  0.750000  0.633548  0.370819  1
  Ni  Ni23  1  0.250000  0.365859  0.629295  1
