# generated using pymatgen
data_CaYZr(Si3Pd10)2
_symmetry_space_group_name_H-M   'P 1'
_cell_length_a   8.69155575
_cell_length_b   8.69155617
_cell_length_c   8.69155600
_cell_angle_alpha   60.00000065
_cell_angle_beta   59.99999903
_cell_angle_gamma   60.00000097
_symmetry_Int_Tables_number   1
_chemical_formula_structural   CaYZr(Si3Pd10)2
_chemical_formula_sum   'Ca1 Y1 Zr1 Si6 Pd20'
_cell_volume   464.27745820
_cell_formula_units_Z   1
loop_
 _symmetry_equiv_pos_site_id
 _symmetry_equiv_pos_as_xyz
  1  'x, y, z'
loop_
 _atom_site_type_symbol
 _atom_site_label
 _atom_site_symmetry_multiplicity
 _atom_site_fract_x
 _atom_site_fract_y
 _atom_site_fract_z
 _atom_site_occupancy
  Ca  Ca0  1  0.250000  0.250000  0.250000  1
  Y  Y1  1  0.750000  0.750000  0.750000  1
  Zr  Zr2  1  0.000000  0.000000  0.000000  1
  Si  Si3  1  0.731432  0.268568  0.268568  1
  Si  Si4  1  0.268568  0.731432  0.731432  1
  Si  Si5  1  0.268568  0.731432  0.268568  1
  Si  Si6  1  0.731432  0.268568  0.731432  1
  Si  Si7  1  0.268568  0.268568  0.731432  1
  Si  Si8  1  0.731432  0.731432  0.268568  1
  Pd  Pd9  1  0.384451  0.384451  0.384451  1
  Pd  Pd10  1  0.616761  0.616761  0.616761  1
  Pd  Pd11  1  0.384451  0.384451  0.846648  1
  Pd  Pd12  1  0.384451  0.846648  0.384451  1
  Pd  Pd13  1  0.616761  0.616761  0.149717  1
  Pd  Pd14  1  0.616761  0.149717  0.616761  1
  Pd  Pd15  1  0.846648  0.384451  0.384451  1
  Pd  Pd16  1  0.149717  0.616761  0.616761  1
  Pd  Pd17  1  0.343151  0.999039  0.999039  1
  Pd  Pd18  1  0.658771  0.999039  0.999039  1
  Pd  Pd19  1  0.999039  0.343151  0.658771  1
  Pd  Pd20  1  0.999039  0.658771  0.343151  1
  Pd  Pd21  1  0.999039  0.343151  0.999039  1
  Pd  Pd22  1  0.658771  0.999039  0.343151  1
  Pd  Pd23  1  0.999039  0.658771  0.999039  1
  Pd  Pd24  1  0.343151  0.999039  0.658771  1
  Pd  Pd25  1  0.999039  0.999039  0.343151  1
  Pd  Pd26  1  0.999039  0.999039  0.658771  1
  Pd  Pd27  1  0.658771  0.343151  0.999039  1
  Pd  Pd28  1  0.343151  0.658771  0.999039  1
