# generated using pymatgen
data_TbYGa9PdRh2
_symmetry_space_group_name_H-M   'P 1'
_cell_length_a   7.62122509
_cell_length_b   7.62065447
_cell_length_c   9.53317400
_cell_angle_alpha   90.00000000
_cell_angle_beta   90.00000000
_cell_angle_gamma   119.84314043
_symmetry_Int_Tables_number   1
_chemical_formula_structural   TbYGa9PdRh2
_chemical_formula_sum   'Tb2 Y2 Ga18 Pd2 Rh4'
_cell_volume   480.25234940
_cell_formula_units_Z   2
loop_
 _symmetry_equiv_pos_site_id
 _symmetry_equiv_pos_as_xyz
  1  'x, y, z'
loop_
 _atom_site_type_symbol
 _atom_site_label
 _atom_site_symmetry_multiplicity
 _atom_site_fract_x
 _atom_site_fract_y
 _atom_site_fract_z
 _atom_site_occupancy
  Tb  Tb0  1  0.669239  0.996671  0.250000  1
  Tb  Tb1  1  0.330761  0.003329  0.750000  1
  Y  Y2  1  0.996657  0.669263  0.250000  1
  Y  Y3  1  0.003343  0.330737  0.750000  1
  Ga  Ga4  1  0.129080  0.129124  0.250000  1
  Ga  Ga5  1  0.870920  0.870876  0.750000  1
  Ga  Ga6  1  0.999535  0.337386  0.079727  1
  Ga  Ga7  1  0.000465  0.662614  0.920273  1
  Ga  Ga8  1  0.000465  0.662614  0.579727  1
  Ga  Ga9  1  0.337324  0.999523  0.420255  1
  Ga  Ga10  1  0.999535  0.337386  0.420273  1
  Ga  Ga11  1  0.662676  0.000477  0.579745  1
  Ga  Ga12  1  0.662676  0.000477  0.920255  1
  Ga  Ga13  1  0.337324  0.999523  0.079745  1
  Ga  Ga14  1  0.336512  0.336528  0.565450  1
  Ga  Ga15  1  0.663488  0.663472  0.434550  1
  Ga  Ga16  1  0.663488  0.663472  0.065450  1
  Ga  Ga17  1  0.336512  0.336528  0.934550  1
  Ga  Ga18  1  0.336915  0.546585  0.250000  1
  Ga  Ga19  1  0.663085  0.453415  0.750000  1
  Ga  Ga20  1  0.546559  0.336827  0.250000  1
  Ga  Ga21  1  0.453441  0.663173  0.750000  1
  Pd  Pd22  1  0.000000  0.000000  0.000000  1
  Pd  Pd23  1  0.000000  0.000000  0.500000  1
  Rh  Rh24  1  0.671258  0.328710  0.000006  1
  Rh  Rh25  1  0.328742  0.671290  0.999994  1
  Rh  Rh26  1  0.328742  0.671290  0.500006  1
  Rh  Rh27  1  0.671258  0.328710  0.499994  1
