# generated using pymatgen
data_Tm6Co16TcNiP12
_symmetry_space_group_name_H-M   'P 1'
_cell_length_a   3.68081500
_cell_length_b   10.46077200
_cell_length_c   12.15345100
_cell_angle_alpha   90.00000000
_cell_angle_beta   90.00000000
_cell_angle_gamma   90.00000000
_symmetry_Int_Tables_number   1
_chemical_formula_structural   Tm6Co16TcNiP12
_chemical_formula_sum   'Tm6 Co16 Tc1 Ni1 P12'
_cell_volume   467.95850072
_cell_formula_units_Z   1
loop_
 _symmetry_equiv_pos_site_id
 _symmetry_equiv_pos_as_xyz
  1  'x, y, z'
loop_
 _atom_site_type_symbol
 _atom_site_label
 _atom_site_symmetry_multiplicity
 _atom_site_fract_x
 _atom_site_fract_y
 _atom_site_fract_z
 _atom_site_occupancy
  Tm  Tm0  1  0.000000  0.500000  0.523525  1
  Tm  Tm1  1  0.500000  0.000000  0.477597  1
  Tm  Tm2  1  0.500000  0.817867  0.207132  1
  Tm  Tm3  1  0.500000  0.182133  0.207132  1
  Tm  Tm4  1  0.000000  0.683607  0.795345  1
  Tm  Tm5  1  0.000000  0.316393  0.795345  1
  Co  Co6  1  0.000000  0.000000  0.839047  1
  Co  Co7  1  0.000000  0.000000  0.296492  1
  Co  Co8  1  0.000000  0.500000  0.987777  1
  Co  Co9  1  0.500000  0.000000  0.015212  1
  Co  Co10  1  0.500000  0.331678  0.990301  1
  Co  Co11  1  0.500000  0.668322  0.990301  1
  Co  Co12  1  0.000000  0.166370  0.006002  1
  Co  Co13  1  0.000000  0.833630  0.006002  1
  Co  Co14  1  0.500000  0.297344  0.431211  1
  Co  Co15  1  0.500000  0.702656  0.431211  1
  Co  Co16  1  0.000000  0.202297  0.568408  1
  Co  Co17  1  0.000000  0.797703  0.568408  1
  Co  Co18  1  0.500000  0.878137  0.708904  1
  Co  Co19  1  0.500000  0.121863  0.708904  1
  Co  Co20  1  0.000000  0.621375  0.292242  1
  Co  Co21  1  0.000000  0.378625  0.292242  1
  Tc  Tc22  1  0.500000  0.500000  0.157135  1
  Ni  Ni23  1  0.500000  0.500000  0.702661  1
  P  P24  1  0.500000  0.500000  0.881204  1
  P  P25  1  0.000000  0.000000  0.118536  1
  P  P26  1  0.500000  0.500000  0.350279  1
  P  P27  1  0.000000  0.000000  0.654106  1
  P  P28  1  0.500000  0.311474  0.616467  1
  P  P29  1  0.500000  0.688526  0.616467  1
  P  P30  1  0.000000  0.187230  0.383687  1
  P  P31  1  0.000000  0.812770  0.383687  1
  P  P32  1  0.500000  0.849548  0.891292  1
  P  P33  1  0.500000  0.150452  0.891292  1
  P  P34  1  0.000000  0.656530  0.107222  1
  P  P35  1  0.000000  0.343470  0.107222  1
