# generated using pymatgen
data_Eu10Cd3Os
_symmetry_space_group_name_H-M   'P 1'
_cell_length_a   10.24705200
_cell_length_b   10.24705120
_cell_length_c   10.58907500
_cell_angle_alpha   90.00000000
_cell_angle_beta   90.00000000
_cell_angle_gamma   119.99999612
_symmetry_Int_Tables_number   1
_chemical_formula_structural   Eu10Cd3Os
_chemical_formula_sum   'Eu20 Cd6 Os2'
_cell_volume   962.91182325
_cell_formula_units_Z   2
loop_
 _symmetry_equiv_pos_site_id
 _symmetry_equiv_pos_as_xyz
  1  'x, y, z'
loop_
 _atom_site_type_symbol
 _atom_site_label
 _atom_site_symmetry_multiplicity
 _atom_site_fract_x
 _atom_site_fract_y
 _atom_site_fract_z
 _atom_site_occupancy
  Eu  Eu0  1  0.000000  0.000000  0.500000  1
  Eu  Eu1  1  0.000000  0.000000  0.000000  1
  Eu  Eu2  1  0.209920  0.790080  0.434792  1
  Eu  Eu3  1  0.209920  0.419840  0.434792  1
  Eu  Eu4  1  0.580160  0.790080  0.434792  1
  Eu  Eu5  1  0.790080  0.209920  0.565208  1
  Eu  Eu6  1  0.790080  0.580160  0.565208  1
  Eu  Eu7  1  0.419840  0.209920  0.565208  1
  Eu  Eu8  1  0.790080  0.209920  0.934792  1
  Eu  Eu9  1  0.790080  0.580160  0.934792  1
  Eu  Eu10  1  0.419840  0.209920  0.934792  1
  Eu  Eu11  1  0.209920  0.790080  0.065208  1
  Eu  Eu12  1  0.209920  0.419840  0.065208  1
  Eu  Eu13  1  0.580160  0.790080  0.065208  1
  Eu  Eu14  1  0.537233  0.462767  0.250000  1
  Eu  Eu15  1  0.537233  0.074466  0.250000  1
  Eu  Eu16  1  0.925534  0.462767  0.250000  1
  Eu  Eu17  1  0.462767  0.537233  0.750000  1
  Eu  Eu18  1  0.462767  0.925534  0.750000  1
  Eu  Eu19  1  0.074466  0.537233  0.750000  1
  Cd  Cd20  1  0.886327  0.113673  0.250000  1
  Cd  Cd21  1  0.886327  0.772657  0.250000  1
  Cd  Cd22  1  0.227343  0.113673  0.250000  1
  Cd  Cd23  1  0.113673  0.886327  0.750000  1
  Cd  Cd24  1  0.113673  0.227343  0.750000  1
  Cd  Cd25  1  0.772657  0.886327  0.750000  1
  Os  Os26  1  0.333333  0.666667  0.250000  1
  Os  Os27  1  0.666667  0.333333  0.750000  1
