# generated using pymatgen
data_DyHo5Al16Os6Rh
_symmetry_space_group_name_H-M   'P 1'
_cell_length_a   8.94202980
_cell_length_b   8.94203016
_cell_length_c   8.94619500
_cell_angle_alpha   59.98459528
_cell_angle_beta   59.98459395
_cell_angle_gamma   60.03081226
_symmetry_Int_Tables_number   1
_chemical_formula_structural   DyHo5Al16Os6Rh
_chemical_formula_sum   'Dy1 Ho5 Al16 Os6 Rh1'
_cell_volume   505.81932984
_cell_formula_units_Z   1
loop_
 _symmetry_equiv_pos_site_id
 _symmetry_equiv_pos_as_xyz
  1  'x, y, z'
loop_
 _atom_site_type_symbol
 _atom_site_label
 _atom_site_symmetry_multiplicity
 _atom_site_fract_x
 _atom_site_fract_y
 _atom_site_fract_z
 _atom_site_occupancy
  Dy  Dy0  1  0.288558  0.288558  0.711442  1
  Ho  Ho1  1  0.711929  0.288425  0.288071  1
  Ho  Ho2  1  0.711929  0.288425  0.711575  1
  Ho  Ho3  1  0.711973  0.711973  0.288027  1
  Ho  Ho4  1  0.288425  0.711929  0.711575  1
  Ho  Ho5  1  0.288425  0.711929  0.288071  1
  Al  Al6  1  0.631676  0.123102  0.122610  1
  Al  Al7  1  0.123102  0.631676  0.122610  1
  Al  Al8  1  0.122302  0.122302  0.632735  1
  Al  Al9  1  0.122302  0.122302  0.122660  1
  Al  Al10  1  0.367265  0.877340  0.877698  1
  Al  Al11  1  0.877340  0.367265  0.877698  1
  Al  Al12  1  0.877390  0.877390  0.368324  1
  Al  Al13  1  0.877390  0.877390  0.876898  1
  Al  Al14  1  0.000668  0.332983  0.333176  1
  Al  Al15  1  0.332983  0.000668  0.333176  1
  Al  Al16  1  0.333328  0.333328  0.000187  1
  Al  Al17  1  0.333328  0.333328  0.333158  1
  Al  Al18  1  0.999813  0.666842  0.666672  1
  Al  Al19  1  0.666842  0.999813  0.666672  1
  Al  Al20  1  0.666824  0.666824  0.999332  1
  Al  Al21  1  0.666824  0.666824  0.667017  1
  Os  Os22  1  0.500042  0.999919  0.000081  1
  Os  Os23  1  0.500042  0.999919  0.499958  1
  Os  Os24  1  0.500021  0.500021  0.999979  1
  Os  Os25  1  0.999919  0.500042  0.499958  1
  Os  Os26  1  0.999919  0.500042  0.000081  1
  Os  Os27  1  0.000021  0.000021  0.499979  1
  Rh  Rh28  1  0.999422  0.999422  0.000578  1
