# generated using pymatgen
data_Nb4Al5VOs2
_symmetry_space_group_name_H-M   'P 1'
_cell_length_a   5.18362500
_cell_length_b   5.17455065
_cell_length_c   8.15453500
_cell_angle_alpha   90.00000000
_cell_angle_beta   90.00000000
_cell_angle_gamma   120.05802086
_symmetry_Int_Tables_number   1
_chemical_formula_structural   Nb4Al5VOs2
_chemical_formula_sum   'Nb4 Al5 V1 Os2'
_cell_volume   189.31361150
_cell_formula_units_Z   1
loop_
 _symmetry_equiv_pos_site_id
 _symmetry_equiv_pos_as_xyz
  1  'x, y, z'
loop_
 _atom_site_type_symbol
 _atom_site_label
 _atom_site_symmetry_multiplicity
 _atom_site_fract_x
 _atom_site_fract_y
 _atom_site_fract_z
 _atom_site_occupancy
  Nb  Nb0  1  0.669046  0.338092  0.072511  1
  Nb  Nb1  1  0.669046  0.338092  0.427489  1
  Nb  Nb2  1  0.335787  0.671574  0.558461  1
  Nb  Nb3  1  0.335787  0.671574  0.941539  1
  Al  Al4  1  0.163831  0.816056  0.250000  1
  Al  Al5  1  0.652226  0.816056  0.250000  1
  Al  Al6  1  0.339430  0.172878  0.750000  1
  Al  Al7  1  0.833446  0.172878  0.750000  1
  Al  Al8  1  0.832773  0.665547  0.750000  1
  V  V9  1  0.161460  0.322921  0.250000  1
  Os  Os10  1  0.003583  0.007167  0.002586  1
  Os  Os11  1  0.003583  0.007167  0.497414  1
