# generated using pymatgen
data_Y2Tm4Bi2Os
_symmetry_space_group_name_H-M   'P 1'
_cell_length_a   8.25768537
_cell_length_b   8.25768593
_cell_length_c   4.24808900
_cell_angle_alpha   90.00000000
_cell_angle_beta   90.00000000
_cell_angle_gamma   120.24170737
_symmetry_Int_Tables_number   1
_chemical_formula_structural   Y2Tm4Bi2Os
_chemical_formula_sum   'Y2 Tm4 Bi2 Os1'
_cell_volume   250.25225568
_cell_formula_units_Z   1
loop_
 _symmetry_equiv_pos_site_id
 _symmetry_equiv_pos_as_xyz
  1  'x, y, z'
loop_
 _atom_site_type_symbol
 _atom_site_label
 _atom_site_symmetry_multiplicity
 _atom_site_fract_x
 _atom_site_fract_y
 _atom_site_fract_z
 _atom_site_occupancy
  Y  Y0  1  0.387417  0.000284  0.000000  1
  Y  Y1  1  0.000284  0.387417  0.000000  1
  Tm  Tm2  1  0.618272  0.618272  0.000000  1
  Tm  Tm3  1  0.767668  0.998981  0.499999  1
  Tm  Tm4  1  0.230447  0.230446  0.499999  1
  Tm  Tm5  1  0.998981  0.767668  0.499999  1
  Bi  Bi6  1  0.666743  0.334750  0.499999  1
  Bi  Bi7  1  0.334750  0.666743  0.499999  1
  Os  Os8  1  0.995439  0.995439  0.000000  1
