# generated using pymatgen
data_LaHo2PtO7
_symmetry_space_group_name_H-M   'P 1'
_cell_length_a   6.46319904
_cell_length_b   6.46319976
_cell_length_c   7.56627000
_cell_angle_alpha   90.00000000
_cell_angle_beta   90.00000000
_cell_angle_gamma   109.08694802
_symmetry_Int_Tables_number   1
_chemical_formula_structural   LaHo2PtO7
_chemical_formula_sum   'La2 Ho4 Pt2 O14'
_cell_volume   298.68919998
_cell_formula_units_Z   2
loop_
 _symmetry_equiv_pos_site_id
 _symmetry_equiv_pos_as_xyz
  1  'x, y, z'
loop_
 _atom_site_type_symbol
 _atom_site_label
 _atom_site_symmetry_multiplicity
 _atom_site_fract_x
 _atom_site_fract_y
 _atom_site_fract_z
 _atom_site_occupancy
  La  La0  1  0.000000  0.000000  0.500000  1
  La  La1  1  0.000000  0.000000  0.000000  1
  Ho  Ho2  1  0.513287  0.063306  0.250000  1
  Ho  Ho3  1  0.936694  0.486713  0.750000  1
  Ho  Ho4  1  0.486713  0.936694  0.750000  1
  Ho  Ho5  1  0.063306  0.513287  0.250000  1
  Pt  Pt6  1  0.500000  0.500000  0.500000  1
  Pt  Pt7  1  0.500000  0.500000  0.000000  1
  O  O8  1  0.441508  0.177802  0.533052  1
  O  O9  1  0.822198  0.558492  0.466948  1
  O  O10  1  0.441508  0.177802  0.966948  1
  O  O11  1  0.822198  0.558492  0.033052  1
  O  O12  1  0.558492  0.822198  0.466948  1
  O  O13  1  0.177802  0.441508  0.533052  1
  O  O14  1  0.558492  0.822198  0.033052  1
  O  O15  1  0.177802  0.441508  0.966948  1
  O  O16  1  0.161121  0.875742  0.250000  1
  O  O17  1  0.124258  0.838879  0.750000  1
  O  O18  1  0.838879  0.124258  0.750000  1
  O  O19  1  0.875742  0.161121  0.250000  1
  O  O20  1  0.395900  0.395900  0.250000  1
  O  O21  1  0.604100  0.604100  0.750000  1
