# generated using pymatgen
data_GaCo4CuS8
_symmetry_space_group_name_H-M   'P 1'
_cell_length_a   6.77972245
_cell_length_b   6.77972238
_cell_length_c   6.77972200
_cell_angle_alpha   60.00000185
_cell_angle_beta   60.00000219
_cell_angle_gamma   59.99999549
_symmetry_Int_Tables_number   1
_chemical_formula_structural   GaCo4CuS8
_chemical_formula_sum   'Ga1 Co4 Cu1 S8'
_cell_volume   220.35388509
_cell_formula_units_Z   1
loop_
 _symmetry_equiv_pos_site_id
 _symmetry_equiv_pos_as_xyz
  1  'x, y, z'
loop_
 _atom_site_type_symbol
 _atom_site_label
 _atom_site_symmetry_multiplicity
 _atom_site_fract_x
 _atom_site_fract_y
 _atom_site_fract_z
 _atom_site_occupancy
  Ga  Ga0  1  0.500000  0.500000  0.500000  1
  Co  Co1  1  0.633395  0.122201  0.122201  1
  Co  Co2  1  0.122201  0.633395  0.122201  1
  Co  Co3  1  0.122201  0.122201  0.633395  1
  Co  Co4  1  0.122201  0.122201  0.122201  1
  Cu  Cu5  1  0.750000  0.750000  0.750000  1
  S  S6  1  0.331673  0.889443  0.889443  1
  S  S7  1  0.889443  0.331673  0.889443  1
  S  S8  1  0.889443  0.889443  0.331673  1
  S  S9  1  0.889443  0.889443  0.889443  1
  S  S10  1  0.919549  0.360151  0.360151  1
  S  S11  1  0.360151  0.919549  0.360151  1
  S  S12  1  0.360151  0.360151  0.919549  1
  S  S13  1  0.360151  0.360151  0.360151  1
