# generated using pymatgen
data_Hf6U(Ti8Ir3)2
_symmetry_space_group_name_H-M   'P 1'
_cell_length_a   8.90537030
_cell_length_b   8.90537154
_cell_length_c   8.90537100
_cell_angle_alpha   60.00000572
_cell_angle_beta   60.00000113
_cell_angle_gamma   60.00000534
_symmetry_Int_Tables_number   1
_chemical_formula_structural   Hf6U(Ti8Ir3)2
_chemical_formula_sum   'Hf6 U1 Ti16 Ir6'
_cell_volume   499.39143023
_cell_formula_units_Z   1
loop_
 _symmetry_equiv_pos_site_id
 _symmetry_equiv_pos_as_xyz
  1  'x, y, z'
loop_
 _atom_site_type_symbol
 _atom_site_label
 _atom_site_symmetry_multiplicity
 _atom_site_fract_x
 _atom_site_fract_y
 _atom_site_fract_z
 _atom_site_occupancy
  Hf  Hf0  1  0.685306  0.314694  0.314694  1
  Hf  Hf1  1  0.314694  0.685306  0.685306  1
  Hf  Hf2  1  0.314694  0.685306  0.314694  1
  Hf  Hf3  1  0.685306  0.314694  0.685306  1
  Hf  Hf4  1  0.314694  0.314694  0.685306  1
  Hf  Hf5  1  0.685306  0.685306  0.314694  1
  U  U6  1  0.000000  0.000000  0.000000  1
  Ti  Ti7  1  0.332357  0.332357  0.332357  1
  Ti  Ti8  1  0.667643  0.667643  0.667643  1
  Ti  Ti9  1  0.332357  0.332357  0.002931  1
  Ti  Ti10  1  0.332357  0.002931  0.332357  1
  Ti  Ti11  1  0.667643  0.667643  0.997069  1
  Ti  Ti12  1  0.667643  0.997069  0.667643  1
  Ti  Ti13  1  0.002931  0.332357  0.332357  1
  Ti  Ti14  1  0.997069  0.667643  0.667643  1
  Ti  Ti15  1  0.117540  0.117540  0.117540  1
  Ti  Ti16  1  0.882460  0.882460  0.882460  1
  Ti  Ti17  1  0.117540  0.117540  0.647381  1
  Ti  Ti18  1  0.117540  0.647381  0.117540  1
  Ti  Ti19  1  0.882460  0.882460  0.352619  1
  Ti  Ti20  1  0.882460  0.352619  0.882460  1
  Ti  Ti21  1  0.647381  0.117540  0.117540  1
  Ti  Ti22  1  0.352619  0.882460  0.882460  1
  Ir  Ir23  1  0.500000  0.000000  0.000000  1
  Ir  Ir24  1  0.000000  0.500000  0.500000  1
  Ir  Ir25  1  0.000000  0.500000  0.000000  1
  Ir  Ir26  1  0.500000  0.000000  0.500000  1
  Ir  Ir27  1  0.000000  0.000000  0.500000  1
  Ir  Ir28  1  0.500000  0.500000  0.000000  1
