# generated using pymatgen
data_Tm6Zn16Ni7S
_symmetry_space_group_name_H-M   'P 1'
_cell_length_a   8.73884107
_cell_length_b   8.73839159
_cell_length_c   8.73782000
_cell_angle_alpha   60.00353409
_cell_angle_beta   59.99842174
_cell_angle_gamma   59.99451619
_symmetry_Int_Tables_number   1
_chemical_formula_structural   Tm6Zn16Ni7S
_chemical_formula_sum   'Tm6 Zn16 Ni7 S1'
_cell_volume   471.80425618
_cell_formula_units_Z   1
loop_
 _symmetry_equiv_pos_site_id
 _symmetry_equiv_pos_as_xyz
  1  'x, y, z'
loop_
 _atom_site_type_symbol
 _atom_site_label
 _atom_site_symmetry_multiplicity
 _atom_site_fract_x
 _atom_site_fract_y
 _atom_site_fract_z
 _atom_site_occupancy
  Tm  Tm0  1  0.714642  0.285357  0.285372  1
  Tm  Tm1  1  0.285360  0.714643  0.714625  1
  Tm  Tm2  1  0.285374  0.714639  0.285373  1
  Tm  Tm3  1  0.714627  0.285362  0.714626  1
  Tm  Tm4  1  0.285401  0.285387  0.714611  1
  Tm  Tm5  1  0.714601  0.714613  0.285387  1
  Zn  Zn6  1  0.120835  0.120824  0.120800  1
  Zn  Zn7  1  0.879166  0.879176  0.879199  1
  Zn  Zn8  1  0.120828  0.120841  0.637538  1
  Zn  Zn9  1  0.120797  0.637537  0.120844  1
  Zn  Zn10  1  0.879170  0.879157  0.362468  1
  Zn  Zn11  1  0.879206  0.362460  0.879155  1
  Zn  Zn12  1  0.637536  0.120797  0.120835  1
  Zn  Zn13  1  0.362462  0.879205  0.879165  1
  Zn  Zn14  1  0.331272  0.331268  0.331265  1
  Zn  Zn15  1  0.668729  0.668733  0.668733  1
  Zn  Zn16  1  0.331267  0.331277  0.006194  1
  Zn  Zn17  1  0.331255  0.006201  0.331279  1
  Zn  Zn18  1  0.668735  0.668724  0.993801  1
  Zn  Zn19  1  0.668744  0.993802  0.668721  1
  Zn  Zn20  1  0.006196  0.331259  0.331272  1
  Zn  Zn21  1  0.993807  0.668740  0.668727  1
  Ni  Ni22  1  0.499998  0.000004  0.999998  1
  Ni  Ni23  1  0.999996  0.500003  0.500002  1
  Ni  Ni24  1  0.999999  0.500001  0.999997  1
  Ni  Ni25  1  0.500000  0.999996  0.500004  1
  Ni  Ni26  1  0.000003  0.999999  0.500001  1
  Ni  Ni27  1  0.499999  0.499996  0.000006  1
  Ni  Ni28  1  0.999999  0.999998  0.000003  1
  S  S29  1  0.500001  0.500001  0.499999  1
