# generated using pymatgen
data_YSc(SbO4)2
_symmetry_space_group_name_H-M   'P 1'
_cell_length_a   5.31742571
_cell_length_b   7.47649976
_cell_length_c   7.57449900
_cell_angle_alpha   80.94260416
_cell_angle_beta   86.87883962
_cell_angle_gamma   91.00075291
_symmetry_Int_Tables_number   1
_chemical_formula_structural   YSc(SbO4)2
_chemical_formula_sum   'Y2 Sc2 Sb4 O16'
_cell_volume   296.83035860
_cell_formula_units_Z   2
loop_
 _symmetry_equiv_pos_site_id
 _symmetry_equiv_pos_as_xyz
  1  'x, y, z'
loop_
 _atom_site_type_symbol
 _atom_site_label
 _atom_site_symmetry_multiplicity
 _atom_site_fract_x
 _atom_site_fract_y
 _atom_site_fract_z
 _atom_site_occupancy
  Y  Y0  1  0.749195  0.377480  0.372589  1
  Y  Y1  1  0.250805  0.622520  0.627411  1
  Sc  Sc2  1  0.717749  0.870234  0.334650  1
  Sc  Sc3  1  0.282251  0.129766  0.665350  1
  Sb  Sb4  1  0.775937  0.309137  0.839397  1
  Sb  Sb5  1  0.224063  0.690863  0.160603  1
  Sb  Sb6  1  0.247924  0.186345  0.170696  1
  Sb  Sb7  1  0.752076  0.813655  0.829304  1
  O  O8  1  0.899646  0.805813  0.069932  1
  O  O9  1  0.100354  0.194187  0.930068  1
  O  O10  1  0.385575  0.936728  0.176802  1
  O  O11  1  0.614425  0.063272  0.823198  1
  O  O12  1  0.099215  0.434714  0.176145  1
  O  O13  1  0.900785  0.565286  0.823855  1
  O  O14  1  0.580458  0.312275  0.070798  1
  O  O15  1  0.419542  0.687725  0.929202  1
  O  O16  1  0.999118  0.317476  0.611669  1
  O  O17  1  0.000882  0.682524  0.388331  1
  O  O18  1  0.415369  0.179839  0.401877  1
  O  O19  1  0.584631  0.820161  0.598123  1
  O  O20  1  0.489020  0.617712  0.331092  1
  O  O21  1  0.510980  0.382288  0.668908  1
  O  O22  1  0.927490  0.104284  0.302911  1
  O  O23  1  0.072510  0.895716  0.697089  1
