# generated using pymatgen
data_KBa2(PRh)6
_symmetry_space_group_name_H-M   'P 1'
_cell_length_a   5.61340048
_cell_length_b   7.02150681
_cell_length_c   8.89824813
_cell_angle_alpha   112.44115973
_cell_angle_beta   108.38628554
_cell_angle_gamma   89.99999506
_symmetry_Int_Tables_number   1
_chemical_formula_structural   KBa2(PRh)6
_chemical_formula_sum   'K1 Ba2 P6 Rh6'
_cell_volume   304.70060250
_cell_formula_units_Z   1
loop_
 _symmetry_equiv_pos_site_id
 _symmetry_equiv_pos_as_xyz
  1  'x, y, z'
loop_
 _atom_site_type_symbol
 _atom_site_label
 _atom_site_symmetry_multiplicity
 _atom_site_fract_x
 _atom_site_fract_y
 _atom_site_fract_z
 _atom_site_occupancy
  K  K0  1  0.000000  0.000000  0.000000  1
  Ba  Ba1  1  0.660808  0.999299  0.321614  1
  Ba  Ba2  1  0.339192  0.000701  0.678386  1
  P  P3  1  0.217273  0.300341  0.434546  1
  P  P4  1  0.882395  0.299030  0.764791  1
  P  P5  1  0.550515  0.304532  0.101032  1
  P  P6  1  0.782727  0.699659  0.565454  1
  P  P7  1  0.449485  0.695468  0.898968  1
  P  P8  1  0.117605  0.700970  0.235209  1
  Rh  Rh9  1  0.416321  0.499799  0.333587  1
  Rh  Rh10  1  0.082732  0.500201  0.666413  1
  Rh  Rh11  1  0.751033  0.500000  0.000000  1
  Rh  Rh12  1  0.583679  0.500201  0.666413  1
  Rh  Rh13  1  0.248967  0.500000  0.000000  1
  Rh  Rh14  1  0.917268  0.499799  0.333587  1
