# generated using pymatgen
data_Nd3Th(ZnRh)4
_symmetry_space_group_name_H-M   'P 1'
_cell_length_a   3.96861100
_cell_length_b   7.47307600
_cell_length_c   16.59219300
_cell_angle_alpha   90.00000000
_cell_angle_beta   90.00000000
_cell_angle_gamma   90.00000000
_symmetry_Int_Tables_number   1
_chemical_formula_structural   Nd3Th(ZnRh)4
_chemical_formula_sum   'Nd6 Th2 Zn8 Rh8'
_cell_volume   492.08680694
_cell_formula_units_Z   2
loop_
 _symmetry_equiv_pos_site_id
 _symmetry_equiv_pos_as_xyz
  1  'x, y, z'
loop_
 _atom_site_type_symbol
 _atom_site_label
 _atom_site_symmetry_multiplicity
 _atom_site_fract_x
 _atom_site_fract_y
 _atom_site_fract_z
 _atom_site_occupancy
  Nd  Nd0  1  0.750000  0.329104  0.437512  1
  Nd  Nd1  1  0.750000  0.948069  0.284867  1
  Nd  Nd2  1  0.750000  0.829104  0.062488  1
  Nd  Nd3  1  0.750000  0.448069  0.215133  1
  Nd  Nd4  1  0.250000  0.051165  0.714970  1
  Nd  Nd5  1  0.250000  0.551165  0.785030  1
  Th  Th6  1  0.250000  0.171151  0.940026  1
  Th  Th7  1  0.250000  0.671151  0.559974  1
  Zn  Zn8  1  0.750000  0.010560  0.559692  1
  Zn  Zn9  1  0.250000  0.619658  0.348298  1
  Zn  Zn10  1  0.750000  0.379141  0.654290  1
  Zn  Zn11  1  0.250000  0.501998  0.060205  1
  Zn  Zn12  1  0.750000  0.510560  0.940308  1
  Zn  Zn13  1  0.250000  0.001998  0.439795  1
  Zn  Zn14  1  0.250000  0.119658  0.151702  1
  Zn  Zn15  1  0.750000  0.879141  0.845710  1
  Rh  Rh16  1  0.750000  0.747723  0.441772  1
  Rh  Rh17  1  0.250000  0.242514  0.311909  1
  Rh  Rh18  1  0.750000  0.246380  0.821276  1
  Rh  Rh19  1  0.750000  0.746380  0.678724  1
  Rh  Rh20  1  0.250000  0.252538  0.566004  1
  Rh  Rh21  1  0.250000  0.742514  0.188091  1
  Rh  Rh22  1  0.750000  0.247723  0.058228  1
  Rh  Rh23  1  0.250000  0.752538  0.933996  1
