# generated using pymatgen
data_CsBaCaTcN4
_symmetry_space_group_name_H-M   'P 1'
_cell_length_a   10.92288365
_cell_length_b   10.57903863
_cell_length_c   8.30029930
_cell_angle_alpha   68.67494424
_cell_angle_beta   65.14690101
_cell_angle_gamma   46.07706322
_symmetry_Int_Tables_number   1
_chemical_formula_structural   CsBaCaTcN4
_chemical_formula_sum   'Cs4 Ba4 Ca4 Tc4 N16'
_cell_volume   623.02948828
_cell_formula_units_Z   4
loop_
 _symmetry_equiv_pos_site_id
 _symmetry_equiv_pos_as_xyz
  1  'x, y, z'
loop_
 _atom_site_type_symbol
 _atom_site_label
 _atom_site_symmetry_multiplicity
 _atom_site_fract_x
 _atom_site_fract_y
 _atom_site_fract_z
 _atom_site_occupancy
  Cs  Cs0  1  0.562544  0.929209  0.922791  1
  Cs  Cs1  1  0.927748  0.560547  0.593088  1
  Cs  Cs2  1  0.317803  0.681317  0.681657  1
  Cs  Cs3  1  0.109417  0.113229  0.892745  1
  Ba  Ba4  1  0.124104  0.141662  0.374387  1
  Ba  Ba5  1  0.349211  0.367205  0.150487  1
  Ba  Ba6  1  0.677969  0.323713  0.321341  1
  Ba  Ba7  1  0.887479  0.892629  0.109729  1
  Ca  Ca8  1  0.338680  0.330834  0.663833  1
  Ca  Ca9  1  0.893266  0.918500  0.602708  1
  Ca  Ca10  1  0.667083  0.663423  0.335562  1
  Ca  Ca11  1  0.571369  0.605565  0.922589  1
  Tc  Tc12  1  0.510954  0.999125  0.477909  1
  Tc  Tc13  1  0.998511  0.508157  0.016294  1
  Tc  Tc14  1  0.746471  0.251910  0.741652  1
  Tc  Tc15  1  0.250823  0.741169  0.257990  1
  N  N16  1  0.987077  0.673536  0.833806  1
  N  N17  1  0.672975  0.314982  0.966629  1
  N  N18  1  0.665965  0.015691  0.482300  1
  N  N19  1  0.529927  0.813251  0.630479  1
  N  N20  1  0.270035  0.560915  0.422019  1
  N  N21  1  0.764935  0.399259  0.550126  1
  N  N22  1  0.962988  0.036259  0.716921  1
  N  N23  1  0.563066  0.965565  0.250231  1
  N  N24  1  0.436769  0.722408  0.234429  1
  N  N25  1  0.967197  0.568389  0.219152  1
  N  N26  1  0.277148  0.699701  0.046682  1
  N  N27  1  0.824277  0.501424  0.053853  1
  N  N28  1  0.216234  0.290858  0.976951  1
  N  N29  1  0.601588  0.235679  0.711865  1
  N  N30  1  0.287373  0.208858  0.527554  1
  N  N31  1  0.039014  0.965033  0.312240  1
