# generated using pymatgen
data_Rb8ScMn3S4(O4F3)4
_symmetry_space_group_name_H-M   'P 1'
_cell_length_a   11.36641800
_cell_length_b   7.48220557
_cell_length_c   8.94543000
_cell_angle_alpha   86.77934547
_cell_angle_beta   90.00000000
_cell_angle_gamma   90.00000000
_symmetry_Int_Tables_number   1
_chemical_formula_structural   Rb8ScMn3S4(O4F3)4
_chemical_formula_sum   'Rb8 Sc1 Mn3 S4 O16 F12'
_cell_volume   759.57035024
_cell_formula_units_Z   1
loop_
 _symmetry_equiv_pos_site_id
 _symmetry_equiv_pos_as_xyz
  1  'x, y, z'
loop_
 _atom_site_type_symbol
 _atom_site_label
 _atom_site_symmetry_multiplicity
 _atom_site_fract_x
 _atom_site_fract_y
 _atom_site_fract_z
 _atom_site_occupancy
  Rb  Rb0  1  0.189932  0.299393  0.671248  1
  Rb  Rb1  1  0.692686  0.698794  0.828034  1
  Rb  Rb2  1  0.810068  0.700607  0.328752  1
  Rb  Rb3  1  0.307314  0.301206  0.171966  1
  Rb  Rb4  1  0.307051  0.807576  0.831852  1
  Rb  Rb5  1  0.810462  0.191053  0.665835  1
  Rb  Rb6  1  0.692949  0.192424  0.168148  1
  Rb  Rb7  1  0.189538  0.808947  0.334165  1
  Sc  Sc8  1  0.500000  0.000000  0.500000  1
  Mn  Mn9  1  0.000000  0.000000  0.000000  1
  Mn  Mn10  1  0.500000  0.500000  0.500000  1
  Mn  Mn11  1  0.000000  0.500000  0.000000  1
  S  S12  1  0.499874  0.251107  0.803227  1
  S  S13  1  0.001212  0.748079  0.696781  1
  S  S14  1  0.500126  0.748893  0.196773  1
  S  S15  1  0.998788  0.251921  0.303219  1
  O  O16  1  0.403971  0.175188  0.896589  1
  O  O17  1  0.903174  0.821599  0.605464  1
  O  O18  1  0.596029  0.824812  0.103411  1
  O  O19  1  0.096826  0.178401  0.394536  1
  O  O20  1  0.593688  0.332573  0.889129  1
  O  O21  1  0.092691  0.663453  0.608711  1
  O  O22  1  0.406312  0.667427  0.110871  1
  O  O23  1  0.907309  0.336547  0.391289  1
  O  O24  1  0.443189  0.392625  0.695223  1
  O  O25  1  0.944842  0.605104  0.805738  1
  O  O26  1  0.556811  0.607375  0.304777  1
  O  O27  1  0.055158  0.394896  0.194262  1
  O  O28  1  0.055393  0.889336  0.787475  1
  O  O29  1  0.552620  0.109485  0.709146  1
  O  O30  1  0.944607  0.110664  0.212525  1
  O  O31  1  0.447380  0.890515  0.290854  1
  F  F32  1  0.341814  0.522838  0.444535  1
  F  F33  1  0.841282  0.479218  0.055375  1
  F  F34  1  0.658186  0.477162  0.555465  1
  F  F35  1  0.158718  0.520782  0.944625  1
  F  F36  1  0.159270  0.022837  0.045964  1
  F  F37  1  0.669827  0.977261  0.449725  1
  F  F38  1  0.840730  0.977163  0.954036  1
  F  F39  1  0.330173  0.022739  0.550275  1
  F  F40  1  0.001351  0.763460  0.101378  1
  F  F41  1  0.501660  0.247430  0.391746  1
  F  F42  1  0.998649  0.236540  0.898622  1
  F  F43  1  0.498340  0.752570  0.608254  1
