# generated using pymatgen
data_LiScCo4P3
_symmetry_space_group_name_H-M   'P 1'
_cell_length_a   3.62045300
_cell_length_b   10.10273400
_cell_length_c   11.79542700
_cell_angle_alpha   90.00000000
_cell_angle_beta   90.00000000
_cell_angle_gamma   90.00000000
_symmetry_Int_Tables_number   1
_chemical_formula_structural   LiScCo4P3
_chemical_formula_sum   'Li4 Sc4 Co16 P12'
_cell_volume   431.43512448
_cell_formula_units_Z   4
loop_
 _symmetry_equiv_pos_site_id
 _symmetry_equiv_pos_as_xyz
  1  'x, y, z'
loop_
 _atom_site_type_symbol
 _atom_site_label
 _atom_site_symmetry_multiplicity
 _atom_site_fract_x
 _atom_site_fract_y
 _atom_site_fract_z
 _atom_site_occupancy
  Li  Li0  1  0.250000  0.704016  0.992966  1
  Li  Li1  1  0.250000  0.795984  0.492966  1
  Li  Li2  1  0.750000  0.295984  0.007034  1
  Li  Li3  1  0.750000  0.204016  0.507034  1
  Sc  Sc4  1  0.250000  0.576069  0.702542  1
  Sc  Sc5  1  0.250000  0.923931  0.202542  1
  Sc  Sc6  1  0.750000  0.423931  0.297458  1
  Sc  Sc7  1  0.750000  0.076069  0.797458  1
  Co  Co8  1  0.250000  0.406114  0.482370  1
  Co  Co9  1  0.250000  0.093886  0.982370  1
  Co  Co10  1  0.750000  0.593886  0.517630  1
  Co  Co11  1  0.750000  0.906114  0.017630  1
  Co  Co12  1  0.250000  0.223086  0.172626  1
  Co  Co13  1  0.250000  0.276914  0.672626  1
  Co  Co14  1  0.750000  0.776914  0.827374  1
  Co  Co15  1  0.750000  0.723086  0.327374  1
  Co  Co16  1  0.250000  0.877252  0.701584  1
  Co  Co17  1  0.250000  0.622748  0.201584  1
  Co  Co18  1  0.750000  0.122748  0.298416  1
  Co  Co19  1  0.750000  0.377252  0.798416  1
  Co  Co20  1  0.250000  0.462786  0.931868  1
  Co  Co21  1  0.250000  0.037214  0.431868  1
  Co  Co22  1  0.750000  0.537214  0.068132  1
  Co  Co23  1  0.750000  0.962786  0.568132  1
  P  P24  1  0.250000  0.426445  0.117884  1
  P  P25  1  0.250000  0.073555  0.617884  1
  P  P26  1  0.750000  0.573555  0.882116  1
  P  P27  1  0.750000  0.926445  0.382116  1
  P  P28  1  0.250000  0.262495  0.858729  1
  P  P29  1  0.250000  0.237505  0.358729  1
  P  P30  1  0.750000  0.737505  0.141271  1
  P  P31  1  0.750000  0.762495  0.641271  1
  P  P32  1  0.250000  0.599466  0.391680  1
  P  P33  1  0.250000  0.900534  0.891680  1
  P  P34  1  0.750000  0.400534  0.608320  1
  P  P35  1  0.750000  0.099466  0.108320  1
