# generated using pymatgen
data_Cs4HgH7Pt2
_symmetry_space_group_name_H-M   'P 1'
_cell_length_a   6.18390220
_cell_length_b   6.18390220
_cell_length_c   9.36108400
_cell_angle_alpha   90.00000000
_cell_angle_beta   90.00000000
_cell_angle_gamma   83.53360631
_symmetry_Int_Tables_number   1
_chemical_formula_structural   Cs4HgH7Pt2
_chemical_formula_sum   'Cs4 Hg1 H7 Pt2'
_cell_volume   355.69650333
_cell_formula_units_Z   1
loop_
 _symmetry_equiv_pos_site_id
 _symmetry_equiv_pos_as_xyz
  1  'x, y, z'
loop_
 _atom_site_type_symbol
 _atom_site_label
 _atom_site_symmetry_multiplicity
 _atom_site_fract_x
 _atom_site_fract_y
 _atom_site_fract_z
 _atom_site_occupancy
  Cs  Cs0  1  0.073859  0.472985  0.243659  1
  Cs  Cs1  1  0.527015  0.926141  0.756341  1
  Cs  Cs2  1  0.073859  0.472985  0.756341  1
  Cs  Cs3  1  0.527015  0.926141  0.243659  1
  Hg  Hg4  1  0.948849  0.051151  0.500000  1
  H  H5  1  0.595557  0.404443  0.321672  1
  H  H6  1  0.031670  0.968330  0.821984  1
  H  H7  1  0.595557  0.404443  0.678328  1
  H  H8  1  0.031670  0.968330  0.178016  1
  H  H9  1  0.395338  0.604662  0.500000  1
  H  H10  1  0.216167  0.145330  0.000000  1
  H  H11  1  0.854670  0.783833  0.000000  1
  Pt  Pt12  1  0.594118  0.405882  0.500000  1
  Pt  Pt13  1  0.034656  0.965344  0.000000  1
