# generated using pymatgen
data_KP2OsRu
_symmetry_space_group_name_H-M   'P 1'
_cell_length_a   6.88438976
_cell_length_b   6.88438945
_cell_length_c   6.88438967
_cell_angle_alpha   145.72080638
_cell_angle_beta   145.72080125
_cell_angle_gamma   49.26164793
_symmetry_Int_Tables_number   1
_chemical_formula_structural   KP2OsRu
_chemical_formula_sum   'K1 P2 Os1 Ru1'
_cell_volume   103.03591516
_cell_formula_units_Z   1
loop_
 _symmetry_equiv_pos_site_id
 _symmetry_equiv_pos_as_xyz
  1  'x, y, z'
loop_
 _atom_site_type_symbol
 _atom_site_label
 _atom_site_symmetry_multiplicity
 _atom_site_fract_x
 _atom_site_fract_y
 _atom_site_fract_z
 _atom_site_occupancy
  K  K0  1  0.000000  0.000000  0.000000  1
  P  P1  1  0.340701  0.340701  0.000000  1
  P  P2  1  0.659299  0.659299  0.000000  1
  Os  Os3  1  0.750000  0.250000  0.500000  1
  Ru  Ru4  1  0.250000  0.750000  0.500000  1
