# generated using pymatgen
data_TbTm2PaPt4
_symmetry_space_group_name_H-M   'P 1'
_cell_length_a   4.53965500
_cell_length_b   5.58626254
_cell_length_c   6.96401919
_cell_angle_alpha   91.16454347
_cell_angle_beta   90.00000000
_cell_angle_gamma   90.00000000
_symmetry_Int_Tables_number   1
_chemical_formula_structural   TbTm2PaPt4
_chemical_formula_sum   'Tb1 Tm2 Pa1 Pt4'
_cell_volume   176.56899250
_cell_formula_units_Z   1
loop_
 _symmetry_equiv_pos_site_id
 _symmetry_equiv_pos_as_xyz
  1  'x, y, z'
loop_
 _atom_site_type_symbol
 _atom_site_label
 _atom_site_symmetry_multiplicity
 _atom_site_fract_x
 _atom_site_fract_y
 _atom_site_fract_z
 _atom_site_occupancy
  Tb  Tb0  1  0.250000  0.142307  0.184579  1
  Tm  Tm1  1  0.750000  0.645127  0.315451  1
  Tm  Tm2  1  0.750000  0.854054  0.819457  1
  Pa  Pa3  1  0.250000  0.356442  0.682274  1
  Pt  Pt4  1  0.250000  0.837691  0.551470  1
  Pt  Pt5  1  0.250000  0.652778  0.037353  1
  Pt  Pt6  1  0.750000  0.168967  0.465352  1
  Pt  Pt7  1  0.750000  0.342632  0.944063  1
