# generated using pymatgen
data_Ce5Nd6Tm5(CdRu)4
_symmetry_space_group_name_H-M   'P 1'
_cell_length_a   9.61444753
_cell_length_b   9.70301664
_cell_length_c   9.70301654
_cell_angle_alpha   59.73539993
_cell_angle_beta   60.30149426
_cell_angle_gamma   60.30149845
_symmetry_Int_Tables_number   1
_chemical_formula_structural   Ce5Nd6Tm5(CdRu)4
_chemical_formula_sum   'Ce5 Nd6 Tm5 Cd4 Ru4'
_cell_volume   641.65750628
_cell_formula_units_Z   1
loop_
 _symmetry_equiv_pos_site_id
 _symmetry_equiv_pos_as_xyz
  1  'x, y, z'
loop_
 _atom_site_type_symbol
 _atom_site_label
 _atom_site_symmetry_multiplicity
 _atom_site_fract_x
 _atom_site_fract_y
 _atom_site_fract_z
 _atom_site_occupancy
  Ce  Ce0  1  0.817650  0.182350  0.182350  1
  Ce  Ce1  1  0.346904  0.345175  0.961017  1
  Ce  Ce2  1  0.346904  0.961017  0.345175  1
  Ce  Ce3  1  0.960569  0.349751  0.349751  1
  Ce  Ce4  1  0.339931  0.349751  0.349751  1
  Nd  Nd5  1  0.557600  0.557071  0.941559  1
  Nd  Nd6  1  0.943771  0.557071  0.941559  1
  Nd  Nd7  1  0.559445  0.940555  0.940555  1
  Nd  Nd8  1  0.943771  0.941559  0.557071  1
  Nd  Nd9  1  0.557600  0.941559  0.557071  1
  Nd  Nd10  1  0.938699  0.561301  0.561301  1
  Tm  Tm11  1  0.189319  0.183991  0.810966  1
  Tm  Tm12  1  0.815723  0.183991  0.810966  1
  Tm  Tm13  1  0.184371  0.815629  0.815628  1
  Tm  Tm14  1  0.815723  0.810967  0.183991  1
  Tm  Tm15  1  0.189318  0.810966  0.183990  1
  Cd  Cd16  1  0.578108  0.582829  0.260954  1
  Cd  Cd17  1  0.578108  0.260954  0.582829  1
  Cd  Cd18  1  0.261866  0.579607  0.579607  1
  Cd  Cd19  1  0.578921  0.579607  0.579607  1
  Ru  Ru20  1  0.146117  0.142867  0.564899  1
  Ru  Ru21  1  0.146117  0.564899  0.142867  1
  Ru  Ru22  1  0.584412  0.148269  0.148269  1
  Ru  Ru23  1  0.119049  0.148269  0.148269  1
