# generated using pymatgen
data_Ba2CuReN4
_symmetry_space_group_name_H-M   'P 1'
_cell_length_a   6.00657900
_cell_length_b   6.60912330
_cell_length_c   7.72582522
_cell_angle_alpha   68.98038545
_cell_angle_beta   90.00000000
_cell_angle_gamma   90.00000000
_symmetry_Int_Tables_number   1
_chemical_formula_structural   Ba2CuReN4
_chemical_formula_sum   'Ba4 Cu2 Re2 N8'
_cell_volume   286.29289077
_cell_formula_units_Z   2
loop_
 _symmetry_equiv_pos_site_id
 _symmetry_equiv_pos_as_xyz
  1  'x, y, z'
loop_
 _atom_site_type_symbol
 _atom_site_label
 _atom_site_symmetry_multiplicity
 _atom_site_fract_x
 _atom_site_fract_y
 _atom_site_fract_z
 _atom_site_occupancy
  Ba  Ba0  1  0.250000  0.264429  0.053560  1
  Ba  Ba1  1  0.750000  0.735571  0.946440  1
  Ba  Ba2  1  0.750000  0.826236  0.415141  1
  Ba  Ba3  1  0.250000  0.173764  0.584859  1
  Cu  Cu4  1  0.750000  0.352224  0.388423  1
  Cu  Cu5  1  0.250000  0.647776  0.611577  1
  Re  Re6  1  0.250000  0.703085  0.216342  1
  Re  Re7  1  0.750000  0.296915  0.783658  1
  N  N8  1  0.503667  0.472221  0.736536  1
  N  N9  1  0.003667  0.527779  0.263464  1
  N  N10  1  0.496333  0.527779  0.263464  1
  N  N11  1  0.996333  0.472221  0.736536  1
  N  N12  1  0.750000  0.121193  0.634769  1
  N  N13  1  0.250000  0.878807  0.365231  1
  N  N14  1  0.750000  0.122507  0.026906  1
  N  N15  1  0.250000  0.877493  0.973094  1
