# generated using pymatgen
data_Tb5CeUO12
_symmetry_space_group_name_H-M   'P 1'
_cell_length_a   6.67402759
_cell_length_b   6.64276612
_cell_length_c   6.66545500
_cell_angle_alpha   99.15280794
_cell_angle_beta   99.10466623
_cell_angle_gamma   99.31098173
_symmetry_Int_Tables_number   1
_chemical_formula_structural   Tb5CeUO12
_chemical_formula_sum   'Tb5 Ce1 U1 O12'
_cell_volume   282.72033857
_cell_formula_units_Z   1
loop_
 _symmetry_equiv_pos_site_id
 _symmetry_equiv_pos_as_xyz
  1  'x, y, z'
loop_
 _atom_site_type_symbol
 _atom_site_label
 _atom_site_symmetry_multiplicity
 _atom_site_fract_x
 _atom_site_fract_y
 _atom_site_fract_z
 _atom_site_occupancy
  Tb  Tb0  1  0.854987  0.390210  0.680635  1
  Tb  Tb1  1  0.687828  0.857984  0.392551  1
  Tb  Tb2  1  0.610683  0.312614  0.144142  1
  Tb  Tb3  1  0.138964  0.608147  0.315184  1
  Tb  Tb4  1  0.316462  0.143501  0.606859  1
  Ce  Ce5  1  0.395593  0.685951  0.858102  1
  U  U6  1  0.001814  0.001758  0.000147  1
  O  O7  1  0.178641  0.431402  0.589079  1
  O  O8  1  0.584240  0.176508  0.430685  1
  O  O9  1  0.427389  0.587219  0.172592  1
  O  O10  1  0.820577  0.568360  0.411539  1
  O  O11  1  0.414496  0.817259  0.572613  1
  O  O12  1  0.570455  0.416526  0.822586  1
  O  O13  1  0.919341  0.052157  0.690152  1
  O  O14  1  0.948573  0.311055  0.079716  1
  O  O15  1  0.312115  0.076168  0.943296  1
  O  O16  1  0.079889  0.947356  0.311154  1
  O  O17  1  0.048787  0.690163  0.921203  1
  O  O18  1  0.689164  0.925663  0.057767  1
