# generated using pymatgen
data_Zr6CuOs3Ru2
_symmetry_space_group_name_H-M   'P 1'
_cell_length_a   4.65665800
_cell_length_b   6.52811200
_cell_length_c   14.01702900
_cell_angle_alpha   90.00000000
_cell_angle_beta   90.00203496
_cell_angle_gamma   90.00000000
_symmetry_Int_Tables_number   1
_chemical_formula_structural   Zr6CuOs3Ru2
_chemical_formula_sum   'Zr12 Cu2 Os6 Ru4'
_cell_volume   426.10625716
_cell_formula_units_Z   2
loop_
 _symmetry_equiv_pos_site_id
 _symmetry_equiv_pos_as_xyz
  1  'x, y, z'
loop_
 _atom_site_type_symbol
 _atom_site_label
 _atom_site_symmetry_multiplicity
 _atom_site_fract_x
 _atom_site_fract_y
 _atom_site_fract_z
 _atom_site_occupancy
  Zr  Zr0  1  0.499995  0.250637  0.999934  1
  Zr  Zr1  1  0.499995  0.749363  0.999934  1
  Zr  Zr2  1  0.999975  0.249363  0.166744  1
  Zr  Zr3  1  0.999975  0.750637  0.166744  1
  Zr  Zr4  1  0.499954  0.250084  0.333217  1
  Zr  Zr5  1  0.499954  0.749916  0.333217  1
  Zr  Zr6  1  0.999998  0.250009  0.499790  1
  Zr  Zr7  1  0.999998  0.749991  0.499790  1
  Zr  Zr8  1  0.500028  0.250010  0.666889  1
  Zr  Zr9  1  0.500028  0.749990  0.666889  1
  Zr  Zr10  1  0.000041  0.249933  0.833450  1
  Zr  Zr11  1  0.000041  0.750067  0.833450  1
  Cu  Cu12  1  0.000011  0.500000  0.999561  1
  Cu  Cu13  1  0.500004  0.000000  0.167022  1
  Os  Os14  1  0.999992  0.000000  0.000804  1
  Os  Os15  1  0.499961  0.500000  0.165889  1
  Os  Os16  1  0.999933  0.000000  0.332317  1
  Os  Os17  1  0.500002  0.500000  0.499643  1
  Os  Os18  1  0.000027  0.000000  0.667019  1
  Os  Os19  1  0.500052  0.500000  0.834357  1
  Ru  Ru20  1  0.999934  0.500000  0.334494  1
  Ru  Ru21  1  0.499994  0.000000  0.500597  1
  Ru  Ru22  1  0.000068  0.500000  0.666084  1
  Ru  Ru23  1  0.500034  0.000000  0.832166  1
