# generated using pymatgen
data_Dy4Ho4In2NiIr
_symmetry_space_group_name_H-M   'P 1'
_cell_length_a   9.58898164
_cell_length_b   9.58898176
_cell_length_c   9.56161500
_cell_angle_alpha   60.09436063
_cell_angle_beta   60.09436020
_cell_angle_gamma   60.40738271
_symmetry_Int_Tables_number   1
_chemical_formula_structural   Dy4Ho4In2NiIr
_chemical_formula_sum   'Dy8 Ho8 In4 Ni2 Ir2'
_cell_volume   624.45665372
_cell_formula_units_Z   2
loop_
 _symmetry_equiv_pos_site_id
 _symmetry_equiv_pos_as_xyz
  1  'x, y, z'
loop_
 _atom_site_type_symbol
 _atom_site_label
 _atom_site_symmetry_multiplicity
 _atom_site_fract_x
 _atom_site_fract_y
 _atom_site_fract_z
 _atom_site_occupancy
  Dy  Dy0  1  0.439573  0.439573  0.060427  1
  Dy  Dy1  1  0.059504  0.059504  0.440496  1
  Dy  Dy2  1  0.188868  0.813925  0.808037  1
  Dy  Dy3  1  0.813925  0.188868  0.189170  1
  Dy  Dy4  1  0.813925  0.188868  0.808037  1
  Dy  Dy5  1  0.188868  0.813925  0.189170  1
  Dy  Dy6  1  0.810386  0.810386  0.189614  1
  Dy  Dy7  1  0.187762  0.187762  0.812238  1
  Ho  Ho8  1  0.597824  0.597824  0.599311  1
  Ho  Ho9  1  0.597824  0.597824  0.205041  1
  Ho  Ho10  1  0.596945  0.202054  0.600501  1
  Ho  Ho11  1  0.202054  0.596945  0.600501  1
  Ho  Ho12  1  0.061300  0.441351  0.438419  1
  Ho  Ho13  1  0.441351  0.061300  0.058930  1
  Ho  Ho14  1  0.441351  0.061300  0.438419  1
  Ho  Ho15  1  0.061300  0.441351  0.058930  1
  In  In16  1  0.832326  0.832326  0.832328  1
  In  In17  1  0.832326  0.832326  0.503019  1
  In  In18  1  0.832168  0.503660  0.832086  1
  In  In19  1  0.503660  0.832168  0.832086  1
  Ni  Ni20  1  0.390801  0.390801  0.393971  1
  Ni  Ni21  1  0.390801  0.390801  0.824428  1
  Ir  Ir22  1  0.391069  0.824090  0.392421  1
  Ir  Ir23  1  0.824090  0.391069  0.392421  1
