# generated using pymatgen
data_ErTm7Co3Si12Rh
_symmetry_space_group_name_H-M   'P 1'
_cell_length_a   7.98639400
_cell_length_b   7.98639479
_cell_length_c   7.79334900
_cell_angle_alpha   90.00000000
_cell_angle_beta   90.00000000
_cell_angle_gamma   119.99999673
_symmetry_Int_Tables_number   1
_chemical_formula_structural   ErTm7Co3Si12Rh
_chemical_formula_sum   'Er1 Tm7 Co3 Si12 Rh1'
_cell_volume   430.48326973
_cell_formula_units_Z   1
loop_
 _symmetry_equiv_pos_site_id
 _symmetry_equiv_pos_as_xyz
  1  'x, y, z'
loop_
 _atom_site_type_symbol
 _atom_site_label
 _atom_site_symmetry_multiplicity
 _atom_site_fract_x
 _atom_site_fract_y
 _atom_site_fract_z
 _atom_site_occupancy
  Er  Er0  1  0.000000  0.000000  0.249067  1
  Tm  Tm1  1  0.983116  0.491559  0.248493  1
  Tm  Tm2  1  0.508441  0.491559  0.248493  1
  Tm  Tm3  1  0.494308  0.988615  0.750332  1
  Tm  Tm4  1  0.011385  0.505692  0.750332  1
  Tm  Tm5  1  0.494308  0.505692  0.750332  1
  Tm  Tm6  1  0.508441  0.016884  0.248493  1
  Tm  Tm7  1  0.000000  0.000000  0.751190  1
  Co  Co8  1  0.333333  0.666667  0.033411  1
  Co  Co9  1  0.666667  0.333333  0.967154  1
  Co  Co10  1  0.666667  0.333333  0.533029  1
  Si  Si11  1  0.166288  0.833712  0.500162  1
  Si  Si12  1  0.166288  0.332577  0.500162  1
  Si  Si13  1  0.667423  0.833712  0.500162  1
  Si  Si14  1  0.342307  0.171154  0.998401  1
  Si  Si15  1  0.828024  0.656048  0.501451  1
  Si  Si16  1  0.828846  0.171154  0.998401  1
  Si  Si17  1  0.828846  0.657693  0.998401  1
  Si  Si18  1  0.171736  0.343471  0.001311  1
  Si  Si19  1  0.656529  0.828264  0.001311  1
  Si  Si20  1  0.343952  0.171976  0.501451  1
  Si  Si21  1  0.828024  0.171976  0.501451  1
  Si  Si22  1  0.171736  0.828264  0.001311  1
  Rh  Rh23  1  0.333333  0.666667  0.465694  1
