# generated using pymatgen
data_Y3InSn3Ru2
_symmetry_space_group_name_H-M   'P 1'
_cell_length_a   7.76770300
_cell_length_b   7.76770314
_cell_length_c   3.91698400
_cell_angle_alpha   90.00000000
_cell_angle_beta   90.00000000
_cell_angle_gamma   120.00000366
_symmetry_Int_Tables_number   1
_chemical_formula_structural   Y3InSn3Ru2
_chemical_formula_sum   'Y3 In1 Sn3 Ru2'
_cell_volume   204.67634114
_cell_formula_units_Z   1
loop_
 _symmetry_equiv_pos_site_id
 _symmetry_equiv_pos_as_xyz
  1  'x, y, z'
loop_
 _atom_site_type_symbol
 _atom_site_label
 _atom_site_symmetry_multiplicity
 _atom_site_fract_x
 _atom_site_fract_y
 _atom_site_fract_z
 _atom_site_occupancy
  Y  Y0  1  0.385873  0.971138  0.500000  1
  Y  Y1  1  0.028862  0.414736  0.500000  1
  Y  Y2  1  0.585264  0.614127  0.500000  1
  In  In3  1  0.666667  0.333333  0.000000  1
  Sn  Sn4  1  0.740993  0.989410  0.000000  1
  Sn  Sn5  1  0.010590  0.751581  0.000000  1
  Sn  Sn6  1  0.248419  0.259007  0.000000  1
  Ru  Ru7  1  0.333333  0.666667  0.000000  1
  Ru  Ru8  1  0.000000  0.000000  0.500000  1
