# generated using pymatgen
data_TbScZn4Ru
_symmetry_space_group_name_H-M   'P 1'
_cell_length_a   6.91922800
_cell_length_b   6.91922800
_cell_length_c   5.03404100
_cell_angle_alpha   90.00000000
_cell_angle_beta   90.00000000
_cell_angle_gamma   90.00000000
_symmetry_Int_Tables_number   1
_chemical_formula_structural   TbScZn4Ru
_chemical_formula_sum   'Tb2 Sc2 Zn8 Ru2'
_cell_volume   241.00831783
_cell_formula_units_Z   2
loop_
 _symmetry_equiv_pos_site_id
 _symmetry_equiv_pos_as_xyz
  1  'x, y, z'
loop_
 _atom_site_type_symbol
 _atom_site_label
 _atom_site_symmetry_multiplicity
 _atom_site_fract_x
 _atom_site_fract_y
 _atom_site_fract_z
 _atom_site_occupancy
  Tb  Tb0  1  0.000000  0.500000  0.754122  1
  Tb  Tb1  1  0.500000  0.000000  0.245878  1
  Sc  Sc2  1  0.000000  0.000000  0.000000  1
  Sc  Sc3  1  0.500000  0.500000  0.000000  1
  Zn  Zn4  1  0.191453  0.691453  0.268857  1
  Zn  Zn5  1  0.808547  0.691453  0.268857  1
  Zn  Zn6  1  0.808547  0.308547  0.268857  1
  Zn  Zn7  1  0.308547  0.191453  0.731143  1
  Zn  Zn8  1  0.191453  0.308547  0.268857  1
  Zn  Zn9  1  0.691453  0.191453  0.731143  1
  Zn  Zn10  1  0.691453  0.808547  0.731143  1
  Zn  Zn11  1  0.308547  0.808547  0.731143  1
  Ru  Ru12  1  0.500000  0.500000  0.500000  1
  Ru  Ru13  1  0.000000  0.000000  0.500000  1
