# generated using pymatgen
data_ZrZnCu3Au
_symmetry_space_group_name_H-M   'P 1'
_cell_length_a   4.96253802
_cell_length_b   4.96253811
_cell_length_c   4.96253818
_cell_angle_alpha   60.38396121
_cell_angle_beta   60.38396020
_cell_angle_gamma   60.38395005
_symmetry_Int_Tables_number   1
_chemical_formula_structural   ZrZnCu3Au
_chemical_formula_sum   'Zr1 Zn1 Cu3 Au1'
_cell_volume   87.16691423
_cell_formula_units_Z   1
loop_
 _symmetry_equiv_pos_site_id
 _symmetry_equiv_pos_as_xyz
  1  'x, y, z'
loop_
 _atom_site_type_symbol
 _atom_site_label
 _atom_site_symmetry_multiplicity
 _atom_site_fract_x
 _atom_site_fract_y
 _atom_site_fract_z
 _atom_site_occupancy
  Zr  Zr0  1  0.248028  0.248028  0.248028  1
  Zn  Zn1  1  0.626662  0.626662  0.626662  1
  Cu  Cu2  1  0.625446  0.625446  0.125447  1
  Cu  Cu3  1  0.625446  0.125447  0.625446  1
  Cu  Cu4  1  0.125447  0.625446  0.625446  1
  Au  Au5  1  0.998970  0.998970  0.998970  1
