# generated using pymatgen
data_Pr4Al5Ir9
_symmetry_space_group_name_H-M   'P 1'
_cell_length_a   5.65585300
_cell_length_b   5.65585279
_cell_length_c   23.63063100
_cell_angle_alpha   90.00000000
_cell_angle_beta   90.00000000
_cell_angle_gamma   119.99998369
_symmetry_Int_Tables_number   1
_chemical_formula_structural   Pr4Al5Ir9
_chemical_formula_sum   'Pr8 Al10 Ir18'
_cell_volume   654.63953850
_cell_formula_units_Z   2
loop_
 _symmetry_equiv_pos_site_id
 _symmetry_equiv_pos_as_xyz
  1  'x, y, z'
loop_
 _atom_site_type_symbol
 _atom_site_label
 _atom_site_symmetry_multiplicity
 _atom_site_fract_x
 _atom_site_fract_y
 _atom_site_fract_z
 _atom_site_occupancy
  Pr  Pr0  1  0.333333  0.666667  0.530035  1
  Pr  Pr1  1  0.666667  0.333333  0.469965  1
  Pr  Pr2  1  0.666667  0.333333  0.030035  1
  Pr  Pr3  1  0.333333  0.666667  0.969965  1
  Pr  Pr4  1  0.333333  0.666667  0.675942  1
  Pr  Pr5  1  0.666667  0.333333  0.324058  1
  Pr  Pr6  1  0.666667  0.333333  0.175942  1
  Pr  Pr7  1  0.333333  0.666667  0.824058  1
  Al  Al8  1  0.000000  0.000000  0.000000  1
  Al  Al9  1  0.000000  0.000000  0.500000  1
  Al  Al10  1  0.333333  0.666667  0.168846  1
  Al  Al11  1  0.666667  0.333333  0.831154  1
  Al  Al12  1  0.666667  0.333333  0.668846  1
  Al  Al13  1  0.333333  0.666667  0.331154  1
  Al  Al14  1  0.000000  0.000000  0.166933  1
  Al  Al15  1  0.000000  0.000000  0.833067  1
  Al  Al16  1  0.000000  0.000000  0.666933  1
  Al  Al17  1  0.000000  0.000000  0.333067  1
  Ir  Ir18  1  0.169037  0.338073  0.085710  1
  Ir  Ir19  1  0.830963  0.661927  0.914290  1
  Ir  Ir20  1  0.661927  0.830963  0.085710  1
  Ir  Ir21  1  0.830963  0.661927  0.585710  1
  Ir  Ir22  1  0.338073  0.169037  0.914290  1
  Ir  Ir23  1  0.169037  0.338073  0.414290  1
  Ir  Ir24  1  0.169037  0.830963  0.085710  1
  Ir  Ir25  1  0.338073  0.169037  0.585710  1
  Ir  Ir26  1  0.830963  0.169037  0.914290  1
  Ir  Ir27  1  0.661927  0.830963  0.414290  1
  Ir  Ir28  1  0.830963  0.169037  0.585710  1
  Ir  Ir29  1  0.169037  0.830963  0.414290  1
  Ir  Ir30  1  0.165913  0.331825  0.250000  1
  Ir  Ir31  1  0.834087  0.668175  0.750000  1
  Ir  Ir32  1  0.668175  0.834087  0.250000  1
  Ir  Ir33  1  0.331825  0.165913  0.750000  1
  Ir  Ir34  1  0.165913  0.834087  0.250000  1
  Ir  Ir35  1  0.834087  0.165913  0.750000  1
