# generated using pymatgen
data_Y(SiTc2)2
_symmetry_space_group_name_H-M   'P 1'
_cell_length_a   7.37348800
_cell_length_b   7.37348800
_cell_length_c   4.13554000
_cell_angle_alpha   90.00000000
_cell_angle_beta   90.00000000
_cell_angle_gamma   90.00000000
_symmetry_Int_Tables_number   1
_chemical_formula_structural   Y(SiTc2)2
_chemical_formula_sum   'Y2 Si4 Tc8'
_cell_volume   224.84238395
_cell_formula_units_Z   2
loop_
 _symmetry_equiv_pos_site_id
 _symmetry_equiv_pos_as_xyz
  1  'x, y, z'
loop_
 _atom_site_type_symbol
 _atom_site_label
 _atom_site_symmetry_multiplicity
 _atom_site_fract_x
 _atom_site_fract_y
 _atom_site_fract_z
 _atom_site_occupancy
  Y  Y0  1  0.500000  0.500000  0.000000  1
  Y  Y1  1  0.000000  0.000000  0.500000  1
  Si  Si2  1  0.708855  0.708855  0.500000  1
  Si  Si3  1  0.291145  0.291145  0.500000  1
  Si  Si4  1  0.208855  0.791145  0.000000  1
  Si  Si5  1  0.791145  0.208855  0.000000  1
  Tc  Tc6  1  0.592925  0.156113  0.500000  1
  Tc  Tc7  1  0.407075  0.843887  0.500000  1
  Tc  Tc8  1  0.092925  0.343887  0.000000  1
  Tc  Tc9  1  0.907075  0.656113  0.000000  1
  Tc  Tc10  1  0.156113  0.592925  0.500000  1
  Tc  Tc11  1  0.843887  0.407075  0.500000  1
  Tc  Tc12  1  0.343887  0.092925  0.000000  1
  Tc  Tc13  1  0.656113  0.907075  0.000000  1
