# generated using pymatgen
data_Y5HoCo8(P6Rh5)2
_symmetry_space_group_name_H-M   'P 1'
_cell_length_a   3.78325000
_cell_length_b   10.93928866
_cell_length_c   12.54908275
_cell_angle_alpha   89.96037592
_cell_angle_beta   90.00000000
_cell_angle_gamma   90.00000000
_symmetry_Int_Tables_number   1
_chemical_formula_structural   Y5HoCo8(P6Rh5)2
_chemical_formula_sum   'Y5 Ho1 Co8 P12 Rh10'
_cell_volume   519.35701514
_cell_formula_units_Z   1
loop_
 _symmetry_equiv_pos_site_id
 _symmetry_equiv_pos_as_xyz
  1  'x, y, z'
loop_
 _atom_site_type_symbol
 _atom_site_label
 _atom_site_symmetry_multiplicity
 _atom_site_fract_x
 _atom_site_fract_y
 _atom_site_fract_z
 _atom_site_occupancy
  Y  Y0  1  0.000000  0.499967  0.517987  1
  Y  Y1  1  0.500000  0.999994  0.476429  1
  Y  Y2  1  0.500000  0.815864  0.197624  1
  Y  Y3  1  0.500000  0.183998  0.197796  1
  Y  Y4  1  0.000000  0.680462  0.803900  1
  Ho  Ho5  1  0.000000  0.319671  0.803751  1
  Co  Co6  1  0.000000  0.499830  0.992341  1
  Co  Co7  1  0.500000  0.000347  0.011222  1
  Co  Co8  1  0.000000  0.620165  0.283975  1
  Co  Co9  1  0.000000  0.379763  0.284087  1
  Co  Co10  1  0.500000  0.334472  0.997081  1
  Co  Co11  1  0.500000  0.665302  0.997293  1
  Co  Co12  1  0.000000  0.168797  0.006627  1
  Co  Co13  1  0.000000  0.831464  0.006854  1
  P  P14  1  0.500000  0.316297  0.619674  1
  P  P15  1  0.500000  0.683389  0.619340  1
  P  P16  1  0.000000  0.192641  0.372854  1
  P  P17  1  0.000000  0.807359  0.372728  1
  P  P18  1  0.500000  0.499660  0.894569  1
  P  P19  1  0.000000  0.000116  0.106921  1
  P  P20  1  0.500000  0.840683  0.905087  1
  P  P21  1  0.500000  0.159948  0.904837  1
  P  P22  1  0.000000  0.656353  0.103714  1
  P  P23  1  0.000000  0.343517  0.103884  1
  P  P24  1  0.500000  0.499987  0.340895  1
  P  P25  1  0.000000  0.999923  0.653213  1
  Rh  Rh26  1  0.500000  0.300799  0.426126  1
  Rh  Rh27  1  0.500000  0.699070  0.425924  1
  Rh  Rh28  1  0.000000  0.205425  0.569135  1
  Rh  Rh29  1  0.000000  0.794444  0.568814  1
  Rh  Rh30  1  0.500000  0.873006  0.716130  1
  Rh  Rh31  1  0.500000  0.127776  0.716779  1
  Rh  Rh32  1  0.500000  0.499811  0.157333  1
  Rh  Rh33  1  0.000000  0.000148  0.843132  1
  Rh  Rh34  1  0.500000  0.499491  0.708878  1
  Rh  Rh35  1  0.000000  0.000059  0.293067  1
