# generated using pymatgen
data_YbHo3(Pt2O7)2
_symmetry_space_group_name_H-M   'P 1'
_cell_length_a   7.24656492
_cell_length_b   7.24656558
_cell_length_c   7.24762904
_cell_angle_alpha   60.00486098
_cell_angle_beta   60.00485699
_cell_angle_gamma   59.99999974
_symmetry_Int_Tables_number   1
_chemical_formula_structural   YbHo3(Pt2O7)2
_chemical_formula_sum   'Yb1 Ho3 Pt4 O14'
_cell_volume   269.13939037
_cell_formula_units_Z   1
loop_
 _symmetry_equiv_pos_site_id
 _symmetry_equiv_pos_as_xyz
  1  'x, y, z'
loop_
 _atom_site_type_symbol
 _atom_site_label
 _atom_site_symmetry_multiplicity
 _atom_site_fract_x
 _atom_site_fract_y
 _atom_site_fract_z
 _atom_site_occupancy
  Yb  Yb0  1  0.625000  0.625000  0.125000  1
  Ho  Ho1  1  0.625000  0.625000  0.625000  1
  Ho  Ho2  1  0.625000  0.125000  0.625000  1
  Ho  Ho3  1  0.125000  0.625000  0.625000  1
  Pt  Pt4  1  0.125000  0.125000  0.125000  1
  Pt  Pt5  1  0.625000  0.125000  0.125000  1
  Pt  Pt6  1  0.125000  0.625000  0.125000  1
  Pt  Pt7  1  0.125000  0.125000  0.625000  1
  O  O8  1  0.034795  0.464761  0.465648  1
  O  O9  1  0.787521  0.787521  0.216440  1
  O  O10  1  0.787521  0.208518  0.216440  1
  O  O11  1  0.464761  0.034795  0.465648  1
  O  O12  1  0.752536  0.752536  0.742393  1
  O  O13  1  0.034795  0.034795  0.465648  1
  O  O14  1  0.041482  0.462479  0.033560  1
  O  O15  1  0.785239  0.215205  0.784352  1
  O  O16  1  0.208518  0.787521  0.216440  1
  O  O17  1  0.215205  0.215205  0.784352  1
  O  O18  1  0.497464  0.497464  0.507607  1
  O  O19  1  0.462479  0.041482  0.033560  1
  O  O20  1  0.462479  0.462479  0.033560  1
  O  O21  1  0.215205  0.785239  0.784352  1
