# generated using pymatgen
data_Tb2Sm2Er2NiBr10
_symmetry_space_group_name_H-M   'P 1'
_cell_length_a   7.36395350
_cell_length_b   9.14548136
_cell_length_c   9.34945349
_cell_angle_alpha   107.57271985
_cell_angle_beta   96.45452055
_cell_angle_gamma   105.95234995
_symmetry_Int_Tables_number   1
_chemical_formula_structural   Tb2Sm2Er2NiBr10
_chemical_formula_sum   'Tb2 Sm2 Er2 Ni1 Br10'
_cell_volume   563.89194862
_cell_formula_units_Z   1
loop_
 _symmetry_equiv_pos_site_id
 _symmetry_equiv_pos_as_xyz
  1  'x, y, z'
loop_
 _atom_site_type_symbol
 _atom_site_label
 _atom_site_symmetry_multiplicity
 _atom_site_fract_x
 _atom_site_fract_y
 _atom_site_fract_z
 _atom_site_occupancy
  Tb  Tb0  1  0.354394  0.134224  0.172704  1
  Tb  Tb1  1  0.645606  0.865776  0.827296  1
  Sm  Sm2  1  0.127872  0.048894  0.756403  1
  Sm  Sm3  1  0.872128  0.951106  0.243597  1
  Er  Er4  1  0.971224  0.291910  0.089934  1
  Er  Er5  1  0.028776  0.708090  0.910066  1
  Ni  Ni6  1  0.000000  0.000000  0.000000  1
  Br  Br7  1  0.553846  0.181871  0.917347  1
  Br  Br8  1  0.446154  0.818129  0.082653  1
  Br  Br9  1  0.345996  0.456000  0.269804  1
  Br  Br10  1  0.654004  0.544000  0.730196  1
  Br  Br11  1  0.256249  0.082209  0.452039  1
  Br  Br12  1  0.743751  0.917791  0.547961  1
  Br  Br13  1  0.782887  0.261486  0.339344  1
  Br  Br14  1  0.217113  0.738514  0.660656  1
  Br  Br15  1  0.083246  0.378123  0.832620  1
  Br  Br16  1  0.916754  0.621877  0.167380  1
