# generated using pymatgen
data_CaNd2Si3P3Pd20
_symmetry_space_group_name_H-M   'P 1'
_cell_length_a   8.73285862
_cell_length_b   8.73692149
_cell_length_c   8.74537901
_cell_angle_alpha   59.93722877
_cell_angle_beta   59.98332429
_cell_angle_gamma   60.07944797
_symmetry_Int_Tables_number   1
_chemical_formula_structural   CaNd2Si3P3Pd20
_chemical_formula_sum   'Ca1 Nd2 Si3 P3 Pd20'
_cell_volume   471.82082953
_cell_formula_units_Z   1
loop_
 _symmetry_equiv_pos_site_id
 _symmetry_equiv_pos_as_xyz
  1  'x, y, z'
loop_
 _atom_site_type_symbol
 _atom_site_label
 _atom_site_symmetry_multiplicity
 _atom_site_fract_x
 _atom_site_fract_y
 _atom_site_fract_z
 _atom_site_occupancy
  Ca  Ca0  1  0.000877  0.999123  0.000877  1
  Nd  Nd1  1  0.249545  0.250455  0.249545  1
  Nd  Nd2  1  0.749545  0.750455  0.749545  1
  Si  Si3  1  0.735695  0.264305  0.262752  1
  Si  Si4  1  0.262752  0.737248  0.735695  1
  Si  Si5  1  0.264481  0.735519  0.264481  1
  P  P6  1  0.736906  0.263094  0.736906  1
  P  P7  1  0.263010  0.264807  0.735193  1
  P  P8  1  0.735193  0.736990  0.263010  1
  Pd  Pd9  1  0.385110  0.384795  0.387063  1
  Pd  Pd10  1  0.614988  0.613321  0.613461  1
  Pd  Pd11  1  0.386679  0.385012  0.841770  1
  Pd  Pd12  1  0.387063  0.843033  0.385110  1
  Pd  Pd13  1  0.615205  0.614890  0.156967  1
  Pd  Pd14  1  0.613461  0.158230  0.614988  1
  Pd  Pd15  1  0.841770  0.386539  0.386679  1
  Pd  Pd16  1  0.156967  0.612937  0.615205  1
  Pd  Pd17  1  0.346363  0.002047  0.997953  1
  Pd  Pd18  1  0.654619  0.000019  0.999981  1
  Pd  Pd19  1  0.999981  0.345381  0.654619  1
  Pd  Pd20  1  0.997953  0.653637  0.346363  1
  Pd  Pd21  1  0.003059  0.345728  0.998685  1
  Pd  Pd22  1  0.654272  0.996941  0.347472  1
  Pd  Pd23  1  0.998685  0.652528  0.003059  1
  Pd  Pd24  1  0.347472  0.001315  0.654272  1
  Pd  Pd25  1  0.000177  0.999823  0.347450  1
  Pd  Pd26  1  0.997862  0.002138  0.652863  1
  Pd  Pd27  1  0.652863  0.347137  0.997862  1
  Pd  Pd28  1  0.347450  0.652550  0.000177  1
