# generated using pymatgen
data_Ac3La5(HoPb4)2
_symmetry_space_group_name_H-M   'P 1'
_cell_length_a   8.51915800
_cell_length_b   8.58013090
_cell_length_c   16.44556600
_cell_angle_alpha   90.14870649
_cell_angle_beta   90.00000000
_cell_angle_gamma   90.00000000
_symmetry_Int_Tables_number   1
_chemical_formula_structural   Ac3La5(HoPb4)2
_chemical_formula_sum   'Ac6 La10 Ho4 Pb16'
_cell_volume   1202.09266926
_cell_formula_units_Z   2
loop_
 _symmetry_equiv_pos_site_id
 _symmetry_equiv_pos_as_xyz
  1  'x, y, z'
loop_
 _atom_site_type_symbol
 _atom_site_label
 _atom_site_symmetry_multiplicity
 _atom_site_fract_x
 _atom_site_fract_y
 _atom_site_fract_z
 _atom_site_occupancy
  Ac  Ac0  1  0.975044  0.822529  0.903206  1
  Ac  Ac1  1  0.475044  0.677471  0.596794  1
  Ac  Ac2  1  0.524686  0.319048  0.097674  1
  Ac  Ac3  1  0.024686  0.180952  0.402326  1
  Ac  Ac4  1  0.974555  0.818852  0.596395  1
  Ac  Ac5  1  0.474555  0.681148  0.903605  1
  La  La6  1  0.526366  0.320837  0.399259  1
  La  La7  1  0.026366  0.179163  0.100741  1
  La  La8  1  0.870640  0.656125  0.380319  1
  La  La9  1  0.370640  0.843875  0.119681  1
  La  La10  1  0.629014  0.154471  0.618595  1
  La  La11  1  0.129014  0.345529  0.881405  1
  La  La12  1  0.129836  0.345512  0.618412  1
  La  La13  1  0.629836  0.154488  0.881588  1
  La  La14  1  0.369479  0.844459  0.380449  1
  La  La15  1  0.869479  0.655541  0.119551  1
  Ho  Ho16  1  0.292865  0.004538  0.750450  1
  Ho  Ho17  1  0.792865  0.495462  0.749550  1
  Ho  Ho18  1  0.206035  0.503263  0.249924  1
  Ho  Ho19  1  0.706035  0.996737  0.250076  1
  Pb  Pb20  1  0.788509  0.458979  0.544041  1
  Pb  Pb21  1  0.288509  0.041021  0.955959  1
  Pb  Pb22  1  0.706670  0.966415  0.451087  1
  Pb  Pb23  1  0.206670  0.533585  0.048913  1
  Pb  Pb24  1  0.214293  0.532758  0.450460  1
  Pb  Pb25  1  0.714293  0.967242  0.049540  1
  Pb  Pb26  1  0.291450  0.037407  0.546801  1
  Pb  Pb27  1  0.791450  0.462593  0.953199  1
  Pb  Pb28  1  0.167231  0.649554  0.750042  1
  Pb  Pb29  1  0.667231  0.850446  0.749958  1
  Pb  Pb30  1  0.333211  0.150803  0.251149  1
  Pb  Pb31  1  0.833211  0.349197  0.248851  1
  Pb  Pb32  1  0.935033  0.128870  0.749578  1
  Pb  Pb33  1  0.435033  0.371130  0.750422  1
  Pb  Pb34  1  0.565082  0.625518  0.251182  1
  Pb  Pb35  1  0.065082  0.874482  0.248818  1
