# generated using pymatgen
data_Lu12GaCo4Rh
_symmetry_space_group_name_H-M   'P 1'
_cell_length_a   8.04079495
_cell_length_b   8.04079512
_cell_length_c   8.04079571
_cell_angle_alpha   111.50192561
_cell_angle_beta   110.86828272
_cell_angle_gamma   106.09594688
_symmetry_Int_Tables_number   1
_chemical_formula_structural   Lu12GaCo4Rh
_chemical_formula_sum   'Lu12 Ga1 Co4 Rh1'
_cell_volume   399.15143735
_cell_formula_units_Z   1
loop_
 _symmetry_equiv_pos_site_id
 _symmetry_equiv_pos_as_xyz
  1  'x, y, z'
loop_
 _atom_site_type_symbol
 _atom_site_label
 _atom_site_symmetry_multiplicity
 _atom_site_fract_x
 _atom_site_fract_y
 _atom_site_fract_z
 _atom_site_occupancy
  Lu  Lu0  1  0.040124  0.730126  0.309998  1
  Lu  Lu1  1  0.959876  0.269874  0.690002  1
  Lu  Lu2  1  0.579871  0.269874  0.309998  1
  Lu  Lu3  1  0.420129  0.730126  0.690002  1
  Lu  Lu4  1  0.675233  0.865139  0.189906  1
  Lu  Lu5  1  0.324767  0.514672  0.189906  1
  Lu  Lu6  1  0.324767  0.134861  0.810094  1
  Lu  Lu7  1  0.675233  0.485328  0.810094  1
  Lu  Lu8  1  0.182286  0.219342  0.401628  1
  Lu  Lu9  1  0.817714  0.219342  0.037055  1
  Lu  Lu10  1  0.182286  0.780658  0.962945  1
  Lu  Lu11  1  0.817714  0.780658  0.598372  1
  Ga  Ga12  1  0.500000  0.000000  0.500000  1
  Co  Co13  1  0.653035  0.500000  0.153035  1
  Co  Co14  1  0.346965  0.500000  0.846965  1
  Co  Co15  1  0.884753  0.884753  0.000000  1
  Co  Co16  1  0.115247  0.115247  0.000000  1
  Rh  Rh17  1  0.000000  0.500000  0.500000  1
