# generated using pymatgen
data_AcSm(Lu2Rh9)2
_symmetry_space_group_name_H-M   'P 1'
_cell_length_a   5.24358400
_cell_length_b   5.24358441
_cell_length_c   17.47134400
_cell_angle_alpha   90.00000000
_cell_angle_beta   90.00000000
_cell_angle_gamma   119.99998481
_symmetry_Int_Tables_number   1
_chemical_formula_structural   AcSm(Lu2Rh9)2
_chemical_formula_sum   'Ac1 Sm1 Lu4 Rh18'
_cell_volume   416.01932598
_cell_formula_units_Z   1
loop_
 _symmetry_equiv_pos_site_id
 _symmetry_equiv_pos_as_xyz
  1  'x, y, z'
loop_
 _atom_site_type_symbol
 _atom_site_label
 _atom_site_symmetry_multiplicity
 _atom_site_fract_x
 _atom_site_fract_y
 _atom_site_fract_z
 _atom_site_occupancy
  Ac  Ac0  1  0.666667  0.333333  0.250000  1
  Sm  Sm1  1  0.333333  0.666667  0.750000  1
  Lu  Lu2  1  0.333333  0.666667  0.958356  1
  Lu  Lu3  1  0.666667  0.333333  0.038476  1
  Lu  Lu4  1  0.666667  0.333333  0.461524  1
  Lu  Lu5  1  0.333333  0.666667  0.541644  1
  Rh  Rh6  1  0.167682  0.832318  0.378341  1
  Rh  Rh7  1  0.167682  0.335366  0.378341  1
  Rh  Rh8  1  0.664634  0.832318  0.378341  1
  Rh  Rh9  1  0.832384  0.167616  0.624780  1
  Rh  Rh10  1  0.832384  0.664767  0.624780  1
  Rh  Rh11  1  0.335233  0.167616  0.624780  1
  Rh  Rh12  1  0.832384  0.167616  0.875220  1
  Rh  Rh13  1  0.832384  0.664767  0.875220  1
  Rh  Rh14  1  0.335233  0.167616  0.875220  1
  Rh  Rh15  1  0.167682  0.832318  0.121659  1
  Rh  Rh16  1  0.167682  0.335366  0.121659  1
  Rh  Rh17  1  0.664634  0.832318  0.121659  1
  Rh  Rh18  1  0.333333  0.666667  0.250000  1
  Rh  Rh19  1  0.666667  0.333333  0.750000  1
  Rh  Rh20  1  0.000000  0.000000  0.250000  1
  Rh  Rh21  1  0.000000  0.000000  0.750000  1
  Rh  Rh22  1  0.000000  0.000000  0.501412  1
  Rh  Rh23  1  0.000000  0.000000  0.998588  1
