# generated using pymatgen
data_Sr4Mg2Si8NiIr7
_symmetry_space_group_name_H-M   'P 1'
_cell_length_a   6.43197198
_cell_length_b   6.43197615
_cell_length_c   11.17348204
_cell_angle_alpha   89.88757848
_cell_angle_beta   89.88764256
_cell_angle_gamma   113.55159133
_symmetry_Int_Tables_number   1
_chemical_formula_structural   Sr4Mg2Si8NiIr7
_chemical_formula_sum   'Sr4 Mg2 Si8 Ni1 Ir7'
_cell_volume   423.74234190
_cell_formula_units_Z   1
loop_
 _symmetry_equiv_pos_site_id
 _symmetry_equiv_pos_as_xyz
  1  'x, y, z'
loop_
 _atom_site_type_symbol
 _atom_site_label
 _atom_site_symmetry_multiplicity
 _atom_site_fract_x
 _atom_site_fract_y
 _atom_site_fract_z
 _atom_site_occupancy
  Sr  Sr0  1  0.203009  0.799608  0.501106  1
  Sr  Sr1  1  0.200275  0.797961  0.999476  1
  Sr  Sr2  1  0.799608  0.203008  0.501106  1
  Sr  Sr3  1  0.797961  0.200275  0.999476  1
  Mg  Mg4  1  0.024917  0.024917  0.247370  1
  Mg  Mg5  1  0.973734  0.973734  0.748876  1
  Si  Si6  1  0.521999  0.890328  0.251945  1
  Si  Si7  1  0.107802  0.476823  0.750017  1
  Si  Si8  1  0.476823  0.107802  0.750017  1
  Si  Si9  1  0.890328  0.521999  0.251945  1
  Si  Si10  1  0.345456  0.345456  0.421367  1
  Si  Si11  1  0.654675  0.654675  0.572001  1
  Si  Si12  1  0.348103  0.348103  0.080235  1
  Si  Si13  1  0.654814  0.654814  0.922690  1
  Ni  Ni14  1  0.677463  0.677463  0.370643  1
  Ir  Ir15  1  0.506809  0.240454  0.253204  1
  Ir  Ir16  1  0.759466  0.495870  0.747682  1
  Ir  Ir17  1  0.495870  0.759466  0.747682  1
  Ir  Ir18  1  0.240454  0.506810  0.253204  1
  Ir  Ir19  1  0.316751  0.316751  0.624709  1
  Ir  Ir20  1  0.688739  0.688740  0.129918  1
  Ir  Ir21  1  0.314944  0.314943  0.875329  1
