# generated using pymatgen
data_Y2Ho2ErSn4
_symmetry_space_group_name_H-M   'P 1'
_cell_length_a   8.02693600
_cell_length_b   8.16659500
_cell_length_c   15.44760100
_cell_angle_alpha   90.00000000
_cell_angle_beta   90.00000000
_cell_angle_gamma   90.00000000
_symmetry_Int_Tables_number   1
_chemical_formula_structural   Y2Ho2ErSn4
_chemical_formula_sum   'Y8 Ho8 Er4 Sn16'
_cell_volume   1012.63250096
_cell_formula_units_Z   4
loop_
 _symmetry_equiv_pos_site_id
 _symmetry_equiv_pos_as_xyz
  1  'x, y, z'
loop_
 _atom_site_type_symbol
 _atom_site_label
 _atom_site_symmetry_multiplicity
 _atom_site_fract_x
 _atom_site_fract_y
 _atom_site_fract_z
 _atom_site_occupancy
  Y  Y0  1  0.522415  0.320900  0.902232  1
  Y  Y1  1  0.022415  0.179100  0.597768  1
  Y  Y2  1  0.477585  0.679100  0.402232  1
  Y  Y3  1  0.977585  0.820900  0.097768  1
  Y  Y4  1  0.477585  0.679100  0.097768  1
  Y  Y5  1  0.977585  0.820900  0.402232  1
  Y  Y6  1  0.522415  0.320900  0.597768  1
  Y  Y7  1  0.022415  0.179100  0.902232  1
  Ho  Ho8  1  0.367350  0.836546  0.877758  1
  Ho  Ho9  1  0.867350  0.663454  0.622242  1
  Ho  Ho10  1  0.632650  0.163454  0.377758  1
  Ho  Ho11  1  0.132650  0.336546  0.122242  1
  Ho  Ho12  1  0.632650  0.163454  0.122242  1
  Ho  Ho13  1  0.132650  0.336546  0.377758  1
  Ho  Ho14  1  0.367350  0.836546  0.622242  1
  Ho  Ho15  1  0.867350  0.663454  0.877758  1
  Er  Er16  1  0.198699  0.503301  0.750000  1
  Er  Er17  1  0.698699  0.996699  0.750000  1
  Er  Er18  1  0.801301  0.496699  0.250000  1
  Er  Er19  1  0.301301  0.003301  0.250000  1
  Sn  Sn20  1  0.293104  0.036071  0.041868  1
  Sn  Sn21  1  0.793104  0.463929  0.458132  1
  Sn  Sn22  1  0.706896  0.963929  0.541868  1
  Sn  Sn23  1  0.206896  0.536071  0.958132  1
  Sn  Sn24  1  0.706896  0.963929  0.958132  1
  Sn  Sn25  1  0.206896  0.536071  0.541868  1
  Sn  Sn26  1  0.293104  0.036071  0.458132  1
  Sn  Sn27  1  0.793104  0.463929  0.041868  1
  Sn  Sn28  1  0.564937  0.619993  0.750000  1
  Sn  Sn29  1  0.064937  0.880007  0.750000  1
  Sn  Sn30  1  0.435063  0.380007  0.250000  1
  Sn  Sn31  1  0.935063  0.119993  0.250000  1
  Sn  Sn32  1  0.330859  0.147726  0.750000  1
  Sn  Sn33  1  0.830859  0.352274  0.750000  1
  Sn  Sn34  1  0.669141  0.852274  0.250000  1
  Sn  Sn35  1  0.169141  0.647726  0.250000  1
