# generated using pymatgen
data_Rh(SO4)2
_symmetry_space_group_name_H-M   'P 1'
_cell_length_a   8.95038000
_cell_length_b   9.08230100
_cell_length_c   13.32034300
_cell_angle_alpha   90.00000000
_cell_angle_beta   90.00000000
_cell_angle_gamma   90.00000000
_symmetry_Int_Tables_number   1
_chemical_formula_structural   Rh(SO4)2
_chemical_formula_sum   'Rh8 S16 O64'
_cell_volume   1082.81128487
_cell_formula_units_Z   8
loop_
 _symmetry_equiv_pos_site_id
 _symmetry_equiv_pos_as_xyz
  1  'x, y, z'
loop_
 _atom_site_type_symbol
 _atom_site_label
 _atom_site_symmetry_multiplicity
 _atom_site_fract_x
 _atom_site_fract_y
 _atom_site_fract_z
 _atom_site_occupancy
  Rh  Rh0  1  0.895079  0.860458  0.124602  1
  Rh  Rh1  1  0.604921  0.860458  0.624602  1
  Rh  Rh2  1  0.395079  0.639542  0.124602  1
  Rh  Rh3  1  0.104921  0.639542  0.624602  1
  Rh  Rh4  1  0.895079  0.360458  0.375398  1
  Rh  Rh5  1  0.604921  0.360458  0.875398  1
  Rh  Rh6  1  0.395079  0.139542  0.375398  1
  Rh  Rh7  1  0.104921  0.139542  0.875398  1
  S  S8  1  0.933796  0.924816  0.721629  1
  S  S9  1  0.566204  0.924816  0.221629  1
  S  S10  1  0.310234  0.841904  0.486683  1
  S  S11  1  0.189766  0.841904  0.986683  1
  S  S12  1  0.810234  0.658096  0.486683  1
  S  S13  1  0.689766  0.658096  0.986683  1
  S  S14  1  0.066204  0.575184  0.221629  1
  S  S15  1  0.433796  0.575184  0.721629  1
  S  S16  1  0.566204  0.424817  0.278371  1
  S  S17  1  0.933796  0.424817  0.778371  1
  S  S18  1  0.310234  0.341904  0.013317  1
  S  S19  1  0.189766  0.341904  0.513317  1
  S  S20  1  0.810234  0.158096  0.013317  1
  S  S21  1  0.689766  0.158096  0.513317  1
  S  S22  1  0.433796  0.075184  0.778371  1
  S  S23  1  0.066204  0.075184  0.278371  1
  O  O24  1  0.293977  0.008253  0.476937  1
  O  O25  1  0.206023  0.008253  0.976937  1
  O  O26  1  0.009443  0.986293  0.358090  1
  O  O27  1  0.490557  0.986293  0.858090  1
  O  O28  1  0.530080  0.972981  0.328138  1
  O  O29  1  0.969920  0.972981  0.828138  1
  O  O30  1  0.763750  0.917395  0.726925  1
  O  O31  1  0.736250  0.917395  0.226925  1
  O  O32  1  0.274221  0.816680  0.083763  1
  O  O33  1  0.225779  0.816680  0.583763  1
  O  O34  1  0.027605  0.802346  0.011004  1
  O  O35  1  0.472395  0.802346  0.511004  1
  O  O36  1  0.989304  0.765281  0.721593  1
  O  O37  1  0.510696  0.765281  0.221593  1
  O  O38  1  0.265623  0.760597  0.400471  1
  O  O39  1  0.234377  0.760597  0.900471  1
  O  O40  1  0.765623  0.739403  0.400471  1
  O  O41  1  0.734377  0.739403  0.900471  1
  O  O42  1  0.010696  0.734719  0.221593  1
  O  O43  1  0.489304  0.734719  0.721593  1
  O  O44  1  0.972395  0.697654  0.511004  1
  O  O45  1  0.527605  0.697654  0.011004  1
  O  O46  1  0.774221  0.683320  0.083763  1
  O  O47  1  0.725779  0.683320  0.583763  1
  O  O48  1  0.236250  0.582605  0.226925  1
  O  O49  1  0.263750  0.582605  0.726925  1
  O  O50  1  0.469920  0.527019  0.828138  1
  O  O51  1  0.030080  0.527019  0.328138  1
  O  O52  1  0.509443  0.513707  0.358090  1
  O  O53  1  0.990557  0.513707  0.858090  1
  O  O54  1  0.793977  0.491747  0.476937  1
  O  O55  1  0.706023  0.491747  0.976937  1
  O  O56  1  0.293977  0.508253  0.023063  1
  O  O57  1  0.206023  0.508253  0.523063  1
  O  O58  1  0.490557  0.486293  0.641910  1
  O  O59  1  0.009443  0.486293  0.141910  1
  O  O60  1  0.530080  0.472981  0.171862  1
  O  O61  1  0.969920  0.472981  0.671862  1
  O  O62  1  0.736250  0.417395  0.273075  1
  O  O63  1  0.763750  0.417395  0.773075  1
  O  O64  1  0.274221  0.316680  0.416237  1
  O  O65  1  0.225779  0.316680  0.916237  1
  O  O66  1  0.472395  0.302346  0.988996  1
  O  O67  1  0.027605  0.302346  0.488996  1
  O  O68  1  0.510696  0.265281  0.278407  1
  O  O69  1  0.989304  0.265281  0.778407  1
  O  O70  1  0.265623  0.260597  0.099529  1
  O  O71  1  0.234377  0.260597  0.599529  1
  O  O72  1  0.765623  0.239403  0.099529  1
  O  O73  1  0.734377  0.239403  0.599529  1
  O  O74  1  0.489304  0.234719  0.778407  1
  O  O75  1  0.010696  0.234719  0.278407  1
  O  O76  1  0.527605  0.197654  0.488996  1
  O  O77  1  0.972395  0.197654  0.988996  1
  O  O78  1  0.774221  0.183320  0.416237  1
  O  O79  1  0.725779  0.183320  0.916237  1
  O  O80  1  0.263750  0.082605  0.773075  1
  O  O81  1  0.236250  0.082605  0.273075  1
  O  O82  1  0.469920  0.027019  0.671862  1
  O  O83  1  0.030080  0.027019  0.171862  1
  O  O84  1  0.990557  0.013707  0.641910  1
  O  O85  1  0.509443  0.013707  0.141910  1
  O  O86  1  0.793977  0.991747  0.023063  1
  O  O87  1  0.706023  0.991747  0.523063  1
