# generated using pymatgen
data_YHoNbRu3
_symmetry_space_group_name_H-M   'P 1'
_cell_length_a   5.69551203
_cell_length_b   5.69586648
_cell_length_c   8.06554100
_cell_angle_alpha   90.00210539
_cell_angle_beta   90.00008299
_cell_angle_gamma   119.99125945
_symmetry_Int_Tables_number   1
_chemical_formula_structural   YHoNbRu3
_chemical_formula_sum   'Y2 Ho2 Nb2 Ru6'
_cell_volume   226.61828697
_cell_formula_units_Z   2
loop_
 _symmetry_equiv_pos_site_id
 _symmetry_equiv_pos_as_xyz
  1  'x, y, z'
loop_
 _atom_site_type_symbol
 _atom_site_label
 _atom_site_symmetry_multiplicity
 _atom_site_fract_x
 _atom_site_fract_y
 _atom_site_fract_z
 _atom_site_occupancy
  Y  Y0  1  0.666656  0.333320  0.561787  1
  Y  Y1  1  0.333344  0.666680  0.438213  1
  Ho  Ho2  1  0.333394  0.666766  0.060075  1
  Ho  Ho3  1  0.666606  0.333234  0.939925  1
  Nb  Nb4  1  0.000000  0.000000  0.500000  1
  Nb  Nb5  1  0.000000  0.000000  0.000000  1
  Ru  Ru6  1  0.171653  0.343349  0.751061  1
  Ru  Ru7  1  0.171670  0.828381  0.751060  1
  Ru  Ru8  1  0.656677  0.828384  0.751047  1
  Ru  Ru9  1  0.828347  0.656651  0.248939  1
  Ru  Ru10  1  0.828330  0.171619  0.248940  1
  Ru  Ru11  1  0.343323  0.171616  0.248953  1
