# generated using pymatgen
data_Al(CuSe)8
_symmetry_space_group_name_H-M   'P 1'
_cell_length_a   7.84469500
_cell_length_b   7.84469500
_cell_length_c   5.60723300
_cell_angle_alpha   90.00000000
_cell_angle_beta   90.00000000
_cell_angle_gamma   90.00000000
_symmetry_Int_Tables_number   1
_chemical_formula_structural   Al(CuSe)8
_chemical_formula_sum   'Al1 Cu8 Se8'
_cell_volume   345.06485532
_cell_formula_units_Z   1
loop_
 _symmetry_equiv_pos_site_id
 _symmetry_equiv_pos_as_xyz
  1  'x, y, z'
loop_
 _atom_site_type_symbol
 _atom_site_label
 _atom_site_symmetry_multiplicity
 _atom_site_fract_x
 _atom_site_fract_y
 _atom_site_fract_z
 _atom_site_occupancy
  Al  Al0  1  0.000000  0.000000  0.000000  1
  Cu  Cu1  1  0.500000  0.500000  0.500000  1
  Cu  Cu2  1  0.500000  0.500000  0.000000  1
  Cu  Cu3  1  0.748450  0.251550  0.500000  1
  Cu  Cu4  1  0.000000  0.500000  0.988874  1
  Cu  Cu5  1  0.748450  0.748450  0.500000  1
  Cu  Cu6  1  0.251550  0.748450  0.500000  1
  Cu  Cu7  1  0.251550  0.251550  0.500000  1
  Cu  Cu8  1  0.500000  0.000000  0.011126  1
  Se  Se9  1  0.000000  0.250516  0.747422  1
  Se  Se10  1  0.000000  0.749484  0.747422  1
  Se  Se11  1  0.250516  0.000000  0.252578  1
  Se  Se12  1  0.500000  0.755402  0.755656  1
  Se  Se13  1  0.755402  0.500000  0.244344  1
  Se  Se14  1  0.244598  0.500000  0.244344  1
  Se  Se15  1  0.749484  0.000000  0.252578  1
  Se  Se16  1  0.500000  0.244598  0.755656  1
