# generated using pymatgen
data_Sr4La3(USe4)5
_symmetry_space_group_name_H-M   'P 1'
_cell_length_a   7.94248180
_cell_length_b   8.60647538
_cell_length_c   12.45790767
_cell_angle_alpha   89.85710849
_cell_angle_beta   89.86888165
_cell_angle_gamma   90.21451737
_symmetry_Int_Tables_number   1
_chemical_formula_structural   Sr4La3(USe4)5
_chemical_formula_sum   'Sr4 La3 U5 Se20'
_cell_volume   851.57151501
_cell_formula_units_Z   1
loop_
 _symmetry_equiv_pos_site_id
 _symmetry_equiv_pos_as_xyz
  1  'x, y, z'
loop_
 _atom_site_type_symbol
 _atom_site_label
 _atom_site_symmetry_multiplicity
 _atom_site_fract_x
 _atom_site_fract_y
 _atom_site_fract_z
 _atom_site_occupancy
  Sr  Sr0  1  0.048649  0.496812  0.326383  1
  Sr  Sr1  1  0.549193  0.504636  0.170082  1
  Sr  Sr2  1  0.950514  0.505213  0.672708  1
  Sr  Sr3  1  0.447672  0.495761  0.828816  1
  La  La4  1  0.039511  0.001655  0.323140  1
  La  La5  1  0.541988  0.999654  0.177299  1
  La  La6  1  0.959128  0.998692  0.674822  1
  U  U7  1  0.463840  0.000933  0.823500  1
  U  U8  1  0.061698  0.750707  0.004410  1
  U  U9  1  0.562780  0.250997  0.495152  1
  U  U10  1  0.939112  0.247242  0.992533  1
  U  U11  1  0.433247  0.749058  0.507463  1
  Se  Se12  1  0.668149  0.959739  0.416072  1
  Se  Se13  1  0.167193  0.041161  0.087326  1
  Se  Se14  1  0.335523  0.039506  0.595415  1
  Se  Se15  1  0.826215  0.956351  0.911025  1
  Se  Se16  1  0.446392  0.775269  0.995830  1
  Se  Se17  1  0.944403  0.239427  0.497606  1
  Se  Se18  1  0.550194  0.226409  0.989829  1
  Se  Se19  1  0.055624  0.763869  0.503317  1
  Se  Se20  1  0.848015  0.758822  0.187401  1
  Se  Se21  1  0.350050  0.240813  0.312293  1
  Se  Se22  1  0.160549  0.229674  0.813083  1
  Se  Se23  1  0.642761  0.766341  0.694556  1
  Se  Se24  1  0.326527  0.756590  0.288679  1
  Se  Se25  1  0.823558  0.244971  0.207804  1
  Se  Se26  1  0.672974  0.235439  0.714099  1
  Se  Se27  1  0.181003  0.764183  0.789199  1
  Se  Se28  1  0.178658  0.461628  0.073593  1
  Se  Se29  1  0.673429  0.542028  0.424340  1
  Se  Se30  1  0.824988  0.538288  0.920248  1
  Se  Se31  1  0.326463  0.458131  0.581978  1
