# generated using pymatgen
data_In6HgTe10
_symmetry_space_group_name_H-M   'P 1'
_cell_length_a   7.82001528
_cell_length_b   7.82001574
_cell_length_c   14.15910317
_cell_angle_alpha   90.00606564
_cell_angle_beta   90.00606658
_cell_angle_gamma   48.49332303
_symmetry_Int_Tables_number   1
_chemical_formula_structural   In6HgTe10
_chemical_formula_sum   'In6 Hg1 Te10'
_cell_volume   648.42885546
_cell_formula_units_Z   1
loop_
 _symmetry_equiv_pos_site_id
 _symmetry_equiv_pos_as_xyz
  1  'x, y, z'
loop_
 _atom_site_type_symbol
 _atom_site_label
 _atom_site_symmetry_multiplicity
 _atom_site_fract_x
 _atom_site_fract_y
 _atom_site_fract_z
 _atom_site_occupancy
  In  In0  1  0.002123  0.189570  0.800550  1
  In  In1  1  0.717052  0.893182  0.898143  1
  In  In2  1  0.810430  0.997877  0.199450  1
  In  In3  1  0.106818  0.282948  0.101857  1
  In  In4  1  0.199653  0.398580  0.402179  1
  In  In5  1  0.601420  0.800347  0.597821  1
  Hg  Hg6  1  0.901504  0.098496  0.500000  1
  Te  Te7  1  0.764936  0.511211  0.954996  1
  Te  Te8  1  0.125079  0.772717  0.842447  1
  Te  Te9  1  0.227283  0.874921  0.157553  1
  Te  Te10  1  0.488789  0.235064  0.045004  1
  Te  Te11  1  0.585951  0.337396  0.344346  1
  Te  Te12  1  0.862497  0.610919  0.253468  1
  Te  Te13  1  0.031992  0.676796  0.567109  1
  Te  Te14  1  0.323204  0.968008  0.432891  1
  Te  Te15  1  0.389081  0.137503  0.746532  1
  Te  Te16  1  0.662604  0.414049  0.655654  1
