# generated using pymatgen
data_Ho16Sc4Ir7Au5
_symmetry_space_group_name_H-M   'P 1'
_cell_length_a   11.00394004
_cell_length_b   11.00394004
_cell_length_c   6.26450419
_cell_angle_alpha   89.98223163
_cell_angle_beta   89.98223163
_cell_angle_gamma   89.77114767
_symmetry_Int_Tables_number   1
_chemical_formula_structural   Ho16Sc4Ir7Au5
_chemical_formula_sum   'Ho16 Sc4 Ir7 Au5'
_cell_volume   758.54199421
_cell_formula_units_Z   1
loop_
 _symmetry_equiv_pos_site_id
 _symmetry_equiv_pos_as_xyz
  1  'x, y, z'
loop_
 _atom_site_type_symbol
 _atom_site_label
 _atom_site_symmetry_multiplicity
 _atom_site_fract_x
 _atom_site_fract_y
 _atom_site_fract_z
 _atom_site_occupancy
  Ho  Ho0  1  0.297457  0.089352  0.365511  1
  Ho  Ho1  1  0.298918  0.908658  0.865481  1
  Ho  Ho2  1  0.701736  0.081662  0.863097  1
  Ho  Ho3  1  0.700885  0.907559  0.364071  1
  Ho  Ho4  1  0.580399  0.783081  0.877072  1
  Ho  Ho5  1  0.576573  0.209871  0.364903  1
  Ho  Ho6  1  0.418623  0.786443  0.376357  1
  Ho  Ho7  1  0.412407  0.210899  0.878251  1
  Ho  Ho8  1  0.216919  0.419601  0.622928  1
  Ho  Ho9  1  0.213557  0.581377  0.123643  1
  Ho  Ho10  1  0.790129  0.423427  0.135097  1
  Ho  Ho11  1  0.789101  0.587593  0.621749  1
  Ho  Ho12  1  0.910648  0.702543  0.134489  1
  Ho  Ho13  1  0.918338  0.298264  0.636903  1
  Ho  Ho14  1  0.091342  0.701082  0.634519  1
  Ho  Ho15  1  0.092441  0.299115  0.135929  1
  Sc  Sc16  1  0.999423  0.999361  0.499424  1
  Sc  Sc17  1  0.000639  0.000577  0.000576  1
  Sc  Sc18  1  0.494640  0.503524  0.003275  1
  Sc  Sc19  1  0.496476  0.505360  0.496725  1
  Ir  Ir20  1  0.647272  0.646492  0.250721  1
  Ir  Ir21  1  0.353508  0.352728  0.249279  1
  Ir  Ir22  1  0.350874  0.649126  0.750000  1
  Ir  Ir23  1  0.500161  0.000248  0.113920  1
  Ir  Ir24  1  0.499885  0.000876  0.616310  1
  Ir  Ir25  1  0.999124  0.500115  0.883690  1
  Ir  Ir26  1  0.999752  0.499839  0.386080  1
  Au  Au27  1  0.848581  0.151419  0.250000  1
  Au  Au28  1  0.849668  0.849649  0.749858  1
  Au  Au29  1  0.150351  0.150332  0.750142  1
  Au  Au30  1  0.150675  0.849325  0.250000  1
  Au  Au31  1  0.649499  0.350501  0.750000  1
