# generated using pymatgen
data_Er11In(Hg2Ir)4
_symmetry_space_group_name_H-M   'P 1'
_cell_length_a   12.91722871
_cell_length_b   12.91722828
_cell_length_c   3.64762000
_cell_angle_alpha   90.00000000
_cell_angle_beta   90.00000000
_cell_angle_gamma   112.44415873
_symmetry_Int_Tables_number   1
_chemical_formula_structural   Er11In(Hg2Ir)4
_chemical_formula_sum   'Er11 In1 Hg8 Ir4'
_cell_volume   562.52094864
_cell_formula_units_Z   1
loop_
 _symmetry_equiv_pos_site_id
 _symmetry_equiv_pos_as_xyz
  1  'x, y, z'
loop_
 _atom_site_type_symbol
 _atom_site_label
 _atom_site_symmetry_multiplicity
 _atom_site_fract_x
 _atom_site_fract_y
 _atom_site_fract_z
 _atom_site_occupancy
  Er  Er0  1  0.500000  0.500000  0.500000  1
  Er  Er1  1  0.794193  0.794193  0.500000  1
  Er  Er2  1  0.205807  0.205807  0.500000  1
  Er  Er3  1  0.584917  0.917722  0.500000  1
  Er  Er4  1  0.415083  0.082278  0.500000  1
  Er  Er5  1  0.917722  0.584917  0.500000  1
  Er  Er6  1  0.082278  0.415083  0.500000  1
  Er  Er7  1  0.133947  0.866053  0.500000  1
  Er  Er8  1  0.866053  0.133947  0.500000  1
  Er  Er9  1  0.332152  0.667848  0.500000  1
  Er  Er10  1  0.667848  0.332152  0.500000  1
  In  In11  1  0.000000  0.000000  0.000000  1
  Hg  Hg12  1  0.353280  0.868568  0.000000  1
  Hg  Hg13  1  0.646720  0.131432  0.000000  1
  Hg  Hg14  1  0.868568  0.353280  0.000000  1
  Hg  Hg15  1  0.131432  0.646720  0.000000  1
  Hg  Hg16  1  0.557553  0.710442  0.000000  1
  Hg  Hg17  1  0.442447  0.289558  0.000000  1
  Hg  Hg18  1  0.710442  0.557553  0.000000  1
  Hg  Hg19  1  0.289558  0.442447  0.000000  1
  Ir  Ir20  1  0.759169  0.950771  0.000000  1
  Ir  Ir21  1  0.240831  0.049229  0.000000  1
  Ir  Ir22  1  0.950771  0.759169  0.000000  1
  Ir  Ir23  1  0.049229  0.240831  0.000000  1
