# generated using pymatgen
data_NaYb(LuSe2)2
_symmetry_space_group_name_H-M   'P 1'
_cell_length_a   13.82218142
_cell_length_b   13.82218090
_cell_length_c   13.82218228
_cell_angle_alpha   16.89235685
_cell_angle_beta   16.89236357
_cell_angle_gamma   16.89235812
_symmetry_Int_Tables_number   1
_chemical_formula_structural   NaYb(LuSe2)2
_chemical_formula_sum   'Na1 Yb1 Lu2 Se4'
_cell_volume   194.49559934
_cell_formula_units_Z   1
loop_
 _symmetry_equiv_pos_site_id
 _symmetry_equiv_pos_as_xyz
  1  'x, y, z'
loop_
 _atom_site_type_symbol
 _atom_site_label
 _atom_site_symmetry_multiplicity
 _atom_site_fract_x
 _atom_site_fract_y
 _atom_site_fract_z
 _atom_site_occupancy
  Na  Na0  1  0.500000  0.500000  0.500000  1
  Yb  Yb1  1  0.000000  0.000000  0.000000  1
  Lu  Lu2  1  0.250946  0.250946  0.250946  1
  Lu  Lu3  1  0.749054  0.749054  0.749054  1
  Se  Se4  1  0.375697  0.375697  0.375697  1
  Se  Se5  1  0.120190  0.120190  0.120190  1
  Se  Se6  1  0.624303  0.624303  0.624303  1
  Se  Se7  1  0.879810  0.879810  0.879810  1
