# generated using pymatgen
data_LiTb2ZnPt2
_symmetry_space_group_name_H-M   'P 1'
_cell_length_a   4.06345600
_cell_length_b   7.02788400
_cell_length_c   8.37246400
_cell_angle_alpha   90.00000000
_cell_angle_beta   90.00000000
_cell_angle_gamma   90.00000000
_symmetry_Int_Tables_number   1
_chemical_formula_structural   LiTb2ZnPt2
_chemical_formula_sum   'Li2 Tb4 Zn2 Pt4'
_cell_volume   239.09661897
_cell_formula_units_Z   2
loop_
 _symmetry_equiv_pos_site_id
 _symmetry_equiv_pos_as_xyz
  1  'x, y, z'
loop_
 _atom_site_type_symbol
 _atom_site_label
 _atom_site_symmetry_multiplicity
 _atom_site_fract_x
 _atom_site_fract_y
 _atom_site_fract_z
 _atom_site_occupancy
  Li  Li0  1  0.250000  0.628896  0.559027  1
  Li  Li1  1  0.250000  0.128896  0.940973  1
  Tb  Tb2  1  0.250000  0.045871  0.317812  1
  Tb  Tb3  1  0.250000  0.545871  0.182188  1
  Tb  Tb4  1  0.750000  0.955191  0.685513  1
  Tb  Tb5  1  0.750000  0.455191  0.814487  1
  Zn  Zn6  1  0.750000  0.370718  0.437879  1
  Zn  Zn7  1  0.750000  0.870718  0.062121  1
  Pt  Pt8  1  0.250000  0.247741  0.620719  1
  Pt  Pt9  1  0.250000  0.747741  0.879281  1
  Pt  Pt10  1  0.750000  0.751584  0.378167  1
  Pt  Pt11  1  0.750000  0.251584  0.121833  1
