# generated using pymatgen
data_Sc8VTc11Ge16
_symmetry_space_group_name_H-M   'P 1'
_cell_length_a   6.78908734
_cell_length_b   6.84672460
_cell_length_c   12.58912800
_cell_angle_alpha   90.00000000
_cell_angle_beta   90.00000000
_cell_angle_gamma   90.60482393
_symmetry_Int_Tables_number   1
_chemical_formula_structural   Sc8VTc11Ge16
_chemical_formula_sum   'Sc8 V1 Tc11 Ge16'
_cell_volume   585.14797496
_cell_formula_units_Z   1
loop_
 _symmetry_equiv_pos_site_id
 _symmetry_equiv_pos_as_xyz
  1  'x, y, z'
loop_
 _atom_site_type_symbol
 _atom_site_label
 _atom_site_symmetry_multiplicity
 _atom_site_fract_x
 _atom_site_fract_y
 _atom_site_fract_z
 _atom_site_occupancy
  Sc  Sc0  1  0.011658  0.170788  0.090649  1
  Sc  Sc1  1  0.518582  0.327787  0.409805  1
  Sc  Sc2  1  0.484285  0.670648  0.909327  1
  Sc  Sc3  1  0.985208  0.829909  0.592232  1
  Sc  Sc4  1  0.985208  0.829909  0.907768  1
  Sc  Sc5  1  0.484285  0.670648  0.590673  1
  Sc  Sc6  1  0.518582  0.327787  0.090195  1
  Sc  Sc7  1  0.011658  0.170788  0.409351  1
  V  V8  1  0.330958  0.000417  0.750000  1
  Tc  Tc9  1  0.668101  0.017276  0.250000  1
  Tc  Tc10  1  0.179049  0.490056  0.250000  1
  Tc  Tc11  1  0.831051  0.505527  0.750000  1
  Tc  Tc12  1  0.834813  0.642937  0.119366  1
  Tc  Tc13  1  0.308189  0.858776  0.371871  1
  Tc  Tc14  1  0.667675  0.139204  0.874812  1
  Tc  Tc15  1  0.186794  0.355857  0.625465  1
  Tc  Tc16  1  0.186794  0.355857  0.874535  1
  Tc  Tc17  1  0.667675  0.139204  0.625188  1
  Tc  Tc18  1  0.308189  0.858776  0.128129  1
  Tc  Tc19  1  0.834813  0.642937  0.380634  1
  Ge  Ge20  1  0.817523  0.355122  0.250000  1
  Ge  Ge21  1  0.313323  0.155692  0.250000  1
  Ge  Ge22  1  0.682779  0.844628  0.750000  1
  Ge  Ge23  1  0.188254  0.657783  0.750000  1
  Ge  Ge24  1  0.012660  0.867890  0.250000  1
  Ge  Ge25  1  0.527537  0.642955  0.250000  1
  Ge  Ge26  1  0.481961  0.366796  0.750000  1
  Ge  Ge27  1  0.975211  0.135245  0.750000  1
  Ge  Ge28  1  0.831192  0.447032  0.949322  1
  Ge  Ge29  1  0.321629  0.044901  0.548216  1
  Ge  Ge30  1  0.667000  0.946020  0.049245  1
  Ge  Ge31  1  0.178772  0.546449  0.451831  1
  Ge  Ge32  1  0.178772  0.546449  0.048169  1
  Ge  Ge33  1  0.667000  0.946020  0.450755  1
  Ge  Ge34  1  0.321629  0.044901  0.951784  1
  Ge  Ge35  1  0.831192  0.447032  0.550678  1
