# generated using pymatgen
data_Ca10Ir3Pt
_symmetry_space_group_name_H-M   'P 1'
_cell_length_a   8.64778222
_cell_length_b   8.62463805
_cell_length_c   7.66743395
_cell_angle_alpha   82.62499076
_cell_angle_beta   82.71963688
_cell_angle_gamma   44.19533586
_symmetry_Int_Tables_number   1
_chemical_formula_structural   Ca10Ir3Pt
_chemical_formula_sum   'Ca10 Ir3 Pt1'
_cell_volume   394.85685686
_cell_formula_units_Z   1
loop_
 _symmetry_equiv_pos_site_id
 _symmetry_equiv_pos_as_xyz
  1  'x, y, z'
loop_
 _atom_site_type_symbol
 _atom_site_label
 _atom_site_symmetry_multiplicity
 _atom_site_fract_x
 _atom_site_fract_y
 _atom_site_fract_z
 _atom_site_occupancy
  Ca  Ca0  1  0.029239  0.796095  0.914749  1
  Ca  Ca1  1  0.200093  0.976806  0.582710  1
  Ca  Ca2  1  0.979562  0.200874  0.082879  1
  Ca  Ca3  1  0.802750  0.022977  0.422108  1
  Ca  Ca4  1  0.362711  0.199849  0.818861  1
  Ca  Ca5  1  0.798621  0.635189  0.676951  1
  Ca  Ca6  1  0.634870  0.795452  0.177220  1
  Ca  Ca7  1  0.195091  0.367994  0.326797  1
  Ca  Ca8  1  0.573241  0.429746  0.745413  1
  Ca  Ca9  1  0.425140  0.576904  0.252724  1
  Ir  Ir10  1  0.177454  0.599914  0.583681  1
  Ir  Ir11  1  0.397358  0.824377  0.917214  1
  Ir  Ir12  1  0.823819  0.397345  0.415544  1
  Pt  Pt13  1  0.600051  0.176478  0.083150  1
