# generated using pymatgen
data_Tb2Tm2LuPt4
_symmetry_space_group_name_H-M   'P 1'
_cell_length_a   7.44651900
_cell_length_b   7.52535100
_cell_length_c   14.66553200
_cell_angle_alpha   90.00000000
_cell_angle_beta   90.00000000
_cell_angle_gamma   90.00000000
_symmetry_Int_Tables_number   1
_chemical_formula_structural   Tb2Tm2LuPt4
_chemical_formula_sum   'Tb8 Tm8 Lu4 Pt16'
_cell_volume   821.82223090
_cell_formula_units_Z   4
loop_
 _symmetry_equiv_pos_site_id
 _symmetry_equiv_pos_as_xyz
  1  'x, y, z'
loop_
 _atom_site_type_symbol
 _atom_site_label
 _atom_site_symmetry_multiplicity
 _atom_site_fract_x
 _atom_site_fract_y
 _atom_site_fract_z
 _atom_site_occupancy
  Tb  Tb0  1  0.501298  0.679062  0.593131  1
  Tb  Tb1  1  0.001298  0.820938  0.906869  1
  Tb  Tb2  1  0.498702  0.320938  0.093131  1
  Tb  Tb3  1  0.998702  0.179062  0.406869  1
  Tb  Tb4  1  0.498702  0.320938  0.406869  1
  Tb  Tb5  1  0.998702  0.179062  0.093131  1
  Tb  Tb6  1  0.501298  0.679062  0.906869  1
  Tb  Tb7  1  0.001298  0.820938  0.593131  1
  Tm  Tm8  1  0.656408  0.167855  0.622878  1
  Tm  Tm9  1  0.156408  0.332145  0.877122  1
  Tm  Tm10  1  0.343592  0.832145  0.122878  1
  Tm  Tm11  1  0.843592  0.667855  0.377122  1
  Tm  Tm12  1  0.343592  0.832145  0.377122  1
  Tm  Tm13  1  0.843592  0.667855  0.122878  1
  Tm  Tm14  1  0.656408  0.167855  0.877122  1
  Tm  Tm15  1  0.156408  0.332145  0.622878  1
  Lu  Lu16  1  0.819368  0.510443  0.750000  1
  Lu  Lu17  1  0.319368  0.989557  0.750000  1
  Lu  Lu18  1  0.180632  0.489557  0.250000  1
  Lu  Lu19  1  0.680632  0.010443  0.250000  1
  Pt  Pt20  1  0.682352  0.966054  0.457744  1
  Pt  Pt21  1  0.182352  0.533946  0.042256  1
  Pt  Pt22  1  0.317648  0.033946  0.957744  1
  Pt  Pt23  1  0.817648  0.466054  0.542256  1
  Pt  Pt24  1  0.317648  0.033946  0.542256  1
  Pt  Pt25  1  0.817648  0.466054  0.957744  1
  Pt  Pt26  1  0.682352  0.966054  0.042256  1
  Pt  Pt27  1  0.182352  0.533946  0.457744  1
  Pt  Pt28  1  0.454800  0.383423  0.750000  1
  Pt  Pt29  1  0.954800  0.116577  0.750000  1
  Pt  Pt30  1  0.545200  0.616577  0.250000  1
  Pt  Pt31  1  0.045200  0.883423  0.250000  1
  Pt  Pt32  1  0.681932  0.857191  0.750000  1
  Pt  Pt33  1  0.181932  0.642809  0.750000  1
  Pt  Pt34  1  0.318068  0.142809  0.250000  1
  Pt  Pt35  1  0.818068  0.357191  0.250000  1
