# generated using pymatgen
data_Eu3HfH12
_symmetry_space_group_name_H-M   'P 1'
_cell_length_a   6.62803200
_cell_length_b   6.62803200
_cell_length_c   6.62803200
_cell_angle_alpha   90.00000000
_cell_angle_beta   90.00000000
_cell_angle_gamma   90.00000000
_symmetry_Int_Tables_number   1
_chemical_formula_structural   Eu3HfH12
_chemical_formula_sum   'Eu6 Hf2 H24'
_cell_volume   291.17480249
_cell_formula_units_Z   2
loop_
 _symmetry_equiv_pos_site_id
 _symmetry_equiv_pos_as_xyz
  1  'x, y, z'
loop_
 _atom_site_type_symbol
 _atom_site_label
 _atom_site_symmetry_multiplicity
 _atom_site_fract_x
 _atom_site_fract_y
 _atom_site_fract_z
 _atom_site_occupancy
  Eu  Eu0  1  0.250000  0.000000  0.500000  1
  Eu  Eu1  1  0.750000  0.000000  0.500000  1
  Eu  Eu2  1  0.000000  0.500000  0.250000  1
  Eu  Eu3  1  0.000000  0.500000  0.750000  1
  Eu  Eu4  1  0.500000  0.750000  0.000000  1
  Eu  Eu5  1  0.500000  0.250000  0.000000  1
  Hf  Hf6  1  0.000000  0.000000  0.000000  1
  Hf  Hf7  1  0.500000  0.500000  0.500000  1
  H  H8  1  0.000000  0.148573  0.283060  1
  H  H9  1  0.500000  0.216940  0.648573  1
  H  H10  1  0.500000  0.783060  0.351427  1
  H  H11  1  0.783060  0.648573  0.500000  1
  H  H12  1  0.216940  0.648573  0.500000  1
  H  H13  1  0.351427  0.500000  0.783060  1
  H  H14  1  0.648573  0.500000  0.783060  1
  H  H15  1  0.283060  0.000000  0.148573  1
  H  H16  1  0.148573  0.283060  0.000000  1
  H  H17  1  0.851427  0.716940  0.000000  1
  H  H18  1  0.283060  0.000000  0.851427  1
  H  H19  1  0.851427  0.283060  0.000000  1
  H  H20  1  0.716940  0.000000  0.148573  1
  H  H21  1  0.716940  0.000000  0.851427  1
  H  H22  1  0.148573  0.716940  0.000000  1
  H  H23  1  0.000000  0.851427  0.716940  1
  H  H24  1  0.000000  0.148573  0.716940  1
  H  H25  1  0.000000  0.851427  0.283060  1
  H  H26  1  0.648573  0.500000  0.216940  1
  H  H27  1  0.351427  0.500000  0.216940  1
  H  H28  1  0.783060  0.351427  0.500000  1
  H  H29  1  0.216940  0.351427  0.500000  1
  H  H30  1  0.500000  0.783060  0.648573  1
  H  H31  1  0.500000  0.216940  0.351427  1
