# generated using pymatgen
data_Re3HSe4
_symmetry_space_group_name_H-M   'P 1'
_cell_length_a   10.65636600
_cell_length_b   6.68714324
_cell_length_c   10.35254668
_cell_angle_alpha   70.48410692
_cell_angle_beta   90.00000000
_cell_angle_gamma   90.00000000
_symmetry_Int_Tables_number   1
_chemical_formula_structural   Re3HSe4
_chemical_formula_sum   'Re12 H4 Se16'
_cell_volume   695.34578181
_cell_formula_units_Z   4
loop_
 _symmetry_equiv_pos_site_id
 _symmetry_equiv_pos_as_xyz
  1  'x, y, z'
loop_
 _atom_site_type_symbol
 _atom_site_label
 _atom_site_symmetry_multiplicity
 _atom_site_fract_x
 _atom_site_fract_y
 _atom_site_fract_z
 _atom_site_occupancy
  Re  Re0  1  0.620487  0.997541  0.367664  1
  Re  Re1  1  0.879513  0.997541  0.867664  1
  Re  Re2  1  0.379513  0.002459  0.632336  1
  Re  Re3  1  0.120487  0.002459  0.132336  1
  Re  Re4  1  0.369252  0.990738  0.379941  1
  Re  Re5  1  0.130748  0.990738  0.879941  1
  Re  Re6  1  0.630748  0.009262  0.620059  1
  Re  Re7  1  0.869252  0.009262  0.120059  1
  Re  Re8  1  0.503023  0.703115  0.568780  1
  Re  Re9  1  0.996977  0.703115  0.068780  1
  Re  Re10  1  0.496977  0.296885  0.431220  1
  Re  Re11  1  0.003023  0.296885  0.931220  1
  H  H12  1  0.234983  0.988803  0.268338  1
  H  H13  1  0.265017  0.988803  0.768338  1
  H  H14  1  0.765017  0.011197  0.731662  1
  H  H15  1  0.734983  0.011197  0.231662  1
  Se  Se16  1  0.492362  0.716787  0.310144  1
  Se  Se17  1  0.007638  0.716787  0.810144  1
  Se  Se18  1  0.507638  0.283213  0.689856  1
  Se  Se19  1  0.992362  0.283213  0.189856  1
  Se  Se20  1  0.264871  0.709492  0.578440  1
  Se  Se21  1  0.235129  0.709492  0.078440  1
  Se  Se22  1  0.735129  0.290508  0.421560  1
  Se  Se23  1  0.764871  0.290508  0.921560  1
  Se  Se24  1  0.487534  0.270692  0.191987  1
  Se  Se25  1  0.012466  0.270692  0.691987  1
  Se  Se26  1  0.512466  0.729308  0.808013  1
  Se  Se27  1  0.987534  0.729308  0.308013  1
  Se  Se28  1  0.741160  0.722652  0.555336  1
  Se  Se29  1  0.758840  0.722652  0.055336  1
  Se  Se30  1  0.258840  0.277348  0.444664  1
  Se  Se31  1  0.241160  0.277348  0.944664  1
