# generated using pymatgen
data_PrYPPt8
_symmetry_space_group_name_H-M   'P 1'
_cell_length_a   9.16274768
_cell_length_b   9.15314033
_cell_length_c   4.31036700
_cell_angle_alpha   90.00000000
_cell_angle_beta   90.00000000
_cell_angle_gamma   145.55116107
_symmetry_Int_Tables_number   1
_chemical_formula_structural   PrYPPt8
_chemical_formula_sum   'Pr1 Y1 P1 Pt8'
_cell_volume   204.49059564
_cell_formula_units_Z   1
loop_
 _symmetry_equiv_pos_site_id
 _symmetry_equiv_pos_as_xyz
  1  'x, y, z'
loop_
 _atom_site_type_symbol
 _atom_site_label
 _atom_site_symmetry_multiplicity
 _atom_site_fract_x
 _atom_site_fract_y
 _atom_site_fract_z
 _atom_site_occupancy
  Pr  Pr0  1  0.373676  0.619285  0.500000  1
  Y  Y1  1  0.623770  0.372638  0.500000  1
  P  P2  1  0.224531  0.225004  0.000000  1
  Pt  Pt3  1  0.111340  0.892262  0.000000  1
  Pt  Pt4  1  0.888955  0.109307  0.000000  1
  Pt  Pt5  1  0.486953  0.983667  0.000000  1
  Pt  Pt6  1  0.979579  0.488684  0.000000  1
  Pt  Pt7  1  0.192353  0.794084  0.500000  1
  Pt  Pt8  1  0.790329  0.195769  0.500000  1
  Pt  Pt9  1  0.005827  0.004293  0.500000  1
  Pt  Pt10  1  0.636285  0.628605  0.000000  1
