# generated using pymatgen
data_Pr5Nd5Sn20(IrPd)4
_symmetry_space_group_name_H-M   'P 1'
_cell_length_a   14.26159001
_cell_length_b   14.23970401
_cell_length_c   4.69085800
_cell_angle_alpha   90.00000000
_cell_angle_beta   90.00000000
_cell_angle_gamma   89.99562964
_symmetry_Int_Tables_number   1
_chemical_formula_structural   Pr5Nd5Sn20(IrPd)4
_chemical_formula_sum   'Pr5 Nd5 Sn20 Ir4 Pd4'
_cell_volume   952.62328855
_cell_formula_units_Z   1
loop_
 _symmetry_equiv_pos_site_id
 _symmetry_equiv_pos_as_xyz
  1  'x, y, z'
loop_
 _atom_site_type_symbol
 _atom_site_label
 _atom_site_symmetry_multiplicity
 _atom_site_fract_x
 _atom_site_fract_y
 _atom_site_fract_z
 _atom_site_occupancy
  Pr  Pr0  1  0.000000  0.000000  0.000000  1
  Pr  Pr1  1  0.892330  0.390397  0.500000  1
  Pr  Pr2  1  0.107670  0.609603  0.500000  1
  Pr  Pr3  1  0.392339  0.109582  0.500000  1
  Pr  Pr4  1  0.607661  0.890418  0.500000  1
  Nd  Nd5  1  0.500000  0.500000  0.000000  1
  Nd  Nd6  1  0.675199  0.181853  0.500000  1
  Nd  Nd7  1  0.324801  0.818147  0.500000  1
  Nd  Nd8  1  0.175179  0.318105  0.500000  1
  Nd  Nd9  1  0.824821  0.681895  0.500000  1
  Sn  Sn10  1  0.568128  0.070839  0.000000  1
  Sn  Sn11  1  0.431872  0.929161  0.000000  1
  Sn  Sn12  1  0.068107  0.429207  0.000000  1
  Sn  Sn13  1  0.931893  0.570793  0.000000  1
  Sn  Sn14  1  0.652310  0.703505  0.000000  1
  Sn  Sn15  1  0.347690  0.296495  0.000000  1
  Sn  Sn16  1  0.152307  0.796407  0.000000  1
  Sn  Sn17  1  0.847693  0.203593  0.000000  1
  Sn  Sn18  1  0.300171  0.652295  0.000000  1
  Sn  Sn19  1  0.699829  0.347705  0.000000  1
  Sn  Sn20  1  0.199900  0.152342  0.000000  1
  Sn  Sn21  1  0.800100  0.847658  0.000000  1
  Sn  Sn22  1  0.663444  0.504473  0.500000  1
  Sn  Sn23  1  0.336556  0.495527  0.500000  1
  Sn  Sn24  1  0.163831  0.995517  0.500000  1
  Sn  Sn25  1  0.836169  0.004483  0.500000  1
  Sn  Sn26  1  0.496560  0.661767  0.500000  1
  Sn  Sn27  1  0.503440  0.338233  0.500000  1
  Sn  Sn28  1  0.003425  0.162249  0.500000  1
  Sn  Sn29  1  0.996575  0.837751  0.500000  1
  Ir  Ir30  1  0.467388  0.743090  0.000000  1
  Ir  Ir31  1  0.532612  0.256910  0.000000  1
  Ir  Ir32  1  0.032698  0.243389  0.000000  1
  Ir  Ir33  1  0.967302  0.756611  0.000000  1
  Pd  Pd34  1  0.745185  0.532359  0.000000  1
  Pd  Pd35  1  0.254815  0.467641  0.000000  1
  Pd  Pd36  1  0.245384  0.967583  0.000000  1
  Pd  Pd37  1  0.754616  0.032417  0.000000  1
