# generated using pymatgen
data_Tm4In2B4Ir9Ru
_symmetry_space_group_name_H-M   'P 1'
_cell_length_a   9.72385875
_cell_length_b   9.72385951
_cell_length_c   3.17112100
_cell_angle_alpha   90.00000000
_cell_angle_beta   90.00000000
_cell_angle_gamma   89.52189817
_symmetry_Int_Tables_number   1
_chemical_formula_structural   Tm4In2B4Ir9Ru
_chemical_formula_sum   'Tm4 In2 B4 Ir9 Ru1'
_cell_volume   299.82994868
_cell_formula_units_Z   1
loop_
 _symmetry_equiv_pos_site_id
 _symmetry_equiv_pos_as_xyz
  1  'x, y, z'
loop_
 _atom_site_type_symbol
 _atom_site_label
 _atom_site_symmetry_multiplicity
 _atom_site_fract_x
 _atom_site_fract_y
 _atom_site_fract_z
 _atom_site_occupancy
  Tm  Tm0  1  0.322831  0.822831  0.000000  1
  Tm  Tm1  1  0.677169  0.177169  0.000000  1
  Tm  Tm2  1  0.172892  0.327108  0.000000  1
  Tm  Tm3  1  0.827108  0.672892  0.000000  1
  In  In4  1  0.500000  0.500000  0.000000  1
  In  In5  1  0.000000  0.000000  0.000000  1
  B  B6  1  0.120337  0.620337  0.000000  1
  B  B7  1  0.879663  0.379663  0.000000  1
  B  B8  1  0.376383  0.123617  0.000000  1
  B  B9  1  0.623617  0.876383  0.000000  1
  Ir  Ir10  1  0.571630  0.725991  0.500000  1
  Ir  Ir11  1  0.428370  0.274009  0.500000  1
  Ir  Ir12  1  0.929377  0.226120  0.500000  1
  Ir  Ir13  1  0.070623  0.773880  0.500000  1
  Ir  Ir14  1  0.774009  0.928370  0.500000  1
  Ir  Ir15  1  0.225991  0.071630  0.500000  1
  Ir  Ir16  1  0.273880  0.570623  0.500000  1
  Ir  Ir17  1  0.726120  0.429377  0.500000  1
  Ir  Ir18  1  0.500000  0.000000  0.500000  1
  Ru  Ru19  1  0.000000  0.500000  0.500000  1
