# generated using pymatgen
data_TbNd6ErAu4
_symmetry_space_group_name_H-M   'P 1'
_cell_length_a   5.04111000
_cell_length_b   7.32846598
_cell_length_c   9.22598713
_cell_angle_alpha   90.06130069
_cell_angle_beta   90.00000000
_cell_angle_gamma   90.00000000
_symmetry_Int_Tables_number   1
_chemical_formula_structural   TbNd6ErAu4
_chemical_formula_sum   'Tb1 Nd6 Er1 Au4'
_cell_volume   340.84101186
_cell_formula_units_Z   1
loop_
 _symmetry_equiv_pos_site_id
 _symmetry_equiv_pos_as_xyz
  1  'x, y, z'
loop_
 _atom_site_type_symbol
 _atom_site_label
 _atom_site_symmetry_multiplicity
 _atom_site_fract_x
 _atom_site_fract_y
 _atom_site_fract_z
 _atom_site_occupancy
  Tb  Tb0  1  0.750000  0.149830  0.080003  1
  Nd  Nd1  1  0.250000  0.348370  0.588233  1
  Nd  Nd2  1  0.750000  0.651432  0.411594  1
  Nd  Nd3  1  0.250000  0.492709  0.174648  1
  Nd  Nd4  1  0.250000  0.992370  0.323186  1
  Nd  Nd5  1  0.750000  0.510013  0.823500  1
  Nd  Nd6  1  0.750000  0.007103  0.677030  1
  Er  Er7  1  0.250000  0.850894  0.920502  1
  Au  Au8  1  0.250000  0.243876  0.909735  1
  Au  Au9  1  0.250000  0.757765  0.607397  1
  Au  Au10  1  0.750000  0.754081  0.087972  1
  Au  Au11  1  0.750000  0.241554  0.396198  1
