# generated using pymatgen
data_ZnF8
_symmetry_space_group_name_H-M   'P 1'
_cell_length_a   3.72666539
_cell_length_b   3.76302192
_cell_length_c   9.32553159
_cell_angle_alpha   101.83496378
_cell_angle_beta   92.11214634
_cell_angle_gamma   95.27361301
_symmetry_Int_Tables_number   1
_chemical_formula_structural   ZnF8
_chemical_formula_sum   'Zn1 F8'
_cell_volume   127.24664941
_cell_formula_units_Z   1
loop_
 _symmetry_equiv_pos_site_id
 _symmetry_equiv_pos_as_xyz
  1  'x, y, z'
loop_
 _atom_site_type_symbol
 _atom_site_label
 _atom_site_symmetry_multiplicity
 _atom_site_fract_x
 _atom_site_fract_y
 _atom_site_fract_z
 _atom_site_occupancy
  Zn  Zn0  1  0.539722  0.936935  0.835852  1
  F  F1  1  0.039500  0.024721  0.356572  1
  F  F2  1  0.623504  0.517597  0.124943  1
  F  F3  1  0.202625  0.730126  0.540943  1
  F  F4  1  0.053989  0.249695  0.250223  1
  F  F5  1  0.910111  0.566002  0.615781  1
  F  F6  1  0.049914  0.997830  0.906211  1
  F  F7  1  0.532248  0.398196  0.765326  1
  F  F8  1  0.375641  0.724993  0.059209  1
