# generated using pymatgen
data_Yb2Ti3Si7Pt9
_symmetry_space_group_name_H-M   'P 1'
_cell_length_a   9.94919700
_cell_length_b   9.94919781
_cell_length_c   3.91086400
_cell_angle_alpha   90.00000000
_cell_angle_beta   90.00000000
_cell_angle_gamma   120.00000062
_symmetry_Int_Tables_number   1
_chemical_formula_structural   Yb2Ti3Si7Pt9
_chemical_formula_sum   'Yb2 Ti3 Si7 Pt9'
_cell_volume   335.25822291
_cell_formula_units_Z   1
loop_
 _symmetry_equiv_pos_site_id
 _symmetry_equiv_pos_as_xyz
  1  'x, y, z'
loop_
 _atom_site_type_symbol
 _atom_site_label
 _atom_site_symmetry_multiplicity
 _atom_site_fract_x
 _atom_site_fract_y
 _atom_site_fract_z
 _atom_site_occupancy
  Yb  Yb0  1  0.000000  0.000000  0.000000  1
  Yb  Yb1  1  0.333333  0.666667  0.500000  1
  Ti  Ti2  1  0.887654  0.454323  0.500000  1
  Ti  Ti3  1  0.566668  0.112346  0.500000  1
  Ti  Ti4  1  0.545677  0.433332  0.500000  1
  Si  Si5  1  0.250939  0.205026  0.500000  1
  Si  Si6  1  0.794974  0.045914  0.500000  1
  Si  Si7  1  0.954086  0.749061  0.500000  1
  Si  Si8  1  0.551420  0.638020  0.000000  1
  Si  Si9  1  0.361980  0.913399  0.000000  1
  Si  Si10  1  0.086601  0.448580  0.000000  1
  Si  Si11  1  0.666667  0.333333  0.000000  1
  Pt  Pt12  1  0.224841  0.941839  0.500000  1
  Pt  Pt13  1  0.058161  0.283003  0.500000  1
  Pt  Pt14  1  0.716997  0.775159  0.500000  1
  Pt  Pt15  1  0.307018  0.405931  0.000000  1
  Pt  Pt16  1  0.594069  0.901087  0.000000  1
  Pt  Pt17  1  0.098913  0.692982  0.000000  1
  Pt  Pt18  1  0.391313  0.174025  0.000000  1
  Pt  Pt19  1  0.825975  0.217288  0.000000  1
  Pt  Pt20  1  0.782712  0.608687  0.000000  1
