# generated using pymatgen
data_Ba4In(IrO6)2
_symmetry_space_group_name_H-M   'P 1'
_cell_length_a   10.04525536
_cell_length_b   10.04525500
_cell_length_c   10.04525500
_cell_angle_alpha   33.89079568
_cell_angle_beta   33.89079871
_cell_angle_gamma   33.89079968
_symmetry_Int_Tables_number   1
_chemical_formula_structural   Ba4In(IrO6)2
_chemical_formula_sum   'Ba4 In1 Ir2 O12'
_cell_volume   280.88529760
_cell_formula_units_Z   1
loop_
 _symmetry_equiv_pos_site_id
 _symmetry_equiv_pos_as_xyz
  1  'x, y, z'
loop_
 _atom_site_type_symbol
 _atom_site_label
 _atom_site_symmetry_multiplicity
 _atom_site_fract_x
 _atom_site_fract_y
 _atom_site_fract_z
 _atom_site_occupancy
  Ba  Ba0  1  0.709792  0.709792  0.709792  1
  Ba  Ba1  1  0.290208  0.290208  0.290208  1
  Ba  Ba2  1  0.868206  0.868206  0.868206  1
  Ba  Ba3  1  0.131794  0.131794  0.131794  1
  In  In4  1  0.000000  0.000000  0.000000  1
  Ir  Ir5  1  0.580266  0.580266  0.580266  1
  Ir  Ir6  1  0.419734  0.419734  0.419734  1
  O  O7  1  0.218602  0.693848  0.218602  1
  O  O8  1  0.218602  0.218602  0.693848  1
  O  O9  1  0.693848  0.218602  0.218602  1
  O  O10  1  0.781398  0.306152  0.781398  1
  O  O11  1  0.781398  0.781398  0.306152  1
  O  O12  1  0.306152  0.781398  0.781398  1
  O  O13  1  0.386954  0.861296  0.386954  1
  O  O14  1  0.386954  0.386954  0.861296  1
  O  O15  1  0.861296  0.386954  0.386954  1
  O  O16  1  0.613046  0.138704  0.613046  1
  O  O17  1  0.613046  0.613046  0.138704  1
  O  O18  1  0.138704  0.613046  0.613046  1
