# generated using pymatgen
data_Tm4MnCo16(TcP4)3
_symmetry_space_group_name_H-M   'P 1'
_cell_length_a   3.68642000
_cell_length_b   10.31659208
_cell_length_c   11.78659214
_cell_angle_alpha   89.98269877
_cell_angle_beta   90.00000000
_cell_angle_gamma   90.00000000
_symmetry_Int_Tables_number   1
_chemical_formula_structural   Tm4MnCo16(TcP4)3
_chemical_formula_sum   'Tm4 Mn1 Co16 Tc3 P12'
_cell_volume   448.25929957
_cell_formula_units_Z   1
loop_
 _symmetry_equiv_pos_site_id
 _symmetry_equiv_pos_as_xyz
  1  'x, y, z'
loop_
 _atom_site_type_symbol
 _atom_site_label
 _atom_site_symmetry_multiplicity
 _atom_site_fract_x
 _atom_site_fract_y
 _atom_site_fract_z
 _atom_site_occupancy
  Tm  Tm0  1  0.250000  0.581432  0.702820  1
  Tm  Tm1  1  0.250000  0.915701  0.205805  1
  Tm  Tm2  1  0.750000  0.416045  0.295073  1
  Tm  Tm3  1  0.750000  0.083727  0.794340  1
  Mn  Mn4  1  0.750000  0.212630  0.512808  1
  Co  Co5  1  0.250000  0.405812  0.486620  1
  Co  Co6  1  0.250000  0.092566  0.987686  1
  Co  Co7  1  0.750000  0.592322  0.511471  1
  Co  Co8  1  0.750000  0.907491  0.012028  1
  Co  Co9  1  0.250000  0.220578  0.176667  1
  Co  Co10  1  0.250000  0.277410  0.677214  1
  Co  Co11  1  0.750000  0.778692  0.822739  1
  Co  Co12  1  0.750000  0.721449  0.323358  1
  Co  Co13  1  0.250000  0.886618  0.701492  1
  Co  Co14  1  0.250000  0.614408  0.202460  1
  Co  Co15  1  0.750000  0.116879  0.299994  1
  Co  Co16  1  0.750000  0.386391  0.798050  1
  Co  Co17  1  0.250000  0.464179  0.932036  1
  Co  Co18  1  0.250000  0.035371  0.431186  1
  Co  Co19  1  0.750000  0.536148  0.068501  1
  Co  Co20  1  0.750000  0.965829  0.568338  1
  Tc  Tc21  1  0.250000  0.711628  0.988960  1
  Tc  Tc22  1  0.250000  0.788635  0.490453  1
  Tc  Tc23  1  0.750000  0.288272  0.010866  1
  P  P24  1  0.250000  0.420053  0.114322  1
  P  P25  1  0.250000  0.082056  0.611582  1
  P  P26  1  0.750000  0.579386  0.885623  1
  P  P27  1  0.750000  0.921319  0.386355  1
  P  P28  1  0.250000  0.268677  0.865021  1
  P  P29  1  0.250000  0.231462  0.367781  1
  P  P30  1  0.750000  0.731570  0.134828  1
  P  P31  1  0.750000  0.769076  0.633786  1
  P  P32  1  0.250000  0.595549  0.391126  1
  P  P33  1  0.250000  0.904600  0.889898  1
  P  P34  1  0.750000  0.400134  0.607889  1
  P  P35  1  0.750000  0.095903  0.110822  1
