# generated using pymatgen
data_BaLaPa2(NiP)4
_symmetry_space_group_name_H-M   'P 1'
_cell_length_a   3.96696900
_cell_length_b   3.96696794
_cell_length_c   16.64317600
_cell_angle_alpha   90.00000000
_cell_angle_beta   90.00000000
_cell_angle_gamma   120.00000046
_symmetry_Int_Tables_number   1
_chemical_formula_structural   BaLaPa2(NiP)4
_chemical_formula_sum   'Ba1 La1 Pa2 Ni4 P4'
_cell_volume   226.82156014
_cell_formula_units_Z   1
loop_
 _symmetry_equiv_pos_site_id
 _symmetry_equiv_pos_as_xyz
  1  'x, y, z'
loop_
 _atom_site_type_symbol
 _atom_site_label
 _atom_site_symmetry_multiplicity
 _atom_site_fract_x
 _atom_site_fract_y
 _atom_site_fract_z
 _atom_site_occupancy
  Ba  Ba0  1  0.000000  0.000000  0.250000  1
  La  La1  1  0.000000  0.000000  0.750000  1
  Pa  Pa2  1  0.000000  0.000000  0.507298  1
  Pa  Pa3  1  0.000000  0.000000  0.992702  1
  Ni  Ni4  1  0.333333  0.666667  0.407030  1
  Ni  Ni5  1  0.666667  0.333333  0.610795  1
  Ni  Ni6  1  0.666667  0.333333  0.889205  1
  Ni  Ni7  1  0.333333  0.666667  0.092970  1
  P  P8  1  0.333333  0.666667  0.874664  1
  P  P9  1  0.666667  0.333333  0.106899  1
  P  P10  1  0.666667  0.333333  0.393101  1
  P  P11  1  0.333333  0.666667  0.625336  1
