# generated using pymatgen
data_Tb6Al24IrRu4Pt3
_symmetry_space_group_name_H-M   'P 1'
_cell_length_a   8.85431038
_cell_length_b   8.84230891
_cell_length_c   9.51738547
_cell_angle_alpha   90.19728675
_cell_angle_beta   90.04870170
_cell_angle_gamma   119.79714749
_symmetry_Int_Tables_number   1
_chemical_formula_structural   Tb6Al24IrRu4Pt3
_chemical_formula_sum   'Tb6 Al24 Ir1 Ru4 Pt3'
_cell_volume   646.61884414
_cell_formula_units_Z   1
loop_
 _symmetry_equiv_pos_site_id
 _symmetry_equiv_pos_as_xyz
  1  'x, y, z'
loop_
 _atom_site_type_symbol
 _atom_site_label
 _atom_site_symmetry_multiplicity
 _atom_site_fract_x
 _atom_site_fract_y
 _atom_site_fract_z
 _atom_site_occupancy
  Tb  Tb0  1  0.382279  0.189341  0.250032  1
  Tb  Tb1  1  0.809738  0.192189  0.249918  1
  Tb  Tb2  1  0.811309  0.617067  0.248734  1
  Tb  Tb3  1  0.617721  0.810659  0.749968  1
  Tb  Tb4  1  0.190262  0.807811  0.750082  1
  Tb  Tb5  1  0.188691  0.382933  0.751266  1
  Al  Al6  1  0.438045  0.874866  0.246090  1
  Al  Al7  1  0.123309  0.560984  0.251889  1
  Al  Al8  1  0.436161  0.563577  0.250252  1
  Al  Al9  1  0.561955  0.125134  0.753910  1
  Al  Al10  1  0.876691  0.439016  0.748111  1
  Al  Al11  1  0.563839  0.436423  0.749748  1
  Al  Al12  1  0.158547  0.832443  0.423013  1
  Al  Al13  1  0.158199  0.325113  0.423558  1
  Al  Al14  1  0.676540  0.837892  0.422614  1
  Al  Al15  1  0.841453  0.167557  0.576987  1
  Al  Al16  1  0.841801  0.674887  0.576442  1
  Al  Al17  1  0.323460  0.162108  0.577386  1
  Al  Al18  1  0.835055  0.162163  0.924435  1
  Al  Al19  1  0.840357  0.674863  0.924160  1
  Al  Al20  1  0.324550  0.157639  0.924304  1
  Al  Al21  1  0.164945  0.837837  0.075565  1
  Al  Al22  1  0.159643  0.325137  0.075840  1
  Al  Al23  1  0.675450  0.842361  0.075696  1
  Al  Al24  1  0.327596  0.663712  0.529124  1
  Al  Al25  1  0.672404  0.336288  0.470876  1
  Al  Al26  1  0.667285  0.329476  0.027151  1
  Al  Al27  1  0.332715  0.670524  0.972849  1
  Al  Al28  1  0.002086  0.999181  0.249803  1
  Al  Al29  1  0.997914  0.000819  0.750197  1
  Ir  Ir30  1  0.000000  0.500000  0.000000  1
  Ru  Ru31  1  0.000000  0.000000  0.500000  1
  Ru  Ru32  1  0.000000  0.000000  0.000000  1
  Ru  Ru33  1  0.000000  0.500000  0.500000  1
  Ru  Ru34  1  0.500000  0.000000  0.000000  1
  Pt  Pt35  1  0.500000  0.000000  0.500000  1
  Pt  Pt36  1  0.500000  0.500000  0.500000  1
  Pt  Pt37  1  0.500000  0.500000  0.000000  1
