# generated using pymatgen
data_Zr6Ti16Mn3Ir4
_symmetry_space_group_name_H-M   'P 1'
_cell_length_a   8.85345573
_cell_length_b   8.95259228
_cell_length_c   8.85347518
_cell_angle_alpha   59.62915697
_cell_angle_beta   60.77592148
_cell_angle_gamma   59.62919238
_symmetry_Int_Tables_number   1
_chemical_formula_structural   Zr6Ti16Mn3Ir4
_chemical_formula_sum   'Zr6 Ti16 Mn3 Ir4'
_cell_volume   496.19913638
_cell_formula_units_Z   1
loop_
 _symmetry_equiv_pos_site_id
 _symmetry_equiv_pos_as_xyz
  1  'x, y, z'
loop_
 _atom_site_type_symbol
 _atom_site_label
 _atom_site_symmetry_multiplicity
 _atom_site_fract_x
 _atom_site_fract_y
 _atom_site_fract_z
 _atom_site_occupancy
  Zr  Zr0  1  0.692099  0.691999  0.307907  1
  Zr  Zr1  1  0.311197  0.688805  0.311195  1
  Zr  Zr2  1  0.692098  0.307994  0.307903  1
  Zr  Zr3  1  0.307901  0.308001  0.692093  1
  Zr  Zr4  1  0.688803  0.311195  0.688805  1
  Zr  Zr5  1  0.307902  0.692006  0.692097  1
  Ti  Ti6  1  0.882803  0.885995  0.345220  1
  Ti  Ti7  1  0.885881  0.345283  0.885900  1
  Ti  Ti8  1  0.345207  0.886001  0.882805  1
  Ti  Ti9  1  0.885883  0.882942  0.885904  1
  Ti  Ti10  1  0.117197  0.114005  0.654780  1
  Ti  Ti11  1  0.114119  0.654717  0.114100  1
  Ti  Ti12  1  0.654793  0.113999  0.117195  1
  Ti  Ti13  1  0.114117  0.117058  0.114096  1
  Ti  Ti14  1  0.676717  0.664563  0.994139  1
  Ti  Ti15  1  0.664418  0.994309  0.664397  1
  Ti  Ti16  1  0.994127  0.664567  0.676724  1
  Ti  Ti17  1  0.664419  0.676882  0.664398  1
  Ti  Ti18  1  0.323283  0.335437  0.005861  1
  Ti  Ti19  1  0.335582  0.005691  0.335603  1
  Ti  Ti20  1  0.005873  0.335433  0.323276  1
  Ti  Ti21  1  0.335581  0.323118  0.335602  1
  Mn  Mn22  1  0.000000  0.000000  0.000000  1
  Mn  Mn23  1  0.500000  0.000000  0.500000  1
  Mn  Mn24  1  0.000000  0.500000  0.000000  1
  Ir  Ir25  1  0.000000  0.000000  0.500000  1
  Ir  Ir26  1  0.000000  0.500000  0.500000  1
  Ir  Ir27  1  0.500000  0.500000  0.000000  1
  Ir  Ir28  1  0.500000  0.000000  0.000000  1
