# generated using pymatgen
data_Er7TmNp4O24
_symmetry_space_group_name_H-M   'P 1'
_cell_length_a   5.48271602
_cell_length_b   7.77986861
_cell_length_c   11.76375865
_cell_angle_alpha   73.59380943
_cell_angle_beta   89.99573623
_cell_angle_gamma   89.99080218
_symmetry_Int_Tables_number   1
_chemical_formula_structural   Er7TmNp4O24
_chemical_formula_sum   'Er7 Tm1 Np4 O24'
_cell_volume   481.35010643
_cell_formula_units_Z   1
loop_
 _symmetry_equiv_pos_site_id
 _symmetry_equiv_pos_as_xyz
  1  'x, y, z'
loop_
 _atom_site_type_symbol
 _atom_site_label
 _atom_site_symmetry_multiplicity
 _atom_site_fract_x
 _atom_site_fract_y
 _atom_site_fract_z
 _atom_site_occupancy
  Er  Er0  1  0.745463  0.000063  0.749886  1
  Er  Er1  1  0.254514  0.000093  0.250111  1
  Er  Er2  1  0.186316  0.795203  0.580068  1
  Er  Er3  1  0.813611  0.795069  0.080104  1
  Er  Er4  1  0.701410  0.499982  0.749993  1
  Er  Er5  1  0.298617  0.499853  0.250110  1
  Er  Er6  1  0.186367  0.204939  0.919882  1
  Tm  Tm7  1  0.813622  0.205231  0.419708  1
  Np  Np8  1  0.256599  0.719179  0.887427  1
  Np  Np9  1  0.743367  0.719180  0.387458  1
  Np  Np10  1  0.256644  0.280688  0.612332  1
  Np  Np11  1  0.743500  0.280767  0.112749  1
  O  O12  1  0.045234  0.943662  0.897178  1
  O  O13  1  0.556475  0.849451  0.931258  1
  O  O14  1  0.954125  0.944603  0.397294  1
  O  O15  1  0.450011  0.802543  0.726042  1
  O  O16  1  0.443470  0.849307  0.431236  1
  O  O17  1  0.962356  0.715202  0.765519  1
  O  O18  1  0.549967  0.802466  0.226094  1
  O  O19  1  0.877629  0.624398  0.556521  1
  O  O20  1  0.391502  0.478922  0.882964  1
  O  O21  1  0.037652  0.715259  0.265580  1
  O  O22  1  0.391408  0.520999  0.616999  1
  O  O23  1  0.877584  0.375634  0.943468  1
  O  O24  1  0.122383  0.624320  0.056590  1
  O  O25  1  0.609170  0.478275  0.383040  1
  O  O26  1  0.962427  0.284784  0.734464  1
  O  O27  1  0.608465  0.521057  0.117033  1
  O  O28  1  0.121138  0.374978  0.443377  1
  O  O29  1  0.450009  0.197471  0.773849  1
  O  O30  1  0.037307  0.284680  0.234842  1
  O  O31  1  0.557490  0.150867  0.568070  1
  O  O32  1  0.550800  0.197419  0.274490  1
  O  O33  1  0.045047  0.056528  0.602607  1
  O  O34  1  0.443534  0.150575  0.068828  1
  O  O35  1  0.954787  0.056351  0.102829  1
