# generated using pymatgen
data_Ta3Mo(AsO4)6
_symmetry_space_group_name_H-M   'P 1'
_cell_length_a   9.48256791
_cell_length_b   9.48256696
_cell_length_c   9.48256700
_cell_angle_alpha   56.85793560
_cell_angle_beta   56.85793935
_cell_angle_gamma   56.85794597
_symmetry_Int_Tables_number   1
_chemical_formula_structural   Ta3Mo(AsO4)6
_chemical_formula_sum   'Ta3 Mo1 As6 O24'
_cell_volume   559.21272266
_cell_formula_units_Z   1
loop_
 _symmetry_equiv_pos_site_id
 _symmetry_equiv_pos_as_xyz
  1  'x, y, z'
loop_
 _atom_site_type_symbol
 _atom_site_label
 _atom_site_symmetry_multiplicity
 _atom_site_fract_x
 _atom_site_fract_y
 _atom_site_fract_z
 _atom_site_occupancy
  Ta  Ta0  1  0.855504  0.855504  0.855504  1
  Ta  Ta1  1  0.642764  0.642764  0.642764  1
  Ta  Ta2  1  0.358693  0.358693  0.358693  1
  Mo  Mo3  1  0.145208  0.145208  0.145208  1
  As  As4  1  0.253631  0.526201  0.966823  1
  As  As5  1  0.966823  0.253631  0.526201  1
  As  As6  1  0.526201  0.966823  0.253631  1
  As  As7  1  0.471332  0.032322  0.749720  1
  As  As8  1  0.032322  0.749720  0.471332  1
  As  As9  1  0.749720  0.471332  0.032322  1
  O  O10  1  0.682512  0.516604  0.872418  1
  O  O11  1  0.516604  0.872418  0.682512  1
  O  O12  1  0.046758  0.695359  0.961998  1
  O  O13  1  0.872418  0.682512  0.516604  1
  O  O14  1  0.409387  0.608319  0.769096  1
  O  O15  1  0.285360  0.330461  0.972749  1
  O  O16  1  0.961998  0.046758  0.695359  1
  O  O17  1  0.769096  0.409387  0.608319  1
  O  O18  1  0.608319  0.769096  0.409387  1
  O  O19  1  0.671365  0.009565  0.736976  1
  O  O20  1  0.311129  0.008952  0.954548  1
  O  O21  1  0.009565  0.736976  0.671365  1
  O  O22  1  0.972749  0.285360  0.330461  1
  O  O23  1  0.695359  0.961998  0.046758  1
  O  O24  1  0.330461  0.972749  0.285360  1
  O  O25  1  0.412732  0.231293  0.580763  1
  O  O26  1  0.231293  0.580763  0.412732  1
  O  O27  1  0.008952  0.954548  0.311129  1
  O  O28  1  0.736976  0.671365  0.009565  1
  O  O29  1  0.580763  0.412732  0.231293  1
  O  O30  1  0.143376  0.283485  0.502600  1
  O  O31  1  0.954548  0.311129  0.008952  1
  O  O32  1  0.502600  0.143376  0.283485  1
  O  O33  1  0.283485  0.502600  0.143376  1
