# generated using pymatgen
data_Ce4YEr3(AlRh)8
_symmetry_space_group_name_H-M   'P 1'
_cell_length_a   4.19644000
_cell_length_b   7.01022800
_cell_length_c   15.82753401
_cell_angle_alpha   90.00405415
_cell_angle_beta   90.00103648
_cell_angle_gamma   90.00073642
_symmetry_Int_Tables_number   1
_chemical_formula_structural   Ce4YEr3(AlRh)8
_chemical_formula_sum   'Ce4 Y1 Er3 Al8 Rh8'
_cell_volume   465.61441338
_cell_formula_units_Z   1
loop_
 _symmetry_equiv_pos_site_id
 _symmetry_equiv_pos_as_xyz
  1  'x, y, z'
loop_
 _atom_site_type_symbol
 _atom_site_label
 _atom_site_symmetry_multiplicity
 _atom_site_fract_x
 _atom_site_fract_y
 _atom_site_fract_z
 _atom_site_occupancy
  Ce  Ce0  1  0.250038  0.033399  0.779904  1
  Ce  Ce1  1  0.750009  0.966637  0.220284  1
  Ce  Ce2  1  0.249979  0.533611  0.720457  1
  Ce  Ce3  1  0.750018  0.466563  0.279684  1
  Y  Y4  1  0.249997  0.157897  0.558963  1
  Er  Er5  1  0.749993  0.841822  0.440661  1
  Er  Er6  1  0.250003  0.657728  0.940878  1
  Er  Er7  1  0.750004  0.342282  0.059120  1
  Al  Al8  1  0.250000  0.135748  0.353697  1
  Al  Al9  1  0.750001  0.863756  0.646236  1
  Al  Al10  1  0.249998  0.635742  0.146132  1
  Al  Al11  1  0.749999  0.364199  0.853878  1
  Al  Al12  1  0.249997  0.005725  0.060738  1
  Al  Al13  1  0.749999  0.994230  0.939290  1
  Al  Al14  1  0.249995  0.506020  0.439087  1
  Al  Al15  1  0.749995  0.494783  0.560735  1
  Rh  Rh16  1  0.749990  0.271725  0.428424  1
  Rh  Rh17  1  0.250000  0.727404  0.570834  1
  Rh  Rh18  1  0.749996  0.771026  0.070809  1
  Rh  Rh19  1  0.249985  0.228991  0.929240  1
  Rh  Rh20  1  0.750001  0.744091  0.814610  1
  Rh  Rh21  1  0.250007  0.256002  0.185341  1
  Rh  Rh22  1  0.750004  0.244594  0.686303  1
  Rh  Rh23  1  0.249993  0.756026  0.314694  1
