# generated using pymatgen
data_Ba2Si3PRh4
_symmetry_space_group_name_H-M   'P 1'
_cell_length_a   6.75884600
_cell_length_b   7.71941361
_cell_length_c   7.94622487
_cell_angle_alpha   87.97835344
_cell_angle_beta   90.00000000
_cell_angle_gamma   90.00000000
_symmetry_Int_Tables_number   1
_chemical_formula_structural   Ba2Si3PRh4
_chemical_formula_sum   'Ba4 Si6 P2 Rh8'
_cell_volume   414.33088874
_cell_formula_units_Z   2
loop_
 _symmetry_equiv_pos_site_id
 _symmetry_equiv_pos_as_xyz
  1  'x, y, z'
loop_
 _atom_site_type_symbol
 _atom_site_label
 _atom_site_symmetry_multiplicity
 _atom_site_fract_x
 _atom_site_fract_y
 _atom_site_fract_z
 _atom_site_occupancy
  Ba  Ba0  1  0.373871  0.001346  0.237699  1
  Ba  Ba1  1  0.873871  0.498654  0.762301  1
  Ba  Ba2  1  0.623482  0.002015  0.766380  1
  Ba  Ba3  1  0.123482  0.497985  0.233620  1
  Si  Si4  1  0.580655  0.633119  0.076974  1
  Si  Si5  1  0.080655  0.866881  0.923026  1
  Si  Si6  1  0.644209  0.311269  0.436445  1
  Si  Si7  1  0.144209  0.188731  0.563555  1
  Si  Si8  1  0.353288  0.687396  0.560610  1
  Si  Si9  1  0.853288  0.812604  0.439390  1
  P  P10  1  0.422750  0.370895  0.925480  1
  P  P11  1  0.922750  0.129105  0.074520  1
  Rh  Rh12  1  0.107795  0.887692  0.623059  1
  Rh  Rh13  1  0.607795  0.612308  0.376941  1
  Rh  Rh14  1  0.893874  0.114647  0.372801  1
  Rh  Rh15  1  0.393874  0.385353  0.627199  1
  Rh  Rh16  1  0.833105  0.836296  0.139907  1
  Rh  Rh17  1  0.333105  0.663704  0.860093  1
  Rh  Rh18  1  0.166971  0.174416  0.865090  1
  Rh  Rh19  1  0.666971  0.325584  0.134910  1
