# generated using pymatgen
data_PrNd9(AsPb3)2
_symmetry_space_group_name_H-M   'P 1'
_cell_length_a   9.54979700
_cell_length_b   9.55272951
_cell_length_c   7.05447900
_cell_angle_alpha   90.00000000
_cell_angle_beta   90.00000000
_cell_angle_gamma   120.00999602
_symmetry_Int_Tables_number   1
_chemical_formula_structural   PrNd9(AsPb3)2
_chemical_formula_sum   'Pr1 Nd9 As2 Pb6'
_cell_volume   557.27998218
_cell_formula_units_Z   1
loop_
 _symmetry_equiv_pos_site_id
 _symmetry_equiv_pos_as_xyz
  1  'x, y, z'
loop_
 _atom_site_type_symbol
 _atom_site_label
 _atom_site_symmetry_multiplicity
 _atom_site_fract_x
 _atom_site_fract_y
 _atom_site_fract_z
 _atom_site_occupancy
  Pr  Pr0  1  0.000262  0.754941  0.250000  1
  Nd  Nd1  1  0.754871  0.755732  0.750000  1
  Nd  Nd2  1  0.244459  0.000105  0.750000  1
  Nd  Nd3  1  0.000251  0.245456  0.750000  1
  Nd  Nd4  1  0.244355  0.244328  0.250000  1
  Nd  Nd5  1  0.755543  0.999274  0.250000  1
  Nd  Nd6  1  0.666822  0.332896  0.999845  1
  Nd  Nd7  1  0.333418  0.666489  0.000153  1
  Nd  Nd8  1  0.333418  0.666489  0.499847  1
  Nd  Nd9  1  0.666822  0.332896  0.500155  1
  As  As10  1  0.000048  0.000793  0.999025  1
  As  As11  1  0.000048  0.000793  0.500975  1
  Pb  Pb12  1  0.397728  0.397498  0.750000  1
  Pb  Pb13  1  0.602307  0.000187  0.750000  1
  Pb  Pb14  1  0.000037  0.603012  0.750000  1
  Pb  Pb15  1  0.601405  0.602045  0.250000  1
  Pb  Pb16  1  0.398713  0.001013  0.250000  1
  Pb  Pb17  1  0.999492  0.396051  0.250000  1
