# generated using pymatgen
data_LaCoSbAsIr
_symmetry_space_group_name_H-M   'P 1'
_cell_length_a   4.36202300
_cell_length_b   4.36202300
_cell_length_c   10.10866500
_cell_angle_alpha   90.00000000
_cell_angle_beta   90.00000000
_cell_angle_gamma   90.00000000
_symmetry_Int_Tables_number   1
_chemical_formula_structural   LaCoSbAsIr
_chemical_formula_sum   'La2 Co2 Sb2 As2 Ir2'
_cell_volume   192.34004207
_cell_formula_units_Z   2
loop_
 _symmetry_equiv_pos_site_id
 _symmetry_equiv_pos_as_xyz
  1  'x, y, z'
loop_
 _atom_site_type_symbol
 _atom_site_label
 _atom_site_symmetry_multiplicity
 _atom_site_fract_x
 _atom_site_fract_y
 _atom_site_fract_z
 _atom_site_occupancy
  La  La0  1  0.000000  0.500000  0.229603  1
  La  La1  1  0.500000  0.000000  0.770397  1
  Co  Co2  1  0.000000  0.500000  0.902437  1
  Co  Co3  1  0.500000  0.000000  0.097563  1
  Sb  Sb4  1  0.000000  0.500000  0.652586  1
  Sb  Sb5  1  0.500000  0.000000  0.347414  1
  As  As6  1  0.000000  0.000000  0.000000  1
  As  As7  1  0.500000  0.500000  0.000000  1
  Ir  Ir8  1  0.000000  0.000000  0.500000  1
  Ir  Ir9  1  0.500000  0.500000  0.500000  1
