# generated using pymatgen
data_La6Er2PtAu9
_symmetry_space_group_name_H-M   'P 1'
_cell_length_a   8.28397585
_cell_length_b   8.28397490
_cell_length_c   8.28397500
_cell_angle_alpha   66.12077020
_cell_angle_beta   66.12077311
_cell_angle_gamma   66.12074783
_symmetry_Int_Tables_number   1
_chemical_formula_structural   La6Er2PtAu9
_chemical_formula_sum   'La6 Er2 Pt1 Au9'
_cell_volume   455.16156311
_cell_formula_units_Z   1
loop_
 _symmetry_equiv_pos_site_id
 _symmetry_equiv_pos_as_xyz
  1  'x, y, z'
loop_
 _atom_site_type_symbol
 _atom_site_label
 _atom_site_symmetry_multiplicity
 _atom_site_fract_x
 _atom_site_fract_y
 _atom_site_fract_z
 _atom_site_occupancy
  La  La0  1  0.888301  0.174883  0.632649  1
  La  La1  1  0.632649  0.888301  0.174883  1
  La  La2  1  0.174883  0.632649  0.888301  1
  La  La3  1  0.105499  0.811368  0.385790  1
  La  La4  1  0.385790  0.105499  0.811368  1
  La  La5  1  0.811368  0.385790  0.105499  1
  Er  Er6  1  0.658126  0.658126  0.658126  1
  Er  Er7  1  0.342686  0.342686  0.342686  1
  Pt  Pt8  1  0.801991  0.801991  0.801991  1
  Au  Au9  1  0.005533  0.005533  0.005533  1
  Au  Au10  1  0.500408  0.500408  0.500408  1
  Au  Au11  1  0.194993  0.194993  0.194993  1
  Au  Au12  1  0.940863  0.540497  0.328662  1
  Au  Au13  1  0.328662  0.940863  0.540497  1
  Au  Au14  1  0.540497  0.328662  0.940863  1
  Au  Au15  1  0.061022  0.447438  0.679292  1
  Au  Au16  1  0.679292  0.061022  0.447438  1
  Au  Au17  1  0.447438  0.679292  0.061022  1
