# generated using pymatgen
data_Mn3(SnS)2
_symmetry_space_group_name_H-M   'P 1'
_cell_length_a   5.54382152
_cell_length_b   5.54382177
_cell_length_c   5.54382200
_cell_angle_alpha   58.60521632
_cell_angle_beta   58.60521072
_cell_angle_gamma   58.60522793
_symmetry_Int_Tables_number   1
_chemical_formula_structural   Mn3(SnS)2
_chemical_formula_sum   'Mn3 Sn2 S2'
_cell_volume   116.63755877
_cell_formula_units_Z   1
loop_
 _symmetry_equiv_pos_site_id
 _symmetry_equiv_pos_as_xyz
  1  'x, y, z'
loop_
 _atom_site_type_symbol
 _atom_site_label
 _atom_site_symmetry_multiplicity
 _atom_site_fract_x
 _atom_site_fract_y
 _atom_site_fract_z
 _atom_site_occupancy
  Mn  Mn0  1  0.500000  0.000000  0.000000  1
  Mn  Mn1  1  0.000000  0.500000  0.000000  1
  Mn  Mn2  1  0.000000  0.000000  0.500000  1
  Sn  Sn3  1  0.500000  0.500000  0.500000  1
  Sn  Sn4  1  0.000000  0.000000  0.000000  1
  S  S5  1  0.717657  0.717657  0.717657  1
  S  S6  1  0.282343  0.282343  0.282343  1
