# generated using pymatgen
data_ErTm3(Ga3Rh)6
_symmetry_space_group_name_H-M   'P 1'
_cell_length_a   7.54925546
_cell_length_b   7.55007599
_cell_length_c   9.49412200
_cell_angle_alpha   90.00000000
_cell_angle_beta   90.00000000
_cell_angle_gamma   119.88427650
_symmetry_Int_Tables_number   1
_chemical_formula_structural   ErTm3(Ga3Rh)6
_chemical_formula_sum   'Er1 Tm3 Ga18 Rh6'
_cell_volume   469.18718105
_cell_formula_units_Z   1
loop_
 _symmetry_equiv_pos_site_id
 _symmetry_equiv_pos_as_xyz
  1  'x, y, z'
loop_
 _atom_site_type_symbol
 _atom_site_label
 _atom_site_symmetry_multiplicity
 _atom_site_fract_x
 _atom_site_fract_y
 _atom_site_fract_z
 _atom_site_occupancy
  Er  Er0  1  0.996855  0.667787  0.250000  1
  Tm  Tm1  1  0.003183  0.332263  0.750000  1
  Tm  Tm2  1  0.667818  0.996918  0.250000  1
  Tm  Tm3  1  0.332276  0.003180  0.750000  1
  Ga  Ga4  1  0.124550  0.124653  0.250000  1
  Ga  Ga5  1  0.875453  0.875459  0.750000  1
  Ga  Ga6  1  0.999639  0.333983  0.080030  1
  Ga  Ga7  1  0.000315  0.665709  0.919756  1
  Ga  Ga8  1  0.000315  0.665709  0.580244  1
  Ga  Ga9  1  0.334393  0.999837  0.419959  1
  Ga  Ga10  1  0.999639  0.333983  0.419970  1
  Ga  Ga11  1  0.665708  0.000322  0.580109  1
  Ga  Ga12  1  0.665708  0.000322  0.919891  1
  Ga  Ga13  1  0.334393  0.999837  0.080041  1
  Ga  Ga14  1  0.332566  0.332570  0.564916  1
  Ga  Ga15  1  0.667266  0.667445  0.435322  1
  Ga  Ga16  1  0.667266  0.667445  0.064678  1
  Ga  Ga17  1  0.332566  0.332570  0.935084  1
  Ga  Ga18  1  0.338571  0.548059  0.250000  1
  Ga  Ga19  1  0.661602  0.452056  0.750000  1
  Ga  Ga20  1  0.547911  0.338315  0.250000  1
  Ga  Ga21  1  0.452074  0.661621  0.750000  1
  Rh  Rh22  1  0.671620  0.328202  0.999972  1
  Rh  Rh23  1  0.328261  0.671634  0.999971  1
  Rh  Rh24  1  0.328261  0.671634  0.500029  1
  Rh  Rh25  1  0.671620  0.328202  0.500028  1
  Rh  Rh26  1  0.000085  0.000142  0.999907  1
  Rh  Rh27  1  0.000085  0.000142  0.500093  1
