# generated using pymatgen
data_Tb4Y3Pa(ReB6)4
_symmetry_space_group_name_H-M   'P 1'
_cell_length_a   3.70270300
_cell_length_b   9.19917104
_cell_length_c   11.57370907
_cell_angle_alpha   89.81358234
_cell_angle_beta   90.00000000
_cell_angle_gamma   90.00000000
_symmetry_Int_Tables_number   1
_chemical_formula_structural   Tb4Y3Pa(ReB6)4
_chemical_formula_sum   'Tb4 Y3 Pa1 Re4 B24'
_cell_volume   394.21925631
_cell_formula_units_Z   1
loop_
 _symmetry_equiv_pos_site_id
 _symmetry_equiv_pos_as_xyz
  1  'x, y, z'
loop_
 _atom_site_type_symbol
 _atom_site_label
 _atom_site_symmetry_multiplicity
 _atom_site_fract_x
 _atom_site_fract_y
 _atom_site_fract_z
 _atom_site_occupancy
  Tb  Tb0  1  0.000000  0.178808  0.913163  1
  Tb  Tb1  1  0.000000  0.323605  0.414417  1
  Tb  Tb2  1  0.000000  0.675849  0.586515  1
  Tb  Tb3  1  0.000000  0.442293  0.128187  1
  Y  Y4  1  0.000000  0.555546  0.871047  1
  Y  Y5  1  0.000000  0.943206  0.372479  1
  Y  Y6  1  0.000000  0.057364  0.629892  1
  Pa  Pa7  1  0.000000  0.823622  0.085961  1
  Re  Re8  1  0.000000  0.134668  0.177721  1
  Re  Re9  1  0.000000  0.862524  0.824407  1
  Re  Re10  1  0.000000  0.641029  0.317988  1
  Re  Re11  1  0.000000  0.362130  0.678636  1
  B  B12  1  0.500000  0.052012  0.068143  1
  B  B13  1  0.500000  0.945625  0.933238  1
  B  B14  1  0.500000  0.553949  0.431917  1
  B  B15  1  0.500000  0.447228  0.566619  1
  B  B16  1  0.500000  0.247293  0.081593  1
  B  B17  1  0.500000  0.751757  0.919337  1
  B  B18  1  0.500000  0.748006  0.418719  1
  B  B19  1  0.500000  0.251948  0.581264  1
  B  B20  1  0.500000  0.290345  0.233601  1
  B  B21  1  0.500000  0.708907  0.766003  1
  B  B22  1  0.500000  0.791429  0.265231  1
  B  B23  1  0.500000  0.208961  0.734115  1
  B  B24  1  0.500000  0.130876  0.314488  1
  B  B25  1  0.500000  0.869548  0.686761  1
  B  B26  1  0.500000  0.632505  0.185272  1
  B  B27  1  0.500000  0.368699  0.813519  1
  B  B28  1  0.500000  0.483253  0.287487  1
  B  B29  1  0.500000  0.517510  0.711847  1
  B  B30  1  0.500000  0.982479  0.212257  1
  B  B31  1  0.500000  0.017465  0.787719  1
  B  B32  1  0.500000  0.102376  0.471874  1
  B  B33  1  0.500000  0.897689  0.529496  1
  B  B34  1  0.500000  0.607206  0.029449  1
  B  B35  1  0.500000  0.392296  0.969639  1
