# generated using pymatgen
data_CaAc3(InIr)4
_symmetry_space_group_name_H-M   'P 1'
_cell_length_a   4.43343400
_cell_length_b   7.54829592
_cell_length_c   8.77386553
_cell_angle_alpha   89.88151998
_cell_angle_beta   90.00000000
_cell_angle_gamma   90.00000000
_symmetry_Int_Tables_number   1
_chemical_formula_structural   CaAc3(InIr)4
_chemical_formula_sum   'Ca1 Ac3 In4 Ir4'
_cell_volume   293.61565738
_cell_formula_units_Z   1
loop_
 _symmetry_equiv_pos_site_id
 _symmetry_equiv_pos_as_xyz
  1  'x, y, z'
loop_
 _atom_site_type_symbol
 _atom_site_label
 _atom_site_symmetry_multiplicity
 _atom_site_fract_x
 _atom_site_fract_y
 _atom_site_fract_z
 _atom_site_occupancy
  Ca  Ca0  1  0.250000  0.963909  0.681750  1
  Ac  Ac1  1  0.750000  0.031945  0.326522  1
  Ac  Ac2  1  0.250000  0.464551  0.817726  1
  Ac  Ac3  1  0.750000  0.533642  0.181364  1
  In  In4  1  0.250000  0.863261  0.056802  1
  In  In5  1  0.250000  0.356435  0.441210  1
  In  In6  1  0.750000  0.652049  0.566958  1
  In  In7  1  0.750000  0.132558  0.929164  1
  Ir  Ir8  1  0.250000  0.733499  0.370830  1
  Ir  Ir9  1  0.750000  0.270362  0.625316  1
  Ir  Ir10  1  0.750000  0.762320  0.875497  1
  Ir  Ir11  1  0.250000  0.235469  0.126859  1
