# generated using pymatgen
data_Th4Be(Si2Rh)5
_symmetry_space_group_name_H-M   'P 1'
_cell_length_a   8.24197286
_cell_length_b   8.24197206
_cell_length_c   8.24197271
_cell_angle_alpha   138.09329242
_cell_angle_beta   105.77515914
_cell_angle_gamma   89.07771440
_symmetry_Int_Tables_number   1
_chemical_formula_structural   Th4Be(Si2Rh)5
_chemical_formula_sum   'Th4 Be1 Si10 Rh5'
_cell_volume   344.43271377
_cell_formula_units_Z   1
loop_
 _symmetry_equiv_pos_site_id
 _symmetry_equiv_pos_as_xyz
  1  'x, y, z'
loop_
 _atom_site_type_symbol
 _atom_site_label
 _atom_site_symmetry_multiplicity
 _atom_site_fract_x
 _atom_site_fract_y
 _atom_site_fract_z
 _atom_site_occupancy
  Th  Th0  1  0.862081  0.629491  0.234961  1
  Th  Th1  1  0.137919  0.372879  0.767409  1
  Th  Th2  1  0.394530  0.127121  0.265039  1
  Th  Th3  1  0.605470  0.870509  0.732591  1
  Be  Be4  1  0.000000  0.750000  0.750000  1
  Si  Si5  1  0.500000  0.750000  0.250000  1
  Si  Si6  1  0.500000  0.250000  0.750000  1
  Si  Si7  1  0.229776  0.979776  0.750000  1
  Si  Si8  1  0.770224  0.520224  0.750000  1
  Si  Si9  1  0.776389  0.026389  0.250000  1
  Si  Si10  1  0.223611  0.473611  0.250000  1
  Si  Si11  1  0.039421  0.884674  0.142092  1
  Si  Si12  1  0.960579  0.102670  0.845252  1
  Si  Si13  1  0.742583  0.397330  0.357908  1
  Si  Si14  1  0.257417  0.615326  0.654748  1
  Rh  Rh15  1  0.000000  0.250000  0.250000  1
  Rh  Rh16  1  0.248626  0.858572  0.386627  1
  Rh  Rh17  1  0.751374  0.138001  0.609946  1
  Rh  Rh18  1  0.471946  0.361999  0.113373  1
  Rh  Rh19  1  0.528054  0.641428  0.890054  1
