# generated using pymatgen
data_Ho4Ga4Co3Ni
_symmetry_space_group_name_H-M   'P 1'
_cell_length_a   4.39573900
_cell_length_b   6.91353574
_cell_length_c   6.95725384
_cell_angle_alpha   90.18243504
_cell_angle_beta   90.00000000
_cell_angle_gamma   90.00000000
_symmetry_Int_Tables_number   1
_chemical_formula_structural   Ho4Ga4Co3Ni
_chemical_formula_sum   'Ho4 Ga4 Co3 Ni1'
_cell_volume   211.43055891
_cell_formula_units_Z   1
loop_
 _symmetry_equiv_pos_site_id
 _symmetry_equiv_pos_as_xyz
  1  'x, y, z'
loop_
 _atom_site_type_symbol
 _atom_site_label
 _atom_site_symmetry_multiplicity
 _atom_site_fract_x
 _atom_site_fract_y
 _atom_site_fract_z
 _atom_site_occupancy
  Ho  Ho0  1  0.250000  0.306735  0.522957  1
  Ho  Ho1  1  0.250000  0.197256  0.017867  1
  Ho  Ho2  1  0.750000  0.693191  0.479476  1
  Ho  Ho3  1  0.750000  0.804537  0.977197  1
  Ga  Ga4  1  0.250000  0.894275  0.697742  1
  Ga  Ga5  1  0.250000  0.602113  0.195728  1
  Ga  Ga6  1  0.750000  0.109619  0.305772  1
  Ga  Ga7  1  0.750000  0.395406  0.803998  1
  Co  Co8  1  0.250000  0.563827  0.843622  1
  Co  Co9  1  0.750000  0.062889  0.657137  1
  Co  Co10  1  0.750000  0.436089  0.157033  1
  Ni  Ni11  1  0.250000  0.934064  0.341471  1
