# generated using pymatgen
data_Tm3Lu3(Sc2Sb3)2
_symmetry_space_group_name_H-M   'P 1'
_cell_length_a   8.71215802
_cell_length_b   8.70287799
_cell_length_c   6.04294700
_cell_angle_alpha   90.00000000
_cell_angle_beta   90.00000000
_cell_angle_gamma   120.09067684
_symmetry_Int_Tables_number   1
_chemical_formula_structural   Tm3Lu3(Sc2Sb3)2
_chemical_formula_sum   'Tm3 Lu3 Sc4 Sb6'
_cell_volume   396.43364588
_cell_formula_units_Z   1
loop_
 _symmetry_equiv_pos_site_id
 _symmetry_equiv_pos_as_xyz
  1  'x, y, z'
loop_
 _atom_site_type_symbol
 _atom_site_label
 _atom_site_symmetry_multiplicity
 _atom_site_fract_x
 _atom_site_fract_y
 _atom_site_fract_z
 _atom_site_occupancy
  Tm  Tm0  1  0.755814  0.756005  0.250000  1
  Tm  Tm1  1  0.244076  0.244151  0.750000  1
  Tm  Tm2  1  0.000115  0.755634  0.750000  1
  Lu  Lu3  1  0.244534  0.000059  0.250000  1
  Lu  Lu4  1  0.755594  0.000180  0.750000  1
  Lu  Lu5  1  0.999888  0.244139  0.250000  1
  Sc  Sc6  1  0.333334  0.666602  0.999990  1
  Sc  Sc7  1  0.666670  0.333437  0.500014  1
  Sc  Sc8  1  0.666670  0.333437  0.999986  1
  Sc  Sc9  1  0.333334  0.666602  0.500010  1
  Sb  Sb10  1  0.605473  0.000489  0.250000  1
  Sb  Sb11  1  0.395134  0.999968  0.750000  1
  Sb  Sb12  1  0.000500  0.605493  0.250000  1
  Sb  Sb13  1  0.393811  0.393783  0.250000  1
  Sb  Sb14  1  0.605564  0.606061  0.750000  1
  Sb  Sb15  1  0.999491  0.393960  0.750000  1
