# generated using pymatgen
data_Tb13Y7FeCo3Sb8
_symmetry_space_group_name_H-M   'P 1'
_cell_length_a   7.97222447
_cell_length_b   8.77394600
_cell_length_c   12.26261597
_cell_angle_alpha   90.00000000
_cell_angle_beta   90.06585219
_cell_angle_gamma   90.00000000
_symmetry_Int_Tables_number   1
_chemical_formula_structural   Tb13Y7FeCo3Sb8
_chemical_formula_sum   'Tb13 Y7 Fe1 Co3 Sb8'
_cell_volume   857.74326478
_cell_formula_units_Z   1
loop_
 _symmetry_equiv_pos_site_id
 _symmetry_equiv_pos_as_xyz
  1  'x, y, z'
loop_
 _atom_site_type_symbol
 _atom_site_label
 _atom_site_symmetry_multiplicity
 _atom_site_fract_x
 _atom_site_fract_y
 _atom_site_fract_z
 _atom_site_occupancy
  Tb  Tb0  1  0.046434  0.750000  0.497446  1
  Tb  Tb1  1  0.622324  0.750000  0.304951  1
  Tb  Tb2  1  0.123436  0.250000  0.194062  1
  Tb  Tb3  1  0.376695  0.250000  0.694719  1
  Tb  Tb4  1  0.877095  0.750000  0.805889  1
  Tb  Tb5  1  0.821325  0.965792  0.065053  1
  Tb  Tb6  1  0.324058  0.031972  0.436558  1
  Tb  Tb7  1  0.177983  0.466331  0.935233  1
  Tb  Tb8  1  0.679263  0.536911  0.564378  1
  Tb  Tb9  1  0.177983  0.033669  0.935233  1
  Tb  Tb10  1  0.679263  0.963089  0.564378  1
  Tb  Tb11  1  0.821325  0.534208  0.065053  1
  Tb  Tb12  1  0.324058  0.468028  0.436558  1
  Y  Y13  1  0.156702  0.750000  0.204930  1
  Y  Y14  1  0.654965  0.250000  0.295619  1
  Y  Y15  1  0.845072  0.250000  0.797173  1
  Y  Y16  1  0.345315  0.750000  0.703475  1
  Y  Y17  1  0.456829  0.750000  0.997700  1
  Y  Y18  1  0.953736  0.250000  0.502479  1
  Y  Y19  1  0.542357  0.250000  0.001861  1
  Fe  Fe20  1  0.429395  0.750000  0.487069  1
  Co  Co21  1  0.937865  0.250000  0.010516  1
  Co  Co22  1  0.565270  0.250000  0.510451  1
  Co  Co23  1  0.062888  0.750000  0.990316  1
  Sb  Sb24  1  0.927809  0.992705  0.326980  1
  Sb  Sb25  1  0.427866  0.008235  0.172227  1
  Sb  Sb26  1  0.071370  0.491450  0.672973  1
  Sb  Sb27  1  0.572136  0.507742  0.827268  1
  Sb  Sb28  1  0.071370  0.008550  0.672973  1
  Sb  Sb29  1  0.572136  0.992258  0.827268  1
  Sb  Sb30  1  0.927809  0.507295  0.326980  1
  Sb  Sb31  1  0.427866  0.491765  0.172227  1
