# generated using pymatgen
data_Tb7Sn23(Os2Rh)2
_symmetry_space_group_name_H-M   'P 1'
_cell_length_a   9.86902337
_cell_length_b   9.90577932
_cell_length_c   10.11829019
_cell_angle_alpha   89.99999780
_cell_angle_beta   89.66336955
_cell_angle_gamma   120.12328158
_symmetry_Int_Tables_number   1
_chemical_formula_structural   Tb7Sn23(Os2Rh)2
_chemical_formula_sum   'Tb7 Sn23 Os4 Rh2'
_cell_volume   855.55851460
_cell_formula_units_Z   1
loop_
 _symmetry_equiv_pos_site_id
 _symmetry_equiv_pos_as_xyz
  1  'x, y, z'
loop_
 _atom_site_type_symbol
 _atom_site_label
 _atom_site_symmetry_multiplicity
 _atom_site_fract_x
 _atom_site_fract_y
 _atom_site_fract_z
 _atom_site_occupancy
  Tb  Tb0  1  0.000000  0.000000  0.000000  1
  Tb  Tb1  1  0.484036  0.519304  0.306047  1
  Tb  Tb2  1  0.515964  0.480696  0.693953  1
  Tb  Tb3  1  0.484036  0.964732  0.306047  1
  Tb  Tb4  1  0.515964  0.035268  0.693953  1
  Tb  Tb5  1  0.034701  0.517351  0.304260  1
  Tb  Tb6  1  0.965299  0.482649  0.695740  1
  Sn  Sn7  1  0.349612  0.998455  0.000806  1
  Sn  Sn8  1  0.650388  0.001545  0.999194  1
  Sn  Sn9  1  0.000000  0.349004  0.000000  1
  Sn  Sn10  1  0.000000  0.650996  0.000000  1
  Sn  Sn11  1  0.650388  0.648842  0.999194  1
  Sn  Sn12  1  0.349612  0.351158  0.000806  1
  Sn  Sn13  1  0.330805  0.665404  0.822027  1
  Sn  Sn14  1  0.669195  0.334596  0.177973  1
  Sn  Sn15  1  0.000000  0.000000  0.500000  1
  Sn  Sn16  1  0.780132  0.220080  0.460634  1
  Sn  Sn17  1  0.219868  0.779920  0.539366  1
  Sn  Sn18  1  0.780132  0.560051  0.460634  1
  Sn  Sn19  1  0.219868  0.439949  0.539366  1
  Sn  Sn20  1  0.440191  0.220095  0.459024  1
  Sn  Sn21  1  0.559809  0.779905  0.540976  1
  Sn  Sn22  1  0.334881  0.667441  0.123909  1
  Sn  Sn23  1  0.665119  0.332559  0.876091  1
  Sn  Sn24  1  0.116497  0.883488  0.278563  1
  Sn  Sn25  1  0.883503  0.116512  0.721437  1
  Sn  Sn26  1  0.116497  0.233011  0.278563  1
  Sn  Sn27  1  0.883503  0.766989  0.721437  1
  Sn  Sn28  1  0.766142  0.883072  0.275860  1
  Sn  Sn29  1  0.233858  0.116928  0.724140  1
  Os  Os30  1  0.829547  0.168885  0.201129  1
  Os  Os31  1  0.170453  0.831115  0.798871  1
  Os  Os32  1  0.829547  0.660661  0.201129  1
  Os  Os33  1  0.170453  0.339339  0.798871  1
  Rh  Rh34  1  0.339614  0.169807  0.199483  1
  Rh  Rh35  1  0.660386  0.830193  0.800517  1
