# generated using pymatgen
data_LiTb5Y3InRh2
_symmetry_space_group_name_H-M   'P 1'
_cell_length_a   9.69253589
_cell_length_b   9.70143189
_cell_length_c   9.74220133
_cell_angle_alpha   59.68092519
_cell_angle_beta   59.74196594
_cell_angle_gamma   59.78762132
_symmetry_Int_Tables_number   1
_chemical_formula_structural   LiTb5Y3InRh2
_chemical_formula_sum   'Li2 Tb10 Y6 In2 Rh4'
_cell_volume   643.88945341
_cell_formula_units_Z   2
loop_
 _symmetry_equiv_pos_site_id
 _symmetry_equiv_pos_as_xyz
  1  'x, y, z'
loop_
 _atom_site_type_symbol
 _atom_site_label
 _atom_site_symmetry_multiplicity
 _atom_site_fract_x
 _atom_site_fract_y
 _atom_site_fract_z
 _atom_site_occupancy
  Li  Li0  1  0.428412  0.428345  0.425537  1
  Li  Li1  1  0.428055  0.427452  0.721003  1
  Tb  Tb2  1  0.652364  0.651988  0.648253  1
  Tb  Tb3  1  0.811479  0.187461  0.189466  1
  Tb  Tb4  1  0.188004  0.811472  0.811441  1
  Tb  Tb5  1  0.041184  0.652606  0.650869  1
  Tb  Tb6  1  0.437184  0.063896  0.062290  1
  Tb  Tb7  1  0.434879  0.062759  0.435844  1
  Tb  Tb8  1  0.063784  0.437440  0.061849  1
  Tb  Tb9  1  0.650524  0.650945  0.050177  1
  Tb  Tb10  1  0.187503  0.811616  0.190181  1
  Tb  Tb11  1  0.063457  0.435104  0.435663  1
  Y  Y12  1  0.807707  0.807776  0.192976  1
  Y  Y13  1  0.811099  0.188665  0.810879  1
  Y  Y14  1  0.183129  0.183728  0.819180  1
  Y  Y15  1  0.651445  0.043079  0.650562  1
  Y  Y16  1  0.064200  0.064198  0.435860  1
  Y  Y17  1  0.439169  0.439606  0.060800  1
  In  In18  1  0.416847  0.744587  0.420704  1
  In  In19  1  0.744820  0.416115  0.421328  1
  Rh  Rh20  1  0.853064  0.427602  0.860024  1
  Rh  Rh21  1  0.857998  0.854557  0.859159  1
  Rh  Rh22  1  0.857829  0.856978  0.426173  1
  Rh  Rh23  1  0.425869  0.852028  0.859786  1
