# generated using pymatgen
data_KAgP2O7
_symmetry_space_group_name_H-M   'P 1'
_cell_length_a   5.35396183
_cell_length_b   7.98252538
_cell_length_c   7.97603465
_cell_angle_alpha   104.45543549
_cell_angle_beta   91.62828748
_cell_angle_gamma   94.62680541
_symmetry_Int_Tables_number   1
_chemical_formula_structural   KAgP2O7
_chemical_formula_sum   'K2 Ag2 P4 O14'
_cell_volume   328.59707849
_cell_formula_units_Z   2
loop_
 _symmetry_equiv_pos_site_id
 _symmetry_equiv_pos_as_xyz
  1  'x, y, z'
loop_
 _atom_site_type_symbol
 _atom_site_label
 _atom_site_symmetry_multiplicity
 _atom_site_fract_x
 _atom_site_fract_y
 _atom_site_fract_z
 _atom_site_occupancy
  K  K0  1  0.199730  0.802337  0.933660  1
  K  K1  1  0.800270  0.197663  0.066340  1
  Ag  Ag2  1  0.816845  0.337878  0.598438  1
  Ag  Ag3  1  0.183155  0.662122  0.401562  1
  P  P4  1  0.717504  0.820019  0.591695  1
  P  P5  1  0.282496  0.179981  0.408305  1
  P  P6  1  0.692595  0.737295  0.217482  1
  P  P7  1  0.307405  0.262705  0.782518  1
  O  O8  1  0.903092  0.674325  0.575722  1
  O  O9  1  0.096908  0.325675  0.424278  1
  O  O10  1  0.784781  0.976626  0.737245  1
  O  O11  1  0.215219  0.023374  0.262755  1
  O  O12  1  0.445844  0.737418  0.604517  1
  O  O13  1  0.554156  0.262582  0.395483  1
  O  O14  1  0.724888  0.875065  0.408097  1
  O  O15  1  0.275112  0.124935  0.591903  1
  O  O16  1  0.566427  0.371109  0.789113  1
  O  O17  1  0.433573  0.628891  0.210887  1
  O  O18  1  0.295023  0.167922  0.922246  1
  O  O19  1  0.704977  0.832078  0.077754  1
  O  O20  1  0.094380  0.388550  0.790698  1
  O  O21  1  0.905620  0.611450  0.209302  1
