# generated using pymatgen
data_Nd4HoPb4
_symmetry_space_group_name_H-M   'P 1'
_cell_length_a   8.37676600
_cell_length_b   8.49216400
_cell_length_c   16.11565900
_cell_angle_alpha   90.00000000
_cell_angle_beta   90.00000000
_cell_angle_gamma   90.00000000
_symmetry_Int_Tables_number   1
_chemical_formula_structural   Nd4HoPb4
_chemical_formula_sum   'Nd16 Ho4 Pb16'
_cell_volume   1146.41754991
_cell_formula_units_Z   4
loop_
 _symmetry_equiv_pos_site_id
 _symmetry_equiv_pos_as_xyz
  1  'x, y, z'
loop_
 _atom_site_type_symbol
 _atom_site_label
 _atom_site_symmetry_multiplicity
 _atom_site_fract_x
 _atom_site_fract_y
 _atom_site_fract_z
 _atom_site_occupancy
  Nd  Nd0  1  0.625090  0.159703  0.619756  1
  Nd  Nd1  1  0.125090  0.340297  0.880244  1
  Nd  Nd2  1  0.374910  0.840297  0.119756  1
  Nd  Nd3  1  0.874910  0.659703  0.380244  1
  Nd  Nd4  1  0.374910  0.840297  0.380244  1
  Nd  Nd5  1  0.874910  0.659703  0.119756  1
  Nd  Nd6  1  0.625090  0.159703  0.880244  1
  Nd  Nd7  1  0.125090  0.340297  0.619756  1
  Nd  Nd8  1  0.470501  0.678671  0.599950  1
  Nd  Nd9  1  0.970501  0.821329  0.900050  1
  Nd  Nd10  1  0.529499  0.321329  0.099950  1
  Nd  Nd11  1  0.029499  0.178671  0.400050  1
  Nd  Nd12  1  0.529499  0.321329  0.400050  1
  Nd  Nd13  1  0.029499  0.178671  0.099950  1
  Nd  Nd14  1  0.470501  0.678671  0.900050  1
  Nd  Nd15  1  0.970501  0.821329  0.599950  1
  Ho  Ho16  1  0.793072  0.496801  0.750000  1
  Ho  Ho17  1  0.293072  0.003199  0.750000  1
  Ho  Ho18  1  0.206928  0.503199  0.250000  1
  Ho  Ho19  1  0.706928  0.996801  0.250000  1
  Pb  Pb20  1  0.717021  0.968000  0.454899  1
  Pb  Pb21  1  0.217021  0.532000  0.045101  1
  Pb  Pb22  1  0.282979  0.032000  0.954899  1
  Pb  Pb23  1  0.782979  0.468000  0.545101  1
  Pb  Pb24  1  0.282979  0.032000  0.545101  1
  Pb  Pb25  1  0.782979  0.468000  0.954899  1
  Pb  Pb26  1  0.717021  0.968000  0.045101  1
  Pb  Pb27  1  0.217021  0.532000  0.454899  1
  Pb  Pb28  1  0.430682  0.376031  0.750000  1
  Pb  Pb29  1  0.930682  0.123969  0.750000  1
  Pb  Pb30  1  0.569318  0.623969  0.250000  1
  Pb  Pb31  1  0.069318  0.876031  0.250000  1
  Pb  Pb32  1  0.660920  0.848208  0.750000  1
  Pb  Pb33  1  0.160920  0.651792  0.750000  1
  Pb  Pb34  1  0.339080  0.151792  0.250000  1
  Pb  Pb35  1  0.839080  0.348208  0.250000  1
