# generated using pymatgen
data_Ba5ZrSc2Al2O13
_symmetry_space_group_name_H-M   'P 1'
_cell_length_a   5.90360800
_cell_length_b   5.90360843
_cell_length_c   24.61530700
_cell_angle_alpha   90.00000000
_cell_angle_beta   90.00000000
_cell_angle_gamma   119.99999758
_symmetry_Int_Tables_number   1
_chemical_formula_structural   Ba5ZrSc2Al2O13
_chemical_formula_sum   'Ba10 Zr2 Sc4 Al4 O26'
_cell_volume   742.96944886
_cell_formula_units_Z   2
loop_
 _symmetry_equiv_pos_site_id
 _symmetry_equiv_pos_as_xyz
  1  'x, y, z'
loop_
 _atom_site_type_symbol
 _atom_site_label
 _atom_site_symmetry_multiplicity
 _atom_site_fract_x
 _atom_site_fract_y
 _atom_site_fract_z
 _atom_site_occupancy
  Ba  Ba0  1  0.333333  0.666667  0.543242  1
  Ba  Ba1  1  0.666667  0.333333  0.456758  1
  Ba  Ba2  1  0.666667  0.333333  0.043242  1
  Ba  Ba3  1  0.333333  0.666667  0.956758  1
  Ba  Ba4  1  0.000000  0.000000  0.139334  1
  Ba  Ba5  1  0.000000  0.000000  0.860666  1
  Ba  Ba6  1  0.000000  0.000000  0.639334  1
  Ba  Ba7  1  0.000000  0.000000  0.360666  1
  Ba  Ba8  1  0.333333  0.666667  0.250000  1
  Ba  Ba9  1  0.666667  0.333333  0.750000  1
  Zr  Zr10  1  0.000000  0.000000  0.000000  1
  Zr  Zr11  1  0.000000  0.000000  0.500000  1
  Sc  Sc12  1  0.333333  0.666667  0.102723  1
  Sc  Sc13  1  0.666667  0.333333  0.897277  1
  Sc  Sc14  1  0.666667  0.333333  0.602723  1
  Sc  Sc15  1  0.333333  0.666667  0.397277  1
  Al  Al16  1  0.333333  0.666667  0.679283  1
  Al  Al17  1  0.666667  0.333333  0.320717  1
  Al  Al18  1  0.666667  0.333333  0.179283  1
  Al  Al19  1  0.333333  0.666667  0.820717  1
  O  O20  1  0.501802  0.003604  0.156055  1
  O  O21  1  0.498198  0.996396  0.843945  1
  O  O22  1  0.996396  0.498198  0.156055  1
  O  O23  1  0.498198  0.996396  0.656055  1
  O  O24  1  0.003604  0.501802  0.843945  1
  O  O25  1  0.501802  0.003604  0.343945  1
  O  O26  1  0.501802  0.498198  0.156055  1
  O  O27  1  0.003604  0.501802  0.656055  1
  O  O28  1  0.498198  0.501802  0.843945  1
  O  O29  1  0.996396  0.498198  0.343945  1
  O  O30  1  0.498198  0.501802  0.656055  1
  O  O31  1  0.501802  0.498198  0.343945  1
  O  O32  1  0.166505  0.333011  0.051740  1
  O  O33  1  0.833495  0.666989  0.948260  1
  O  O34  1  0.666989  0.833495  0.051740  1
  O  O35  1  0.833495  0.666989  0.551740  1
  O  O36  1  0.333011  0.166505  0.948260  1
  O  O37  1  0.166505  0.333011  0.448260  1
  O  O38  1  0.166505  0.833495  0.051740  1
  O  O39  1  0.333011  0.166505  0.551740  1
  O  O40  1  0.833495  0.166505  0.948260  1
  O  O41  1  0.666989  0.833495  0.448260  1
  O  O42  1  0.833495  0.166505  0.551740  1
  O  O43  1  0.166505  0.833495  0.448260  1
  O  O44  1  0.333333  0.666667  0.750000  1
  O  O45  1  0.666667  0.333333  0.250000  1
