# generated using pymatgen
data_Nd5(Sc5Bi4)3
_symmetry_space_group_name_H-M   'P 1'
_cell_length_a   8.01023478
_cell_length_b   9.12010700
_cell_length_c   11.83026204
_cell_angle_alpha   90.00000000
_cell_angle_beta   90.08138840
_cell_angle_gamma   90.00000000
_symmetry_Int_Tables_number   1
_chemical_formula_structural   Nd5(Sc5Bi4)3
_chemical_formula_sum   'Nd5 Sc15 Bi12'
_cell_volume   864.24943694
_cell_formula_units_Z   1
loop_
 _symmetry_equiv_pos_site_id
 _symmetry_equiv_pos_as_xyz
  1  'x, y, z'
loop_
 _atom_site_type_symbol
 _atom_site_label
 _atom_site_symmetry_multiplicity
 _atom_site_fract_x
 _atom_site_fract_y
 _atom_site_fract_z
 _atom_site_occupancy
  Nd  Nd0  1  0.851761  0.250000  0.217792  1
  Nd  Nd1  1  0.186183  0.250000  0.777569  1
  Nd  Nd2  1  0.818079  0.750000  0.219542  1
  Nd  Nd3  1  0.319877  0.750000  0.281519  1
  Nd  Nd4  1  0.681469  0.250000  0.717238  1
  Sc  Sc5  1  0.018333  0.250000  0.514024  1
  Sc  Sc6  1  0.981843  0.750000  0.491801  1
  Sc  Sc7  1  0.479682  0.750000  0.009356  1
  Sc  Sc8  1  0.518135  0.250000  0.987757  1
  Sc  Sc9  1  0.347007  0.250000  0.277657  1
  Sc  Sc10  1  0.651771  0.750000  0.721897  1
  Sc  Sc11  1  0.151373  0.750000  0.778916  1
  Sc  Sc12  1  0.191774  0.068780  0.060740  1
  Sc  Sc13  1  0.807316  0.931848  0.936257  1
  Sc  Sc14  1  0.308309  0.932035  0.565354  1
  Sc  Sc15  1  0.807316  0.568152  0.936257  1
  Sc  Sc16  1  0.691050  0.066263  0.440964  1
  Sc  Sc17  1  0.191774  0.431220  0.060740  1
  Sc  Sc18  1  0.691050  0.433737  0.440964  1
  Sc  Sc19  1  0.308309  0.567965  0.565354  1
  Bi  Bi20  1  0.400140  0.250000  0.527561  1
  Bi  Bi21  1  0.598481  0.750000  0.472349  1
  Bi  Bi22  1  0.097878  0.750000  0.028679  1
  Bi  Bi23  1  0.901590  0.250000  0.957584  1
  Bi  Bi24  1  0.069466  0.007741  0.338899  1
  Bi  Bi25  1  0.936858  0.985541  0.669656  1
  Bi  Bi26  1  0.437197  0.985711  0.830373  1
  Bi  Bi27  1  0.936858  0.514459  0.669656  1
  Bi  Bi28  1  0.556228  0.009980  0.167136  1
  Bi  Bi29  1  0.069466  0.492259  0.338899  1
  Bi  Bi30  1  0.556228  0.490020  0.167136  1
  Bi  Bi31  1  0.437197  0.514289  0.830373  1
