# generated using pymatgen
data_Hf3Ni20BP5
_symmetry_space_group_name_H-M   'P 1'
_cell_length_a   7.85788832
_cell_length_b   7.80517302
_cell_length_c   7.80517224
_cell_angle_alpha   60.44734922
_cell_angle_beta   59.77632935
_cell_angle_gamma   59.77633089
_symmetry_Int_Tables_number   1
_chemical_formula_structural   Hf3Ni20BP5
_chemical_formula_sum   'Hf3 Ni20 B1 P5'
_cell_volume   338.46675506
_cell_formula_units_Z   1
loop_
 _symmetry_equiv_pos_site_id
 _symmetry_equiv_pos_as_xyz
  1  'x, y, z'
loop_
 _atom_site_type_symbol
 _atom_site_label
 _atom_site_symmetry_multiplicity
 _atom_site_fract_x
 _atom_site_fract_y
 _atom_site_fract_z
 _atom_site_occupancy
  Hf  Hf0  1  0.002583  0.997417  0.997417  1
  Hf  Hf1  1  0.750824  0.749176  0.749176  1
  Hf  Hf2  1  0.250824  0.249176  0.249176  1
  Ni  Ni3  1  0.615130  0.616661  0.153081  1
  Ni  Ni4  1  0.615130  0.153081  0.616661  1
  Ni  Ni5  1  0.154984  0.619726  0.619726  1
  Ni  Ni6  1  0.605566  0.619726  0.619726  1
  Ni  Ni7  1  0.380274  0.394434  0.845016  1
  Ni  Ni8  1  0.380274  0.845016  0.394434  1
  Ni  Ni9  1  0.846919  0.384870  0.384870  1
  Ni  Ni10  1  0.383339  0.384870  0.384870  1
  Ni  Ni11  1  0.999268  0.000732  0.353360  1
  Ni  Ni12  1  0.646640  0.000732  0.353360  1
  Ni  Ni13  1  0.000702  0.648640  0.349956  1
  Ni  Ni14  1  0.646640  0.353360  0.000732  1
  Ni  Ni15  1  0.999268  0.353360  0.000732  1
  Ni  Ni16  1  0.000702  0.349956  0.648640  1
  Ni  Ni17  1  0.344856  0.655144  0.988089  1
  Ni  Ni18  1  0.344856  0.988089  0.655144  1
  Ni  Ni19  1  0.351360  0.999298  0.999298  1
  Ni  Ni20  1  0.011911  0.988089  0.655144  1
  Ni  Ni21  1  0.011911  0.655144  0.988089  1
  Ni  Ni22  1  0.650044  0.999298  0.999298  1
  B  B23  1  0.263035  0.736965  0.736965  1
  P  P24  1  0.738879  0.736762  0.261121  1
  P  P25  1  0.263238  0.736762  0.261121  1
  P  P26  1  0.738723  0.261277  0.261277  1
  P  P27  1  0.263238  0.261121  0.736762  1
  P  P28  1  0.738879  0.261121  0.736762  1
