# generated using pymatgen
data_Ca2AlHg3
_symmetry_space_group_name_H-M   'P 1'
_cell_length_a   6.16095688
_cell_length_b   6.16095776
_cell_length_c   17.27220822
_cell_angle_alpha   78.14833953
_cell_angle_beta   78.14833908
_cell_angle_gamma   45.46200689
_symmetry_Int_Tables_number   1
_chemical_formula_structural   Ca2AlHg3
_chemical_formula_sum   'Ca6 Al3 Hg9'
_cell_volume   455.57521027
_cell_formula_units_Z   3
loop_
 _symmetry_equiv_pos_site_id
 _symmetry_equiv_pos_as_xyz
  1  'x, y, z'
loop_
 _atom_site_type_symbol
 _atom_site_label
 _atom_site_symmetry_multiplicity
 _atom_site_fract_x
 _atom_site_fract_y
 _atom_site_fract_z
 _atom_site_occupancy
  Ca  Ca0  1  0.270149  0.270149  0.236939  1
  Ca  Ca1  1  0.604604  0.604604  0.569751  1
  Ca  Ca2  1  0.939271  0.939271  0.902222  1
  Ca  Ca3  1  0.057460  0.057460  0.097689  1
  Ca  Ca4  1  0.390725  0.390725  0.431450  1
  Ca  Ca5  1  0.724630  0.724630  0.764459  1
  Al  Al6  1  0.963496  0.963496  0.295211  1
  Al  Al7  1  0.298096  0.298096  0.628258  1
  Al  Al8  1  0.631566  0.631566  0.961510  1
  Hg  Hg9  1  0.755326  0.755326  0.094726  1
  Hg  Hg10  1  0.087739  0.087739  0.427331  1
  Hg  Hg11  1  0.422002  0.422002  0.759703  1
  Hg  Hg12  1  0.395035  0.395035  0.038042  1
  Hg  Hg13  1  0.728218  0.728218  0.373151  1
  Hg  Hg14  1  0.062641  0.062641  0.705298  1
  Hg  Hg15  1  0.555441  0.555441  0.238278  1
  Hg  Hg16  1  0.889618  0.889618  0.571455  1
  Hg  Hg17  1  0.223991  0.223991  0.904526  1
