# generated using pymatgen
data_Sm4Er4Re(TcB8)3
_symmetry_space_group_name_H-M   'P 1'
_cell_length_a   3.70259900
_cell_length_b   9.18336482
_cell_length_c   11.60860303
_cell_angle_alpha   90.02034901
_cell_angle_beta   90.00000000
_cell_angle_gamma   90.00000000
_symmetry_Int_Tables_number   1
_chemical_formula_structural   Sm4Er4Re(TcB8)3
_chemical_formula_sum   'Sm4 Er4 Re1 Tc3 B24'
_cell_volume   394.71937969
_cell_formula_units_Z   1
loop_
 _symmetry_equiv_pos_site_id
 _symmetry_equiv_pos_as_xyz
  1  'x, y, z'
loop_
 _atom_site_type_symbol
 _atom_site_label
 _atom_site_symmetry_multiplicity
 _atom_site_fract_x
 _atom_site_fract_y
 _atom_site_fract_z
 _atom_site_occupancy
  Sm  Sm0  1  0.000000  0.323499  0.414204  1
  Sm  Sm1  1  0.000000  0.676626  0.585741  1
  Sm  Sm2  1  0.000000  0.823362  0.085992  1
  Sm  Sm3  1  0.000000  0.176974  0.914297  1
  Er  Er4  1  0.000000  0.942743  0.368775  1
  Er  Er5  1  0.000000  0.057848  0.630340  1
  Er  Er6  1  0.000000  0.442697  0.131203  1
  Er  Er7  1  0.000000  0.556245  0.869269  1
  Re  Re8  1  0.000000  0.860756  0.819571  1
  Tc  Tc9  1  0.000000  0.639480  0.319480  1
  Tc  Tc10  1  0.000000  0.360542  0.680467  1
  Tc  Tc11  1  0.000000  0.139522  0.180601  1
  B  B12  1  0.500000  0.554533  0.431426  1
  B  B13  1  0.500000  0.445622  0.568633  1
  B  B14  1  0.500000  0.054478  0.068648  1
  B  B15  1  0.500000  0.945689  0.931589  1
  B  B16  1  0.500000  0.749967  0.416927  1
  B  B17  1  0.500000  0.250305  0.583004  1
  B  B18  1  0.500000  0.249906  0.083097  1
  B  B19  1  0.500000  0.749733  0.917125  1
  B  B20  1  0.500000  0.791782  0.265741  1
  B  B21  1  0.500000  0.208173  0.734120  1
  B  B22  1  0.500000  0.291784  0.234339  1
  B  B23  1  0.500000  0.707862  0.765783  1
  B  B24  1  0.500000  0.629778  0.185896  1
  B  B25  1  0.500000  0.370006  0.814098  1
  B  B26  1  0.500000  0.129833  0.314198  1
  B  B27  1  0.500000  0.870322  0.685644  1
  B  B28  1  0.500000  0.983157  0.212647  1
  B  B29  1  0.500000  0.017186  0.787168  1
  B  B30  1  0.500000  0.483102  0.287402  1
  B  B31  1  0.500000  0.516802  0.712748  1
  B  B32  1  0.500000  0.596864  0.027020  1
  B  B33  1  0.500000  0.402641  0.973216  1
  B  B34  1  0.500000  0.097134  0.472761  1
  B  B35  1  0.500000  0.903049  0.526835  1
