# generated using pymatgen
data_Tm5Th3Pt8
_symmetry_space_group_name_H-M   'P 1'
_cell_length_a   4.49959500
_cell_length_b   5.65520932
_cell_length_c   14.24141658
_cell_angle_alpha   89.73055640
_cell_angle_beta   90.00000000
_cell_angle_gamma   90.00000000
_symmetry_Int_Tables_number   1
_chemical_formula_structural   Tm5Th3Pt8
_chemical_formula_sum   'Tm5 Th3 Pt8'
_cell_volume   362.38523764
_cell_formula_units_Z   1
loop_
 _symmetry_equiv_pos_site_id
 _symmetry_equiv_pos_as_xyz
  1  'x, y, z'
loop_
 _atom_site_type_symbol
 _atom_site_label
 _atom_site_symmetry_multiplicity
 _atom_site_fract_x
 _atom_site_fract_y
 _atom_site_fract_z
 _atom_site_occupancy
  Tm  Tm0  1  0.250000  0.530907  0.284777  1
  Tm  Tm1  1  0.750000  0.473855  0.715522  1
  Tm  Tm2  1  0.250000  0.968998  0.780914  1
  Tm  Tm3  1  0.250000  0.753187  0.539036  1
  Tm  Tm4  1  0.250000  0.745446  0.031530  1
  Th  Th5  1  0.750000  0.258173  0.962079  1
  Th  Th6  1  0.750000  0.027004  0.215903  1
  Th  Th7  1  0.750000  0.244987  0.470737  1
  Pt  Pt8  1  0.250000  0.048398  0.352672  1
  Pt  Pt9  1  0.750000  0.548209  0.148119  1
  Pt  Pt10  1  0.750000  0.725287  0.399314  1
  Pt  Pt11  1  0.250000  0.451517  0.846414  1
  Pt  Pt12  1  0.750000  0.948462  0.649622  1
  Pt  Pt13  1  0.750000  0.774749  0.893986  1
  Pt  Pt14  1  0.250000  0.225015  0.101468  1
  Pt  Pt15  1  0.250000  0.275802  0.607907  1
