# generated using pymatgen
data_UTaNbCo9
_symmetry_space_group_name_H-M   'P 1'
_cell_length_a   7.01187674
_cell_length_b   7.01187761
_cell_length_c   7.01187913
_cell_angle_alpha   43.74437624
_cell_angle_beta   43.74436936
_cell_angle_gamma   43.74437136
_symmetry_Int_Tables_number   1
_chemical_formula_structural   UTaNbCo9
_chemical_formula_sum   'U1 Ta1 Nb1 Co9'
_cell_volume   149.62354371
_cell_formula_units_Z   1
loop_
 _symmetry_equiv_pos_site_id
 _symmetry_equiv_pos_as_xyz
  1  'x, y, z'
loop_
 _atom_site_type_symbol
 _atom_site_label
 _atom_site_symmetry_multiplicity
 _atom_site_fract_x
 _atom_site_fract_y
 _atom_site_fract_z
 _atom_site_occupancy
  U  U0  1  0.999986  0.999986  0.999986  1
  Ta  Ta1  1  0.780974  0.780974  0.780974  1
  Nb  Nb2  1  0.218863  0.218863  0.218863  1
  Co  Co3  1  0.500183  0.500183  0.999854  1
  Co  Co4  1  0.500183  0.999854  0.500183  1
  Co  Co5  1  0.999854  0.500183  0.500183  1
  Co  Co6  1  0.237121  0.715224  0.715224  1
  Co  Co7  1  0.715224  0.715224  0.237121  1
  Co  Co8  1  0.715224  0.237121  0.715224  1
  Co  Co9  1  0.284757  0.762873  0.284757  1
  Co  Co10  1  0.762873  0.284757  0.284757  1
  Co  Co11  1  0.284757  0.284757  0.762873  1
