# generated using pymatgen
data_TbHo4Mn2O12
_symmetry_space_group_name_H-M   'P 1'
_cell_length_a   6.79879363
_cell_length_b   6.79879345
_cell_length_c   7.22228722
_cell_angle_alpha   74.57984277
_cell_angle_beta   74.57984656
_cell_angle_gamma   50.01866690
_symmetry_Int_Tables_number   1
_chemical_formula_structural   TbHo4Mn2O12
_chemical_formula_sum   'Tb1 Ho4 Mn2 O12'
_cell_volume   244.54772686
_cell_formula_units_Z   1
loop_
 _symmetry_equiv_pos_site_id
 _symmetry_equiv_pos_as_xyz
  1  'x, y, z'
loop_
 _atom_site_type_symbol
 _atom_site_label
 _atom_site_symmetry_multiplicity
 _atom_site_fract_x
 _atom_site_fract_y
 _atom_site_fract_z
 _atom_site_occupancy
  Tb  Tb0  1  0.000000  0.000000  0.500000  1
  Ho  Ho1  1  0.305224  0.305224  0.356423  1
  Ho  Ho2  1  0.694776  0.694776  0.643577  1
  Ho  Ho3  1  0.306952  0.306952  0.836031  1
  Ho  Ho4  1  0.693048  0.693048  0.163969  1
  Mn  Mn5  1  0.754236  0.245764  0.000000  1
  Mn  Mn6  1  0.245764  0.754236  0.000000  1
  O  O7  1  0.901276  0.422296  0.918723  1
  O  O8  1  0.422296  0.901276  0.918723  1
  O  O9  1  0.098724  0.577704  0.081277  1
  O  O10  1  0.577704  0.098724  0.081277  1
  O  O11  1  0.096652  0.595495  0.575809  1
  O  O12  1  0.595495  0.096652  0.575809  1
  O  O13  1  0.903348  0.404505  0.424191  1
  O  O14  1  0.404505  0.903348  0.424191  1
  O  O15  1  0.999962  0.999962  0.821919  1
  O  O16  1  0.000038  0.000038  0.178081  1
  O  O17  1  0.499848  0.499848  0.818568  1
  O  O18  1  0.500152  0.500152  0.181432  1
