# generated using pymatgen
data_Pr3Pb(WO6)2
_symmetry_space_group_name_H-M   'P 1'
_cell_length_a   5.48057381
_cell_length_b   9.48327791
_cell_length_c   10.40980458
_cell_angle_alpha   90.30654735
_cell_angle_beta   89.64803375
_cell_angle_gamma   89.86734965
_symmetry_Int_Tables_number   1
_chemical_formula_structural   Pr3Pb(WO6)2
_chemical_formula_sum   'Pr6 Pb2 W4 O24'
_cell_volume   541.01770442
_cell_formula_units_Z   2
loop_
 _symmetry_equiv_pos_site_id
 _symmetry_equiv_pos_as_xyz
  1  'x, y, z'
loop_
 _atom_site_type_symbol
 _atom_site_label
 _atom_site_symmetry_multiplicity
 _atom_site_fract_x
 _atom_site_fract_y
 _atom_site_fract_z
 _atom_site_occupancy
  Pr  Pr0  1  0.025495  0.397494  0.037343  1
  Pr  Pr1  1  0.029974  0.287929  0.632279  1
  Pr  Pr2  1  0.465959  0.714977  0.132134  1
  Pr  Pr3  1  0.476947  0.615045  0.539832  1
  Pr  Pr4  1  0.516011  0.098565  0.965079  1
  Pr  Pr5  1  0.524644  0.221177  0.363783  1
  Pb  Pb6  1  0.977719  0.772961  0.854677  1
  Pb  Pb7  1  0.006954  0.891874  0.453872  1
  W  W8  1  0.030854  0.006768  0.150233  1
  W  W9  1  0.470865  0.001629  0.647031  1
  W  W10  1  0.541032  0.493421  0.852316  1
  W  W11  1  0.951267  0.503376  0.350956  1
  O  O12  1  0.072273  0.658871  0.465130  1
  O  O13  1  0.163074  0.548964  0.211753  1
  O  O14  1  0.238000  0.846575  0.641119  1
  O  O15  1  0.188889  0.865686  0.268893  1
  O  O16  1  0.218143  0.394771  0.436041  1
  O  O17  1  0.234515  0.079692  0.502790  1
  O  O18  1  0.247179  0.910626  0.026751  1
  O  O19  1  0.281501  0.602675  0.939536  1
  O  O20  1  0.288799  0.123003  0.757753  1
  O  O21  1  0.302587  0.140152  0.178918  1
  O  O22  1  0.331914  0.449826  0.710439  1
  O  O23  1  0.420067  0.339971  0.964204  1
  O  O24  1  0.647582  0.859630  0.526938  1
  O  O25  1  0.659475  0.953366  0.787913  1
  O  O26  1  0.681959  0.630345  0.321612  1
  O  O27  1  0.678158  0.633270  0.740768  1
  O  O28  1  0.683684  0.137228  0.571291  1
  O  O29  1  0.749802  0.418118  0.491453  1
  O  O30  1  0.743211  0.581412  0.992080  1
  O  O31  1  0.767145  0.894941  0.080646  1
  O  O32  1  0.815759  0.360531  0.242173  1
  O  O33  1  0.812787  0.363191  0.821867  1
  O  O34  1  0.843377  0.049476  0.303185  1
  O  O35  1  0.912401  0.152466  0.037214  1
