# generated using pymatgen
data_YSc3Sb2
_symmetry_space_group_name_H-M   'P 1'
_cell_length_a   4.30641900
_cell_length_b   4.30641900
_cell_length_c   8.00901500
_cell_angle_alpha   90.00000000
_cell_angle_beta   90.00000000
_cell_angle_gamma   90.00000000
_symmetry_Int_Tables_number   1
_chemical_formula_structural   YSc3Sb2
_chemical_formula_sum   'Y1 Sc3 Sb2'
_cell_volume   148.52914221
_cell_formula_units_Z   1
loop_
 _symmetry_equiv_pos_site_id
 _symmetry_equiv_pos_as_xyz
  1  'x, y, z'
loop_
 _atom_site_type_symbol
 _atom_site_label
 _atom_site_symmetry_multiplicity
 _atom_site_fract_x
 _atom_site_fract_y
 _atom_site_fract_z
 _atom_site_occupancy
  Y  Y0  1  0.500000  0.000000  0.348958  1
  Sc  Sc1  1  0.000000  0.000000  0.995542  1
  Sc  Sc2  1  0.500000  0.500000  0.995542  1
  Sc  Sc3  1  0.000000  0.500000  0.658727  1
  Sb  Sb4  1  0.500000  0.000000  0.728941  1
  Sb  Sb5  1  0.000000  0.500000  0.272291  1
