# generated using pymatgen
data_Tb4Tm4IrPt3
_symmetry_space_group_name_H-M   'P 1'
_cell_length_a   4.69745800
_cell_length_b   7.14773300
_cell_length_c   8.75525705
_cell_angle_alpha   89.43962672
_cell_angle_beta   90.00000000
_cell_angle_gamma   90.00000000
_symmetry_Int_Tables_number   1
_chemical_formula_structural   Tb4Tm4IrPt3
_chemical_formula_sum   'Tb4 Tm4 Ir1 Pt3'
_cell_volume   293.95398820
_cell_formula_units_Z   1
loop_
 _symmetry_equiv_pos_site_id
 _symmetry_equiv_pos_as_xyz
  1  'x, y, z'
loop_
 _atom_site_type_symbol
 _atom_site_label
 _atom_site_symmetry_multiplicity
 _atom_site_fract_x
 _atom_site_fract_y
 _atom_site_fract_z
 _atom_site_occupancy
  Tb  Tb0  1  0.250000  0.011989  0.666053  1
  Tb  Tb1  1  0.250000  0.507666  0.827569  1
  Tb  Tb2  1  0.750000  0.997927  0.333338  1
  Tb  Tb3  1  0.750000  0.485718  0.172514  1
  Tm  Tm4  1  0.250000  0.138983  0.081298  1
  Tm  Tm5  1  0.250000  0.644645  0.419441  1
  Tm  Tm6  1  0.750000  0.856850  0.921575  1
  Tm  Tm7  1  0.750000  0.358101  0.575795  1
  Ir  Ir8  1  0.250000  0.248484  0.408715  1
  Pt  Pt9  1  0.250000  0.741282  0.090022  1
  Pt  Pt10  1  0.750000  0.754525  0.594840  1
  Pt  Pt11  1  0.750000  0.253830  0.908840  1
