# generated using pymatgen
data_Pa10MnRe5C16
_symmetry_space_group_name_H-M   'P 1'
_cell_length_a   11.38227400
_cell_length_b   11.38227400
_cell_length_c   3.39977700
_cell_angle_alpha   90.00000000
_cell_angle_beta   90.00000000
_cell_angle_gamma   90.00000000
_symmetry_Int_Tables_number   1
_chemical_formula_structural   Pa10MnRe5C16
_chemical_formula_sum   'Pa10 Mn1 Re5 C16'
_cell_volume   440.46205777
_cell_formula_units_Z   1
loop_
 _symmetry_equiv_pos_site_id
 _symmetry_equiv_pos_as_xyz
  1  'x, y, z'
loop_
 _atom_site_type_symbol
 _atom_site_label
 _atom_site_symmetry_multiplicity
 _atom_site_fract_x
 _atom_site_fract_y
 _atom_site_fract_z
 _atom_site_occupancy
  Pa  Pa0  1  0.000000  0.500000  0.000000  1
  Pa  Pa1  1  0.277532  0.543158  0.500000  1
  Pa  Pa2  1  0.722468  0.456842  0.500000  1
  Pa  Pa3  1  0.543158  0.722468  0.500000  1
  Pa  Pa4  1  0.772897  0.956557  0.500000  1
  Pa  Pa5  1  0.227103  0.043443  0.500000  1
  Pa  Pa6  1  0.956557  0.227103  0.500000  1
  Pa  Pa7  1  0.456842  0.277532  0.500000  1
  Pa  Pa8  1  0.500000  0.000000  0.000000  1
  Pa  Pa9  1  0.043443  0.772897  0.500000  1
  Mn  Mn10  1  0.500000  0.500000  0.000000  1
  Re  Re11  1  0.205182  0.297857  0.000000  1
  Re  Re12  1  0.702143  0.205182  0.000000  1
  Re  Re13  1  0.297857  0.794818  0.000000  1
  Re  Re14  1  0.794818  0.702143  0.000000  1
  Re  Re15  1  0.000000  0.000000  0.000000  1
  C  C16  1  0.353434  0.405613  0.000000  1
  C  C17  1  0.617037  0.120156  0.500000  1
  C  C18  1  0.900782  0.847058  0.000000  1
  C  C19  1  0.652205  0.846020  0.000000  1
  C  C20  1  0.347795  0.153980  0.000000  1
  C  C21  1  0.120156  0.382963  0.500000  1
  C  C22  1  0.152942  0.900782  0.000000  1
  C  C23  1  0.846020  0.347795  0.000000  1
  C  C24  1  0.646566  0.594387  0.000000  1
  C  C25  1  0.594387  0.353434  0.000000  1
  C  C26  1  0.879844  0.617037  0.500000  1
  C  C27  1  0.847058  0.099218  0.000000  1
  C  C28  1  0.382963  0.879844  0.500000  1
  C  C29  1  0.153980  0.652205  0.000000  1
  C  C30  1  0.099218  0.152942  0.000000  1
  C  C31  1  0.405613  0.646566  0.000000  1
