# generated using pymatgen
data_TmLu3AlGa17Ir6
_symmetry_space_group_name_H-M   'P 1'
_cell_length_a   7.56497514
_cell_length_b   7.56508226
_cell_length_c   9.44295100
_cell_angle_alpha   89.98824971
_cell_angle_beta   89.98911925
_cell_angle_gamma   119.94049646
_symmetry_Int_Tables_number   1
_chemical_formula_structural   TmLu3AlGa17Ir6
_chemical_formula_sum   'Tm1 Lu3 Al1 Ga17 Ir6'
_cell_volume   468.29506782
_cell_formula_units_Z   1
loop_
 _symmetry_equiv_pos_site_id
 _symmetry_equiv_pos_as_xyz
  1  'x, y, z'
loop_
 _atom_site_type_symbol
 _atom_site_label
 _atom_site_symmetry_multiplicity
 _atom_site_fract_x
 _atom_site_fract_y
 _atom_site_fract_z
 _atom_site_occupancy
  Tm  Tm0  1  0.999204  0.668996  0.249786  1
  Lu  Lu1  1  0.001651  0.329425  0.749483  1
  Lu  Lu2  1  0.668998  0.999232  0.249798  1
  Lu  Lu3  1  0.329417  0.001653  0.749484  1
  Al  Al4  1  0.336021  0.336020  0.949043  1
  Ga  Ga5  1  0.126197  0.126244  0.249056  1
  Ga  Ga6  1  0.872100  0.872095  0.748993  1
  Ga  Ga7  1  0.997529  0.334203  0.081256  1
  Ga  Ga8  1  0.000766  0.664810  0.917206  1
  Ga  Ga9  1  0.000429  0.664447  0.582682  1
  Ga  Ga10  1  0.334532  0.998993  0.417069  1
  Ga  Ga11  1  0.998875  0.334291  0.417071  1
  Ga  Ga12  1  0.664450  0.000442  0.582619  1
  Ga  Ga13  1  0.664815  0.000772  0.917273  1
  Ga  Ga14  1  0.334436  0.997644  0.081256  1
  Ga  Ga15  1  0.331121  0.331120  0.565410  1
  Ga  Ga16  1  0.668723  0.668826  0.432372  1
  Ga  Ga17  1  0.673141  0.673253  0.067903  1
  Ga  Ga18  1  0.340814  0.548732  0.249737  1
  Ga  Ga19  1  0.654947  0.449636  0.750135  1
  Ga  Ga20  1  0.548653  0.340700  0.249739  1
  Ga  Ga21  1  0.449649  0.654955  0.750133  1
  Ir  Ir22  1  0.669658  0.328048  0.999017  1
  Ir  Ir23  1  0.328092  0.669667  0.999003  1
  Ir  Ir24  1  0.328144  0.672243  0.499516  1
  Ir  Ir25  1  0.672230  0.328087  0.499511  1
  Ir  Ir26  1  0.005635  0.005654  0.996290  1
  Ir  Ir27  1  0.999767  0.999809  0.499159  1
