# generated using pymatgen
data_LiGd7DyPt6
_symmetry_space_group_name_H-M   'P 1'
_cell_length_a   7.62315387
_cell_length_b   7.62315327
_cell_length_c   7.62315300
_cell_angle_alpha   69.96305893
_cell_angle_beta   69.96306056
_cell_angle_gamma   69.96305578
_symmetry_Int_Tables_number   1
_chemical_formula_structural   LiGd7DyPt6
_chemical_formula_sum   'Li1 Gd7 Dy1 Pt6'
_cell_volume   378.04974229
_cell_formula_units_Z   1
loop_
 _symmetry_equiv_pos_site_id
 _symmetry_equiv_pos_as_xyz
  1  'x, y, z'
loop_
 _atom_site_type_symbol
 _atom_site_label
 _atom_site_symmetry_multiplicity
 _atom_site_fract_x
 _atom_site_fract_y
 _atom_site_fract_z
 _atom_site_occupancy
  Li  Li0  1  0.998858  0.998858  0.998858  1
  Gd  Gd1  1  0.185137  0.185137  0.185137  1
  Gd  Gd2  1  0.319928  0.612558  0.857207  1
  Gd  Gd3  1  0.857207  0.319928  0.612558  1
  Gd  Gd4  1  0.612558  0.857207  0.319928  1
  Gd  Gd5  1  0.680168  0.389096  0.141336  1
  Gd  Gd6  1  0.141336  0.680168  0.389096  1
  Gd  Gd7  1  0.389096  0.141336  0.680168  1
  Dy  Dy8  1  0.815913  0.815913  0.815913  1
  Pt  Pt9  1  0.178569  0.952278  0.577276  1
  Pt  Pt10  1  0.577276  0.178569  0.952278  1
  Pt  Pt11  1  0.952278  0.577276  0.178569  1
  Pt  Pt12  1  0.816791  0.047745  0.427139  1
  Pt  Pt13  1  0.427139  0.816791  0.047745  1
  Pt  Pt14  1  0.047745  0.427139  0.816791  1
