# generated using pymatgen
data_Ac2NiPdO6
_symmetry_space_group_name_H-M   'P 1'
_cell_length_a   5.64055476
_cell_length_b   5.64055573
_cell_length_c   5.64055519
_cell_angle_alpha   61.90355419
_cell_angle_beta   61.90355137
_cell_angle_gamma   61.90355465
_symmetry_Int_Tables_number   1
_chemical_formula_structural   Ac2NiPdO6
_chemical_formula_sum   'Ac2 Ni1 Pd1 O6'
_cell_volume   132.30353052
_cell_formula_units_Z   1
loop_
 _symmetry_equiv_pos_site_id
 _symmetry_equiv_pos_as_xyz
  1  'x, y, z'
loop_
 _atom_site_type_symbol
 _atom_site_label
 _atom_site_symmetry_multiplicity
 _atom_site_fract_x
 _atom_site_fract_y
 _atom_site_fract_z
 _atom_site_occupancy
  Ac  Ac0  1  0.249744  0.249744  0.249744  1
  Ac  Ac1  1  0.750256  0.750256  0.750256  1
  Ni  Ni2  1  0.500000  0.500000  0.500000  1
  Pd  Pd3  1  0.000000  0.000000  0.000000  1
  O  O4  1  0.754534  0.315964  0.180981  1
  O  O5  1  0.684036  0.819019  0.245467  1
  O  O6  1  0.180980  0.754534  0.315964  1
  O  O7  1  0.819020  0.245466  0.684036  1
  O  O8  1  0.315965  0.180981  0.754533  1
  O  O9  1  0.245466  0.684037  0.819019  1
