# generated using pymatgen
data_GdY2Ho(WO6)2
_symmetry_space_group_name_H-M   'P 1'
_cell_length_a   5.42392100
_cell_length_b   7.73202923
_cell_length_c   11.51215322
_cell_angle_alpha   75.59858547
_cell_angle_beta   90.00000000
_cell_angle_gamma   90.00000000
_symmetry_Int_Tables_number   1
_chemical_formula_structural   GdY2Ho(WO6)2
_chemical_formula_sum   'Gd2 Y4 Ho2 W4 O24'
_cell_volume   467.62483236
_cell_formula_units_Z   2
loop_
 _symmetry_equiv_pos_site_id
 _symmetry_equiv_pos_as_xyz
  1  'x, y, z'
loop_
 _atom_site_type_symbol
 _atom_site_label
 _atom_site_symmetry_multiplicity
 _atom_site_fract_x
 _atom_site_fract_y
 _atom_site_fract_z
 _atom_site_occupancy
  Gd  Gd0  1  0.315791  0.500000  0.750000  1
  Gd  Gd1  1  0.683923  0.500000  0.250000  1
  Y  Y2  1  0.259792  0.000000  0.750000  1
  Y  Y3  1  0.740017  0.000000  0.250000  1
  Y  Y4  1  0.814149  0.204637  0.922582  1
  Y  Y5  1  0.814149  0.795363  0.577418  1
  Ho  Ho6  1  0.185797  0.794942  0.077630  1
  Ho  Ho7  1  0.185797  0.205058  0.422370  1
  W  W8  1  0.745275  0.724829  0.885471  1
  W  W9  1  0.254459  0.724615  0.384813  1
  W  W10  1  0.745275  0.275171  0.614529  1
  W  W11  1  0.254459  0.275385  0.115187  1
  O  O12  1  0.852198  0.362534  0.452871  1
  O  O13  1  0.467765  0.847074  0.931474  1
  O  O14  1  0.852198  0.637466  0.047129  1
  O  O15  1  0.016751  0.288120  0.728241  1
  O  O16  1  0.983351  0.287662  0.228870  1
  O  O17  1  0.149647  0.363136  0.953241  1
  O  O18  1  0.641675  0.491620  0.886797  1
  O  O19  1  0.531238  0.152501  0.069753  1
  O  O20  1  0.149647  0.636864  0.546759  1
  O  O21  1  0.016751  0.711880  0.771759  1
  O  O22  1  0.455766  0.208859  0.272860  1
  O  O23  1  0.044397  0.940878  0.395361  1
  O  O24  1  0.467765  0.152926  0.568526  1
  O  O25  1  0.983351  0.712338  0.271130  1
  O  O26  1  0.957246  0.060591  0.604216  1
  O  O27  1  0.542983  0.208650  0.771961  1
  O  O28  1  0.542983  0.791350  0.728039  1
  O  O29  1  0.044397  0.059122  0.104639  1
  O  O30  1  0.641675  0.508380  0.613203  1
  O  O31  1  0.357542  0.509247  0.113341  1
  O  O32  1  0.455766  0.791141  0.227140  1
  O  O33  1  0.357542  0.490753  0.386659  1
  O  O34  1  0.531238  0.847499  0.430247  1
  O  O35  1  0.957246  0.939409  0.895784  1
