# generated using pymatgen
data_NdHo2WO7
_symmetry_space_group_name_H-M   'P 1'
_cell_length_a   6.49911494
_cell_length_b   6.49911334
_cell_length_c   7.55972700
_cell_angle_alpha   90.00000000
_cell_angle_beta   90.00000000
_cell_angle_gamma   109.10888262
_symmetry_Int_Tables_number   1
_chemical_formula_structural   NdHo2WO7
_chemical_formula_sum   'Nd2 Ho4 W2 O14'
_cell_volume   301.71676999
_cell_formula_units_Z   2
loop_
 _symmetry_equiv_pos_site_id
 _symmetry_equiv_pos_as_xyz
  1  'x, y, z'
loop_
 _atom_site_type_symbol
 _atom_site_label
 _atom_site_symmetry_multiplicity
 _atom_site_fract_x
 _atom_site_fract_y
 _atom_site_fract_z
 _atom_site_occupancy
  Nd  Nd0  1  0.500000  0.500000  0.500000  1
  Nd  Nd1  1  0.500000  0.500000  0.000000  1
  Ho  Ho2  1  0.533122  0.001644  0.750000  1
  Ho  Ho3  1  0.001644  0.533122  0.250000  1
  Ho  Ho4  1  0.466878  0.998356  0.250000  1
  Ho  Ho5  1  0.998356  0.466878  0.750000  1
  W  W6  1  0.000000  0.000000  0.500000  1
  W  W7  1  0.000000  0.000000  0.000000  1
  O  O8  1  0.678290  0.927797  0.470678  1
  O  O9  1  0.927797  0.678290  0.529322  1
  O  O10  1  0.678290  0.927797  0.029322  1
  O  O11  1  0.927797  0.678290  0.970678  1
  O  O12  1  0.321710  0.072203  0.529322  1
  O  O13  1  0.072203  0.321710  0.470678  1
  O  O14  1  0.321710  0.072203  0.970678  1
  O  O15  1  0.072203  0.321710  0.029322  1
  O  O16  1  0.926687  0.073313  0.750000  1
  O  O17  1  0.073313  0.926687  0.250000  1
  O  O18  1  0.361368  0.638631  0.750000  1
  O  O19  1  0.638631  0.361368  0.250000  1
  O  O20  1  0.642021  0.357979  0.750000  1
  O  O21  1  0.357979  0.642021  0.250000  1
