# generated using pymatgen
data_BaMn2PbCl12
_symmetry_space_group_name_H-M   'P 1'
_cell_length_a   6.61532059
_cell_length_b   6.61532226
_cell_length_c   11.32442384
_cell_angle_alpha   81.11627172
_cell_angle_beta   81.11625673
_cell_angle_gamma   71.01865561
_symmetry_Int_Tables_number   1
_chemical_formula_structural   BaMn2PbCl12
_chemical_formula_sum   'Ba1 Mn2 Pb1 Cl12'
_cell_volume   460.12658923
_cell_formula_units_Z   1
loop_
 _symmetry_equiv_pos_site_id
 _symmetry_equiv_pos_as_xyz
  1  'x, y, z'
loop_
 _atom_site_type_symbol
 _atom_site_label
 _atom_site_symmetry_multiplicity
 _atom_site_fract_x
 _atom_site_fract_y
 _atom_site_fract_z
 _atom_site_occupancy
  Ba  Ba0  1  0.993872  0.006128  0.250000  1
  Mn  Mn1  1  0.475001  0.983123  0.494506  1
  Mn  Mn2  1  0.016877  0.524999  0.005494  1
  Pb  Pb3  1  0.068602  0.931398  0.750000  1
  Cl  Cl4  1  0.372456  0.687415  0.587984  1
  Cl  Cl5  1  0.571482  0.270490  0.404921  1
  Cl  Cl6  1  0.312585  0.627544  0.912016  1
  Cl  Cl7  1  0.729510  0.428518  0.095079  1
  Cl  Cl8  1  0.442558  0.092210  0.681605  1
  Cl  Cl9  1  0.496551  0.868663  0.310160  1
  Cl  Cl10  1  0.907790  0.557442  0.818395  1
  Cl  Cl11  1  0.131337  0.503449  0.189840  1
  Cl  Cl12  1  0.825859  0.882550  0.015552  1
  Cl  Cl13  1  0.213227  0.175155  0.992313  1
  Cl  Cl14  1  0.117450  0.174141  0.484448  1
  Cl  Cl15  1  0.824845  0.786773  0.507687  1
