# generated using pymatgen
data_TlTe(P2O7)2
_symmetry_space_group_name_H-M   'P 1'
_cell_length_a   5.08617016
_cell_length_b   7.19599045
_cell_length_c   8.61129600
_cell_angle_alpha   91.89813306
_cell_angle_beta   93.68787279
_cell_angle_gamma   106.58919347
_symmetry_Int_Tables_number   1
_chemical_formula_structural   TlTe(P2O7)2
_chemical_formula_sum   'Tl1 Te1 P4 O14'
_cell_volume   300.99246838
_cell_formula_units_Z   1
loop_
 _symmetry_equiv_pos_site_id
 _symmetry_equiv_pos_as_xyz
  1  'x, y, z'
loop_
 _atom_site_type_symbol
 _atom_site_label
 _atom_site_symmetry_multiplicity
 _atom_site_fract_x
 _atom_site_fract_y
 _atom_site_fract_z
 _atom_site_occupancy
  Tl  Tl0  1  0.500000  0.500000  0.500000  1
  Te  Te1  1  0.000000  0.000000  0.000000  1
  P  P2  1  0.520512  0.138936  0.771559  1
  P  P3  1  0.119962  0.752436  0.695273  1
  P  P4  1  0.880038  0.247564  0.304727  1
  P  P5  1  0.479488  0.861064  0.228441  1
  O  O6  1  0.371967  0.171391  0.918938  1
  O  O7  1  0.037948  0.762934  0.869174  1
  O  O8  1  0.773409  0.063313  0.814078  1
  O  O9  1  0.291966  0.613017  0.691106  1
  O  O10  1  0.616930  0.315737  0.680718  1
  O  O11  1  0.309829  0.970483  0.663778  1
  O  O12  1  0.883760  0.727400  0.573337  1
  O  O13  1  0.116240  0.272600  0.426663  1
  O  O14  1  0.690171  0.029517  0.336222  1
  O  O15  1  0.383070  0.684263  0.319282  1
  O  O16  1  0.708034  0.386983  0.308894  1
  O  O17  1  0.226591  0.936687  0.185922  1
  O  O18  1  0.962052  0.237066  0.130826  1
  O  O19  1  0.628033  0.828609  0.081062  1
