# generated using pymatgen
data_CaSn2(SbRh3)2
_symmetry_space_group_name_H-M   'P 1'
_cell_length_a   7.69323157
_cell_length_b   7.63608647
_cell_length_c   4.02618900
_cell_angle_alpha   90.00000000
_cell_angle_beta   90.00000000
_cell_angle_gamma   119.75458534
_symmetry_Int_Tables_number   1
_chemical_formula_structural   CaSn2(SbRh3)2
_chemical_formula_sum   'Ca1 Sn2 Sb2 Rh6'
_cell_volume   205.33979418
_cell_formula_units_Z   1
loop_
 _symmetry_equiv_pos_site_id
 _symmetry_equiv_pos_as_xyz
  1  'x, y, z'
loop_
 _atom_site_type_symbol
 _atom_site_label
 _atom_site_symmetry_multiplicity
 _atom_site_fract_x
 _atom_site_fract_y
 _atom_site_fract_z
 _atom_site_occupancy
  Ca  Ca0  1  0.000609  0.000305  0.000000  1
  Sn  Sn1  1  0.191128  0.384338  0.500000  1
  Sn  Sn2  1  0.191128  0.806790  0.500000  1
  Sb  Sb3  1  0.667496  0.333748  0.000000  1
  Sb  Sb4  1  0.615730  0.807865  0.500000  1
  Rh  Rh5  1  0.065817  0.532909  0.000000  1
  Rh  Rh6  1  0.468289  0.536514  0.000000  1
  Rh  Rh7  1  0.468289  0.931777  0.000000  1
  Rh  Rh8  1  0.407109  0.203554  0.500000  1
  Rh  Rh9  1  0.795538  0.200120  0.500000  1
  Rh  Rh10  1  0.795537  0.595418  0.500000  1
