# generated using pymatgen
data_BaSr(TiH5)2
_symmetry_space_group_name_H-M   'P 1'
_cell_length_a   12.59463073
_cell_length_b   5.35476300
_cell_length_c   4.69236205
_cell_angle_alpha   90.00000000
_cell_angle_beta   90.26048769
_cell_angle_gamma   90.00000000
_symmetry_Int_Tables_number   1
_chemical_formula_structural   BaSr(TiH5)2
_chemical_formula_sum   'Ba2 Sr2 Ti4 H20'
_cell_volume   316.45555108
_cell_formula_units_Z   2
loop_
 _symmetry_equiv_pos_site_id
 _symmetry_equiv_pos_as_xyz
  1  'x, y, z'
loop_
 _atom_site_type_symbol
 _atom_site_label
 _atom_site_symmetry_multiplicity
 _atom_site_fract_x
 _atom_site_fract_y
 _atom_site_fract_z
 _atom_site_occupancy
  Ba  Ba0  1  0.899262  0.000054  0.010499  1
  Ba  Ba1  1  0.100738  0.500054  0.489502  1
  Sr  Sr2  1  0.595472  0.999866  0.510834  1
  Sr  Sr3  1  0.404528  0.499865  0.989164  1
  Ti  Ti4  1  0.209488  0.000000  0.999840  1
  Ti  Ti5  1  0.790512  0.500001  0.500159  1
  Ti  Ti6  1  0.309223  0.999998  0.502278  1
  Ti  Ti7  1  0.690777  0.499997  0.997723  1
  H  H8  1  0.577159  0.729582  0.001617  1
  H  H9  1  0.577188  0.270316  0.001608  1
  H  H10  1  0.837809  0.499973  0.093412  1
  H  H11  1  0.268108  0.246873  0.236588  1
  H  H12  1  0.731800  0.253179  0.263496  1
  H  H13  1  0.268201  0.753178  0.236505  1
  H  H14  1  0.731892  0.746872  0.263413  1
  H  H15  1  0.162192  0.999974  0.406589  1
  H  H16  1  0.422812  0.770317  0.498393  1
  H  H17  1  0.422841  0.229581  0.498384  1
  H  H18  1  0.906526  0.275457  0.510688  1
  H  H19  1  0.906491  0.724665  0.510600  1
  H  H20  1  0.643613  0.500093  0.592699  1
  H  H21  1  0.251446  0.751756  0.739053  1
  H  H22  1  0.748644  0.748187  0.761028  1
  H  H23  1  0.251356  0.248187  0.738970  1
  H  H24  1  0.748554  0.251755  0.760947  1
  H  H25  1  0.356387  0.000090  0.907302  1
  H  H26  1  0.093509  0.224664  0.989398  1
  H  H27  1  0.093474  0.775458  0.989312  1
