# generated using pymatgen
data_Cs12Na8Hf3TiSb12
_symmetry_space_group_name_H-M   'P 1'
_cell_length_a   11.76112488
_cell_length_b   11.76112407
_cell_length_c   17.64907505
_cell_angle_alpha   90.02282448
_cell_angle_beta   90.02282776
_cell_angle_gamma   142.94796813
_symmetry_Int_Tables_number   1
_chemical_formula_structural   Cs12Na8Hf3TiSb12
_chemical_formula_sum   'Cs12 Na8 Hf3 Ti1 Sb12'
_cell_volume   1470.97472850
_cell_formula_units_Z   1
loop_
 _symmetry_equiv_pos_site_id
 _symmetry_equiv_pos_as_xyz
  1  'x, y, z'
loop_
 _atom_site_type_symbol
 _atom_site_label
 _atom_site_symmetry_multiplicity
 _atom_site_fract_x
 _atom_site_fract_y
 _atom_site_fract_z
 _atom_site_occupancy
  Cs  Cs0  1  0.944865  0.607346  0.829638  1
  Cs  Cs1  1  0.554469  0.894126  0.326516  1
  Cs  Cs2  1  0.392654  0.055135  0.170362  1
  Cs  Cs3  1  0.054189  0.392976  0.172368  1
  Cs  Cs4  1  0.893165  0.554022  0.325832  1
  Cs  Cs5  1  0.445978  0.106835  0.674168  1
  Cs  Cs6  1  0.607024  0.945811  0.827632  1
  Cs  Cs7  1  0.284032  0.283868  0.317869  1
  Cs  Cs8  1  0.782514  0.781819  0.180557  1
  Cs  Cs9  1  0.218181  0.217486  0.819443  1
  Cs  Cs10  1  0.716132  0.715968  0.682131  1
  Cs  Cs11  1  0.105874  0.445531  0.673484  1
  Na  Na12  1  0.919828  0.080172  0.000000  1
  Na  Na13  1  0.581364  0.418636  0.500000  1
  Na  Na14  1  0.079949  0.920051  0.000000  1
  Na  Na15  1  0.418712  0.581288  0.500000  1
  Na  Na16  1  0.753940  0.246060  0.000000  1
  Na  Na17  1  0.746275  0.253725  0.500000  1
  Na  Na18  1  0.246428  0.753572  0.000000  1
  Na  Na19  1  0.253507  0.746493  0.500000  1
  Hf  Hf20  1  0.915350  0.084650  0.500000  1
  Hf  Hf21  1  0.415689  0.584311  0.000000  1
  Hf  Hf22  1  0.084715  0.915285  0.500000  1
  Ti  Ti23  1  0.585030  0.414970  0.000000  1
  Sb  Sb24  1  0.865626  0.556552  0.089829  1
  Sb  Sb25  1  0.443448  0.134374  0.910171  1
  Sb  Sb26  1  0.626715  0.939698  0.593783  1
  Sb  Sb27  1  0.939965  0.627005  0.594038  1
  Sb  Sb28  1  0.125040  0.438506  0.906462  1
  Sb  Sb29  1  0.561494  0.874960  0.093538  1
  Sb  Sb30  1  0.372995  0.060035  0.405962  1
  Sb  Sb31  1  0.204861  0.204727  0.587794  1
  Sb  Sb32  1  0.700388  0.695972  0.914869  1
  Sb  Sb33  1  0.304028  0.299612  0.085131  1
  Sb  Sb34  1  0.060302  0.373285  0.406217  1
  Sb  Sb35  1  0.795273  0.795139  0.412206  1
