# generated using pymatgen
data_TlAgB2(SO4)4
_symmetry_space_group_name_H-M   'P 1'
_cell_length_a   8.06077000
_cell_length_b   5.92710335
_cell_length_c   7.99180474
_cell_angle_alpha   75.29321606
_cell_angle_beta   90.00000000
_cell_angle_gamma   90.00000000
_symmetry_Int_Tables_number   1
_chemical_formula_structural   TlAgB2(SO4)4
_chemical_formula_sum   'Tl1 Ag1 B2 S4 O16'
_cell_volume   369.31513859
_cell_formula_units_Z   1
loop_
 _symmetry_equiv_pos_site_id
 _symmetry_equiv_pos_as_xyz
  1  'x, y, z'
loop_
 _atom_site_type_symbol
 _atom_site_label
 _atom_site_symmetry_multiplicity
 _atom_site_fract_x
 _atom_site_fract_y
 _atom_site_fract_z
 _atom_site_occupancy
  Tl  Tl0  1  0.563037  0.500000  0.750000  1
  Ag  Ag1  1  0.422775  0.500000  0.250000  1
  B  B2  1  0.968754  0.000000  0.250000  1
  B  B3  1  0.031276  0.000000  0.750000  1
  S  S4  1  0.214351  0.889523  0.493442  1
  S  S5  1  0.214351  0.110477  0.006558  1
  S  S6  1  0.787239  0.127920  0.496975  1
  S  S7  1  0.787239  0.872080  0.003025  1
  O  O8  1  0.271916  0.127046  0.433886  1
  O  O9  1  0.271916  0.872954  0.066114  1
  O  O10  1  0.722552  0.894984  0.557012  1
  O  O11  1  0.722552  0.105016  0.942988  1
  O  O12  1  0.065520  0.840119  0.385318  1
  O  O13  1  0.065520  0.159881  0.114682  1
  O  O14  1  0.932691  0.166909  0.616471  1
  O  O15  1  0.932691  0.833091  0.883529  1
  O  O16  1  0.140101  0.842202  0.678339  1
  O  O17  1  0.140101  0.157798  0.821661  1
  O  O18  1  0.866836  0.166328  0.316032  1
  O  O19  1  0.866836  0.833672  0.183968  1
  O  O20  1  0.331915  0.703789  0.496657  1
  O  O21  1  0.331915  0.296211  0.003343  1
  O  O22  1  0.673957  0.321851  0.479666  1
  O  O23  1  0.673957  0.678149  0.020334  1
