# generated using pymatgen
data_Li2SiNi6(PRu)6
_symmetry_space_group_name_H-M   'P 1'
_cell_length_a   9.23571900
_cell_length_b   9.23571951
_cell_length_c   3.66512900
_cell_angle_alpha   90.00000000
_cell_angle_beta   90.00000000
_cell_angle_gamma   120.00000892
_symmetry_Int_Tables_number   1
_chemical_formula_structural   Li2SiNi6(PRu)6
_chemical_formula_sum   'Li2 Si1 Ni6 P6 Ru6'
_cell_volume   270.74553513
_cell_formula_units_Z   1
loop_
 _symmetry_equiv_pos_site_id
 _symmetry_equiv_pos_as_xyz
  1  'x, y, z'
loop_
 _atom_site_type_symbol
 _atom_site_label
 _atom_site_symmetry_multiplicity
 _atom_site_fract_x
 _atom_site_fract_y
 _atom_site_fract_z
 _atom_site_occupancy
  Li  Li0  1  0.000000  0.000000  0.000000  1
  Li  Li1  1  0.333333  0.666667  0.500000  1
  Si  Si2  1  0.666667  0.333333  0.000000  1
  Ni  Ni3  1  0.104117  0.404705  0.000000  1
  Ni  Ni4  1  0.300587  0.895883  0.000000  1
  Ni  Ni5  1  0.595295  0.699413  0.000000  1
  Ni  Ni6  1  0.828899  0.619196  0.000000  1
  Ni  Ni7  1  0.790298  0.171101  0.000000  1
  Ni  Ni8  1  0.380804  0.209702  0.000000  1
  P  P9  1  0.077811  0.627450  0.000000  1
  P  P10  1  0.549639  0.922189  0.000000  1
  P  P11  1  0.372550  0.450361  0.000000  1
  P  P12  1  0.793691  0.743972  0.500000  1
  P  P13  1  0.950280  0.206309  0.500000  1
  P  P14  1  0.256028  0.049720  0.500000  1
  Ru  Ru15  1  0.061101  0.773274  0.500000  1
  Ru  Ru16  1  0.712174  0.938899  0.500000  1
  Ru  Ru17  1  0.226726  0.287826  0.500000  1
  Ru  Ru18  1  0.882765  0.419664  0.500000  1
  Ru  Ru19  1  0.536900  0.117235  0.500000  1
  Ru  Ru20  1  0.580336  0.463100  0.500000  1
