# generated using pymatgen
data_Y3AlSiIr2
_symmetry_space_group_name_H-M   'P 1'
_cell_length_a   5.59599200
_cell_length_b   7.92858000
_cell_length_c   13.28568800
_cell_angle_alpha   90.00000000
_cell_angle_beta   90.00000000
_cell_angle_gamma   90.00000000
_symmetry_Int_Tables_number   1
_chemical_formula_structural   Y3AlSiIr2
_chemical_formula_sum   'Y12 Al4 Si4 Ir8'
_cell_volume   589.46299566
_cell_formula_units_Z   4
loop_
 _symmetry_equiv_pos_site_id
 _symmetry_equiv_pos_as_xyz
  1  'x, y, z'
loop_
 _atom_site_type_symbol
 _atom_site_label
 _atom_site_symmetry_multiplicity
 _atom_site_fract_x
 _atom_site_fract_y
 _atom_site_fract_z
 _atom_site_occupancy
  Y  Y0  1  0.144590  0.603582  0.103438  1
  Y  Y1  1  0.144590  0.896418  0.896562  1
  Y  Y2  1  0.855410  0.103582  0.396562  1
  Y  Y3  1  0.855410  0.396418  0.603438  1
  Y  Y4  1  0.855410  0.396418  0.896562  1
  Y  Y5  1  0.855410  0.103582  0.103438  1
  Y  Y6  1  0.144590  0.896418  0.603438  1
  Y  Y7  1  0.144590  0.603582  0.396562  1
  Y  Y8  1  0.369522  0.243828  0.250000  1
  Y  Y9  1  0.369522  0.256172  0.750000  1
  Y  Y10  1  0.630478  0.743828  0.250000  1
  Y  Y11  1  0.630478  0.756172  0.750000  1
  Al  Al12  1  0.383179  0.250000  0.000000  1
  Al  Al13  1  0.616821  0.750000  0.500000  1
  Al  Al14  1  0.616821  0.750000  0.000000  1
  Al  Al15  1  0.383179  0.250000  0.500000  1
  Si  Si16  1  0.862951  0.392001  0.250000  1
  Si  Si17  1  0.862951  0.107999  0.750000  1
  Si  Si18  1  0.137049  0.892001  0.250000  1
  Si  Si19  1  0.137049  0.607999  0.750000  1
  Ir  Ir20  1  0.647426  0.470925  0.093892  1
  Ir  Ir21  1  0.647426  0.029075  0.906108  1
  Ir  Ir22  1  0.352574  0.970925  0.406108  1
  Ir  Ir23  1  0.352574  0.529075  0.593892  1
  Ir  Ir24  1  0.352574  0.529075  0.906108  1
  Ir  Ir25  1  0.352574  0.970925  0.093892  1
  Ir  Ir26  1  0.647426  0.029075  0.593892  1
  Ir  Ir27  1  0.647426  0.470925  0.406108  1
