# generated using pymatgen
data_TbHo3(B2Rh)4
_symmetry_space_group_name_H-M   'P 1'
_cell_length_a   5.28745600
_cell_length_b   5.95064997
_cell_length_c   6.44210400
_cell_angle_alpha   90.05722213
_cell_angle_beta   90.00000000
_cell_angle_gamma   90.00000000
_symmetry_Int_Tables_number   1
_chemical_formula_structural   TbHo3(B2Rh)4
_chemical_formula_sum   'Tb1 Ho3 B8 Rh4'
_cell_volume   202.69296995
_cell_formula_units_Z   1
loop_
 _symmetry_equiv_pos_site_id
 _symmetry_equiv_pos_as_xyz
  1  'x, y, z'
loop_
 _atom_site_type_symbol
 _atom_site_label
 _atom_site_symmetry_multiplicity
 _atom_site_fract_x
 _atom_site_fract_y
 _atom_site_fract_z
 _atom_site_occupancy
  Tb  Tb0  1  0.750000  0.489792  0.838666  1
  Ho  Ho1  1  0.250000  0.011231  0.337144  1
  Ho  Ho2  1  0.250000  0.511120  0.163234  1
  Ho  Ho3  1  0.750000  0.989570  0.662381  1
  B  B4  1  0.090146  0.376388  0.532170  1
  B  B5  1  0.409865  0.876366  0.967181  1
  B  B6  1  0.589942  0.623962  0.466495  1
  B  B7  1  0.910051  0.122485  0.033315  1
  B  B8  1  0.910058  0.623962  0.466495  1
  B  B9  1  0.589949  0.122485  0.033315  1
  B  B10  1  0.409854  0.376388  0.532170  1
  B  B11  1  0.090135  0.876366  0.967181  1
  Rh  Rh12  1  0.250000  0.190054  0.815509  1
  Rh  Rh13  1  0.250000  0.690975  0.683549  1
  Rh  Rh14  1  0.750000  0.809641  0.184646  1
  Rh  Rh15  1  0.750000  0.309215  0.316548  1
