# generated using pymatgen
data_NdHf3(Al3Ir)6
_symmetry_space_group_name_H-M   'P 1'
_cell_length_a   7.51241987
_cell_length_b   7.50086651
_cell_length_c   9.31241900
_cell_angle_alpha   90.00000000
_cell_angle_beta   90.00000000
_cell_angle_gamma   119.76552173
_symmetry_Int_Tables_number   1
_chemical_formula_structural   NdHf3(Al3Ir)6
_chemical_formula_sum   'Nd1 Hf3 Al18 Ir6'
_cell_volume   455.51818697
_cell_formula_units_Z   1
loop_
 _symmetry_equiv_pos_site_id
 _symmetry_equiv_pos_as_xyz
  1  'x, y, z'
loop_
 _atom_site_type_symbol
 _atom_site_label
 _atom_site_symmetry_multiplicity
 _atom_site_fract_x
 _atom_site_fract_y
 _atom_site_fract_z
 _atom_site_occupancy
  Nd  Nd0  1  0.329743  0.005918  0.750000  1
  Hf  Hf1  1  0.993504  0.670942  0.250000  1
  Hf  Hf2  1  0.005017  0.329392  0.750000  1
  Hf  Hf3  1  0.672542  0.994728  0.250000  1
  Al  Al4  1  0.122903  0.124581  0.250000  1
  Al  Al5  1  0.869544  0.875085  0.750000  1
  Al  Al6  1  0.997847  0.334786  0.078227  1
  Al  Al7  1  0.998414  0.661603  0.927791  1
  Al  Al8  1  0.998414  0.661603  0.572209  1
  Al  Al9  1  0.335073  0.998116  0.417115  1
  Al  Al10  1  0.997847  0.334786  0.421773  1
  Al  Al11  1  0.669015  0.001868  0.572230  1
  Al  Al12  1  0.669015  0.001868  0.927770  1
  Al  Al13  1  0.335073  0.998116  0.082885  1
  Al  Al14  1  0.331182  0.334589  0.552592  1
  Al  Al15  1  0.668080  0.668134  0.439072  1
  Al  Al16  1  0.668080  0.668134  0.060928  1
  Al  Al17  1  0.331182  0.334589  0.947408  1
  Al  Al18  1  0.338646  0.552602  0.250000  1
  Al  Al19  1  0.668755  0.455167  0.750000  1
  Al  Al20  1  0.553650  0.340216  0.250000  1
  Al  Al21  1  0.447279  0.654188  0.750000  1
  Ir  Ir22  1  0.673665  0.328672  0.002508  1
  Ir  Ir23  1  0.328204  0.672808  0.002646  1
  Ir  Ir24  1  0.328204  0.672808  0.497354  1
  Ir  Ir25  1  0.673665  0.328672  0.497492  1
  Ir  Ir26  1  0.997727  0.998015  0.002948  1
  Ir  Ir27  1  0.997727  0.998015  0.497052  1
