# generated using pymatgen
data_Ti12MnRe6Ir5
_symmetry_space_group_name_H-M   'P 1'
_cell_length_a   4.38702200
_cell_length_b   6.20892400
_cell_length_c   13.16192900
_cell_angle_alpha   90.00000000
_cell_angle_beta   89.99871143
_cell_angle_gamma   90.00000000
_symmetry_Int_Tables_number   1
_chemical_formula_structural   Ti12MnRe6Ir5
_chemical_formula_sum   'Ti12 Mn1 Re6 Ir5'
_cell_volume   358.51365357
_cell_formula_units_Z   1
loop_
 _symmetry_equiv_pos_site_id
 _symmetry_equiv_pos_as_xyz
  1  'x, y, z'
loop_
 _atom_site_type_symbol
 _atom_site_label
 _atom_site_symmetry_multiplicity
 _atom_site_fract_x
 _atom_site_fract_y
 _atom_site_fract_z
 _atom_site_occupancy
  Ti  Ti0  1  0.500000  0.257416  0.000000  1
  Ti  Ti1  1  0.500000  0.742586  0.000000  1
  Ti  Ti2  1  0.000054  0.253560  0.161807  1
  Ti  Ti3  1  0.000054  0.746440  0.161807  1
  Ti  Ti4  1  0.500010  0.249625  0.332237  1
  Ti  Ti5  1  0.500010  0.750373  0.332237  1
  Ti  Ti6  1  0.000000  0.249617  0.500000  1
  Ti  Ti7  1  0.000000  0.750383  0.500000  1
  Ti  Ti8  1  0.499989  0.249625  0.667763  1
  Ti  Ti9  1  0.499989  0.750373  0.667763  1
  Ti  Ti10  1  0.999946  0.253560  0.838193  1
  Ti  Ti11  1  0.999946  0.746440  0.838193  1
  Mn  Mn12  1  0.000000  0.499999  0.000000  1
  Re  Re13  1  0.000000  0.000000  0.000000  1
  Re  Re14  1  0.500055  0.499999  0.166597  1
  Re  Re15  1  0.000034  0.000000  0.332650  1
  Re  Re16  1  0.500000  0.499999  0.500000  1
  Re  Re17  1  0.999966  0.000000  0.667350  1
  Re  Re18  1  0.499944  0.499999  0.833403  1
  Ir  Ir19  1  0.500053  0.000000  0.165836  1
  Ir  Ir20  1  0.000079  0.499999  0.333209  1
  Ir  Ir21  1  0.500000  0.000000  0.500000  1
  Ir  Ir22  1  0.999921  0.499999  0.666791  1
  Ir  Ir23  1  0.499946  0.000000  0.834163  1
