# generated using pymatgen
data_Ti8ZnCoAg2
_symmetry_space_group_name_H-M   'P 1'
_cell_length_a   2.97407300
_cell_length_b   2.97407300
_cell_length_c   22.32437500
_cell_angle_alpha   90.00000000
_cell_angle_beta   90.00000000
_cell_angle_gamma   90.00000000
_symmetry_Int_Tables_number   1
_chemical_formula_structural   Ti8ZnCoAg2
_chemical_formula_sum   'Ti8 Zn1 Co1 Ag2'
_cell_volume   197.46155723
_cell_formula_units_Z   1
loop_
 _symmetry_equiv_pos_site_id
 _symmetry_equiv_pos_as_xyz
  1  'x, y, z'
loop_
 _atom_site_type_symbol
 _atom_site_label
 _atom_site_symmetry_multiplicity
 _atom_site_fract_x
 _atom_site_fract_y
 _atom_site_fract_z
 _atom_site_occupancy
  Ti  Ti0  1  0.500000  0.500000  0.063711  1
  Ti  Ti1  1  0.000000  0.000000  0.330012  1
  Ti  Ti2  1  0.500000  0.500000  0.595845  1
  Ti  Ti3  1  0.000000  0.000000  0.843891  1
  Ti  Ti4  1  0.000000  0.000000  0.146453  1
  Ti  Ti5  1  0.500000  0.500000  0.412377  1
  Ti  Ti6  1  0.000000  0.000000  0.680006  1
  Ti  Ti7  1  0.500000  0.500000  0.927906  1
  Zn  Zn8  1  0.500000  0.500000  0.762052  1
  Co  Co9  1  0.000000  0.000000  0.995548  1
  Ag  Ag10  1  0.500000  0.500000  0.238135  1
  Ag  Ag11  1  0.000000  0.000000  0.504064  1
