# generated using pymatgen
data_Tb7Ho(CoAg)2
_symmetry_space_group_name_H-M   'P 1'
_cell_length_a   9.43068630
_cell_length_b   9.42989544
_cell_length_c   9.42989703
_cell_angle_alpha   60.00554039
_cell_angle_beta   59.99723049
_cell_angle_gamma   59.99722499
_symmetry_Int_Tables_number   1
_chemical_formula_structural   Tb7Ho(CoAg)2
_chemical_formula_sum   'Tb14 Ho2 Co4 Ag4'
_cell_volume   592.98281786
_cell_formula_units_Z   2
loop_
 _symmetry_equiv_pos_site_id
 _symmetry_equiv_pos_as_xyz
  1  'x, y, z'
loop_
 _atom_site_type_symbol
 _atom_site_label
 _atom_site_symmetry_multiplicity
 _atom_site_fract_x
 _atom_site_fract_y
 _atom_site_fract_z
 _atom_site_occupancy
  Tb  Tb0  1  0.187655  0.812345  0.187655  1
  Tb  Tb1  1  0.812345  0.187655  0.812345  1
  Tb  Tb2  1  0.187655  0.187655  0.812345  1
  Tb  Tb3  1  0.812345  0.812345  0.187655  1
  Tb  Tb4  1  0.937469  0.562530  0.562531  1
  Tb  Tb5  1  0.562530  0.937469  0.937470  1
  Tb  Tb6  1  0.562508  0.937492  0.562508  1
  Tb  Tb7  1  0.937492  0.562507  0.937493  1
  Tb  Tb8  1  0.562508  0.562507  0.937493  1
  Tb  Tb9  1  0.937492  0.937492  0.562508  1
  Tb  Tb10  1  0.348034  0.347945  0.347945  1
  Tb  Tb11  1  0.347945  0.348034  0.956077  1
  Tb  Tb12  1  0.347945  0.956077  0.348034  1
  Tb  Tb13  1  0.956077  0.347945  0.347945  1
  Ho  Ho14  1  0.812296  0.187704  0.187704  1
  Ho  Ho15  1  0.187704  0.812296  0.812296  1
  Co  Co16  1  0.141346  0.141354  0.141354  1
  Co  Co17  1  0.141354  0.141346  0.575947  1
  Co  Co18  1  0.141354  0.575947  0.141346  1
  Co  Co19  1  0.575947  0.141354  0.141354  1
  Ag  Ag20  1  0.581090  0.581116  0.581116  1
  Ag  Ag21  1  0.581116  0.581090  0.256677  1
  Ag  Ag22  1  0.581116  0.256677  0.581090  1
  Ag  Ag23  1  0.256677  0.581116  0.581116  1
