# generated using pymatgen
data_Dy6MgP12Rh17
_symmetry_space_group_name_H-M   'P 1'
_cell_length_a   3.92692300
_cell_length_b   11.23193000
_cell_length_c   12.81985700
_cell_angle_alpha   90.00000000
_cell_angle_beta   90.00000000
_cell_angle_gamma   90.00000000
_symmetry_Int_Tables_number   1
_chemical_formula_structural   Dy6MgP12Rh17
_chemical_formula_sum   'Dy6 Mg1 P12 Rh17'
_cell_volume   565.44446161
_cell_formula_units_Z   1
loop_
 _symmetry_equiv_pos_site_id
 _symmetry_equiv_pos_as_xyz
  1  'x, y, z'
loop_
 _atom_site_type_symbol
 _atom_site_label
 _atom_site_symmetry_multiplicity
 _atom_site_fract_x
 _atom_site_fract_y
 _atom_site_fract_z
 _atom_site_occupancy
  Dy  Dy0  1  0.000000  0.500000  0.519635  1
  Dy  Dy1  1  0.500000  0.000000  0.478738  1
  Dy  Dy2  1  0.500000  0.817536  0.205702  1
  Dy  Dy3  1  0.500000  0.182464  0.205702  1
  Dy  Dy4  1  0.000000  0.683547  0.795876  1
  Dy  Dy5  1  0.000000  0.316453  0.795876  1
  Mg  Mg6  1  0.500000  0.500000  0.157754  1
  P  P7  1  0.500000  0.500000  0.879449  1
  P  P8  1  0.000000  0.000000  0.121122  1
  P  P9  1  0.500000  0.500000  0.355680  1
  P  P10  1  0.000000  0.000000  0.646726  1
  P  P11  1  0.500000  0.315279  0.618611  1
  P  P12  1  0.500000  0.684721  0.618611  1
  P  P13  1  0.000000  0.186330  0.382961  1
  P  P14  1  0.000000  0.813670  0.382961  1
  P  P15  1  0.500000  0.848602  0.890644  1
  P  P16  1  0.500000  0.151398  0.890644  1
  P  P17  1  0.000000  0.661890  0.106850  1
  P  P18  1  0.000000  0.338110  0.106850  1
  Rh  Rh19  1  0.000000  0.000000  0.827379  1
  Rh  Rh20  1  0.500000  0.500000  0.701891  1
  Rh  Rh21  1  0.000000  0.000000  0.299139  1
  Rh  Rh22  1  0.000000  0.500000  0.983270  1
  Rh  Rh23  1  0.500000  0.000000  0.021332  1
  Rh  Rh24  1  0.500000  0.331316  0.993905  1
  Rh  Rh25  1  0.500000  0.668684  0.993905  1
  Rh  Rh26  1  0.000000  0.164021  0.003468  1
  Rh  Rh27  1  0.000000  0.835979  0.003468  1
  Rh  Rh28  1  0.500000  0.289267  0.433491  1
  Rh  Rh29  1  0.500000  0.710733  0.433491  1
  Rh  Rh30  1  0.000000  0.205290  0.572102  1
  Rh  Rh31  1  0.000000  0.794710  0.572102  1
  Rh  Rh32  1  0.500000  0.873900  0.710428  1
  Rh  Rh33  1  0.500000  0.126100  0.710428  1
  Rh  Rh34  1  0.000000  0.627086  0.289906  1
  Rh  Rh35  1  0.000000  0.372914  0.289906  1
