# generated using pymatgen
data_Mn2SiMo3C
_symmetry_space_group_name_H-M   'P 1'
_cell_length_a   7.87916607
_cell_length_b   7.87916583
_cell_length_c   7.87916500
_cell_angle_alpha   59.99999929
_cell_angle_beta   60.00000030
_cell_angle_gamma   60.00000161
_symmetry_Int_Tables_number   1
_chemical_formula_structural   Mn2SiMo3C
_chemical_formula_sum   'Mn8 Si4 Mo12 C4'
_cell_volume   345.88019631
_cell_formula_units_Z   4
loop_
 _symmetry_equiv_pos_site_id
 _symmetry_equiv_pos_as_xyz
  1  'x, y, z'
loop_
 _atom_site_type_symbol
 _atom_site_label
 _atom_site_symmetry_multiplicity
 _atom_site_fract_x
 _atom_site_fract_y
 _atom_site_fract_z
 _atom_site_occupancy
  Mn  Mn0  1  0.239571  0.920143  0.920143  1
  Mn  Mn1  1  0.920143  0.239571  0.920143  1
  Mn  Mn2  1  0.329857  0.329857  0.329857  1
  Mn  Mn3  1  0.329857  0.010429  0.329857  1
  Mn  Mn4  1  0.329857  0.329857  0.010429  1
  Mn  Mn5  1  0.010429  0.329857  0.329857  1
  Mn  Mn6  1  0.920143  0.920143  0.920143  1
  Mn  Mn7  1  0.920143  0.920143  0.239571  1
  Si  Si8  1  0.125000  0.125000  0.625000  1
  Si  Si9  1  0.125000  0.625000  0.125000  1
  Si  Si10  1  0.625000  0.125000  0.125000  1
  Si  Si11  1  0.125000  0.125000  0.125000  1
  Mo  Mo12  1  0.552824  0.552824  0.947176  1
  Mo  Mo13  1  0.947176  0.947176  0.552824  1
  Mo  Mo14  1  0.697176  0.697176  0.302824  1
  Mo  Mo15  1  0.302824  0.697176  0.697176  1
  Mo  Mo16  1  0.697176  0.302824  0.302824  1
  Mo  Mo17  1  0.302824  0.302824  0.697176  1
  Mo  Mo18  1  0.552824  0.947176  0.552824  1
  Mo  Mo19  1  0.302824  0.697176  0.302824  1
  Mo  Mo20  1  0.947176  0.552824  0.947176  1
  Mo  Mo21  1  0.947176  0.552824  0.552824  1
  Mo  Mo22  1  0.697176  0.302824  0.697176  1
  Mo  Mo23  1  0.552824  0.947176  0.947176  1
  C  C24  1  0.625000  0.625000  0.125000  1
  C  C25  1  0.125000  0.625000  0.625000  1
  C  C26  1  0.625000  0.125000  0.625000  1
  C  C27  1  0.625000  0.625000  0.625000  1
