# generated using pymatgen
data_ThZnCu4Hg
_symmetry_space_group_name_H-M   'P 1'
_cell_length_a   5.12858800
_cell_length_b   8.31159800
_cell_length_c   10.70212000
_cell_angle_alpha   90.00000000
_cell_angle_beta   90.00000000
_cell_angle_gamma   90.00000000
_symmetry_Int_Tables_number   1
_chemical_formula_structural   ThZnCu4Hg
_chemical_formula_sum   'Th4 Zn4 Cu16 Hg4'
_cell_volume   456.19671961
_cell_formula_units_Z   4
loop_
 _symmetry_equiv_pos_site_id
 _symmetry_equiv_pos_as_xyz
  1  'x, y, z'
loop_
 _atom_site_type_symbol
 _atom_site_label
 _atom_site_symmetry_multiplicity
 _atom_site_fract_x
 _atom_site_fract_y
 _atom_site_fract_z
 _atom_site_occupancy
  Th  Th0  1  0.250000  0.255181  0.560320  1
  Th  Th1  1  0.750000  0.744819  0.439680  1
  Th  Th2  1  0.250000  0.755181  0.939680  1
  Th  Th3  1  0.750000  0.244819  0.060320  1
  Zn  Zn4  1  0.750000  0.685259  0.755774  1
  Zn  Zn5  1  0.250000  0.314741  0.244226  1
  Zn  Zn6  1  0.750000  0.185259  0.744226  1
  Zn  Zn7  1  0.250000  0.814741  0.255774  1
  Cu  Cu8  1  0.502829  0.565493  0.185571  1
  Cu  Cu9  1  0.002829  0.434507  0.814429  1
  Cu  Cu10  1  0.997171  0.065493  0.314429  1
  Cu  Cu11  1  0.497171  0.934507  0.685571  1
  Cu  Cu12  1  0.750000  0.940608  0.890852  1
  Cu  Cu13  1  0.250000  0.059392  0.109148  1
  Cu  Cu14  1  0.750000  0.440608  0.609148  1
  Cu  Cu15  1  0.250000  0.559392  0.390852  1
  Cu  Cu16  1  0.750000  0.583078  0.984284  1
  Cu  Cu17  1  0.250000  0.416922  0.015716  1
  Cu  Cu18  1  0.750000  0.083078  0.515716  1
  Cu  Cu19  1  0.250000  0.916922  0.484284  1
  Cu  Cu20  1  0.502829  0.065493  0.314429  1
  Cu  Cu21  1  0.002829  0.934507  0.685571  1
  Cu  Cu22  1  0.997171  0.565493  0.185571  1
  Cu  Cu23  1  0.497171  0.434507  0.814429  1
  Hg  Hg24  1  0.750000  0.363518  0.366224  1
  Hg  Hg25  1  0.250000  0.636482  0.633776  1
  Hg  Hg26  1  0.750000  0.863518  0.133776  1
  Hg  Hg27  1  0.250000  0.136482  0.866224  1
