# generated using pymatgen
data_Tb6Sm2GaPd24
_symmetry_space_group_name_H-M   'P 1'
_cell_length_a   8.38176400
_cell_length_b   8.38400900
_cell_length_c   8.38400900
_cell_angle_alpha   89.99954896
_cell_angle_beta   90.00000000
_cell_angle_gamma   90.00000000
_symmetry_Int_Tables_number   1
_chemical_formula_structural   Tb6Sm2GaPd24
_chemical_formula_sum   'Tb6 Sm2 Ga1 Pd24'
_cell_volume   589.16766031
_cell_formula_units_Z   1
loop_
 _symmetry_equiv_pos_site_id
 _symmetry_equiv_pos_as_xyz
  1  'x, y, z'
loop_
 _atom_site_type_symbol
 _atom_site_label
 _atom_site_symmetry_multiplicity
 _atom_site_fract_x
 _atom_site_fract_y
 _atom_site_fract_z
 _atom_site_occupancy
  Tb  Tb0  1  0.748052  0.252011  0.252011  1
  Tb  Tb1  1  0.748052  0.747989  0.747989  1
  Tb  Tb2  1  0.747994  0.747988  0.252012  1
  Tb  Tb3  1  0.747994  0.252012  0.747988  1
  Tb  Tb4  1  0.251950  0.748015  0.748015  1
  Tb  Tb5  1  0.251950  0.251985  0.251985  1
  Sm  Sm6  1  0.251919  0.251895  0.748105  1
  Sm  Sm7  1  0.251919  0.748105  0.251895  1
  Ga  Ga8  1  0.999865  0.000000  0.000000  1
  Pd  Pd9  1  0.500677  0.500822  0.746884  1
  Pd  Pd10  1  0.500677  0.253116  0.499178  1
  Pd  Pd11  1  0.253125  0.500000  0.500000  1
  Pd  Pd12  1  0.500677  0.499178  0.253116  1
  Pd  Pd13  1  0.500677  0.746884  0.500822  1
  Pd  Pd14  1  0.746901  0.500000  0.500000  1
  Pd  Pd15  1  0.999415  0.999315  0.708027  1
  Pd  Pd16  1  0.999415  0.291973  0.000685  1
  Pd  Pd17  1  0.292113  0.000000  0.000000  1
  Pd  Pd18  1  0.999415  0.000685  0.291973  1
  Pd  Pd19  1  0.999415  0.708027  0.999315  1
  Pd  Pd20  1  0.708098  0.000000  0.000000  1
  Pd  Pd21  1  0.999329  0.500722  0.739705  1
  Pd  Pd22  1  0.500608  0.260304  0.000796  1
  Pd  Pd23  1  0.260266  0.000000  0.500000  1
  Pd  Pd24  1  0.999329  0.260295  0.499278  1
  Pd  Pd25  1  0.500608  0.999204  0.739696  1
  Pd  Pd26  1  0.260266  0.500000  0.000000  1
  Pd  Pd27  1  0.999329  0.499278  0.260295  1
  Pd  Pd28  1  0.500608  0.739696  0.999204  1
  Pd  Pd29  1  0.999329  0.739705  0.500722  1
  Pd  Pd30  1  0.500608  0.000796  0.260304  1
  Pd  Pd31  1  0.739713  0.000000  0.500000  1
  Pd  Pd32  1  0.739713  0.500000  0.000000  1
