# generated using pymatgen
data_AgCF34
_symmetry_space_group_name_H-M   'P 1'
_cell_length_a   8.51521209
_cell_length_b   7.97296985
_cell_length_c   10.62057686
_cell_angle_alpha   82.43508485
_cell_angle_beta   91.36431933
_cell_angle_gamma   67.34431566
_symmetry_Int_Tables_number   1
_chemical_formula_structural   AgCF34
_chemical_formula_sum   'Ag1 C1 F34'
_cell_volume   657.42487705
_cell_formula_units_Z   1
loop_
 _symmetry_equiv_pos_site_id
 _symmetry_equiv_pos_as_xyz
  1  'x, y, z'
loop_
 _atom_site_type_symbol
 _atom_site_label
 _atom_site_symmetry_multiplicity
 _atom_site_fract_x
 _atom_site_fract_y
 _atom_site_fract_z
 _atom_site_occupancy
  Ag  Ag0  1  0.869446  0.252586  0.752185  1
  C  C1  1  0.169662  0.736068  0.158843  1
  F  F2  1  0.598260  0.218391  0.489725  1
  F  F3  1  0.397339  0.777057  0.509418  1
  F  F4  1  0.800498  0.693043  0.728439  1
  F  F5  1  0.157623  0.319973  0.300752  1
  F  F6  1  0.089058  0.739517  0.842746  1
  F  F7  1  0.899954  0.243275  0.130375  1
  F  F8  1  0.560360  0.159330  0.374961  1
  F  F9  1  0.430282  0.849496  0.618065  1
  F  F10  1  0.634796  0.337963  0.681636  1
  F  F11  1  0.280058  0.697539  0.261615  1
  F  F12  1  0.937725  0.060724  0.646030  1
  F  F13  1  0.013436  0.887513  0.447476  1
  F  F14  1  0.912439  0.408053  0.612931  1
  F  F15  1  0.083726  0.693451  0.484779  1
  F  F16  1  0.788408  0.848648  0.637453  1
  F  F17  1  0.155239  0.163071  0.380907  1
  F  F18  1  0.805561  0.447868  0.856483  1
  F  F19  1  0.196808  0.579967  0.110541  1
  F  F20  1  0.235637  0.685997  0.772498  1
  F  F21  1  0.793969  0.291587  0.232363  1
  F  F22  1  0.008697  0.804724  0.192532  1
  F  F23  1  0.102276  0.168198  0.823571  1
  F  F24  1  0.825688  0.094297  0.887885  1
  F  F25  1  0.193821  0.859289  0.071313  1
  F  F26  1  0.512818  0.580470  0.993345  1
  F  F27  1  0.526876  0.396632  0.995109  1
  F  F28  1  0.455412  0.092347  0.868009  1
  F  F29  1  0.544246  0.917234  0.135268  1
  F  F30  1  0.282436  0.248098  0.605285  1
  F  F31  1  0.720702  0.751719  0.390696  1
  F  F32  1  0.272939  0.398469  0.667573  1
  F  F33  1  0.760129  0.594274  0.328724  1
  F  F34  1  0.543696  0.904692  0.854487  1
  F  F35  1  0.439974  0.098441  0.155984  1
