# generated using pymatgen
data_Li(LaIr)2
_symmetry_space_group_name_H-M   'P 1'
_cell_length_a   5.64241383
_cell_length_b   5.64241279
_cell_length_c   5.64241366
_cell_angle_alpha   135.50537393
_cell_angle_beta   115.58187988
_cell_angle_gamma   81.65596887
_symmetry_Int_Tables_number   1
_chemical_formula_structural   Li(LaIr)2
_chemical_formula_sum   'Li1 La2 Ir2'
_cell_volume   109.72019463
_cell_formula_units_Z   1
loop_
 _symmetry_equiv_pos_site_id
 _symmetry_equiv_pos_as_xyz
  1  'x, y, z'
loop_
 _atom_site_type_symbol
 _atom_site_label
 _atom_site_symmetry_multiplicity
 _atom_site_fract_x
 _atom_site_fract_y
 _atom_site_fract_z
 _atom_site_occupancy
  Li  Li0  1  0.000000  0.000000  0.000000  1
  La  La1  1  0.699787  0.199787  0.500000  1
  La  La2  1  0.300212  0.800214  0.500001  1
  Ir  Ir3  1  0.743474  0.500000  0.243474  1
  Ir  Ir4  1  0.256526  0.500001  0.756527  1
