# generated using pymatgen
data_YbTmLuZn11
_symmetry_space_group_name_H-M   'P 1'
_cell_length_a   4.36196203
_cell_length_b   8.09306123
_cell_length_c   8.09305966
_cell_angle_alpha   66.85388718
_cell_angle_beta   74.36620183
_cell_angle_gamma   74.36621152
_symmetry_Int_Tables_number   1
_chemical_formula_structural   YbTmLuZn11
_chemical_formula_sum   'Yb1 Tm1 Lu1 Zn11'
_cell_volume   248.62903042
_cell_formula_units_Z   1
loop_
 _symmetry_equiv_pos_site_id
 _symmetry_equiv_pos_as_xyz
  1  'x, y, z'
loop_
 _atom_site_type_symbol
 _atom_site_label
 _atom_site_symmetry_multiplicity
 _atom_site_fract_x
 _atom_site_fract_y
 _atom_site_fract_z
 _atom_site_occupancy
  Yb  Yb0  1  0.999933  0.000067  0.000067  1
  Tm  Tm1  1  0.295462  0.704538  0.704538  1
  Lu  Lu2  1  0.704602  0.295398  0.295398  1
  Zn  Zn3  1  0.999680  0.500320  0.500320  1
  Zn  Zn4  1  0.500227  0.683052  0.316493  1
  Zn  Zn5  1  0.500227  0.316493  0.683052  1
  Zn  Zn6  1  0.662686  0.696014  0.978616  1
  Zn  Zn7  1  0.337239  0.303176  0.022345  1
  Zn  Zn8  1  0.662686  0.978616  0.696014  1
  Zn  Zn9  1  0.337239  0.022345  0.303176  1
  Zn  Zn10  1  0.864074  0.419246  0.852603  1
  Zn  Zn11  1  0.135936  0.579793  0.148338  1
  Zn  Zn12  1  0.864074  0.852603  0.419246  1
  Zn  Zn13  1  0.135936  0.148338  0.579793  1
