# generated using pymatgen
data_SmTm7(Hf3Si4)4
_symmetry_space_group_name_H-M   'P 1'
_cell_length_a   7.26208079
_cell_length_b   7.25933913
_cell_length_c   13.32897860
_cell_angle_alpha   89.99226517
_cell_angle_beta   89.91105043
_cell_angle_gamma   90.01314302
_symmetry_Int_Tables_number   1
_chemical_formula_structural   SmTm7(Hf3Si4)4
_chemical_formula_sum   'Sm1 Tm7 Hf12 Si16'
_cell_volume   702.67498470
_cell_formula_units_Z   1
loop_
 _symmetry_equiv_pos_site_id
 _symmetry_equiv_pos_as_xyz
  1  'x, y, z'
loop_
 _atom_site_type_symbol
 _atom_site_label
 _atom_site_symmetry_multiplicity
 _atom_site_fract_x
 _atom_site_fract_y
 _atom_site_fract_z
 _atom_site_occupancy
  Sm  Sm0  1  0.656493  0.006007  0.284728  1
  Tm  Tm1  1  0.996908  0.345155  0.214663  1
  Tm  Tm2  1  0.003941  0.655162  0.715354  1
  Tm  Tm3  1  0.155683  0.496520  0.465740  1
  Tm  Tm4  1  0.503257  0.843794  0.033988  1
  Tm  Tm5  1  0.844909  0.503594  0.964897  1
  Tm  Tm6  1  0.496174  0.155347  0.535499  1
  Tm  Tm7  1  0.344626  0.996090  0.784837  1
  Hf  Hf8  1  0.174603  0.174995  0.999442  1
  Hf  Hf9  1  0.825659  0.824964  0.500470  1
  Hf  Hf10  1  0.324683  0.673924  0.250054  1
  Hf  Hf11  1  0.674976  0.325162  0.749958  1
  Hf  Hf12  1  0.149331  0.996499  0.374810  1
  Hf  Hf13  1  0.852103  0.003422  0.874299  1
  Hf  Hf14  1  0.503189  0.647628  0.625355  1
  Hf  Hf15  1  0.351916  0.496769  0.875109  1
  Hf  Hf16  1  0.494724  0.352202  0.123636  1
  Hf  Hf17  1  0.647921  0.504080  0.376024  1
  Hf  Hf18  1  0.996891  0.148072  0.626000  1
  Hf  Hf19  1  0.003275  0.850890  0.124824  1
  Si  Si20  1  0.358687  0.297321  0.317553  1
  Si  Si21  1  0.639526  0.704867  0.818021  1
  Si  Si22  1  0.205150  0.860480  0.568143  1
  Si  Si23  1  0.139276  0.794841  0.931883  1
  Si  Si24  1  0.795764  0.139415  0.066920  1
  Si  Si25  1  0.863338  0.207084  0.434199  1
  Si  Si26  1  0.295173  0.360602  0.682186  1
  Si  Si27  1  0.705693  0.636586  0.181229  1
  Si  Si28  1  0.293907  0.049203  0.184569  1
  Si  Si29  1  0.703092  0.951543  0.685610  1
  Si  Si30  1  0.449483  0.795283  0.436859  1
  Si  Si31  1  0.202716  0.548627  0.064200  1
  Si  Si32  1  0.548309  0.202946  0.935197  1
  Si  Si33  1  0.797319  0.451952  0.564748  1
  Si  Si34  1  0.048255  0.297118  0.814526  1
  Si  Si35  1  0.953052  0.701852  0.314473  1
