# generated using pymatgen
data_Ca4Os4O13F
_symmetry_space_group_name_H-M   'P 1'
_cell_length_a   7.31409159
_cell_length_b   7.31409177
_cell_length_c   7.31409100
_cell_angle_alpha   120.00000105
_cell_angle_beta   120.00000187
_cell_angle_gamma   60.00000218
_symmetry_Int_Tables_number   1
_chemical_formula_structural   Ca4Os4O13F
_chemical_formula_sum   'Ca4 Os4 O13 F1'
_cell_volume   276.67260448
_cell_formula_units_Z   1
loop_
 _symmetry_equiv_pos_site_id
 _symmetry_equiv_pos_as_xyz
  1  'x, y, z'
loop_
 _atom_site_type_symbol
 _atom_site_label
 _atom_site_symmetry_multiplicity
 _atom_site_fract_x
 _atom_site_fract_y
 _atom_site_fract_z
 _atom_site_occupancy
  Ca  Ca0  1  0.004095  0.004095  0.995905  1
  Ca  Ca1  1  0.487716  0.004095  0.995905  1
  Ca  Ca2  1  0.004095  0.487716  0.995905  1
  Ca  Ca3  1  0.004095  0.004095  0.512285  1
  Os  Os4  1  0.499930  0.499930  0.999791  1
  Os  Os5  1  0.499930  0.000209  0.500069  1
  Os  Os6  1  0.000209  0.499930  0.500069  1
  Os  Os7  1  0.499931  0.499931  0.500069  1
  O  O8  1  0.819157  0.430841  0.180841  1
  O  O9  1  0.430841  0.430841  0.180841  1
  O  O10  1  0.430841  0.819157  0.180841  1
  O  O11  1  0.570920  0.179079  0.429078  1
  O  O12  1  0.179079  0.570920  0.429078  1
  O  O13  1  0.179079  0.179079  0.429080  1
  O  O14  1  0.819157  0.430842  0.569156  1
  O  O15  1  0.430842  0.819157  0.569156  1
  O  O16  1  0.819158  0.819158  0.569158  1
  O  O17  1  0.570921  0.570921  0.820921  1
  O  O18  1  0.570921  0.179080  0.820922  1
  O  O19  1  0.179080  0.570921  0.820922  1
  O  O20  1  0.125000  0.125000  0.875001  1
  F  F21  1  0.875000  0.875000  0.125000  1
