# generated using pymatgen
data_CePSe
_symmetry_space_group_name_H-M   'P 1'
_cell_length_a   3.95049500
_cell_length_b   8.52463031
_cell_length_c   7.89738639
_cell_angle_alpha   90.03350011
_cell_angle_beta   90.00000000
_cell_angle_gamma   90.00000000
_symmetry_Int_Tables_number   1
_chemical_formula_structural   CePSe
_chemical_formula_sum   'Ce4 P4 Se4'
_cell_volume   265.95636174
_cell_formula_units_Z   4
loop_
 _symmetry_equiv_pos_site_id
 _symmetry_equiv_pos_as_xyz
  1  'x, y, z'
loop_
 _atom_site_type_symbol
 _atom_site_label
 _atom_site_symmetry_multiplicity
 _atom_site_fract_x
 _atom_site_fract_y
 _atom_site_fract_z
 _atom_site_occupancy
  Ce  Ce0  1  0.752279  0.258894  0.374845  1
  Ce  Ce1  1  0.252279  0.741106  0.125155  1
  Ce  Ce2  1  0.247721  0.741106  0.625155  1
  Ce  Ce3  1  0.747721  0.258894  0.874845  1
  P  P4  1  0.741806  0.000007  0.624347  1
  P  P5  1  0.241806  0.999993  0.875653  1
  P  P6  1  0.258194  0.999993  0.375653  1
  P  P7  1  0.758194  0.000007  0.124347  1
  Se  Se8  1  0.749418  0.633361  0.875047  1
  Se  Se9  1  0.249418  0.366639  0.624953  1
  Se  Se10  1  0.250582  0.366639  0.124953  1
  Se  Se11  1  0.750582  0.633361  0.375047  1
