# generated using pymatgen
data_Sn3Pb(W3Cl14)2
_symmetry_space_group_name_H-M   'P 1'
_cell_length_a   9.73016200
_cell_length_b   9.73016159
_cell_length_c   12.79068900
_cell_angle_alpha   90.00000000
_cell_angle_beta   90.00000000
_cell_angle_gamma   120.00000140
_symmetry_Int_Tables_number   1
_chemical_formula_structural   Sn3Pb(W3Cl14)2
_chemical_formula_sum   'Sn3 Pb1 W6 Cl28'
_cell_volume   1048.73240755
_cell_formula_units_Z   1
loop_
 _symmetry_equiv_pos_site_id
 _symmetry_equiv_pos_as_xyz
  1  'x, y, z'
loop_
 _atom_site_type_symbol
 _atom_site_label
 _atom_site_symmetry_multiplicity
 _atom_site_fract_x
 _atom_site_fract_y
 _atom_site_fract_z
 _atom_site_occupancy
  Sn  Sn0  1  0.666667  0.333333  0.806217  1
  Sn  Sn1  1  0.000000  0.000000  0.254562  1
  Sn  Sn2  1  0.000000  0.000000  0.754692  1
  Pb  Pb3  1  0.333333  0.666667  0.298136  1
  W  W4  1  0.852854  0.408783  0.338357  1
  W  W5  1  0.591217  0.444071  0.338357  1
  W  W6  1  0.555929  0.147146  0.338357  1
  W  W7  1  0.146842  0.590593  0.837599  1
  W  W8  1  0.409407  0.556249  0.837599  1
  W  W9  1  0.443751  0.853158  0.837599  1
  Cl  Cl10  1  0.666667  0.333333  0.194637  1
  Cl  Cl11  1  0.333333  0.666667  0.694315  1
  Cl  Cl12  1  0.756770  0.200550  0.467865  1
  Cl  Cl13  1  0.799450  0.556219  0.467865  1
  Cl  Cl14  1  0.443781  0.243230  0.467865  1
  Cl  Cl15  1  0.242558  0.798905  0.967455  1
  Cl  Cl16  1  0.201095  0.443654  0.967455  1
  Cl  Cl17  1  0.556346  0.757442  0.967455  1
  Cl  Cl18  1  0.975334  0.297405  0.229629  1
  Cl  Cl19  1  0.702595  0.677928  0.229629  1
  Cl  Cl20  1  0.322072  0.024666  0.229629  1
  Cl  Cl21  1  0.025247  0.702890  0.729744  1
  Cl  Cl22  1  0.297110  0.322358  0.729744  1
  Cl  Cl23  1  0.677642  0.974753  0.729744  1
  Cl  Cl24  1  0.094792  0.500599  0.447429  1
  Cl  Cl25  1  0.499401  0.594193  0.447429  1
  Cl  Cl26  1  0.405807  0.905208  0.447429  1
  Cl  Cl27  1  0.901894  0.497266  0.946248  1
  Cl  Cl28  1  0.502734  0.404628  0.946248  1
  Cl  Cl29  1  0.595372  0.098106  0.946248  1
  Cl  Cl30  1  0.015035  0.647692  0.240077  1
  Cl  Cl31  1  0.352308  0.367344  0.240077  1
  Cl  Cl32  1  0.632656  0.984965  0.240077  1
  Cl  Cl33  1  0.984482  0.351988  0.740776  1
  Cl  Cl34  1  0.648012  0.632494  0.740776  1
  Cl  Cl35  1  0.367506  0.015518  0.740776  1
  Cl  Cl36  1  0.000000  0.000000  0.065983  1
  Cl  Cl37  1  0.000000  0.000000  0.566405  1
