# generated using pymatgen
data_Ho20IrRh10Au
_symmetry_space_group_name_H-M   'P 1'
_cell_length_a   10.93803046
_cell_length_b   10.93803167
_cell_length_c   6.31861420
_cell_angle_alpha   89.97148170
_cell_angle_beta   89.97148701
_cell_angle_gamma   89.62506206
_symmetry_Int_Tables_number   1
_chemical_formula_structural   Ho20IrRh10Au
_chemical_formula_sum   'Ho20 Ir1 Rh10 Au1'
_cell_volume   755.94593864
_cell_formula_units_Z   1
loop_
 _symmetry_equiv_pos_site_id
 _symmetry_equiv_pos_as_xyz
  1  'x, y, z'
loop_
 _atom_site_type_symbol
 _atom_site_label
 _atom_site_symmetry_multiplicity
 _atom_site_fract_x
 _atom_site_fract_y
 _atom_site_fract_z
 _atom_site_occupancy
  Ho  Ho0  1  0.288445  0.087097  0.375779  1
  Ho  Ho1  1  0.291771  0.909711  0.877328  1
  Ho  Ho2  1  0.704360  0.084935  0.866175  1
  Ho  Ho3  1  0.705460  0.905054  0.379912  1
  Ho  Ho4  1  0.588600  0.790032  0.879541  1
  Ho  Ho5  1  0.580335  0.209767  0.377645  1
  Ho  Ho6  1  0.408723  0.790809  0.378602  1
  Ho  Ho7  1  0.408823  0.208059  0.878194  1
  Ho  Ho8  1  0.209968  0.411400  0.620459  1
  Ho  Ho9  1  0.209191  0.591277  0.121398  1
  Ho  Ho10  1  0.790233  0.419665  0.122355  1
  Ho  Ho11  1  0.791941  0.591177  0.621806  1
  Ho  Ho12  1  0.912903  0.711555  0.124221  1
  Ho  Ho13  1  0.915065  0.295640  0.633825  1
  Ho  Ho14  1  0.090289  0.708229  0.622672  1
  Ho  Ho15  1  0.094946  0.294540  0.120088  1
  Ho  Ho16  1  0.002462  0.995626  0.501200  1
  Ho  Ho17  1  0.004374  0.997538  0.998800  1
  Ho  Ho18  1  0.498825  0.498424  0.998951  1
  Ho  Ho19  1  0.501576  0.501175  0.501049  1
  Ir  Ir20  1  0.155883  0.844117  0.250000  1
  Rh  Rh21  1  0.845149  0.847178  0.749402  1
  Rh  Rh22  1  0.152822  0.154851  0.750598  1
  Rh  Rh23  1  0.655742  0.344258  0.750000  1
  Rh  Rh24  1  0.655094  0.652476  0.248051  1
  Rh  Rh25  1  0.347524  0.344906  0.251949  1
  Rh  Rh26  1  0.346348  0.653652  0.750000  1
  Rh  Rh27  1  0.500239  0.999789  0.125511  1
  Rh  Rh28  1  0.499731  0.000385  0.622696  1
  Rh  Rh29  1  0.999615  0.500269  0.877304  1
  Rh  Rh30  1  0.000211  0.499761  0.374489  1
  Au  Au31  1  0.843352  0.156648  0.250000  1
