# generated using pymatgen
data_Pr3Ho3(BiO7)2
_symmetry_space_group_name_H-M   'P 1'
_cell_length_a   6.66581586
_cell_length_b   6.68152681
_cell_length_c   7.83568118
_cell_angle_alpha   106.95675269
_cell_angle_beta   89.86290477
_cell_angle_gamma   99.04885330
_symmetry_Int_Tables_number   1
_chemical_formula_structural   Pr3Ho3(BiO7)2
_chemical_formula_sum   'Pr3 Ho3 Bi2 O14'
_cell_volume   329.30840476
_cell_formula_units_Z   1
loop_
 _symmetry_equiv_pos_site_id
 _symmetry_equiv_pos_as_xyz
  1  'x, y, z'
loop_
 _atom_site_type_symbol
 _atom_site_label
 _atom_site_symmetry_multiplicity
 _atom_site_fract_x
 _atom_site_fract_y
 _atom_site_fract_z
 _atom_site_occupancy
  Pr  Pr0  1  0.728979  0.460884  0.114096  1
  Pr  Pr1  1  0.738754  0.481186  0.620206  1
  Pr  Pr2  1  0.258895  0.520297  0.383791  1
  Ho  Ho3  1  0.462227  0.004187  0.251701  1
  Ho  Ho4  1  0.534567  0.993497  0.747472  1
  Ho  Ho5  1  0.272956  0.539797  0.883854  1
  Bi  Bi6  1  0.001927  0.003440  0.502666  1
  Bi  Bi7  1  0.003993  0.000382  0.998007  1
  O  O8  1  0.439650  0.654884  0.160095  1
  O  O9  1  0.539782  0.342712  0.831028  1
  O  O10  1  0.304207  0.928000  0.954026  1
  O  O11  1  0.699646  0.065002  0.046441  1
  O  O12  1  0.301266  0.933024  0.513427  1
  O  O13  1  0.701501  0.066359  0.485092  1
  O  O14  1  0.543070  0.353944  0.343066  1
  O  O15  1  0.450664  0.645579  0.665487  1
  O  O16  1  0.935430  0.666764  0.948339  1
  O  O17  1  0.080679  0.331209  0.039110  1
  O  O18  1  0.077515  0.343412  0.624529  1
  O  O19  1  0.927127  0.661369  0.386570  1
  O  O20  1  0.874506  0.915430  0.728125  1
  O  O21  1  0.122657  0.088641  0.272873  1
