# generated using pymatgen
data_PrNd2Er(AsPt)4
_symmetry_space_group_name_H-M   'P 1'
_cell_length_a   4.32311600
_cell_length_b   4.32311576
_cell_length_c   16.09459600
_cell_angle_alpha   90.00000000
_cell_angle_beta   90.00000000
_cell_angle_gamma   120.00000185
_symmetry_Int_Tables_number   1
_chemical_formula_structural   PrNd2Er(AsPt)4
_chemical_formula_sum   'Pr1 Nd2 Er1 As4 Pt4'
_cell_volume   260.49803805
_cell_formula_units_Z   1
loop_
 _symmetry_equiv_pos_site_id
 _symmetry_equiv_pos_as_xyz
  1  'x, y, z'
loop_
 _atom_site_type_symbol
 _atom_site_label
 _atom_site_symmetry_multiplicity
 _atom_site_fract_x
 _atom_site_fract_y
 _atom_site_fract_z
 _atom_site_occupancy
  Pr  Pr0  1  0.000000  0.000000  0.505836  1
  Nd  Nd1  1  0.000000  0.000000  0.994173  1
  Nd  Nd2  1  0.000000  0.000000  0.249469  1
  Er  Er3  1  0.000000  0.000000  0.750326  1
  As  As4  1  0.333333  0.666667  0.878418  1
  As  As5  1  0.666667  0.333333  0.118531  1
  As  As6  1  0.666667  0.333333  0.380428  1
  As  As7  1  0.333333  0.666667  0.623022  1
  Pt  Pt8  1  0.333333  0.666667  0.372468  1
  Pt  Pt9  1  0.666667  0.333333  0.647598  1
  Pt  Pt10  1  0.666667  0.333333  0.854002  1
  Pt  Pt11  1  0.333333  0.666667  0.125729  1
