# generated using pymatgen
data_Hf8Fe7Si14Rh
_symmetry_space_group_name_H-M   'P 1'
_cell_length_a   9.49077428
_cell_length_b   9.49077476
_cell_length_c   9.49039234
_cell_angle_alpha   94.11256527
_cell_angle_beta   94.11256528
_cell_angle_gamma   148.78661168
_symmetry_Int_Tables_number   1
_chemical_formula_structural   Hf8Fe7Si14Rh
_chemical_formula_sum   'Hf8 Fe7 Si14 Rh1'
_cell_volume   426.97380337
_cell_formula_units_Z   1
loop_
 _symmetry_equiv_pos_site_id
 _symmetry_equiv_pos_as_xyz
  1  'x, y, z'
loop_
 _atom_site_type_symbol
 _atom_site_label
 _atom_site_symmetry_multiplicity
 _atom_site_fract_x
 _atom_site_fract_y
 _atom_site_fract_z
 _atom_site_occupancy
  Hf  Hf0  1  0.697822  0.501833  0.194966  1
  Hf  Hf1  1  0.497735  0.694461  0.195297  1
  Hf  Hf2  1  0.498167  0.302178  0.805034  1
  Hf  Hf3  1  0.305539  0.502265  0.804703  1
  Hf  Hf4  1  0.862226  0.863017  0.724250  1
  Hf  Hf5  1  0.138099  0.861901  0.000000  1
  Hf  Hf6  1  0.861683  0.138317  0.000000  1
  Hf  Hf7  1  0.136983  0.137774  0.275750  1
  Fe  Fe8  1  0.902973  0.400767  0.801447  1
  Fe  Fe9  1  0.599233  0.097027  0.198553  1
  Fe  Fe10  1  0.101017  0.602519  0.206768  1
  Fe  Fe11  1  0.599926  0.400074  0.500000  1
  Fe  Fe12  1  0.397481  0.898983  0.793232  1
  Fe  Fe13  1  0.900126  0.099874  0.500000  1
  Fe  Fe14  1  0.395503  0.604497  0.500000  1
  Si  Si15  1  0.749989  0.750386  0.999872  1
  Si  Si16  1  0.249614  0.250011  0.000128  1
  Si  Si17  1  0.086649  0.496177  0.593234  1
  Si  Si18  1  0.534863  0.121892  0.594597  1
  Si  Si19  1  0.503823  0.913351  0.406766  1
  Si  Si20  1  0.878108  0.465137  0.405403  1
  Si  Si21  1  0.705130  0.004648  0.700939  1
  Si  Si22  1  0.987152  0.686566  0.703958  1
  Si  Si23  1  0.697248  0.700732  0.418413  1
  Si  Si24  1  0.289814  0.710186  0.000000  1
  Si  Si25  1  0.313434  0.012848  0.296042  1
  Si  Si26  1  0.710082  0.289918  0.000000  1
  Si  Si27  1  0.299268  0.302752  0.581587  1
  Si  Si28  1  0.995352  0.294870  0.299061  1
  Rh  Rh29  1  0.104958  0.895042  0.500000  1
