# generated using pymatgen
data_HoErPa2Ge6Ir7
_symmetry_space_group_name_H-M   'P 1'
_cell_length_a   7.31113635
_cell_length_b   7.31113415
_cell_length_c   7.28479037
_cell_angle_alpha   109.41052276
_cell_angle_beta   109.41050443
_cell_angle_gamma   109.70375848
_symmetry_Int_Tables_number   1
_chemical_formula_structural   HoErPa2Ge6Ir7
_chemical_formula_sum   'Ho1 Er1 Pa2 Ge6 Ir7'
_cell_volume   299.34011988
_cell_formula_units_Z   1
loop_
 _symmetry_equiv_pos_site_id
 _symmetry_equiv_pos_as_xyz
  1  'x, y, z'
loop_
 _atom_site_type_symbol
 _atom_site_label
 _atom_site_symmetry_multiplicity
 _atom_site_fract_x
 _atom_site_fract_y
 _atom_site_fract_z
 _atom_site_occupancy
  Ho  Ho0  1  0.000000  0.000000  0.500000  1
  Er  Er1  1  0.500000  0.500000  0.500000  1
  Pa  Pa2  1  0.000000  0.500000  0.000000  1
  Pa  Pa3  1  0.500000  0.000000  0.000000  1
  Ge  Ge4  1  0.683608  0.683608  0.999862  1
  Ge  Ge5  1  0.317115  0.005598  0.322608  1
  Ge  Ge6  1  0.005598  0.317115  0.322608  1
  Ge  Ge7  1  0.316392  0.316392  0.000138  1
  Ge  Ge8  1  0.682885  0.994402  0.677392  1
  Ge  Ge9  1  0.994402  0.682885  0.677392  1
  Ir  Ir10  1  0.749718  0.250282  0.500000  1
  Ir  Ir11  1  0.749422  0.495611  0.245656  1
  Ir  Ir12  1  0.504389  0.250578  0.754344  1
  Ir  Ir13  1  0.250578  0.504389  0.754344  1
  Ir  Ir14  1  0.250282  0.749718  0.500000  1
  Ir  Ir15  1  0.495611  0.749422  0.245656  1
  Ir  Ir16  1  0.000000  0.000000  0.000000  1
