# generated using pymatgen
data_DyHoZr2(Al3Rh)6
_symmetry_space_group_name_H-M   'P 1'
_cell_length_a   7.51825301
_cell_length_b   7.49743005
_cell_length_c   9.35545700
_cell_angle_alpha   90.00000000
_cell_angle_beta   90.00000000
_cell_angle_gamma   119.68807078
_symmetry_Int_Tables_number   1
_chemical_formula_structural   DyHoZr2(Al3Rh)6
_chemical_formula_sum   'Dy1 Ho1 Zr2 Al18 Rh6'
_cell_volume   458.12238298
_cell_formula_units_Z   1
loop_
 _symmetry_equiv_pos_site_id
 _symmetry_equiv_pos_as_xyz
  1  'x, y, z'
loop_
 _atom_site_type_symbol
 _atom_site_label
 _atom_site_symmetry_multiplicity
 _atom_site_fract_x
 _atom_site_fract_y
 _atom_site_fract_z
 _atom_site_occupancy
  Dy  Dy0  1  0.329700  0.005964  0.250000  1
  Ho  Ho1  1  0.670371  0.994090  0.750000  1
  Zr  Zr2  1  0.994678  0.670737  0.750000  1
  Zr  Zr3  1  0.005273  0.329251  0.250000  1
  Al  Al4  1  0.124434  0.122914  0.750000  1
  Al  Al5  1  0.875362  0.877010  0.250000  1
  Al  Al6  1  0.999215  0.337202  0.574796  1
  Al  Al7  1  0.000633  0.662647  0.425333  1
  Al  Al8  1  0.000633  0.662647  0.074667  1
  Al  Al9  1  0.331866  0.997893  0.921392  1
  Al  Al10  1  0.999215  0.337202  0.925204  1
  Al  Al11  1  0.668284  0.002102  0.078353  1
  Al  Al12  1  0.668284  0.002102  0.421647  1
  Al  Al13  1  0.331866  0.997893  0.578608  1
  Al  Al14  1  0.330916  0.333454  0.055238  1
  Al  Al15  1  0.669072  0.666669  0.944622  1
  Al  Al16  1  0.669072  0.666669  0.555378  1
  Al  Al17  1  0.330916  0.333454  0.444762  1
  Al  Al18  1  0.333660  0.548716  0.750000  1
  Al  Al19  1  0.666500  0.451491  0.250000  1
  Al  Al20  1  0.555853  0.344194  0.750000  1
  Al  Al21  1  0.444225  0.655714  0.250000  1
  Rh  Rh22  1  0.672268  0.327454  0.499429  1
  Rh  Rh23  1  0.327817  0.672561  0.500703  1
  Rh  Rh24  1  0.327817  0.672561  0.999297  1
  Rh  Rh25  1  0.672268  0.327454  0.000571  1
  Rh  Rh26  1  0.999901  0.999978  0.500076  1
  Rh  Rh27  1  0.999901  0.999978  0.999924  1
