# generated using pymatgen
data_YTaFe4P3
_symmetry_space_group_name_H-M   'P 1'
_cell_length_a   3.67556600
_cell_length_b   10.46108500
_cell_length_c   12.37110200
_cell_angle_alpha   90.00000000
_cell_angle_beta   90.00000000
_cell_angle_gamma   90.00000000
_symmetry_Int_Tables_number   1
_chemical_formula_structural   YTaFe4P3
_chemical_formula_sum   'Y4 Ta4 Fe16 P12'
_cell_volume   475.67392363
_cell_formula_units_Z   4
loop_
 _symmetry_equiv_pos_site_id
 _symmetry_equiv_pos_as_xyz
  1  'x, y, z'
loop_
 _atom_site_type_symbol
 _atom_site_label
 _atom_site_symmetry_multiplicity
 _atom_site_fract_x
 _atom_site_fract_y
 _atom_site_fract_z
 _atom_site_occupancy
  Y  Y0  1  0.250000  0.583935  0.712978  1
  Y  Y1  1  0.250000  0.916065  0.212978  1
  Y  Y2  1  0.750000  0.416065  0.287022  1
  Y  Y3  1  0.750000  0.083935  0.787022  1
  Ta  Ta4  1  0.250000  0.703568  0.992559  1
  Ta  Ta5  1  0.250000  0.796432  0.492559  1
  Ta  Ta6  1  0.750000  0.296432  0.007441  1
  Ta  Ta7  1  0.750000  0.203568  0.507441  1
  Fe  Fe8  1  0.250000  0.417332  0.491860  1
  Fe  Fe9  1  0.250000  0.082669  0.991860  1
  Fe  Fe10  1  0.750000  0.582668  0.508140  1
  Fe  Fe11  1  0.750000  0.917332  0.008140  1
  Fe  Fe12  1  0.250000  0.215797  0.170313  1
  Fe  Fe13  1  0.250000  0.284203  0.670313  1
  Fe  Fe14  1  0.750000  0.784203  0.829687  1
  Fe  Fe15  1  0.750000  0.715797  0.329687  1
  Fe  Fe16  1  0.250000  0.879765  0.697245  1
  Fe  Fe17  1  0.250000  0.620235  0.197245  1
  Fe  Fe18  1  0.750000  0.120235  0.302755  1
  Fe  Fe19  1  0.750000  0.379765  0.802755  1
  Fe  Fe20  1  0.250000  0.464197  0.934226  1
  Fe  Fe21  1  0.250000  0.035803  0.434226  1
  Fe  Fe22  1  0.750000  0.535803  0.065774  1
  Fe  Fe23  1  0.750000  0.964197  0.565774  1
  P  P24  1  0.250000  0.424269  0.112882  1
  P  P25  1  0.250000  0.075731  0.612882  1
  P  P26  1  0.750000  0.575731  0.887118  1
  P  P27  1  0.750000  0.924269  0.387118  1
  P  P28  1  0.250000  0.274955  0.854310  1
  P  P29  1  0.250000  0.225045  0.354310  1
  P  P30  1  0.750000  0.725045  0.145690  1
  P  P31  1  0.750000  0.774955  0.645690  1
  P  P32  1  0.250000  0.597326  0.375927  1
  P  P33  1  0.250000  0.902674  0.875927  1
  P  P34  1  0.750000  0.402674  0.624073  1
  P  P35  1  0.750000  0.097326  0.124073  1
