# generated using pymatgen
data_ErScSb2(SeO3)8
_symmetry_space_group_name_H-M   'P 1'
_cell_length_a   8.42792583
_cell_length_b   8.57689893
_cell_length_c   8.45296896
_cell_angle_alpha   90.17239833
_cell_angle_beta   89.81815350
_cell_angle_gamma   90.14092600
_symmetry_Int_Tables_number   1
_chemical_formula_structural   ErScSb2(SeO3)8
_chemical_formula_sum   'Er1 Sc1 Sb2 Se8 O24'
_cell_volume   611.01914046
_cell_formula_units_Z   1
loop_
 _symmetry_equiv_pos_site_id
 _symmetry_equiv_pos_as_xyz
  1  'x, y, z'
loop_
 _atom_site_type_symbol
 _atom_site_label
 _atom_site_symmetry_multiplicity
 _atom_site_fract_x
 _atom_site_fract_y
 _atom_site_fract_z
 _atom_site_occupancy
  Er  Er0  1  0.000000  0.500000  0.000000  1
  Sc  Sc1  1  0.500000  0.500000  0.500000  1
  Sb  Sb2  1  0.000000  0.000000  0.500000  1
  Sb  Sb3  1  0.500000  0.000000  0.000000  1
  Se  Se4  1  0.349044  0.681165  0.174255  1
  Se  Se5  1  0.830870  0.316780  0.346329  1
  Se  Se6  1  0.683323  0.833215  0.681193  1
  Se  Se7  1  0.185947  0.151044  0.818503  1
  Se  Se8  1  0.650956  0.318835  0.825745  1
  Se  Se9  1  0.169130  0.683220  0.653671  1
  Se  Se10  1  0.316677  0.166785  0.318807  1
  Se  Se11  1  0.814053  0.848956  0.181497  1
  O  O12  1  0.251024  0.561931  0.048619  1
  O  O13  1  0.739330  0.440040  0.474638  1
  O  O14  1  0.764739  0.971588  0.546684  1
  O  O15  1  0.264226  0.009913  0.951796  1
  O  O16  1  0.546655  0.967718  0.765757  1
  O  O17  1  0.483254  0.561589  0.260535  1
  O  O18  1  0.960768  0.433689  0.250691  1
  O  O19  1  0.046052  0.017983  0.734998  1
  O  O20  1  0.971137  0.229864  0.485912  1
  O  O21  1  0.562269  0.736886  0.558357  1
  O  O22  1  0.488060  0.770697  0.032868  1
  O  O23  1  0.068347  0.251511  0.941146  1
  O  O24  1  0.748976  0.438069  0.951381  1
  O  O25  1  0.260670  0.559960  0.525362  1
  O  O26  1  0.235261  0.028412  0.453316  1
  O  O27  1  0.735774  0.990087  0.048204  1
  O  O28  1  0.453345  0.032282  0.234243  1
  O  O29  1  0.516746  0.438411  0.739465  1
  O  O30  1  0.039232  0.566311  0.749309  1
  O  O31  1  0.953948  0.982017  0.265002  1
  O  O32  1  0.028863  0.770136  0.514088  1
  O  O33  1  0.437731  0.263114  0.441643  1
  O  O34  1  0.511940  0.229303  0.967132  1
  O  O35  1  0.931653  0.748489  0.058854  1
