# generated using pymatgen
data_TbHo4P12Ru19
_symmetry_space_group_name_H-M   'P 1'
_cell_length_a   12.52057000
_cell_length_b   12.52057027
_cell_length_c   3.98327200
_cell_angle_alpha   90.00000000
_cell_angle_beta   90.00000000
_cell_angle_gamma   119.99999929
_symmetry_Int_Tables_number   1
_chemical_formula_structural   TbHo4P12Ru19
_chemical_formula_sum   'Tb1 Ho4 P12 Ru19'
_cell_volume   540.77774293
_cell_formula_units_Z   1
loop_
 _symmetry_equiv_pos_site_id
 _symmetry_equiv_pos_as_xyz
  1  'x, y, z'
loop_
 _atom_site_type_symbol
 _atom_site_label
 _atom_site_symmetry_multiplicity
 _atom_site_fract_x
 _atom_site_fract_y
 _atom_site_fract_z
 _atom_site_occupancy
  Tb  Tb0  1  0.666667  0.333333  0.000000  1
  Ho  Ho1  1  0.999970  0.183179  0.500000  1
  Ho  Ho2  1  0.816821  0.816791  0.500000  1
  Ho  Ho3  1  0.183209  0.000030  0.500000  1
  Ho  Ho4  1  0.333333  0.666667  0.000000  1
  P  P5  1  0.000280  0.815917  0.000000  1
  P  P6  1  0.184083  0.184364  0.000000  1
  P  P7  1  0.815636  0.999720  0.000000  1
  P  P8  1  0.693439  0.170927  0.500000  1
  P  P9  1  0.829073  0.522513  0.500000  1
  P  P10  1  0.477487  0.306561  0.500000  1
  P  P11  1  0.171560  0.693528  0.500000  1
  P  P12  1  0.521968  0.828440  0.500000  1
  P  P13  1  0.306472  0.478032  0.500000  1
  P  P14  1  0.999950  0.372393  0.000000  1
  P  P15  1  0.627607  0.627558  0.000000  1
  P  P16  1  0.372442  0.000050  0.000000  1
  Ru  Ru17  1  0.000020  0.554539  0.000000  1
  Ru  Ru18  1  0.445461  0.445482  0.000000  1
  Ru  Ru19  1  0.554518  0.999980  0.000000  1
  Ru  Ru20  1  0.000324  0.717273  0.500000  1
  Ru  Ru21  1  0.282727  0.283052  0.500000  1
  Ru  Ru22  1  0.716948  0.999676  0.500000  1
  Ru  Ru23  1  0.808087  0.184517  0.000000  1
  Ru  Ru24  1  0.815483  0.623570  0.000000  1
  Ru  Ru25  1  0.376430  0.191913  0.000000  1
  Ru  Ru26  1  0.185018  0.807932  0.000000  1
  Ru  Ru27  1  0.622914  0.814982  0.000000  1
  Ru  Ru28  1  0.192068  0.377086  0.000000  1
  Ru  Ru29  1  0.874412  0.365688  0.500000  1
  Ru  Ru30  1  0.634312  0.508724  0.500000  1
  Ru  Ru31  1  0.491276  0.125588  0.500000  1
  Ru  Ru32  1  0.365746  0.873690  0.500000  1
  Ru  Ru33  1  0.507944  0.634254  0.500000  1
  Ru  Ru34  1  0.126310  0.492056  0.500000  1
  Ru  Ru35  1  0.000000  0.000000  0.000000  1
