# generated using pymatgen
data_HoZr2RuF15
_symmetry_space_group_name_H-M   'P 1'
_cell_length_a   8.10903026
_cell_length_b   8.10902941
_cell_length_c   8.14473679
_cell_angle_alpha   79.90908399
_cell_angle_beta   79.90908401
_cell_angle_gamma   99.84550136
_symmetry_Int_Tables_number   1
_chemical_formula_structural   HoZr2RuF15
_chemical_formula_sum   'Ho2 Zr4 Ru2 F30'
_cell_volume   507.76441104
_cell_formula_units_Z   2
loop_
 _symmetry_equiv_pos_site_id
 _symmetry_equiv_pos_as_xyz
  1  'x, y, z'
loop_
 _atom_site_type_symbol
 _atom_site_label
 _atom_site_symmetry_multiplicity
 _atom_site_fract_x
 _atom_site_fract_y
 _atom_site_fract_z
 _atom_site_occupancy
  Ho  Ho0  1  0.176257  0.823743  0.250000  1
  Ho  Ho1  1  0.823743  0.176257  0.750000  1
  Zr  Zr2  1  0.747325  0.678063  0.675009  1
  Zr  Zr3  1  0.321937  0.252675  0.824991  1
  Zr  Zr4  1  0.252675  0.321937  0.324991  1
  Zr  Zr5  1  0.678063  0.747325  0.175009  1
  Ru  Ru6  1  0.749346  0.250654  0.250000  1
  Ru  Ru7  1  0.250654  0.749346  0.750000  1
  F  F8  1  0.314757  0.350904  0.053510  1
  F  F9  1  0.938498  0.812744  0.150540  1
  F  F10  1  0.842134  0.457072  0.686627  1
  F  F11  1  0.457072  0.842134  0.186627  1
  F  F12  1  0.812744  0.938498  0.650540  1
  F  F13  1  0.350904  0.314757  0.553509  1
  F  F14  1  0.685243  0.649096  0.946490  1
  F  F15  1  0.061502  0.187256  0.849460  1
  F  F16  1  0.157866  0.542928  0.313373  1
  F  F17  1  0.542928  0.157866  0.813373  1
  F  F18  1  0.187256  0.061502  0.349460  1
  F  F19  1  0.649096  0.685243  0.446490  1
  F  F20  1  0.773060  0.283365  0.008355  1
  F  F21  1  0.000296  0.272564  0.216160  1
  F  F22  1  0.783233  0.504239  0.223889  1
  F  F23  1  0.504239  0.783233  0.723889  1
  F  F24  1  0.272564  0.000296  0.716160  1
  F  F25  1  0.283365  0.773060  0.508355  1
  F  F26  1  0.226940  0.716635  0.991645  1
  F  F27  1  0.999704  0.727436  0.783840  1
  F  F28  1  0.216767  0.495761  0.776111  1
  F  F29  1  0.495761  0.216767  0.276111  1
  F  F30  1  0.727436  0.999704  0.283840  1
  F  F31  1  0.716635  0.226940  0.491645  1
  F  F32  1  0.469246  0.530754  0.250000  1
  F  F33  1  0.746028  0.956663  0.972457  1
  F  F34  1  0.043337  0.253972  0.527543  1
  F  F35  1  0.253972  0.043337  0.027543  1
  F  F36  1  0.956663  0.746028  0.472457  1
  F  F37  1  0.530754  0.469246  0.750000  1
