# generated using pymatgen
data_Ba4HoU3O14
_symmetry_space_group_name_H-M   'P 1'
_cell_length_a   8.12240618
_cell_length_b   8.12240564
_cell_length_c   8.17559001
_cell_angle_alpha   120.42853173
_cell_angle_beta   118.46610746
_cell_angle_gamma   90.59936396
_symmetry_Int_Tables_number   1
_chemical_formula_structural   Ba4HoU3O14
_chemical_formula_sum   'Ba4 Ho1 U3 O14'
_cell_volume   385.62299363
_cell_formula_units_Z   1
loop_
 _symmetry_equiv_pos_site_id
 _symmetry_equiv_pos_as_xyz
  1  'x, y, z'
loop_
 _atom_site_type_symbol
 _atom_site_label
 _atom_site_symmetry_multiplicity
 _atom_site_fract_x
 _atom_site_fract_y
 _atom_site_fract_z
 _atom_site_occupancy
  Ba  Ba0  1  0.000000  0.000000  0.000000  1
  Ba  Ba1  1  0.500000  0.500000  0.000000  1
  Ba  Ba2  1  0.500000  0.000000  0.000000  1
  Ba  Ba3  1  0.500000  0.500000  0.500000  1
  Ho  Ho4  1  0.000000  0.000000  0.500000  1
  U  U5  1  0.000000  0.500000  0.500000  1
  U  U6  1  0.000000  0.500000  0.000000  1
  U  U7  1  0.500000  0.000000  0.500000  1
  O  O8  1  0.906382  0.737947  0.144329  1
  O  O9  1  0.673322  0.917983  0.368354  1
  O  O10  1  0.623821  0.906067  0.712671  1
  O  O11  1  0.687485  0.319349  0.768545  1
  O  O12  1  0.312515  0.680651  0.231455  1
  O  O13  1  0.326678  0.082017  0.631646  1
  O  O14  1  0.693397  0.411150  0.287329  1
  O  O15  1  0.049629  0.804968  0.631646  1
  O  O16  1  0.050804  0.418940  0.231455  1
  O  O17  1  0.093618  0.262053  0.855671  1
  O  O18  1  0.376179  0.093933  0.287329  1
  O  O19  1  0.950371  0.195032  0.368354  1
  O  O20  1  0.949196  0.581060  0.768545  1
  O  O21  1  0.306603  0.588850  0.712671  1
