# generated using pymatgen
data_Ti3Al2RhN
_symmetry_space_group_name_H-M   'P 1'
_cell_length_a   8.14374297
_cell_length_b   8.14374378
_cell_length_c   8.14374300
_cell_angle_alpha   59.99999910
_cell_angle_beta   59.99999583
_cell_angle_gamma   60.00000049
_symmetry_Int_Tables_number   1
_chemical_formula_structural   Ti3Al2RhN
_chemical_formula_sum   'Ti12 Al8 Rh4 N4'
_cell_volume   381.90663751
_cell_formula_units_Z   4
loop_
 _symmetry_equiv_pos_site_id
 _symmetry_equiv_pos_as_xyz
  1  'x, y, z'
loop_
 _atom_site_type_symbol
 _atom_site_label
 _atom_site_symmetry_multiplicity
 _atom_site_fract_x
 _atom_site_fract_y
 _atom_site_fract_z
 _atom_site_occupancy
  Ti  Ti0  1  0.816522  0.816522  0.183478  1
  Ti  Ti1  1  0.066522  0.433478  0.433478  1
  Ti  Ti2  1  0.433478  0.066522  0.066522  1
  Ti  Ti3  1  0.066522  0.066522  0.433478  1
  Ti  Ti4  1  0.066522  0.433478  0.066522  1
  Ti  Ti5  1  0.433478  0.066522  0.433478  1
  Ti  Ti6  1  0.183478  0.816522  0.183478  1
  Ti  Ti7  1  0.183478  0.816522  0.816522  1
  Ti  Ti8  1  0.816522  0.183478  0.183478  1
  Ti  Ti9  1  0.816522  0.183478  0.816522  1
  Ti  Ti10  1  0.433478  0.433478  0.066522  1
  Ti  Ti11  1  0.183478  0.183478  0.816522  1
  Al  Al12  1  0.415141  0.754575  0.415141  1
  Al  Al13  1  0.834859  0.834859  0.495425  1
  Al  Al14  1  0.495425  0.834859  0.834859  1
  Al  Al15  1  0.834859  0.834859  0.834859  1
  Al  Al16  1  0.754575  0.415141  0.415141  1
  Al  Al17  1  0.415141  0.415141  0.415141  1
  Al  Al18  1  0.415141  0.415141  0.754575  1
  Al  Al19  1  0.834859  0.495425  0.834859  1
  Rh  Rh20  1  0.625000  0.125000  0.625000  1
  Rh  Rh21  1  0.625000  0.625000  0.125000  1
  Rh  Rh22  1  0.125000  0.625000  0.625000  1
  Rh  Rh23  1  0.625000  0.625000  0.625000  1
  N  N24  1  0.125000  0.625000  0.125000  1
  N  N25  1  0.125000  0.125000  0.625000  1
  N  N26  1  0.625000  0.125000  0.125000  1
  N  N27  1  0.125000  0.125000  0.125000  1
