# generated using pymatgen
data_Sc2Pa6Sn9Sb
_symmetry_space_group_name_H-M   'P 1'
_cell_length_a   9.22906801
_cell_length_b   9.22832485
_cell_length_c   6.21924900
_cell_angle_alpha   90.00000000
_cell_angle_beta   90.00000000
_cell_angle_gamma   119.99733364
_symmetry_Int_Tables_number   1
_chemical_formula_structural   Sc2Pa6Sn9Sb
_chemical_formula_sum   'Sc2 Pa6 Sn9 Sb1'
_cell_volume   458.73403699
_cell_formula_units_Z   1
loop_
 _symmetry_equiv_pos_site_id
 _symmetry_equiv_pos_as_xyz
  1  'x, y, z'
loop_
 _atom_site_type_symbol
 _atom_site_label
 _atom_site_symmetry_multiplicity
 _atom_site_fract_x
 _atom_site_fract_y
 _atom_site_fract_z
 _atom_site_occupancy
  Sc  Sc0  1  0.000000  0.000276  0.999653  1
  Sc  Sc1  1  0.000000  0.000276  0.500347  1
  Pa  Pa2  1  0.383919  0.999554  0.750000  1
  Pa  Pa3  1  0.382783  0.384384  0.250000  1
  Pa  Pa4  1  0.000000  0.614954  0.250000  1
  Pa  Pa5  1  0.000000  0.383944  0.750000  1
  Pa  Pa6  1  0.616081  0.615636  0.750000  1
  Pa  Pa7  1  0.617217  0.001601  0.250000  1
  Sn  Sn8  1  0.665961  0.333625  0.500234  1
  Sn  Sn9  1  0.334039  0.667665  0.999766  1
  Sn  Sn10  1  0.727160  0.999197  0.750000  1
  Sn  Sn11  1  0.728155  0.727813  0.250000  1
  Sn  Sn12  1  0.334039  0.667665  0.500234  1
  Sn  Sn13  1  0.665961  0.333625  0.999766  1
  Sn  Sn14  1  0.271845  0.999658  0.250000  1
  Sn  Sn15  1  0.272840  0.272037  0.750000  1
  Sn  Sn16  1  0.000000  0.727873  0.750000  1
  Sb  Sb17  1  0.000000  0.270216  0.250000  1
