# generated using pymatgen
data_TmZr8In14FeCo6
_symmetry_space_group_name_H-M   'P 1'
_cell_length_a   9.46812768
_cell_length_b   9.46812785
_cell_length_c   9.46812800
_cell_angle_alpha   59.99999948
_cell_angle_beta   59.99999887
_cell_angle_gamma   59.99999985
_symmetry_Int_Tables_number   1
_chemical_formula_structural   TmZr8In14FeCo6
_chemical_formula_sum   'Tm1 Zr8 In14 Fe1 Co6'
_cell_volume   600.17421916
_cell_formula_units_Z   1
loop_
 _symmetry_equiv_pos_site_id
 _symmetry_equiv_pos_as_xyz
  1  'x, y, z'
loop_
 _atom_site_type_symbol
 _atom_site_label
 _atom_site_symmetry_multiplicity
 _atom_site_fract_x
 _atom_site_fract_y
 _atom_site_fract_z
 _atom_site_occupancy
  Tm  Tm0  1  0.500000  0.500000  0.500000  1
  Zr  Zr1  1  0.121068  0.636798  0.121068  1
  Zr  Zr2  1  0.363202  0.878932  0.878932  1
  Zr  Zr3  1  0.878932  0.878932  0.878932  1
  Zr  Zr4  1  0.636798  0.121068  0.121068  1
  Zr  Zr5  1  0.878932  0.878932  0.363202  1
  Zr  Zr6  1  0.121068  0.121068  0.121068  1
  Zr  Zr7  1  0.878932  0.363202  0.878932  1
  Zr  Zr8  1  0.121068  0.121068  0.636798  1
  In  In9  1  0.500000  0.844253  0.155747  1
  In  In10  1  0.500000  0.844253  0.500000  1
  In  In11  1  0.500000  0.155747  0.500000  1
  In  In12  1  0.500000  0.500000  0.844253  1
  In  In13  1  0.155747  0.500000  0.500000  1
  In  In14  1  0.844253  0.155747  0.500000  1
  In  In15  1  0.155747  0.844253  0.500000  1
  In  In16  1  0.500000  0.155747  0.844253  1
  In  In17  1  0.155747  0.500000  0.844253  1
  In  In18  1  0.500000  0.500000  0.155747  1
  In  In19  1  0.844253  0.500000  0.500000  1
  In  In20  1  0.844253  0.500000  0.155747  1
  In  In21  1  0.250000  0.250000  0.250000  1
  In  In22  1  0.750000  0.750000  0.750000  1
  Fe  Fe23  1  0.000000  0.000000  0.000000  1
  Co  Co24  1  0.780153  0.780153  0.219847  1
  Co  Co25  1  0.219847  0.780153  0.219847  1
  Co  Co26  1  0.219847  0.780153  0.780153  1
  Co  Co27  1  0.219847  0.219847  0.780153  1
  Co  Co28  1  0.780153  0.219847  0.780153  1
  Co  Co29  1  0.780153  0.219847  0.219847  1
