# generated using pymatgen
data_La5Dy5(Sn5Pd2)4
_symmetry_space_group_name_H-M   'P 1'
_cell_length_a   14.30094800
_cell_length_b   14.30094800
_cell_length_c   4.64877900
_cell_angle_alpha   90.00000000
_cell_angle_beta   90.00000000
_cell_angle_gamma   90.00000000
_symmetry_Int_Tables_number   1
_chemical_formula_structural   La5Dy5(Sn5Pd2)4
_chemical_formula_sum   'La5 Dy5 Sn20 Pd8'
_cell_volume   950.75486330
_cell_formula_units_Z   1
loop_
 _symmetry_equiv_pos_site_id
 _symmetry_equiv_pos_as_xyz
  1  'x, y, z'
loop_
 _atom_site_type_symbol
 _atom_site_label
 _atom_site_symmetry_multiplicity
 _atom_site_fract_x
 _atom_site_fract_y
 _atom_site_fract_z
 _atom_site_occupancy
  La  La0  1  0.000000  0.000000  0.000000  1
  La  La1  1  0.890456  0.390783  0.500000  1
  La  La2  1  0.109544  0.609217  0.500000  1
  La  La3  1  0.390783  0.109544  0.500000  1
  La  La4  1  0.609217  0.890456  0.500000  1
  Dy  Dy5  1  0.500000  0.500000  0.000000  1
  Dy  Dy6  1  0.678091  0.178462  0.500000  1
  Dy  Dy7  1  0.321909  0.821538  0.500000  1
  Dy  Dy8  1  0.178462  0.321909  0.500000  1
  Dy  Dy9  1  0.821538  0.678091  0.500000  1
  Sn  Sn10  1  0.569869  0.070192  0.000000  1
  Sn  Sn11  1  0.430131  0.929808  0.000000  1
  Sn  Sn12  1  0.070192  0.430131  0.000000  1
  Sn  Sn13  1  0.929808  0.569869  0.000000  1
  Sn  Sn14  1  0.654997  0.699453  0.000000  1
  Sn  Sn15  1  0.345003  0.300547  0.000000  1
  Sn  Sn16  1  0.154930  0.800359  0.000000  1
  Sn  Sn17  1  0.845070  0.199641  0.000000  1
  Sn  Sn18  1  0.300547  0.654997  0.000000  1
  Sn  Sn19  1  0.699453  0.345003  0.000000  1
  Sn  Sn20  1  0.199641  0.154930  0.000000  1
  Sn  Sn21  1  0.800359  0.845070  0.000000  1
  Sn  Sn22  1  0.659793  0.503043  0.500000  1
  Sn  Sn23  1  0.340207  0.496957  0.500000  1
  Sn  Sn24  1  0.162708  0.997051  0.500000  1
  Sn  Sn25  1  0.837292  0.002949  0.500000  1
  Sn  Sn26  1  0.496957  0.659793  0.500000  1
  Sn  Sn27  1  0.503043  0.340207  0.500000  1
  Sn  Sn28  1  0.002949  0.162708  0.500000  1
  Sn  Sn29  1  0.997051  0.837292  0.500000  1
  Pd  Pd30  1  0.745187  0.530803  0.000000  1
  Pd  Pd31  1  0.254813  0.469197  0.000000  1
  Pd  Pd32  1  0.246387  0.968871  0.000000  1
  Pd  Pd33  1  0.753613  0.031129  0.000000  1
  Pd  Pd34  1  0.469197  0.745187  0.000000  1
  Pd  Pd35  1  0.530803  0.254813  0.000000  1
  Pd  Pd36  1  0.031129  0.246387  0.000000  1
  Pd  Pd37  1  0.968871  0.753613  0.000000  1
