# generated using pymatgen
data_Eu2Pa(SnIr)3
_symmetry_space_group_name_H-M   'P 1'
_cell_length_a   7.55541504
_cell_length_b   7.70402207
_cell_length_c   4.03888600
_cell_angle_alpha   90.00000000
_cell_angle_beta   90.00000000
_cell_angle_gamma   120.65279846
_symmetry_Int_Tables_number   1
_chemical_formula_structural   Eu2Pa(SnIr)3
_chemical_formula_sum   'Eu2 Pa1 Sn3 Ir3'
_cell_volume   202.24300932
_cell_formula_units_Z   1
loop_
 _symmetry_equiv_pos_site_id
 _symmetry_equiv_pos_as_xyz
  1  'x, y, z'
loop_
 _atom_site_type_symbol
 _atom_site_label
 _atom_site_symmetry_multiplicity
 _atom_site_fract_x
 _atom_site_fract_y
 _atom_site_fract_z
 _atom_site_occupancy
  Eu  Eu0  1  0.592818  0.590712  0.500000  1
  Eu  Eu1  1  0.407182  0.997893  0.500000  1
  Pa  Pa2  1  0.000000  0.411599  0.500000  1
  Sn  Sn3  1  0.000000  0.759858  0.000000  1
  Sn  Sn4  1  0.266522  0.255098  0.000000  1
  Sn  Sn5  1  0.733478  0.988576  0.000000  1
  Ir  Ir6  1  0.289370  0.630302  0.000000  1
  Ir  Ir7  1  0.710630  0.340930  0.000000  1
  Ir  Ir8  1  0.000000  0.025030  0.500000  1
