# generated using pymatgen
data_KRb(BiPb)2
_symmetry_space_group_name_H-M   'P 1'
_cell_length_a   6.81015200
_cell_length_b   6.81015186
_cell_length_c   6.81015204
_cell_angle_alpha   121.74899408
_cell_angle_beta   117.78632524
_cell_angle_gamma   90.43691596
_symmetry_Int_Tables_number   1
_chemical_formula_structural   KRb(BiPb)2
_chemical_formula_sum   'K1 Rb1 Bi2 Pb2'
_cell_volume   223.77956892
_cell_formula_units_Z   1
loop_
 _symmetry_equiv_pos_site_id
 _symmetry_equiv_pos_as_xyz
  1  'x, y, z'
loop_
 _atom_site_type_symbol
 _atom_site_label
 _atom_site_symmetry_multiplicity
 _atom_site_fract_x
 _atom_site_fract_y
 _atom_site_fract_z
 _atom_site_occupancy
  K  K0  1  0.252376  0.752376  0.500000  1
  Rb  Rb1  1  0.000814  0.000814  0.000000  1
  Bi  Bi2  1  0.629891  0.372786  0.257105  1
  Bi  Bi3  1  0.115681  0.372786  0.742895  1
  Pb  Pb4  1  0.625618  0.371298  0.745680  1
  Pb  Pb5  1  0.625618  0.879939  0.254320  1
