# generated using pymatgen
data_CeDy7Si12Ir3Rh
_symmetry_space_group_name_H-M   'P 1'
_cell_length_a   8.18274400
_cell_length_b   8.18308952
_cell_length_c   7.95480600
_cell_angle_alpha   90.00159713
_cell_angle_beta   90.00009941
_cell_angle_gamma   120.00074790
_symmetry_Int_Tables_number   1
_chemical_formula_structural   CeDy7Si12Ir3Rh
_chemical_formula_sum   'Ce1 Dy7 Si12 Ir3 Rh1'
_cell_volume   461.28912677
_cell_formula_units_Z   1
loop_
 _symmetry_equiv_pos_site_id
 _symmetry_equiv_pos_as_xyz
  1  'x, y, z'
loop_
 _atom_site_type_symbol
 _atom_site_label
 _atom_site_symmetry_multiplicity
 _atom_site_fract_x
 _atom_site_fract_y
 _atom_site_fract_z
 _atom_site_occupancy
  Ce  Ce0  1  0.999983  0.999991  0.248693  1
  Dy  Dy1  1  0.000001  0.999999  0.750247  1
  Dy  Dy2  1  0.509122  0.490888  0.250356  1
  Dy  Dy3  1  0.509127  0.018244  0.250358  1
  Dy  Dy4  1  0.981775  0.490887  0.250353  1
  Dy  Dy5  1  0.490850  0.509151  0.749759  1
  Dy  Dy6  1  0.490852  0.981699  0.749753  1
  Dy  Dy7  1  0.018299  0.509147  0.749760  1
  Si  Si8  1  0.166595  0.833402  0.499369  1
  Si  Si9  1  0.166595  0.333196  0.499361  1
  Si  Si10  1  0.666825  0.833413  0.499369  1
  Si  Si11  1  0.832897  0.167114  0.500352  1
  Si  Si12  1  0.832898  0.665786  0.500342  1
  Si  Si13  1  0.334194  0.167098  0.500339  1
  Si  Si14  1  0.832924  0.167088  0.999821  1
  Si  Si15  1  0.832922  0.665839  0.999845  1
  Si  Si16  1  0.334152  0.167073  0.999841  1
  Si  Si17  1  0.167184  0.832820  0.998904  1
  Si  Si18  1  0.167181  0.334359  0.998916  1
  Si  Si19  1  0.665653  0.832829  0.998903  1
  Ir  Ir20  1  0.333344  0.666675  0.472489  1
  Ir  Ir21  1  0.666650  0.333325  0.534392  1
  Ir  Ir22  1  0.666657  0.333329  0.963946  1
  Rh  Rh23  1  0.333320  0.666648  0.034532  1
