# generated using pymatgen
data_Ho6TmSn23Rh6
_symmetry_space_group_name_H-M   'P 1'
_cell_length_a   9.84146502
_cell_length_b   9.84147533
_cell_length_c   10.09548300
_cell_angle_alpha   89.99808574
_cell_angle_beta   90.00230486
_cell_angle_gamma   120.00751172
_symmetry_Int_Tables_number   1
_chemical_formula_structural   Ho6TmSn23Rh6
_chemical_formula_sum   'Ho6 Tm1 Sn23 Rh6'
_cell_volume   846.72974537
_cell_formula_units_Z   1
loop_
 _symmetry_equiv_pos_site_id
 _symmetry_equiv_pos_as_xyz
  1  'x, y, z'
loop_
 _atom_site_type_symbol
 _atom_site_label
 _atom_site_symmetry_multiplicity
 _atom_site_fract_x
 _atom_site_fract_y
 _atom_site_fract_z
 _atom_site_occupancy
  Ho  Ho0  1  0.000000  0.999998  0.999989  1
  Ho  Ho1  1  0.520448  0.040883  0.692236  1
  Ho  Ho2  1  0.959119  0.479551  0.692236  1
  Ho  Ho3  1  0.040885  0.520442  0.307764  1
  Ho  Ho4  1  0.479559  0.959115  0.307763  1
  Ho  Ho5  1  0.479557  0.520441  0.307832  1
  Tm  Tm6  1  0.520335  0.479662  0.692246  1
  Sn  Sn7  1  0.666661  0.333340  0.179402  1
  Sn  Sn8  1  0.666533  0.333467  0.876890  1
  Sn  Sn9  1  0.333340  0.666658  0.122960  1
  Sn  Sn10  1  0.351171  0.351167  0.999943  1
  Sn  Sn11  1  0.999982  0.648870  0.999992  1
  Sn  Sn12  1  0.648868  0.999970  0.999985  1
  Sn  Sn13  1  0.648834  0.648828  0.999947  1
  Sn  Sn14  1  0.333360  0.666634  0.820586  1
  Sn  Sn15  1  0.444481  0.222349  0.455774  1
  Sn  Sn16  1  0.222247  0.777753  0.544348  1
  Sn  Sn17  1  0.222444  0.444494  0.544445  1
  Sn  Sn18  1  0.555505  0.777556  0.544444  1
  Sn  Sn19  1  0.119748  0.880251  0.281721  1
  Sn  Sn20  1  0.777651  0.555520  0.455772  1
  Sn  Sn21  1  0.777764  0.222239  0.455673  1
  Sn  Sn22  1  0.351130  0.000019  0.999993  1
  Sn  Sn23  1  0.119782  0.239524  0.281721  1
  Sn  Sn24  1  0.760476  0.880219  0.281721  1
  Sn  Sn25  1  0.239675  0.119976  0.718254  1
  Sn  Sn26  1  0.880027  0.760324  0.718253  1
  Sn  Sn27  1  0.880251  0.119754  0.718275  1
  Sn  Sn28  1  0.000004  0.999995  0.499995  1
  Sn  Sn29  1  0.000030  0.351131  0.999985  1
  Rh  Rh30  1  0.168651  0.831347  0.801610  1
  Rh  Rh31  1  0.168878  0.337392  0.801545  1
  Rh  Rh32  1  0.662607  0.831124  0.801545  1
  Rh  Rh33  1  0.337311  0.168651  0.198388  1
  Rh  Rh34  1  0.831350  0.662690  0.198388  1
  Rh  Rh35  1  0.831336  0.168664  0.198378  1
