# generated using pymatgen
data_Sc4CuSi4Tc3
_symmetry_space_group_name_H-M   'P 1'
_cell_length_a   3.51793400
_cell_length_b   6.91082342
_cell_length_c   7.95146514
_cell_angle_alpha   89.77231554
_cell_angle_beta   90.00000000
_cell_angle_gamma   90.00000000
_symmetry_Int_Tables_number   1
_chemical_formula_structural   Sc4CuSi4Tc3
_chemical_formula_sum   'Sc4 Cu1 Si4 Tc3'
_cell_volume   193.31306838
_cell_formula_units_Z   1
loop_
 _symmetry_equiv_pos_site_id
 _symmetry_equiv_pos_as_xyz
  1  'x, y, z'
loop_
 _atom_site_type_symbol
 _atom_site_label
 _atom_site_symmetry_multiplicity
 _atom_site_fract_x
 _atom_site_fract_y
 _atom_site_fract_z
 _atom_site_occupancy
  Sc  Sc0  1  0.750000  0.967057  0.174751  1
  Sc  Sc1  1  0.250000  0.039136  0.828504  1
  Sc  Sc2  1  0.750000  0.464679  0.328278  1
  Sc  Sc3  1  0.250000  0.534350  0.669250  1
  Cu  Cu4  1  0.750000  0.856425  0.571430  1
  Si  Si5  1  0.250000  0.276823  0.129854  1
  Si  Si6  1  0.750000  0.727706  0.874269  1
  Si  Si7  1  0.250000  0.770577  0.374693  1
  Si  Si8  1  0.750000  0.229854  0.624294  1
  Tc  Tc9  1  0.250000  0.643524  0.070516  1
  Tc  Tc10  1  0.750000  0.355667  0.923591  1
  Tc  Tc11  1  0.250000  0.134203  0.430571  1
