# generated using pymatgen
data_TbTm2Mn8CoP6
_symmetry_space_group_name_H-M   'P 1'
_cell_length_a   3.62076600
_cell_length_b   10.85180400
_cell_length_c   12.60255100
_cell_angle_alpha   90.00000000
_cell_angle_beta   90.00000000
_cell_angle_gamma   90.00000000
_symmetry_Int_Tables_number   1
_chemical_formula_structural   TbTm2Mn8CoP6
_chemical_formula_sum   'Tb2 Tm4 Mn16 Co2 P12'
_cell_volume   495.17745481
_cell_formula_units_Z   2
loop_
 _symmetry_equiv_pos_site_id
 _symmetry_equiv_pos_as_xyz
  1  'x, y, z'
loop_
 _atom_site_type_symbol
 _atom_site_label
 _atom_site_symmetry_multiplicity
 _atom_site_fract_x
 _atom_site_fract_y
 _atom_site_fract_z
 _atom_site_occupancy
  Tb  Tb0  1  0.000000  0.500000  0.531845  1
  Tb  Tb1  1  0.500000  0.000000  0.468155  1
  Tm  Tm2  1  0.500000  0.823209  0.206713  1
  Tm  Tm3  1  0.500000  0.176791  0.206713  1
  Tm  Tm4  1  0.000000  0.676791  0.793287  1
  Tm  Tm5  1  0.000000  0.323209  0.793287  1
  Mn  Mn6  1  0.500000  0.500000  0.165373  1
  Mn  Mn7  1  0.000000  0.000000  0.834627  1
  Mn  Mn8  1  0.000000  0.500000  0.992506  1
  Mn  Mn9  1  0.500000  0.000000  0.007494  1
  Mn  Mn10  1  0.500000  0.332724  0.996635  1
  Mn  Mn11  1  0.500000  0.667276  0.996635  1
  Mn  Mn12  1  0.000000  0.167276  0.003365  1
  Mn  Mn13  1  0.000000  0.832724  0.003365  1
  Mn  Mn14  1  0.500000  0.297945  0.432103  1
  Mn  Mn15  1  0.500000  0.702055  0.432103  1
  Mn  Mn16  1  0.000000  0.202055  0.567897  1
  Mn  Mn17  1  0.000000  0.797945  0.567897  1
  Mn  Mn18  1  0.500000  0.880496  0.703006  1
  Mn  Mn19  1  0.500000  0.119504  0.703006  1
  Mn  Mn20  1  0.000000  0.619504  0.296994  1
  Mn  Mn21  1  0.000000  0.380496  0.296994  1
  Co  Co22  1  0.500000  0.500000  0.706214  1
  Co  Co23  1  0.000000  0.000000  0.293786  1
  P  P24  1  0.500000  0.500000  0.879955  1
  P  P25  1  0.000000  0.000000  0.120045  1
  P  P26  1  0.500000  0.500000  0.358332  1
  P  P27  1  0.000000  0.000000  0.641668  1
  P  P28  1  0.500000  0.318104  0.619606  1
  P  P29  1  0.500000  0.681896  0.619606  1
  P  P30  1  0.000000  0.181896  0.380394  1
  P  P31  1  0.000000  0.818104  0.380394  1
  P  P32  1  0.500000  0.844462  0.884512  1
  P  P33  1  0.500000  0.155538  0.884512  1
  P  P34  1  0.000000  0.655538  0.115488  1
  P  P35  1  0.000000  0.344462  0.115488  1
