# generated using pymatgen
data_Er3In4RuPt
_symmetry_space_group_name_H-M   'P 1'
_cell_length_a   7.97570800
_cell_length_b   7.97570822
_cell_length_c   3.70334800
_cell_angle_alpha   90.00000000
_cell_angle_beta   90.00000000
_cell_angle_gamma   119.99999907
_symmetry_Int_Tables_number   1
_chemical_formula_structural   Er3In4RuPt
_chemical_formula_sum   'Er3 In4 Ru1 Pt1'
_cell_volume   204.01573453
_cell_formula_units_Z   1
loop_
 _symmetry_equiv_pos_site_id
 _symmetry_equiv_pos_as_xyz
  1  'x, y, z'
loop_
 _atom_site_type_symbol
 _atom_site_label
 _atom_site_symmetry_multiplicity
 _atom_site_fract_x
 _atom_site_fract_y
 _atom_site_fract_z
 _atom_site_occupancy
  Er  Er0  1  0.699868  0.958389  0.500000  1
  Er  Er1  1  0.258520  0.300132  0.500000  1
  Er  Er2  1  0.041611  0.741480  0.500000  1
  In  In3  1  0.929628  0.339706  0.000000  1
  In  In4  1  0.410079  0.070372  0.000000  1
  In  In5  1  0.660294  0.589921  0.000000  1
  In  In6  1  0.333333  0.666667  0.000000  1
  Ru  Ru7  1  0.666667  0.333333  0.500000  1
  Pt  Pt8  1  0.000000  0.000000  0.000000  1
