# generated using pymatgen
data_Eu4Ga4Ir3Pd
_symmetry_space_group_name_H-M   'P 1'
_cell_length_a   7.28496083
_cell_length_b   4.48999700
_cell_length_c   7.64066517
_cell_angle_alpha   90.00000000
_cell_angle_beta   89.99993966
_cell_angle_gamma   90.00000000
_symmetry_Int_Tables_number   1
_chemical_formula_structural   Eu4Ga4Ir3Pd
_chemical_formula_sum   'Eu4 Ga4 Ir3 Pd1'
_cell_volume   249.92197261
_cell_formula_units_Z   1
loop_
 _symmetry_equiv_pos_site_id
 _symmetry_equiv_pos_as_xyz
  1  'x, y, z'
loop_
 _atom_site_type_symbol
 _atom_site_label
 _atom_site_symmetry_multiplicity
 _atom_site_fract_x
 _atom_site_fract_y
 _atom_site_fract_z
 _atom_site_occupancy
  Eu  Eu0  1  0.991017  0.250001  0.193615  1
  Eu  Eu1  1  0.485470  0.250001  0.310063  1
  Eu  Eu2  1  0.509499  0.750000  0.687726  1
  Eu  Eu3  1  0.016037  0.750000  0.808326  1
  Ga  Ga4  1  0.667295  0.750000  0.087870  1
  Ga  Ga5  1  0.169604  0.750000  0.417392  1
  Ga  Ga6  1  0.833686  0.250001  0.575494  1
  Ga  Ga7  1  0.323511  0.250001  0.919295  1
  Ir  Ir8  1  0.304102  0.750000  0.095771  1
  Ir  Ir9  1  0.803218  0.750000  0.402709  1
  Ir  Ir10  1  0.199967  0.250001  0.597851  1
  Pd  Pd11  1  0.696593  0.250001  0.903881  1
