# generated using pymatgen
data_Th2Sc3(Hg2Rh)2
_symmetry_space_group_name_H-M   'P 1'
_cell_length_a   3.65229300
_cell_length_b   7.81024900
_cell_length_c   17.50844600
_cell_angle_alpha   90.00000000
_cell_angle_beta   90.00000000
_cell_angle_gamma   90.00000000
_symmetry_Int_Tables_number   1
_chemical_formula_structural   Th2Sc3(Hg2Rh)2
_chemical_formula_sum   'Th4 Sc6 Hg8 Rh4'
_cell_volume   499.43398548
_cell_formula_units_Z   2
loop_
 _symmetry_equiv_pos_site_id
 _symmetry_equiv_pos_as_xyz
  1  'x, y, z'
loop_
 _atom_site_type_symbol
 _atom_site_label
 _atom_site_symmetry_multiplicity
 _atom_site_fract_x
 _atom_site_fract_y
 _atom_site_fract_z
 _atom_site_occupancy
  Th  Th0  1  0.000000  0.766233  0.783941  1
  Th  Th1  1  0.000000  0.233767  0.216059  1
  Th  Th2  1  0.000000  0.266233  0.716059  1
  Th  Th3  1  0.000000  0.733767  0.283941  1
  Sc  Sc4  1  0.000000  0.000000  0.000000  1
  Sc  Sc5  1  0.000000  0.500000  0.500000  1
  Sc  Sc6  1  0.000000  0.892049  0.585030  1
  Sc  Sc7  1  0.000000  0.107951  0.414970  1
  Sc  Sc8  1  0.000000  0.392049  0.914970  1
  Sc  Sc9  1  0.000000  0.607951  0.085030  1
  Hg  Hg10  1  0.500000  0.793106  0.447974  1
  Hg  Hg11  1  0.500000  0.206894  0.552026  1
  Hg  Hg12  1  0.500000  0.293106  0.052026  1
  Hg  Hg13  1  0.500000  0.706894  0.947974  1
  Hg  Hg14  1  0.500000  0.908128  0.136603  1
  Hg  Hg15  1  0.500000  0.091872  0.863397  1
  Hg  Hg16  1  0.500000  0.408128  0.363397  1
  Hg  Hg17  1  0.500000  0.591872  0.636603  1
  Rh  Rh18  1  0.500000  0.979611  0.695802  1
  Rh  Rh19  1  0.500000  0.020389  0.304198  1
  Rh  Rh20  1  0.500000  0.479611  0.804198  1
  Rh  Rh21  1  0.500000  0.520389  0.195802  1
