# generated using pymatgen
data_Sc4Zn2B4RuRh9
_symmetry_space_group_name_H-M   'P 1'
_cell_length_a   9.39820842
_cell_length_b   3.04017300
_cell_length_c   9.39820842
_cell_angle_alpha   90.00000000
_cell_angle_beta   90.39707527
_cell_angle_gamma   90.00000000
_symmetry_Int_Tables_number   1
_chemical_formula_structural   Sc4Zn2B4RuRh9
_chemical_formula_sum   'Sc4 Zn2 B4 Ru1 Rh9'
_cell_volume   268.52084952
_cell_formula_units_Z   1
loop_
 _symmetry_equiv_pos_site_id
 _symmetry_equiv_pos_as_xyz
  1  'x, y, z'
loop_
 _atom_site_type_symbol
 _atom_site_label
 _atom_site_symmetry_multiplicity
 _atom_site_fract_x
 _atom_site_fract_y
 _atom_site_fract_z
 _atom_site_occupancy
  Sc  Sc0  1  0.672422  0.000000  0.172421  1
  Sc  Sc1  1  0.177685  0.000000  0.322314  1
  Sc  Sc2  1  0.822315  0.000000  0.677686  1
  Sc  Sc3  1  0.327578  0.000000  0.827579  1
  Zn  Zn4  1  0.000000  0.000000  0.000000  1
  Zn  Zn5  1  0.500000  0.000000  0.500000  1
  B  B6  1  0.377062  0.000000  0.122938  1
  B  B7  1  0.872263  0.000000  0.372262  1
  B  B8  1  0.127738  0.000000  0.627738  1
  B  B9  1  0.622938  0.000000  0.877063  1
  Ru  Ru10  1  0.500000  0.500001  0.000000  1
  Rh  Rh11  1  0.215989  0.500001  0.071759  1
  Rh  Rh12  1  0.929007  0.500001  0.217590  1
  Rh  Rh13  1  0.428241  0.500001  0.284010  1
  Rh  Rh14  1  0.717591  0.500001  0.429007  1
  Rh  Rh15  1  0.000000  0.500001  0.500000  1
  Rh  Rh16  1  0.282409  0.500001  0.570993  1
  Rh  Rh17  1  0.571759  0.500001  0.715990  1
  Rh  Rh18  1  0.070993  0.500001  0.782409  1
  Rh  Rh19  1  0.784010  0.500001  0.928241  1
