# generated using pymatgen
data_Lu2PaCo8P6W
_symmetry_space_group_name_H-M   'P 1'
_cell_length_a   3.69762500
_cell_length_b   10.52324800
_cell_length_c   12.14734600
_cell_angle_alpha   90.00000000
_cell_angle_beta   90.00000000
_cell_angle_gamma   90.00000000
_symmetry_Int_Tables_number   1
_chemical_formula_structural   Lu2PaCo8P6W
_chemical_formula_sum   'Lu4 Pa2 Co16 P12 W2'
_cell_volume   472.66568250
_cell_formula_units_Z   2
loop_
 _symmetry_equiv_pos_site_id
 _symmetry_equiv_pos_as_xyz
  1  'x, y, z'
loop_
 _atom_site_type_symbol
 _atom_site_label
 _atom_site_symmetry_multiplicity
 _atom_site_fract_x
 _atom_site_fract_y
 _atom_site_fract_z
 _atom_site_occupancy
  Lu  Lu0  1  0.500000  0.818844  0.204582  1
  Lu  Lu1  1  0.500000  0.181156  0.204582  1
  Lu  Lu2  1  0.000000  0.681156  0.795418  1
  Lu  Lu3  1  0.000000  0.318844  0.795418  1
  Pa  Pa4  1  0.000000  0.500000  0.532421  1
  Pa  Pa5  1  0.500000  0.000000  0.467579  1
  Co  Co6  1  0.500000  0.500000  0.697339  1
  Co  Co7  1  0.000000  0.000000  0.302661  1
  Co  Co8  1  0.000000  0.500000  0.986844  1
  Co  Co9  1  0.500000  0.000000  0.013156  1
  Co  Co10  1  0.500000  0.333081  0.989097  1
  Co  Co11  1  0.500000  0.666919  0.989097  1
  Co  Co12  1  0.000000  0.166919  0.010903  1
  Co  Co13  1  0.000000  0.833081  0.010903  1
  Co  Co14  1  0.500000  0.298998  0.433346  1
  Co  Co15  1  0.500000  0.701002  0.433346  1
  Co  Co16  1  0.000000  0.201002  0.566654  1
  Co  Co17  1  0.000000  0.798998  0.566654  1
  Co  Co18  1  0.500000  0.878709  0.708078  1
  Co  Co19  1  0.500000  0.121291  0.708078  1
  Co  Co20  1  0.000000  0.621291  0.291922  1
  Co  Co21  1  0.000000  0.378709  0.291922  1
  P  P22  1  0.500000  0.500000  0.877082  1
  P  P23  1  0.000000  0.000000  0.122918  1
  P  P24  1  0.500000  0.500000  0.350692  1
  P  P25  1  0.000000  0.000000  0.649308  1
  P  P26  1  0.500000  0.308270  0.618840  1
  P  P27  1  0.500000  0.691730  0.618840  1
  P  P28  1  0.000000  0.191730  0.381160  1
  P  P29  1  0.000000  0.808270  0.381160  1
  P  P30  1  0.500000  0.843023  0.892416  1
  P  P31  1  0.500000  0.156977  0.892416  1
  P  P32  1  0.000000  0.656977  0.107584  1
  P  P33  1  0.000000  0.343023  0.107584  1
  W  W34  1  0.500000  0.500000  0.155951  1
  W  W35  1  0.000000  0.000000  0.844049  1
