# generated using pymatgen
data_YbGaNi4
_symmetry_space_group_name_H-M   'P 1'
_cell_length_a   4.93115100
_cell_length_b   4.85856078
_cell_length_c   4.00879200
_cell_angle_alpha   90.00000000
_cell_angle_beta   90.00000000
_cell_angle_gamma   120.49548377
_symmetry_Int_Tables_number   1
_chemical_formula_structural   YbGaNi4
_chemical_formula_sum   'Yb1 Ga1 Ni4'
_cell_volume   82.75800551
_cell_formula_units_Z   1
loop_
 _symmetry_equiv_pos_site_id
 _symmetry_equiv_pos_as_xyz
  1  'x, y, z'
loop_
 _atom_site_type_symbol
 _atom_site_label
 _atom_site_symmetry_multiplicity
 _atom_site_fract_x
 _atom_site_fract_y
 _atom_site_fract_z
 _atom_site_occupancy
  Yb  Yb0  1  0.000000  0.000000  0.000000  1
  Ga  Ga1  1  0.500000  0.000000  0.500000  1
  Ni  Ni2  1  0.326622  0.653245  0.000000  1
  Ni  Ni3  1  0.673378  0.346755  0.000000  1
  Ni  Ni4  1  0.500000  0.500000  0.500000  1
  Ni  Ni5  1  0.000000  0.500000  0.500000  1
