# generated using pymatgen
data_V12Si2IrPt
_symmetry_space_group_name_H-M   'P 1'
_cell_length_a   4.74963300
_cell_length_b   4.74961800
_cell_length_c   9.50886100
_cell_angle_alpha   90.00000000
_cell_angle_beta   90.00000000
_cell_angle_gamma   90.00000000
_symmetry_Int_Tables_number   1
_chemical_formula_structural   V12Si2IrPt
_chemical_formula_sum   'V12 Si2 Ir1 Pt1'
_cell_volume   214.50984750
_cell_formula_units_Z   1
loop_
 _symmetry_equiv_pos_site_id
 _symmetry_equiv_pos_as_xyz
  1  'x, y, z'
loop_
 _atom_site_type_symbol
 _atom_site_label
 _atom_site_symmetry_multiplicity
 _atom_site_fract_x
 _atom_site_fract_y
 _atom_site_fract_z
 _atom_site_occupancy
  V  V0  1  0.000000  0.500000  0.121743  1
  V  V1  1  0.000000  0.500000  0.628973  1
  V  V2  1  0.500000  0.248771  0.744516  1
  V  V3  1  0.500000  0.247517  0.254548  1
  V  V4  1  0.751759  0.000000  0.003656  1
  V  V5  1  0.749443  0.000000  0.497449  1
  V  V6  1  0.000000  0.500000  0.873211  1
  V  V7  1  0.000000  0.500000  0.375327  1
  V  V8  1  0.500000  0.751229  0.744516  1
  V  V9  1  0.500000  0.752483  0.254548  1
  V  V10  1  0.248241  0.000000  0.003656  1
  V  V11  1  0.250557  0.000000  0.497449  1
  Si  Si12  1  0.500000  0.500000  0.498903  1
  Si  Si13  1  0.000000  0.000000  0.251246  1
  Ir  Ir14  1  0.000000  0.000000  0.750805  1
  Pt  Pt15  1  0.500000  0.500000  0.999455  1
