# generated using pymatgen
data_TbEr3LuPd15
_symmetry_space_group_name_H-M   'P 1'
_cell_length_a   4.12430400
_cell_length_b   4.12430400
_cell_length_c   20.66689200
_cell_angle_alpha   90.00000000
_cell_angle_beta   90.00000000
_cell_angle_gamma   90.00000000
_symmetry_Int_Tables_number   1
_chemical_formula_structural   TbEr3LuPd15
_chemical_formula_sum   'Tb1 Er3 Lu1 Pd15'
_cell_volume   351.54142491
_cell_formula_units_Z   1
loop_
 _symmetry_equiv_pos_site_id
 _symmetry_equiv_pos_as_xyz
  1  'x, y, z'
loop_
 _atom_site_type_symbol
 _atom_site_label
 _atom_site_symmetry_multiplicity
 _atom_site_fract_x
 _atom_site_fract_y
 _atom_site_fract_z
 _atom_site_occupancy
  Tb  Tb0  1  0.000000  0.000000  0.000172  1
  Er  Er1  1  0.000000  0.000000  0.200880  1
  Er  Er2  1  0.000000  0.000000  0.400015  1
  Er  Er3  1  0.000000  0.000000  0.599899  1
  Lu  Lu4  1  0.000000  0.000000  0.799033  1
  Pd  Pd5  1  0.500000  0.500000  0.000531  1
  Pd  Pd6  1  0.500000  0.500000  0.200402  1
  Pd  Pd7  1  0.500000  0.500000  0.399981  1
  Pd  Pd8  1  0.500000  0.500000  0.599492  1
  Pd  Pd9  1  0.500000  0.500000  0.799619  1
  Pd  Pd10  1  0.500000  0.000000  0.101490  1
  Pd  Pd11  1  0.500000  0.000000  0.300172  1
  Pd  Pd12  1  0.500000  0.000000  0.499798  1
  Pd  Pd13  1  0.500000  0.000000  0.699796  1
  Pd  Pd14  1  0.500000  0.000000  0.898733  1
  Pd  Pd15  1  0.000000  0.500000  0.101490  1
  Pd  Pd16  1  0.000000  0.500000  0.300172  1
  Pd  Pd17  1  0.000000  0.500000  0.499798  1
  Pd  Pd18  1  0.000000  0.500000  0.699796  1
  Pd  Pd19  1  0.000000  0.500000  0.898733  1
