# generated using pymatgen
data_Y2Tm2C7
_symmetry_space_group_name_H-M   'P 1'
_cell_length_a   3.68030236
_cell_length_b   13.72112402
_cell_length_c   6.43484873
_cell_angle_alpha   90.00705434
_cell_angle_beta   105.40733183
_cell_angle_gamma   89.99813393
_symmetry_Int_Tables_number   1
_chemical_formula_structural   Y2Tm2C7
_chemical_formula_sum   'Y4 Tm4 C14'
_cell_volume   313.26814077
_cell_formula_units_Z   2
loop_
 _symmetry_equiv_pos_site_id
 _symmetry_equiv_pos_as_xyz
  1  'x, y, z'
loop_
 _atom_site_type_symbol
 _atom_site_label
 _atom_site_symmetry_multiplicity
 _atom_site_fract_x
 _atom_site_fract_y
 _atom_site_fract_z
 _atom_site_occupancy
  Y  Y0  1  0.366917  0.444282  0.238555  1
  Y  Y1  1  0.633012  0.944260  0.261419  1
  Y  Y2  1  0.633092  0.555711  0.761448  1
  Y  Y3  1  0.366983  0.055733  0.738583  1
  Tm  Tm4  1  0.056745  0.160798  0.160756  1
  Tm  Tm5  1  0.943235  0.660730  0.339257  1
  Tm  Tm6  1  0.943251  0.839196  0.839243  1
  Tm  Tm7  1  0.056761  0.339263  0.660748  1
  C  C8  1  0.461354  0.283703  0.431043  1
  C  C9  1  0.538615  0.783641  0.068972  1
  C  C10  1  0.538633  0.716302  0.568945  1
  C  C11  1  0.461388  0.216360  0.931025  1
  C  C12  1  0.377718  0.696639  0.044737  1
  C  C13  1  0.622286  0.196684  0.455278  1
  C  C14  1  0.622291  0.303363  0.955264  1
  C  C15  1  0.377705  0.803322  0.544715  1
  C  C16  1  0.264621  0.604798  0.054736  1
  C  C17  1  0.735351  0.104847  0.445272  1
  C  C18  1  0.735361  0.395206  0.945252  1
  C  C19  1  0.264678  0.895158  0.554745  1
  C  C20  1  0.999993  0.000003  0.000008  1
  C  C21  1  0.000005  0.500001  0.499998  1
