# generated using pymatgen
data_Ca2NdNp5H24
_symmetry_space_group_name_H-M   'P 1'
_cell_length_a   6.62871000
_cell_length_b   6.64550200
_cell_length_c   6.63978500
_cell_angle_alpha   90.00000000
_cell_angle_beta   90.00000000
_cell_angle_gamma   90.00000000
_symmetry_Int_Tables_number   1
_chemical_formula_structural   Ca2NdNp5H24
_chemical_formula_sum   'Ca2 Nd1 Np5 H24'
_cell_volume   292.48986995
_cell_formula_units_Z   1
loop_
 _symmetry_equiv_pos_site_id
 _symmetry_equiv_pos_as_xyz
  1  'x, y, z'
loop_
 _atom_site_type_symbol
 _atom_site_label
 _atom_site_symmetry_multiplicity
 _atom_site_fract_x
 _atom_site_fract_y
 _atom_site_fract_z
 _atom_site_occupancy
  Ca  Ca0  1  0.250892  0.000000  0.500000  1
  Ca  Ca1  1  0.749108  0.000000  0.500000  1
  Nd  Nd2  1  0.500000  0.500000  0.500000  1
  Np  Np3  1  0.000000  0.000000  0.000000  1
  Np  Np4  1  0.000000  0.500000  0.250009  1
  Np  Np5  1  0.000000  0.500000  0.749991  1
  Np  Np6  1  0.500000  0.753481  0.000000  1
  Np  Np7  1  0.500000  0.246519  0.000000  1
  H  H8  1  0.000000  0.162132  0.285273  1
  H  H9  1  0.500000  0.201992  0.668636  1
  H  H10  1  0.500000  0.798008  0.331364  1
  H  H11  1  0.825744  0.649588  0.500000  1
  H  H12  1  0.174256  0.649588  0.500000  1
  H  H13  1  0.341998  0.500000  0.815803  1
  H  H14  1  0.658002  0.500000  0.815803  1
  H  H15  1  0.308222  0.000000  0.146349  1
  H  H16  1  0.154616  0.301345  0.000000  1
  H  H17  1  0.845384  0.698655  0.000000  1
  H  H18  1  0.308222  0.000000  0.853651  1
  H  H19  1  0.845384  0.301345  0.000000  1
  H  H20  1  0.691778  0.000000  0.146349  1
  H  H21  1  0.691778  0.000000  0.853651  1
  H  H22  1  0.154616  0.698655  0.000000  1
  H  H23  1  0.000000  0.837868  0.714727  1
  H  H24  1  0.000000  0.162132  0.714727  1
  H  H25  1  0.000000  0.837868  0.285273  1
  H  H26  1  0.658002  0.500000  0.184197  1
  H  H27  1  0.341998  0.500000  0.184197  1
  H  H28  1  0.825744  0.350412  0.500000  1
  H  H29  1  0.174256  0.350412  0.500000  1
  H  H30  1  0.500000  0.798008  0.668636  1
  H  H31  1  0.500000  0.201992  0.331364  1
