# generated using pymatgen
data_Er4Al18FePd5
_symmetry_space_group_name_H-M   'P 1'
_cell_length_a   7.58459747
_cell_length_b   7.58459848
_cell_length_c   9.41950280
_cell_angle_alpha   90.09243695
_cell_angle_beta   90.09244173
_cell_angle_gamma   119.69762231
_symmetry_Int_Tables_number   1
_chemical_formula_structural   Er4Al18FePd5
_chemical_formula_sum   'Er4 Al18 Fe1 Pd5'
_cell_volume   470.69190721
_cell_formula_units_Z   1
loop_
 _symmetry_equiv_pos_site_id
 _symmetry_equiv_pos_as_xyz
  1  'x, y, z'
loop_
 _atom_site_type_symbol
 _atom_site_label
 _atom_site_symmetry_multiplicity
 _atom_site_fract_x
 _atom_site_fract_y
 _atom_site_fract_z
 _atom_site_occupancy
  Er  Er0  1  0.993949  0.666876  0.248844  1
  Er  Er1  1  0.006051  0.333124  0.751156  1
  Er  Er2  1  0.666876  0.993949  0.248844  1
  Er  Er3  1  0.333124  0.006051  0.751156  1
  Al  Al4  1  0.120765  0.120765  0.241352  1
  Al  Al5  1  0.879235  0.879235  0.758648  1
  Al  Al6  1  0.997786  0.323676  0.073352  1
  Al  Al7  1  0.002214  0.676324  0.926648  1
  Al  Al8  1  0.999341  0.666253  0.579232  1
  Al  Al9  1  0.333747  0.000659  0.420768  1
  Al  Al10  1  0.000659  0.333747  0.420768  1
  Al  Al11  1  0.666253  0.999341  0.579232  1
  Al  Al12  1  0.676324  0.002214  0.926648  1
  Al  Al13  1  0.323676  0.997786  0.073352  1
  Al  Al14  1  0.333853  0.333853  0.559794  1
  Al  Al15  1  0.666147  0.666148  0.440206  1
  Al  Al16  1  0.678522  0.678523  0.052437  1
  Al  Al17  1  0.321478  0.321478  0.947563  1
  Al  Al18  1  0.339723  0.545968  0.248129  1
  Al  Al19  1  0.660277  0.454032  0.751871  1
  Al  Al20  1  0.545968  0.339723  0.248129  1
  Al  Al21  1  0.454032  0.660277  0.751871  1
  Fe  Fe22  1  0.000000  0.000000  0.000000  1
  Pd  Pd23  1  0.672350  0.327650  0.000000  1
  Pd  Pd24  1  0.327650  0.672350  0.000000  1
  Pd  Pd25  1  0.327328  0.672672  0.500000  1
  Pd  Pd26  1  0.672672  0.327328  0.500000  1
  Pd  Pd27  1  0.000000  0.000000  0.500000  1
