# generated using pymatgen
data_TaCrOF5
_symmetry_space_group_name_H-M   'P 1'
_cell_length_a   5.67008196
_cell_length_b   5.70116800
_cell_length_c   5.61241683
_cell_angle_alpha   117.62751170
_cell_angle_beta   118.31634048
_cell_angle_gamma   92.85540545
_symmetry_Int_Tables_number   1
_chemical_formula_structural   TaCrOF5
_chemical_formula_sum   'Ta1 Cr1 O1 F5'
_cell_volume   132.77319269
_cell_formula_units_Z   1
loop_
 _symmetry_equiv_pos_site_id
 _symmetry_equiv_pos_as_xyz
  1  'x, y, z'
loop_
 _atom_site_type_symbol
 _atom_site_label
 _atom_site_symmetry_multiplicity
 _atom_site_fract_x
 _atom_site_fract_y
 _atom_site_fract_z
 _atom_site_occupancy
  Ta  Ta0  1  0.683085  0.995632  0.321780  1
  Cr  Cr1  1  0.158955  0.473923  0.319180  1
  O  O2  1  0.946631  0.222584  0.360157  1
  F  F3  1  0.365991  0.728009  0.270757  1
  F  F4  1  0.406768  0.189837  0.239820  1
  F  F5  1  0.481434  0.726481  0.850002  1
  F  F6  1  0.894866  0.746103  0.388463  1
  F  F7  1  0.823426  0.212666  0.783318  1
