# generated using pymatgen
data_LiYb4Ru
_symmetry_space_group_name_H-M   'P 1'
_cell_length_a   9.87547406
_cell_length_b   9.87547294
_cell_length_c   9.87547400
_cell_angle_alpha   60.00000316
_cell_angle_beta   60.00000689
_cell_angle_gamma   60.00000087
_symmetry_Int_Tables_number   1
_chemical_formula_structural   LiYb4Ru
_chemical_formula_sum   'Li4 Yb16 Ru4'
_cell_volume   681.01839660
_cell_formula_units_Z   4
loop_
 _symmetry_equiv_pos_site_id
 _symmetry_equiv_pos_as_xyz
  1  'x, y, z'
loop_
 _atom_site_type_symbol
 _atom_site_label
 _atom_site_symmetry_multiplicity
 _atom_site_fract_x
 _atom_site_fract_y
 _atom_site_fract_z
 _atom_site_occupancy
  Li  Li0  1  0.673344  0.673344  0.979966  1
  Li  Li1  1  0.979966  0.673344  0.673344  1
  Li  Li2  1  0.673344  0.979966  0.673344  1
  Li  Li3  1  0.673344  0.673344  0.673344  1
  Yb  Yb4  1  0.910537  0.910537  0.910537  1
  Yb  Yb5  1  0.437643  0.437643  0.062357  1
  Yb  Yb6  1  0.062357  0.062357  0.437643  1
  Yb  Yb7  1  0.437643  0.062357  0.062357  1
  Yb  Yb8  1  0.291904  0.708096  0.291904  1
  Yb  Yb9  1  0.708096  0.708096  0.291904  1
  Yb  Yb10  1  0.708096  0.291904  0.291904  1
  Yb  Yb11  1  0.268391  0.910537  0.910537  1
  Yb  Yb12  1  0.910537  0.268391  0.910537  1
  Yb  Yb13  1  0.291904  0.708096  0.708096  1
  Yb  Yb14  1  0.910537  0.910537  0.268391  1
  Yb  Yb15  1  0.062357  0.437643  0.062357  1
  Yb  Yb16  1  0.291904  0.291904  0.708096  1
  Yb  Yb17  1  0.062357  0.437643  0.437643  1
  Yb  Yb18  1  0.437643  0.062357  0.437643  1
  Yb  Yb19  1  0.708096  0.291904  0.708096  1
  Ru  Ru20  1  0.115230  0.115230  0.654310  1
  Ru  Ru21  1  0.115230  0.115230  0.115230  1
  Ru  Ru22  1  0.115230  0.654310  0.115230  1
  Ru  Ru23  1  0.654310  0.115230  0.115230  1
