# generated using pymatgen
data_Ho4Er12MgCo4Ag3
_symmetry_space_group_name_H-M   'P 1'
_cell_length_a   9.37520624
_cell_length_b   9.38358057
_cell_length_c   9.38358100
_cell_angle_alpha   60.00000201
_cell_angle_beta   59.97044941
_cell_angle_gamma   59.97044205
_symmetry_Int_Tables_number   1
_chemical_formula_structural   Ho4Er12MgCo4Ag3
_chemical_formula_sum   'Ho4 Er12 Mg1 Co4 Ag3'
_cell_volume   583.45704013
_cell_formula_units_Z   1
loop_
 _symmetry_equiv_pos_site_id
 _symmetry_equiv_pos_as_xyz
  1  'x, y, z'
loop_
 _atom_site_type_symbol
 _atom_site_label
 _atom_site_symmetry_multiplicity
 _atom_site_fract_x
 _atom_site_fract_y
 _atom_site_fract_z
 _atom_site_occupancy
  Ho  Ho0  1  0.596784  0.595839  0.595839  1
  Ho  Ho1  1  0.596784  0.595839  0.211537  1
  Ho  Ho2  1  0.596784  0.211537  0.595839  1
  Ho  Ho3  1  0.203000  0.599000  0.599000  1
  Er  Er4  1  0.060023  0.439003  0.439003  1
  Er  Er5  1  0.435994  0.063656  0.063656  1
  Er  Er6  1  0.435994  0.063656  0.436692  1
  Er  Er7  1  0.060023  0.439003  0.061972  1
  Er  Er8  1  0.435994  0.436692  0.063656  1
  Er  Er9  1  0.060023  0.061972  0.439003  1
  Er  Er10  1  0.184174  0.813157  0.813157  1
  Er  Er11  1  0.812391  0.187004  0.187004  1
  Er  Er12  1  0.812391  0.187004  0.813601  1
  Er  Er13  1  0.184174  0.813157  0.189513  1
  Er  Er14  1  0.812391  0.813601  0.187004  1
  Er  Er15  1  0.184174  0.189513  0.813157  1
  Mg  Mg16  1  0.535847  0.821384  0.821384  1
  Co  Co17  1  0.388943  0.391787  0.391787  1
  Co  Co18  1  0.388943  0.391787  0.827485  1
  Co  Co19  1  0.388943  0.827485  0.391787  1
  Co  Co20  1  0.827109  0.390964  0.390964  1
  Ag  Ag21  1  0.833040  0.832582  0.832582  1
  Ag  Ag22  1  0.833040  0.832582  0.501796  1
  Ag  Ag23  1  0.833040  0.501796  0.832582  1
