# generated using pymatgen
data_Tb11Ho9Co2Bi8OsRu
_symmetry_space_group_name_H-M   'P 1'
_cell_length_a   7.99580586
_cell_length_b   8.94402500
_cell_length_c   12.45695200
_cell_angle_alpha   90.00000000
_cell_angle_beta   89.73140599
_cell_angle_gamma   90.00000000
_symmetry_Int_Tables_number   1
_chemical_formula_structural   Tb11Ho9Co2Bi8OsRu
_chemical_formula_sum   'Tb11 Ho9 Co2 Bi8 Os1 Ru1'
_cell_volume   890.84524062
_cell_formula_units_Z   1
loop_
 _symmetry_equiv_pos_site_id
 _symmetry_equiv_pos_as_xyz
  1  'x, y, z'
loop_
 _atom_site_type_symbol
 _atom_site_label
 _atom_site_symmetry_multiplicity
 _atom_site_fract_x
 _atom_site_fract_y
 _atom_site_fract_z
 _atom_site_occupancy
  Tb  Tb0  1  0.345043  0.750000  0.706245  1
  Tb  Tb1  1  0.652387  0.250000  0.300595  1
  Tb  Tb2  1  0.848182  0.250000  0.800711  1
  Tb  Tb3  1  0.155099  0.750000  0.206289  1
  Tb  Tb4  1  0.880691  0.750000  0.806250  1
  Tb  Tb5  1  0.115476  0.250000  0.188649  1
  Tb  Tb6  1  0.384238  0.250000  0.688374  1
  Tb  Tb7  1  0.618817  0.750000  0.308599  1
  Tb  Tb8  1  0.050273  0.750000  0.497322  1
  Tb  Tb9  1  0.947151  0.250000  0.502928  1
  Tb  Tb10  1  0.554464  0.250000  0.003514  1
  Ho  Ho11  1  0.675838  0.535499  0.563954  1
  Ho  Ho12  1  0.324716  0.457797  0.436150  1
  Ho  Ho13  1  0.175587  0.458107  0.935927  1
  Ho  Ho14  1  0.324716  0.042203  0.436150  1
  Ho  Ho15  1  0.824762  0.538077  0.063445  1
  Ho  Ho16  1  0.675838  0.964501  0.563954  1
  Ho  Ho17  1  0.824762  0.961923  0.063445  1
  Ho  Ho18  1  0.175587  0.041893  0.935927  1
  Ho  Ho19  1  0.444522  0.750000  0.996490  1
  Co  Co20  1  0.931639  0.250000  0.008693  1
  Co  Co21  1  0.565552  0.250000  0.508057  1
  Bi  Bi22  1  0.572098  0.508112  0.826851  1
  Bi  Bi23  1  0.429696  0.491718  0.172516  1
  Bi  Bi24  1  0.071886  0.490460  0.672274  1
  Bi  Bi25  1  0.429696  0.008282  0.172516  1
  Bi  Bi26  1  0.927015  0.508208  0.326789  1
  Bi  Bi27  1  0.572098  0.991888  0.826851  1
  Bi  Bi28  1  0.927015  0.991792  0.326789  1
  Bi  Bi29  1  0.071886  0.009540  0.672274  1
  Os  Os30  1  0.072530  0.750000  0.990012  1
  Ru  Ru31  1  0.430740  0.750000  0.491457  1
