# generated using pymatgen
data_Dy8Ta9Ti2Si16W
_symmetry_space_group_name_H-M   'P 1'
_cell_length_a   7.03145774
_cell_length_b   7.03145667
_cell_length_c   12.96697914
_cell_angle_alpha   89.97806441
_cell_angle_beta   90.02193613
_cell_angle_gamma   89.99643301
_symmetry_Int_Tables_number   1
_chemical_formula_structural   Dy8Ta9Ti2Si16W
_chemical_formula_sum   'Dy8 Ta9 Ti2 Si16 W1'
_cell_volume   641.10538304
_cell_formula_units_Z   1
loop_
 _symmetry_equiv_pos_site_id
 _symmetry_equiv_pos_as_xyz
  1  'x, y, z'
loop_
 _atom_site_type_symbol
 _atom_site_label
 _atom_site_symmetry_multiplicity
 _atom_site_fract_x
 _atom_site_fract_y
 _atom_site_fract_z
 _atom_site_occupancy
  Dy  Dy0  1  0.999129  0.657175  0.032000  1
  Dy  Dy1  1  0.001935  0.341332  0.531767  1
  Dy  Dy2  1  0.657175  0.999129  0.968000  1
  Dy  Dy3  1  0.159771  0.502329  0.782806  1
  Dy  Dy4  1  0.841318  0.497467  0.281614  1
  Dy  Dy5  1  0.502329  0.159771  0.217194  1
  Dy  Dy6  1  0.497467  0.841318  0.718386  1
  Dy  Dy7  1  0.341332  0.001935  0.468233  1
  Ta  Ta8  1  0.346331  0.508193  0.375547  1
  Ta  Ta9  1  0.847858  0.992938  0.374632  1
  Ta  Ta10  1  0.007988  0.152718  0.125443  1
  Ta  Ta11  1  0.992938  0.847858  0.625368  1
  Ta  Ta12  1  0.508193  0.346331  0.624453  1
  Ta  Ta13  1  0.152718  0.007988  0.874557  1
  Ta  Ta14  1  0.671700  0.671700  0.500000  1
  Ta  Ta15  1  0.829708  0.170689  0.750621  1
  Ta  Ta16  1  0.170689  0.829708  0.249379  1
  Ti  Ti17  1  0.492758  0.652669  0.123283  1
  Ti  Ti18  1  0.652669  0.492758  0.876717  1
  Si  Si19  1  0.045438  0.705530  0.436029  1
  Si  Si20  1  0.953719  0.295017  0.935693  1
  Si  Si21  1  0.705530  0.045438  0.563971  1
  Si  Si22  1  0.208908  0.454250  0.184340  1
  Si  Si23  1  0.793882  0.545356  0.687227  1
  Si  Si24  1  0.454250  0.208908  0.815660  1
  Si  Si25  1  0.545356  0.793882  0.312773  1
  Si  Si26  1  0.295017  0.953719  0.064307  1
  Si  Si27  1  0.794780  0.865784  0.181825  1
  Si  Si28  1  0.296342  0.633793  0.568599  1
  Si  Si29  1  0.699557  0.369002  0.066625  1
  Si  Si30  1  0.633793  0.296342  0.431401  1
  Si  Si31  1  0.369002  0.699557  0.933375  1
  Si  Si32  1  0.133813  0.204131  0.317706  1
  Si  Si33  1  0.204131  0.133813  0.682294  1
  Si  Si34  1  0.865784  0.794780  0.818175  1
  W  W35  1  0.326695  0.326695  0.000000  1
