# generated using pymatgen
data_Zr5B4Ru10W
_symmetry_space_group_name_H-M   'P 1'
_cell_length_a   9.53282200
_cell_length_b   9.53282200
_cell_length_c   3.12204500
_cell_angle_alpha   90.00000000
_cell_angle_beta   90.00000000
_cell_angle_gamma   90.00000000
_symmetry_Int_Tables_number   1
_chemical_formula_structural   Zr5B4Ru10W
_chemical_formula_sum   'Zr5 B4 Ru10 W1'
_cell_volume   283.71488804
_cell_formula_units_Z   1
loop_
 _symmetry_equiv_pos_site_id
 _symmetry_equiv_pos_as_xyz
  1  'x, y, z'
loop_
 _atom_site_type_symbol
 _atom_site_label
 _atom_site_symmetry_multiplicity
 _atom_site_fract_x
 _atom_site_fract_y
 _atom_site_fract_z
 _atom_site_occupancy
  Zr  Zr0  1  0.824308  0.675854  0.000000  1
  Zr  Zr1  1  0.175692  0.324146  0.000000  1
  Zr  Zr2  1  0.324146  0.824308  0.000000  1
  Zr  Zr3  1  0.675854  0.175692  0.000000  1
  Zr  Zr4  1  0.500000  0.500000  0.000000  1
  B  B5  1  0.619512  0.877658  0.000000  1
  B  B6  1  0.380488  0.122342  0.000000  1
  B  B7  1  0.122342  0.619512  0.000000  1
  B  B8  1  0.877658  0.380488  0.000000  1
  Ru  Ru9  1  0.574950  0.723160  0.500000  1
  Ru  Ru10  1  0.425050  0.276840  0.500000  1
  Ru  Ru11  1  0.067073  0.785100  0.500000  1
  Ru  Ru12  1  0.932927  0.214900  0.500000  1
  Ru  Ru13  1  0.276840  0.574950  0.500000  1
  Ru  Ru14  1  0.723160  0.425050  0.500000  1
  Ru  Ru15  1  0.214900  0.067073  0.500000  1
  Ru  Ru16  1  0.785100  0.932927  0.500000  1
  Ru  Ru17  1  0.500000  0.000000  0.500000  1
  Ru  Ru18  1  0.000000  0.500000  0.500000  1
  W  W19  1  0.000000  0.000000  0.000000  1
