# generated using pymatgen
data_Ac3IrPt2Pb3
_symmetry_space_group_name_H-M   'P 1'
_cell_length_a   8.12178600
_cell_length_b   8.12178650
_cell_length_c   4.15275700
_cell_angle_alpha   90.00000000
_cell_angle_beta   90.00000000
_cell_angle_gamma   120.00000611
_symmetry_Int_Tables_number   1
_chemical_formula_structural   Ac3IrPt2Pb3
_chemical_formula_sum   'Ac3 Ir1 Pt2 Pb3'
_cell_volume   237.23034198
_cell_formula_units_Z   1
loop_
 _symmetry_equiv_pos_site_id
 _symmetry_equiv_pos_as_xyz
  1  'x, y, z'
loop_
 _atom_site_type_symbol
 _atom_site_label
 _atom_site_symmetry_multiplicity
 _atom_site_fract_x
 _atom_site_fract_y
 _atom_site_fract_z
 _atom_site_occupancy
  Ac  Ac0  1  0.588416  0.000000  0.000000  1
  Ac  Ac1  1  0.000000  0.588416  0.000000  1
  Ac  Ac2  1  0.411584  0.411584  0.000000  1
  Ir  Ir3  1  0.000000  0.000000  0.000000  1
  Pt  Pt4  1  0.333333  0.666667  0.500000  1
  Pt  Pt5  1  0.666667  0.333333  0.500000  1
  Pb  Pb6  1  0.245404  0.000000  0.500000  1
  Pb  Pb7  1  0.000000  0.245404  0.500000  1
  Pb  Pb8  1  0.754596  0.754596  0.500000  1
