# generated using pymatgen
data_DyCoH6
_symmetry_space_group_name_H-M   'P 1'
_cell_length_a   4.66185995
_cell_length_b   4.66317154
_cell_length_c   4.67370084
_cell_angle_alpha   120.04072523
_cell_angle_beta   90.04239575
_cell_angle_gamma   119.86618034
_symmetry_Int_Tables_number   1
_chemical_formula_structural   DyCoH6
_chemical_formula_sum   'Dy1 Co1 H6'
_cell_volume   71.91763688
_cell_formula_units_Z   1
loop_
 _symmetry_equiv_pos_site_id
 _symmetry_equiv_pos_as_xyz
  1  'x, y, z'
loop_
 _atom_site_type_symbol
 _atom_site_label
 _atom_site_symmetry_multiplicity
 _atom_site_fract_x
 _atom_site_fract_y
 _atom_site_fract_z
 _atom_site_occupancy
  Dy  Dy0  1  0.377716  0.033102  0.893348  1
  Co  Co1  1  0.127620  0.534601  0.144108  1
  H  H2  1  0.354101  0.525736  0.373880  1
  H  H3  1  0.896560  0.543391  0.377544  1
  H  H4  1  0.352039  0.524289  0.903872  1
  H  H5  1  0.892926  0.069248  0.911484  1
  H  H6  1  0.896033  0.545080  0.921363  1
  H  H7  1  0.372728  0.998595  0.376129  1
