# generated using pymatgen
data_La7Nd(ZrIr3)2
_symmetry_space_group_name_H-M   'P 1'
_cell_length_a   11.37633741
_cell_length_b   11.36434245
_cell_length_c   6.37753800
_cell_angle_alpha   90.00000000
_cell_angle_beta   90.00000000
_cell_angle_gamma   90.20064531
_symmetry_Int_Tables_number   1
_chemical_formula_structural   La7Nd(ZrIr3)2
_chemical_formula_sum   'La14 Nd2 Zr4 Ir12'
_cell_volume   824.51235631
_cell_formula_units_Z   2
loop_
 _symmetry_equiv_pos_site_id
 _symmetry_equiv_pos_as_xyz
  1  'x, y, z'
loop_
 _atom_site_type_symbol
 _atom_site_label
 _atom_site_symmetry_multiplicity
 _atom_site_fract_x
 _atom_site_fract_y
 _atom_site_fract_z
 _atom_site_occupancy
  La  La0  1  0.087771  0.287151  0.119893  1
  La  La1  1  0.786658  0.414009  0.120282  1
  La  La2  1  0.213342  0.585991  0.120282  1
  La  La3  1  0.912229  0.712849  0.119893  1
  La  La4  1  0.413213  0.786569  0.379932  1
  La  La5  1  0.586787  0.213431  0.379932  1
  La  La6  1  0.286412  0.087632  0.380475  1
  La  La7  1  0.713588  0.912368  0.380475  1
  La  La8  1  0.412580  0.213891  0.879340  1
  La  La9  1  0.713146  0.087150  0.879908  1
  La  La10  1  0.286854  0.912850  0.879908  1
  La  La11  1  0.587420  0.786109  0.879340  1
  La  La12  1  0.086426  0.711910  0.619978  1
  La  La13  1  0.913574  0.288090  0.619978  1
  Nd  Nd14  1  0.213260  0.413229  0.620542  1
  Nd  Nd15  1  0.786740  0.586771  0.620542  1
  Zr  Zr16  1  0.000000  0.000000  0.999914  1
  Zr  Zr17  1  0.500000  0.500000  0.999204  1
  Zr  Zr18  1  0.500000  0.500000  0.501046  1
  Zr  Zr19  1  0.000000  0.000000  0.500453  1
  Ir  Ir20  1  0.137867  0.862071  0.250141  1
  Ir  Ir21  1  0.362665  0.362165  0.249482  1
  Ir  Ir22  1  0.637335  0.637835  0.249482  1
  Ir  Ir23  1  0.862133  0.137929  0.250141  1
  Ir  Ir24  1  0.362055  0.637252  0.749482  1
  Ir  Ir25  1  0.138112  0.138263  0.749686  1
  Ir  Ir26  1  0.861888  0.861737  0.749686  1
  Ir  Ir27  1  0.637945  0.362748  0.749482  1
  Ir  Ir28  1  0.000000  0.500000  0.380297  1
  Ir  Ir29  1  0.500000  0.000000  0.120272  1
  Ir  Ir30  1  0.500000  0.000000  0.620120  1
  Ir  Ir31  1  0.000000  0.500000  0.880408  1
