# generated using pymatgen
data_Tb7Er9Cd4Ir3Ru
_symmetry_space_group_name_H-M   'P 1'
_cell_length_a   9.61871143
_cell_length_b   9.61871191
_cell_length_c   9.61781208
_cell_angle_alpha   59.73395963
_cell_angle_beta   59.73395146
_cell_angle_gamma   59.79554750
_symmetry_Int_Tables_number   1
_chemical_formula_structural   Tb7Er9Cd4Ir3Ru
_chemical_formula_sum   'Tb7 Er9 Cd4 Ir3 Ru1'
_cell_volume   625.70096277
_cell_formula_units_Z   1
loop_
 _symmetry_equiv_pos_site_id
 _symmetry_equiv_pos_as_xyz
  1  'x, y, z'
loop_
 _atom_site_type_symbol
 _atom_site_label
 _atom_site_symmetry_multiplicity
 _atom_site_fract_x
 _atom_site_fract_y
 _atom_site_fract_z
 _atom_site_occupancy
  Tb  Tb0  1  0.060590  0.060590  0.437311  1
  Tb  Tb1  1  0.189633  0.810487  0.811250  1
  Tb  Tb2  1  0.808688  0.189350  0.188756  1
  Tb  Tb3  1  0.810487  0.189633  0.811250  1
  Tb  Tb4  1  0.189350  0.808688  0.188756  1
  Tb  Tb5  1  0.810787  0.810787  0.189527  1
  Tb  Tb6  1  0.188940  0.188940  0.809142  1
  Er  Er7  1  0.598648  0.598648  0.598692  1
  Er  Er8  1  0.598192  0.598192  0.207389  1
  Er  Er9  1  0.597243  0.207967  0.598339  1
  Er  Er10  1  0.207967  0.597243  0.598339  1
  Er  Er11  1  0.062248  0.438781  0.438063  1
  Er  Er12  1  0.437986  0.060744  0.060148  1
  Er  Er13  1  0.438781  0.062248  0.438063  1
  Er  Er14  1  0.060744  0.437986  0.060148  1
  Er  Er15  1  0.438069  0.438069  0.062467  1
  Cd  Cd16  1  0.829517  0.829517  0.830165  1
  Cd  Cd17  1  0.830386  0.830386  0.507078  1
  Cd  Cd18  1  0.830557  0.507121  0.830569  1
  Cd  Cd19  1  0.507121  0.830557  0.830569  1
  Ir  Ir20  1  0.392990  0.392990  0.826771  1
  Ir  Ir21  1  0.394395  0.825701  0.393010  1
  Ir  Ir22  1  0.825701  0.394395  0.393010  1
  Ru  Ru23  1  0.390981  0.390981  0.391190  1
