# generated using pymatgen
data_Pr5GeBi2
_symmetry_space_group_name_H-M   'P 1'
_cell_length_a   12.76866300
_cell_length_b   9.51458000
_cell_length_c   8.38894200
_cell_angle_alpha   90.00000000
_cell_angle_beta   90.00000000
_cell_angle_gamma   90.00000000
_symmetry_Int_Tables_number   1
_chemical_formula_structural   Pr5GeBi2
_chemical_formula_sum   'Pr20 Ge4 Bi8'
_cell_volume   1019.15969164
_cell_formula_units_Z   4
loop_
 _symmetry_equiv_pos_site_id
 _symmetry_equiv_pos_as_xyz
  1  'x, y, z'
loop_
 _atom_site_type_symbol
 _atom_site_label
 _atom_site_symmetry_multiplicity
 _atom_site_fract_x
 _atom_site_fract_y
 _atom_site_fract_z
 _atom_site_occupancy
  Pr  Pr0  1  0.293458  0.250000  0.366874  1
  Pr  Pr1  1  0.206542  0.750000  0.866875  1
  Pr  Pr2  1  0.793457  0.250000  0.133126  1
  Pr  Pr3  1  0.706542  0.750000  0.633125  1
  Pr  Pr4  1  0.211805  0.250000  0.843794  1
  Pr  Pr5  1  0.288195  0.750000  0.343794  1
  Pr  Pr6  1  0.711805  0.250000  0.656206  1
  Pr  Pr7  1  0.788195  0.750000  0.156206  1
  Pr  Pr8  1  0.000369  0.250000  0.535708  1
  Pr  Pr9  1  0.499631  0.750000  0.035708  1
  Pr  Pr10  1  0.500368  0.250000  0.964292  1
  Pr  Pr11  1  0.999631  0.750000  0.464292  1
  Pr  Pr12  1  0.061962  0.046643  0.187637  1
  Pr  Pr13  1  0.438038  0.953357  0.687638  1
  Pr  Pr14  1  0.561962  0.453357  0.312363  1
  Pr  Pr15  1  0.938038  0.546643  0.812362  1
  Pr  Pr16  1  0.938038  0.953357  0.812362  1
  Pr  Pr17  1  0.561962  0.046643  0.312363  1
  Pr  Pr18  1  0.438038  0.546643  0.687638  1
  Pr  Pr19  1  0.061962  0.453357  0.187637  1
  Ge  Ge20  1  0.480769  0.250000  0.580944  1
  Ge  Ge21  1  0.019231  0.750000  0.080945  1
  Ge  Ge22  1  0.980769  0.250000  0.919056  1
  Ge  Ge23  1  0.519231  0.750000  0.419055  1
  Bi  Bi24  1  0.325442  0.008889  0.075210  1
  Bi  Bi25  1  0.174558  0.991110  0.575209  1
  Bi  Bi26  1  0.825443  0.491111  0.424790  1
  Bi  Bi27  1  0.674558  0.508890  0.924791  1
  Bi  Bi28  1  0.674558  0.991110  0.924791  1
  Bi  Bi29  1  0.825443  0.008889  0.424790  1
  Bi  Bi30  1  0.174558  0.508890  0.575209  1
  Bi  Bi31  1  0.325442  0.491111  0.075210  1
