# generated using pymatgen
data_YbTm2Ga9Pd2
_symmetry_space_group_name_H-M   'P 1'
_cell_length_a   8.14565566
_cell_length_b   8.14565503
_cell_length_c   8.14565507
_cell_angle_alpha   149.41212245
_cell_angle_beta   108.48001160
_cell_angle_gamma   79.75699577
_symmetry_Int_Tables_number   1
_chemical_formula_structural   YbTm2Ga9Pd2
_chemical_formula_sum   'Yb1 Tm2 Ga9 Pd2'
_cell_volume   255.73719825
_cell_formula_units_Z   1
loop_
 _symmetry_equiv_pos_site_id
 _symmetry_equiv_pos_as_xyz
  1  'x, y, z'
loop_
 _atom_site_type_symbol
 _atom_site_label
 _atom_site_symmetry_multiplicity
 _atom_site_fract_x
 _atom_site_fract_y
 _atom_site_fract_z
 _atom_site_occupancy
  Yb  Yb0  1  0.500000  0.500000  0.000000  1
  Tm  Tm1  1  0.200832  0.200832  0.000000  1
  Tm  Tm2  1  0.799168  0.799168  0.000000  1
  Ga  Ga3  1  0.079764  0.360709  0.719055  1
  Ga  Ga4  1  0.920236  0.639291  0.280945  1
  Ga  Ga5  1  0.641655  0.360709  0.280945  1
  Ga  Ga6  1  0.358345  0.639291  0.719055  1
  Ga  Ga7  1  0.789441  0.155936  0.633504  1
  Ga  Ga8  1  0.210559  0.844064  0.366496  1
  Ga  Ga9  1  0.522431  0.155936  0.366496  1
  Ga  Ga10  1  0.477569  0.844064  0.633504  1
  Ga  Ga11  1  0.000000  0.500000  0.500000  1
  Pd  Pd12  1  0.821487  0.000000  0.821487  1
  Pd  Pd13  1  0.178513  0.000000  0.178513  1
