# generated using pymatgen
data_Nb2AlTe4
_symmetry_space_group_name_H-M   'P 1'
_cell_length_a   8.19101981
_cell_length_b   6.53557326
_cell_length_c   7.81185467
_cell_angle_alpha   97.35510502
_cell_angle_beta   104.95093756
_cell_angle_gamma   90.03769961
_symmetry_Int_Tables_number   1
_chemical_formula_structural   Nb2AlTe4
_chemical_formula_sum   'Nb4 Al2 Te8'
_cell_volume   400.46289330
_cell_formula_units_Z   2
loop_
 _symmetry_equiv_pos_site_id
 _symmetry_equiv_pos_as_xyz
  1  'x, y, z'
loop_
 _atom_site_type_symbol
 _atom_site_label
 _atom_site_symmetry_multiplicity
 _atom_site_fract_x
 _atom_site_fract_y
 _atom_site_fract_z
 _atom_site_occupancy
  Nb  Nb0  1  0.088484  0.102034  0.999900  1
  Nb  Nb1  1  0.411516  0.897966  0.000100  1
  Nb  Nb2  1  0.588491  0.397634  0.000035  1
  Nb  Nb3  1  0.911509  0.602366  0.999965  1
  Al  Al4  1  0.250000  0.500000  0.000000  1
  Al  Al5  1  0.750000  0.000000  0.000000  1
  Te  Te6  1  0.080283  0.742174  0.753139  1
  Te  Te7  1  0.201612  0.817790  0.246747  1
  Te  Te8  1  0.298388  0.182210  0.753253  1
  Te  Te9  1  0.419717  0.257826  0.246861  1
  Te  Te10  1  0.580135  0.682085  0.753297  1
  Te  Te11  1  0.701902  0.757431  0.246539  1
  Te  Te12  1  0.798098  0.242569  0.753461  1
  Te  Te13  1  0.919865  0.317915  0.246703  1
