# generated using pymatgen
data_Sm3Th(CoB10)2
_symmetry_space_group_name_H-M   'P 1'
_cell_length_a   4.17455200
_cell_length_b   5.60268468
_cell_length_c   11.17791136
_cell_angle_alpha   90.08876229
_cell_angle_beta   90.00000000
_cell_angle_gamma   90.00000000
_symmetry_Int_Tables_number   1
_chemical_formula_structural   Sm3Th(CoB10)2
_chemical_formula_sum   'Sm3 Th1 Co2 B20'
_cell_volume   261.43648522
_cell_formula_units_Z   1
loop_
 _symmetry_equiv_pos_site_id
 _symmetry_equiv_pos_as_xyz
  1  'x, y, z'
loop_
 _atom_site_type_symbol
 _atom_site_label
 _atom_site_symmetry_multiplicity
 _atom_site_fract_x
 _atom_site_fract_y
 _atom_site_fract_z
 _atom_site_occupancy
  Sm  Sm0  1  0.500000  0.301718  0.865900  1
  Sm  Sm1  1  0.500000  0.699315  0.131744  1
  Sm  Sm2  1  0.500000  0.802980  0.636584  1
  Th  Th3  1  0.500000  0.198402  0.366510  1
  Co  Co4  1  0.000000  0.497971  0.499424  1
  Co  Co5  1  0.000000  0.999671  0.000118  1
  B  B6  1  0.000000  0.126445  0.540945  1
  B  B7  1  0.000000  0.871385  0.460372  1
  B  B8  1  0.000000  0.627376  0.959373  1
  B  B9  1  0.000000  0.372637  0.039868  1
  B  B10  1  0.000000  0.156527  0.698515  1
  B  B11  1  0.000000  0.845559  0.302605  1
  B  B12  1  0.299428  0.201337  0.112444  1
  B  B13  1  0.299437  0.798536  0.887082  1
  B  B14  1  0.700327  0.700533  0.386376  1
  B  B15  1  0.700293  0.297724  0.613600  1
  B  B16  1  0.700563  0.798536  0.887082  1
  B  B17  1  0.700572  0.201337  0.112444  1
  B  B18  1  0.299707  0.297724  0.613600  1
  B  B19  1  0.299673  0.700533  0.386376  1
  B  B20  1  0.000000  0.033442  0.186781  1
  B  B21  1  0.000000  0.967764  0.813875  1
  B  B22  1  0.000000  0.533753  0.312738  1
  B  B23  1  0.000000  0.467875  0.686454  1
  B  B24  1  0.000000  0.344366  0.196952  1
  B  B25  1  0.000000  0.656555  0.802238  1
