# generated using pymatgen
data_Ho10Hg3Os
_symmetry_space_group_name_H-M   'P 1'
_cell_length_a   9.54345100
_cell_length_b   9.54345161
_cell_length_c   9.75444600
_cell_angle_alpha   90.00000000
_cell_angle_beta   90.00000000
_cell_angle_gamma   119.99999442
_symmetry_Int_Tables_number   1
_chemical_formula_structural   Ho10Hg3Os
_chemical_formula_sum   'Ho20 Hg6 Os2'
_cell_volume   769.38583933
_cell_formula_units_Z   2
loop_
 _symmetry_equiv_pos_site_id
 _symmetry_equiv_pos_as_xyz
  1  'x, y, z'
loop_
 _atom_site_type_symbol
 _atom_site_label
 _atom_site_symmetry_multiplicity
 _atom_site_fract_x
 _atom_site_fract_y
 _atom_site_fract_z
 _atom_site_occupancy
  Ho  Ho0  1  0.000000  0.000000  0.500000  1
  Ho  Ho1  1  0.000000  0.000000  0.000000  1
  Ho  Ho2  1  0.539540  0.460460  0.250000  1
  Ho  Ho3  1  0.539540  0.079080  0.250000  1
  Ho  Ho4  1  0.920920  0.460460  0.250000  1
  Ho  Ho5  1  0.460460  0.539540  0.750000  1
  Ho  Ho6  1  0.460460  0.920920  0.750000  1
  Ho  Ho7  1  0.079080  0.539540  0.750000  1
  Ho  Ho8  1  0.209459  0.790541  0.440815  1
  Ho  Ho9  1  0.209459  0.418918  0.440815  1
  Ho  Ho10  1  0.581082  0.790541  0.440815  1
  Ho  Ho11  1  0.790541  0.209459  0.559185  1
  Ho  Ho12  1  0.790541  0.581082  0.559185  1
  Ho  Ho13  1  0.418918  0.209459  0.559185  1
  Ho  Ho14  1  0.790541  0.209459  0.940815  1
  Ho  Ho15  1  0.790541  0.581082  0.940815  1
  Ho  Ho16  1  0.418918  0.209459  0.940815  1
  Ho  Ho17  1  0.209459  0.790541  0.059185  1
  Ho  Ho18  1  0.209459  0.418918  0.059185  1
  Ho  Ho19  1  0.581082  0.790541  0.059185  1
  Hg  Hg20  1  0.882037  0.117963  0.250000  1
  Hg  Hg21  1  0.882037  0.764074  0.250000  1
  Hg  Hg22  1  0.235926  0.117963  0.250000  1
  Hg  Hg23  1  0.117963  0.882037  0.750000  1
  Hg  Hg24  1  0.117963  0.235926  0.750000  1
  Hg  Hg25  1  0.764074  0.882037  0.750000  1
  Os  Os26  1  0.333333  0.666667  0.250000  1
  Os  Os27  1  0.666667  0.333333  0.750000  1
