# generated using pymatgen
data_Dy20Si12H
_symmetry_space_group_name_H-M   'P 1'
_cell_length_a   14.68628200
_cell_length_b   6.33882337
_cell_length_c   8.42390901
_cell_angle_alpha   89.96501038
_cell_angle_beta   90.00000000
_cell_angle_gamma   90.00000000
_symmetry_Int_Tables_number   1
_chemical_formula_structural   Dy20Si12H
_chemical_formula_sum   'Dy20 Si12 H1'
_cell_volume   784.21311267
_cell_formula_units_Z   1
loop_
 _symmetry_equiv_pos_site_id
 _symmetry_equiv_pos_as_xyz
  1  'x, y, z'
loop_
 _atom_site_type_symbol
 _atom_site_label
 _atom_site_symmetry_multiplicity
 _atom_site_fract_x
 _atom_site_fract_y
 _atom_site_fract_z
 _atom_site_occupancy
  Dy  Dy0  1  0.666567  0.500000  0.500000  1
  Dy  Dy1  1  0.167992  0.500000  0.000000  1
  Dy  Dy2  1  0.832008  0.500000  0.000000  1
  Dy  Dy3  1  0.333433  0.500000  0.500000  1
  Dy  Dy4  1  0.834153  0.000000  0.000000  1
  Dy  Dy5  1  0.332357  0.000000  0.500000  1
  Dy  Dy6  1  0.667643  0.000000  0.500000  1
  Dy  Dy7  1  0.165847  0.000000  0.000000  1
  Dy  Dy8  1  0.500000  0.248358  0.755551  1
  Dy  Dy9  1  0.000000  0.251294  0.252834  1
  Dy  Dy10  1  0.621036  0.250218  0.123090  1
  Dy  Dy11  1  0.122476  0.247372  0.623800  1
  Dy  Dy12  1  0.877524  0.247372  0.623800  1
  Dy  Dy13  1  0.378964  0.250218  0.123090  1
  Dy  Dy14  1  0.000000  0.748706  0.747166  1
  Dy  Dy15  1  0.500000  0.751642  0.244449  1
  Dy  Dy16  1  0.877524  0.752628  0.376200  1
  Dy  Dy17  1  0.378964  0.749782  0.876910  1
  Dy  Dy18  1  0.621036  0.749782  0.876910  1
  Dy  Dy19  1  0.122476  0.752628  0.376200  1
  Si  Si20  1  0.000000  0.251981  0.892705  1
  Si  Si21  1  0.500000  0.248653  0.394575  1
  Si  Si22  1  0.803586  0.249200  0.303766  1
  Si  Si23  1  0.302243  0.248604  0.803065  1
  Si  Si24  1  0.697757  0.248604  0.803065  1
  Si  Si25  1  0.196414  0.249200  0.303766  1
  Si  Si26  1  0.500000  0.751347  0.605425  1
  Si  Si27  1  0.000000  0.748019  0.107295  1
  Si  Si28  1  0.697757  0.751396  0.196935  1
  Si  Si29  1  0.196414  0.750800  0.696234  1
  Si  Si30  1  0.803586  0.750800  0.696234  1
  Si  Si31  1  0.302243  0.751396  0.196935  1
  H  H32  1  0.000000  0.500000  0.500000  1
