# generated using pymatgen
data_AcPrZn8
_symmetry_space_group_name_H-M   'P 1'
_cell_length_a   6.15297569
_cell_length_b   6.15297726
_cell_length_c   6.10146600
_cell_angle_alpha   90.00000000
_cell_angle_beta   90.00000000
_cell_angle_gamma   118.62856010
_symmetry_Int_Tables_number   1
_chemical_formula_structural   AcPrZn8
_chemical_formula_sum   'Ac1 Pr1 Zn8'
_cell_volume   202.75552626
_cell_formula_units_Z   1
loop_
 _symmetry_equiv_pos_site_id
 _symmetry_equiv_pos_as_xyz
  1  'x, y, z'
loop_
 _atom_site_type_symbol
 _atom_site_label
 _atom_site_symmetry_multiplicity
 _atom_site_fract_x
 _atom_site_fract_y
 _atom_site_fract_z
 _atom_site_occupancy
  Ac  Ac0  1  0.266146  0.733854  0.750000  1
  Pr  Pr1  1  0.730077  0.269923  0.250000  1
  Zn  Zn2  1  0.853165  0.146835  0.750000  1
  Zn  Zn3  1  0.151513  0.848487  0.250000  1
  Zn  Zn4  1  0.609692  0.390308  0.750000  1
  Zn  Zn5  1  0.389249  0.610751  0.250000  1
  Zn  Zn6  1  0.784023  0.783945  0.007288  1
  Zn  Zn7  1  0.784023  0.783945  0.492712  1
  Zn  Zn8  1  0.216055  0.215977  0.007288  1
  Zn  Zn9  1  0.216055  0.215977  0.492712  1
