# generated using pymatgen
data_Sc4Mn2B4Ir9Os
_symmetry_space_group_name_H-M   'P 1'
_cell_length_a   3.03142600
_cell_length_b   9.45838657
_cell_length_c   9.45838700
_cell_angle_alpha   90.37888579
_cell_angle_beta   90.00000000
_cell_angle_gamma   90.00000000
_symmetry_Int_Tables_number   1
_chemical_formula_structural   Sc4Mn2B4Ir9Os
_chemical_formula_sum   'Sc4 Mn2 B4 Ir9 Os1'
_cell_volume   271.18871609
_cell_formula_units_Z   1
loop_
 _symmetry_equiv_pos_site_id
 _symmetry_equiv_pos_as_xyz
  1  'x, y, z'
loop_
 _atom_site_type_symbol
 _atom_site_label
 _atom_site_symmetry_multiplicity
 _atom_site_fract_x
 _atom_site_fract_y
 _atom_site_fract_z
 _atom_site_occupancy
  Sc  Sc0  1  0.000000  0.174542  0.674542  1
  Sc  Sc1  1  0.000000  0.825458  0.325458  1
  Sc  Sc2  1  0.000000  0.322394  0.177606  1
  Sc  Sc3  1  0.000000  0.677606  0.822394  1
  Mn  Mn4  1  0.000000  0.000000  0.000000  1
  Mn  Mn5  1  0.000000  0.500000  0.500000  1
  B  B6  1  0.000000  0.624982  0.124982  1
  B  B7  1  0.000000  0.375018  0.875018  1
  B  B8  1  0.000000  0.878556  0.621444  1
  B  B9  1  0.000000  0.121444  0.378556  1
  Ir  Ir10  1  0.500000  0.070700  0.215384  1
  Ir  Ir11  1  0.500000  0.929300  0.784616  1
  Ir  Ir12  1  0.500000  0.782936  0.069936  1
  Ir  Ir13  1  0.500000  0.430064  0.717064  1
  Ir  Ir14  1  0.500000  0.217064  0.930064  1
  Ir  Ir15  1  0.500000  0.569936  0.282936  1
  Ir  Ir16  1  0.500000  0.715384  0.570700  1
  Ir  Ir17  1  0.500000  0.284616  0.429300  1
  Ir  Ir18  1  0.500000  0.500000  0.000000  1
  Os  Os19  1  0.500000  0.000000  0.500000  1
