# generated using pymatgen
data_Cs14Nb2Tl5InP10
_symmetry_space_group_name_H-M   'P 1'
_cell_length_a   8.87461844
_cell_length_b   9.74709422
_cell_length_c   14.87207180
_cell_angle_alpha   85.68149560
_cell_angle_beta   84.80570116
_cell_angle_gamma   85.18408375
_symmetry_Int_Tables_number   1
_chemical_formula_structural   Cs14Nb2Tl5InP10
_chemical_formula_sum   'Cs14 Nb2 Tl5 In1 P10'
_cell_volume   1273.67983389
_cell_formula_units_Z   1
loop_
 _symmetry_equiv_pos_site_id
 _symmetry_equiv_pos_as_xyz
  1  'x, y, z'
loop_
 _atom_site_type_symbol
 _atom_site_label
 _atom_site_symmetry_multiplicity
 _atom_site_fract_x
 _atom_site_fract_y
 _atom_site_fract_z
 _atom_site_occupancy
  Cs  Cs0  1  0.835574  0.361651  0.652668  1
  Cs  Cs1  1  0.815329  0.807095  0.135306  1
  Cs  Cs2  1  0.238116  0.006260  0.469034  1
  Cs  Cs3  1  0.271602  0.251308  0.252788  1
  Cs  Cs4  1  0.735440  0.500770  0.973952  1
  Cs  Cs5  1  0.260580  0.499275  0.026183  1
  Cs  Cs6  1  0.679158  0.083106  0.888468  1
  Cs  Cs7  1  0.761344  0.992145  0.529425  1
  Cs  Cs8  1  0.730182  0.747375  0.747251  1
  Cs  Cs9  1  0.328572  0.344362  0.598825  1
  Cs  Cs10  1  0.163436  0.638412  0.347113  1
  Cs  Cs11  1  0.181385  0.193213  0.865575  1
  Cs  Cs12  1  0.324935  0.915702  0.113002  1
  Cs  Cs13  1  0.667661  0.658607  0.399771  1
  Nb  Nb14  1  0.354052  0.605004  0.773118  1
  Nb  Nb15  1  0.647828  0.394120  0.226759  1
  Tl  Tl16  1  0.058737  0.817320  0.870316  1
  Tl  Tl17  1  0.943319  0.182887  0.129623  1
  Tl  Tl18  1  0.364301  0.952943  0.703970  1
  Tl  Tl19  1  0.095003  0.721184  0.621362  1
  Tl  Tl20  1  0.906088  0.280873  0.379329  1
  In  In21  1  0.642384  0.055895  0.294210  1
  P  P22  1  0.910829  0.448807  0.212304  1
  P  P23  1  0.623405  0.205493  0.128890  1
  P  P24  1  0.090552  0.551894  0.787515  1
  P  P25  1  0.586544  0.297831  0.381899  1
  P  P26  1  0.415103  0.697436  0.617196  1
  P  P27  1  0.032440  0.998231  0.700690  1
  P  P28  1  0.508473  0.403729  0.808028  1
  P  P29  1  0.489985  0.592729  0.191714  1
  P  P30  1  0.378779  0.790215  0.873625  1
  P  P31  1  0.958864  0.004131  0.300091  1
