# generated using pymatgen
data_Ho3ErRe5Os3
_symmetry_space_group_name_H-M   'P 1'
_cell_length_a   5.36433707
_cell_length_b   5.25037498
_cell_length_c   9.00685401
_cell_angle_alpha   89.99999996
_cell_angle_beta   90.00478986
_cell_angle_gamma   119.29970082
_symmetry_Int_Tables_number   1
_chemical_formula_structural   Ho3ErRe5Os3
_chemical_formula_sum   'Ho3 Er1 Re5 Os3'
_cell_volume   221.22375465
_cell_formula_units_Z   1
loop_
 _symmetry_equiv_pos_site_id
 _symmetry_equiv_pos_as_xyz
  1  'x, y, z'
loop_
 _atom_site_type_symbol
 _atom_site_label
 _atom_site_symmetry_multiplicity
 _atom_site_fract_x
 _atom_site_fract_y
 _atom_site_fract_z
 _atom_site_occupancy
  Ho  Ho0  1  0.332548  0.666274  0.437532  1
  Ho  Ho1  1  0.670127  0.335064  0.563818  1
  Ho  Ho2  1  0.670141  0.335070  0.936279  1
  Er  Er3  1  0.332403  0.666202  0.062513  1
  Re  Re4  1  0.829452  0.169667  0.249742  1
  Re  Re5  1  0.829452  0.659785  0.249742  1
  Re  Re6  1  0.344456  0.172229  0.249715  1
  Re  Re7  1  0.163371  0.828863  0.750207  1
  Re  Re8  1  0.163371  0.334508  0.750207  1
  Os  Os9  1  0.010263  0.005131  0.500634  1
  Os  Os10  1  0.010381  0.005191  0.999369  1
  Os  Os11  1  0.644034  0.822017  0.750244  1
