# generated using pymatgen
data_Rb2LiErSb2
_symmetry_space_group_name_H-M   'P 1'
_cell_length_a   11.15892967
_cell_length_b   11.15892933
_cell_length_c   7.21870700
_cell_angle_alpha   90.00000000
_cell_angle_beta   90.00000000
_cell_angle_gamma   99.46949916
_symmetry_Int_Tables_number   1
_chemical_formula_structural   Rb2LiErSb2
_chemical_formula_sum   'Rb8 Li4 Er4 Sb8'
_cell_volume   886.63689755
_cell_formula_units_Z   4
loop_
 _symmetry_equiv_pos_site_id
 _symmetry_equiv_pos_as_xyz
  1  'x, y, z'
loop_
 _atom_site_type_symbol
 _atom_site_label
 _atom_site_symmetry_multiplicity
 _atom_site_fract_x
 _atom_site_fract_y
 _atom_site_fract_z
 _atom_site_occupancy
  Rb  Rb0  1  0.570472  0.929528  0.750000  1
  Rb  Rb1  1  0.929528  0.570472  0.250000  1
  Rb  Rb2  1  0.429528  0.070472  0.250000  1
  Rb  Rb3  1  0.070472  0.429528  0.750000  1
  Rb  Rb4  1  0.675975  0.324025  0.784125  1
  Rb  Rb5  1  0.824025  0.175975  0.284125  1
  Rb  Rb6  1  0.324025  0.675975  0.215875  1
  Rb  Rb7  1  0.175975  0.824025  0.715875  1
  Li  Li8  1  0.620597  0.620597  0.000000  1
  Li  Li9  1  0.879403  0.879403  0.500000  1
  Li  Li10  1  0.379403  0.379403  0.000000  1
  Li  Li11  1  0.120597  0.120597  0.500000  1
  Er  Er12  1  0.869910  0.869910  0.000000  1
  Er  Er13  1  0.630090  0.630090  0.500000  1
  Er  Er14  1  0.130090  0.130090  0.000000  1
  Er  Er15  1  0.369910  0.369910  0.500000  1
  Sb  Sb16  1  0.345978  0.154022  0.750000  1
  Sb  Sb17  1  0.154022  0.345978  0.250000  1
  Sb  Sb18  1  0.654022  0.845978  0.250000  1
  Sb  Sb19  1  0.845978  0.654022  0.750000  1
  Sb  Sb20  1  0.905782  0.094218  0.761135  1
  Sb  Sb21  1  0.594218  0.405782  0.261135  1
  Sb  Sb22  1  0.094218  0.905782  0.238865  1
  Sb  Sb23  1  0.405782  0.594218  0.738865  1
