# generated using pymatgen
data_Sr2PrNd(CuSe3)2
_symmetry_space_group_name_H-M   'P 1'
_cell_length_a   11.08226100
_cell_length_b   4.18109300
_cell_length_c   13.60912500
_cell_angle_alpha   90.00000000
_cell_angle_beta   90.00000000
_cell_angle_gamma   90.00000000
_symmetry_Int_Tables_number   1
_chemical_formula_structural   Sr2PrNd(CuSe3)2
_chemical_formula_sum   'Sr4 Pr2 Nd2 Cu4 Se12'
_cell_volume   630.59192459
_cell_formula_units_Z   2
loop_
 _symmetry_equiv_pos_site_id
 _symmetry_equiv_pos_as_xyz
  1  'x, y, z'
loop_
 _atom_site_type_symbol
 _atom_site_label
 _atom_site_symmetry_multiplicity
 _atom_site_fract_x
 _atom_site_fract_y
 _atom_site_fract_z
 _atom_site_occupancy
  Sr  Sr0  1  0.283137  0.250000  0.999415  1
  Sr  Sr1  1  0.216863  0.749999  0.499415  1
  Sr  Sr2  1  0.784345  0.250000  0.500594  1
  Sr  Sr3  1  0.715655  0.749999  0.000594  1
  Pr  Pr4  1  0.517284  0.250000  0.263798  1
  Pr  Pr5  1  0.982715  0.749999  0.763798  1
  Nd  Nd6  1  0.017099  0.250000  0.236430  1
  Nd  Nd7  1  0.482901  0.749999  0.736430  1
  Cu  Cu8  1  0.236308  0.250000  0.721064  1
  Cu  Cu9  1  0.263693  0.749999  0.221064  1
  Cu  Cu10  1  0.735216  0.250000  0.778832  1
  Cu  Cu11  1  0.764785  0.749999  0.278832  1
  Se  Se12  1  0.400762  0.250000  0.600194  1
  Se  Se13  1  0.099238  0.749999  0.100193  1
  Se  Se14  1  0.899267  0.250000  0.900670  1
  Se  Se15  1  0.600733  0.749999  0.400670  1
  Se  Se16  1  0.259568  0.250000  0.328503  1
  Se  Se17  1  0.240431  0.749999  0.828504  1
  Se  Se18  1  0.761000  0.250000  0.171542  1
  Se  Se19  1  0.739000  0.749999  0.671543  1
  Se  Se20  1  0.053050  0.250000  0.615937  1
  Se  Se21  1  0.446950  0.749999  0.115938  1
  Se  Se22  1  0.552097  0.250000  0.883019  1
  Se  Se23  1  0.947903  0.749999  0.383020  1
