# generated using pymatgen
data_Sc8Ti10ZnSi16Mo
_symmetry_space_group_name_H-M   'P 1'
_cell_length_a   6.64058212
_cell_length_b   6.82614544
_cell_length_c   13.03710000
_cell_angle_alpha   90.00000000
_cell_angle_beta   90.00000000
_cell_angle_gamma   90.33132017
_symmetry_Int_Tables_number   1
_chemical_formula_structural   Sc8Ti10ZnSi16Mo
_chemical_formula_sum   'Sc8 Ti10 Zn1 Si16 Mo1'
_cell_volume   590.95637820
_cell_formula_units_Z   1
loop_
 _symmetry_equiv_pos_site_id
 _symmetry_equiv_pos_as_xyz
  1  'x, y, z'
loop_
 _atom_site_type_symbol
 _atom_site_label
 _atom_site_symmetry_multiplicity
 _atom_site_fract_x
 _atom_site_fract_y
 _atom_site_fract_z
 _atom_site_occupancy
  Sc  Sc0  1  0.502649  0.328557  0.097265  1
  Sc  Sc1  1  0.003236  0.175354  0.404193  1
  Sc  Sc2  1  0.496644  0.675190  0.593317  1
  Sc  Sc3  1  0.995154  0.825769  0.906100  1
  Sc  Sc4  1  0.496644  0.675190  0.906683  1
  Sc  Sc5  1  0.995154  0.825769  0.593900  1
  Sc  Sc6  1  0.502649  0.328557  0.402735  1
  Sc  Sc7  1  0.003236  0.175354  0.095807  1
  Ti  Ti8  1  0.829930  0.322850  0.626337  1
  Ti  Ti9  1  0.340627  0.174928  0.873756  1
  Ti  Ti10  1  0.165412  0.672932  0.126489  1
  Ti  Ti11  1  0.666302  0.822198  0.373616  1
  Ti  Ti12  1  0.165412  0.672932  0.373511  1
  Ti  Ti13  1  0.666302  0.822198  0.126384  1
  Ti  Ti14  1  0.829930  0.322850  0.873663  1
  Ti  Ti15  1  0.340627  0.174928  0.626244  1
  Ti  Ti16  1  0.162235  0.493997  0.750000  1
  Ti  Ti17  1  0.338422  0.989720  0.250000  1
  Zn  Zn18  1  0.662124  0.994515  0.750000  1
  Si  Si19  1  0.668467  0.041746  0.531544  1
  Si  Si20  1  0.163625  0.463664  0.959136  1
  Si  Si21  1  0.334308  0.964856  0.039842  1
  Si  Si22  1  0.835118  0.534220  0.459194  1
  Si  Si23  1  0.334308  0.964856  0.460158  1
  Si  Si24  1  0.835118  0.534220  0.040806  1
  Si  Si25  1  0.668467  0.041746  0.968456  1
  Si  Si26  1  0.163625  0.463664  0.540864  1
  Si  Si27  1  0.532084  0.398071  0.750000  1
  Si  Si28  1  0.041094  0.122917  0.750000  1
  Si  Si29  1  0.464520  0.615648  0.250000  1
  Si  Si30  1  0.963860  0.882740  0.250000  1
  Si  Si31  1  0.799452  0.628462  0.750000  1
  Si  Si32  1  0.283112  0.864902  0.750000  1
  Si  Si33  1  0.204503  0.363287  0.250000  1
  Si  Si34  1  0.706696  0.134563  0.250000  1
  Mo  Mo35  1  0.838959  0.506652  0.250000  1
