# generated using pymatgen
data_Yb6Al24Ir5Os3
_symmetry_space_group_name_H-M   'P 1'
_cell_length_a   8.84238925
_cell_length_b   8.83928973
_cell_length_c   9.59972824
_cell_angle_alpha   89.99999662
_cell_angle_beta   89.82245045
_cell_angle_gamma   119.98839685
_symmetry_Int_Tables_number   1
_chemical_formula_structural   Yb6Al24Ir5Os3
_chemical_formula_sum   'Yb6 Al24 Ir5 Os3'
_cell_volume   649.86710635
_cell_formula_units_Z   1
loop_
 _symmetry_equiv_pos_site_id
 _symmetry_equiv_pos_as_xyz
  1  'x, y, z'
loop_
 _atom_site_type_symbol
 _atom_site_label
 _atom_site_symmetry_multiplicity
 _atom_site_fract_x
 _atom_site_fract_y
 _atom_site_fract_z
 _atom_site_occupancy
  Yb  Yb0  1  0.192182  0.386964  0.251125  1
  Yb  Yb1  1  0.807818  0.613036  0.748875  1
  Yb  Yb2  1  0.614211  0.807105  0.250355  1
  Yb  Yb3  1  0.385789  0.192895  0.749645  1
  Yb  Yb4  1  0.192182  0.805219  0.251125  1
  Yb  Yb5  1  0.807818  0.194781  0.748875  1
  Al  Al6  1  0.333547  0.666774  0.006064  1
  Al  Al7  1  0.666453  0.333226  0.993936  1
  Al  Al8  1  0.667909  0.333955  0.507264  1
  Al  Al9  1  0.332091  0.666045  0.492736  1
  Al  Al10  1  0.160702  0.323871  0.578469  1
  Al  Al11  1  0.839298  0.676129  0.421531  1
  Al  Al12  1  0.676594  0.838297  0.578313  1
  Al  Al13  1  0.838214  0.676859  0.078702  1
  Al  Al14  1  0.323406  0.161703  0.421687  1
  Al  Al15  1  0.161786  0.323141  0.921298  1
  Al  Al16  1  0.160702  0.836832  0.578469  1
  Al  Al17  1  0.322724  0.161361  0.079088  1
  Al  Al18  1  0.839298  0.163168  0.421531  1
  Al  Al19  1  0.677276  0.838639  0.920912  1
  Al  Al20  1  0.838214  0.161355  0.078702  1
  Al  Al21  1  0.161786  0.838645  0.921298  1
  Al  Al22  1  0.562246  0.124863  0.249806  1
  Al  Al23  1  0.437754  0.875137  0.750194  1
  Al  Al24  1  0.874566  0.437283  0.250919  1
  Al  Al25  1  0.125434  0.562717  0.749081  1
  Al  Al26  1  0.562246  0.437382  0.249806  1
  Al  Al27  1  0.437754  0.562618  0.750194  1
  Al  Al28  1  0.000395  0.000198  0.250026  1
  Al  Al29  1  0.999605  0.999802  0.749974  1
  Ir  Ir30  1  0.500000  0.000000  0.000000  1
  Ir  Ir31  1  0.000000  0.500000  0.000000  1
  Ir  Ir32  1  0.500000  0.000000  0.500000  1
  Ir  Ir33  1  0.500000  0.500000  0.000000  1
  Ir  Ir34  1  0.500000  0.500000  0.500000  1
  Os  Os35  1  0.000000  0.500000  0.500000  1
  Os  Os36  1  0.000000  0.000000  0.000000  1
  Os  Os37  1  0.000000  0.000000  0.500000  1
