# generated using pymatgen
data_SmY(TaSe2)6
_symmetry_space_group_name_H-M   'P 1'
_cell_length_a   6.08551000
_cell_length_b   6.08551028
_cell_length_c   14.62218800
_cell_angle_alpha   90.00000000
_cell_angle_beta   90.00000000
_cell_angle_gamma   120.00000935
_symmetry_Int_Tables_number   1
_chemical_formula_structural   SmY(TaSe2)6
_chemical_formula_sum   'Sm1 Y1 Ta6 Se12'
_cell_volume   468.96122432
_cell_formula_units_Z   1
loop_
 _symmetry_equiv_pos_site_id
 _symmetry_equiv_pos_as_xyz
  1  'x, y, z'
loop_
 _atom_site_type_symbol
 _atom_site_label
 _atom_site_symmetry_multiplicity
 _atom_site_fract_x
 _atom_site_fract_y
 _atom_site_fract_z
 _atom_site_occupancy
  Sm  Sm0  1  0.000000  0.000000  0.500000  1
  Y  Y1  1  0.000000  0.000000  0.000000  1
  Ta  Ta2  1  0.333333  0.666667  0.247130  1
  Ta  Ta3  1  0.666667  0.333333  0.752870  1
  Ta  Ta4  1  0.666667  0.333333  0.247130  1
  Ta  Ta5  1  0.333333  0.666667  0.752870  1
  Ta  Ta6  1  0.000000  0.000000  0.247876  1
  Ta  Ta7  1  0.000000  0.000000  0.752124  1
  Se  Se8  1  0.338550  0.000000  0.133298  1
  Se  Se9  1  0.000000  0.338550  0.133298  1
  Se  Se10  1  0.661450  0.661450  0.133298  1
  Se  Se11  1  0.340338  0.340338  0.638500  1
  Se  Se12  1  0.659662  0.659662  0.361500  1
  Se  Se13  1  0.659662  0.000000  0.638500  1
  Se  Se14  1  0.000000  0.659662  0.638500  1
  Se  Se15  1  0.000000  0.661450  0.866702  1
  Se  Se16  1  0.338550  0.338550  0.866702  1
  Se  Se17  1  0.000000  0.340338  0.361500  1
  Se  Se18  1  0.340338  0.000000  0.361500  1
  Se  Se19  1  0.661450  0.000000  0.866702  1
