# generated using pymatgen
data_Dy3Lu(Al3Ir)6
_symmetry_space_group_name_H-M   'P 1'
_cell_length_a   7.55117026
_cell_length_b   7.55360924
_cell_length_c   9.45275200
_cell_angle_alpha   90.00000000
_cell_angle_beta   90.00000000
_cell_angle_gamma   119.47674599
_symmetry_Int_Tables_number   1
_chemical_formula_structural   Dy3Lu(Al3Ir)6
_chemical_formula_sum   'Dy3 Lu1 Al18 Ir6'
_cell_volume   469.37882532
_cell_formula_units_Z   1
loop_
 _symmetry_equiv_pos_site_id
 _symmetry_equiv_pos_as_xyz
  1  'x, y, z'
loop_
 _atom_site_type_symbol
 _atom_site_label
 _atom_site_symmetry_multiplicity
 _atom_site_fract_x
 _atom_site_fract_y
 _atom_site_fract_z
 _atom_site_occupancy
  Dy  Dy0  1  0.994838  0.671384  0.250000  1
  Dy  Dy1  1  0.005453  0.328564  0.750000  1
  Dy  Dy2  1  0.671280  0.994638  0.250000  1
  Lu  Lu3  1  0.328311  0.005400  0.750000  1
  Al  Al4  1  0.129607  0.129205  0.250000  1
  Al  Al5  1  0.871553  0.870970  0.750000  1
  Al  Al6  1  0.001110  0.335147  0.073685  1
  Al  Al7  1  0.999692  0.665435  0.925156  1
  Al  Al8  1  0.999692  0.665435  0.574844  1
  Al  Al9  1  0.335157  0.000984  0.427431  1
  Al  Al10  1  0.001110  0.335147  0.426315  1
  Al  Al11  1  0.664069  0.999119  0.574977  1
  Al  Al12  1  0.664069  0.999119  0.925023  1
  Al  Al13  1  0.335157  0.000984  0.072569  1
  Al  Al14  1  0.333331  0.332806  0.552572  1
  Al  Al15  1  0.666679  0.666650  0.449382  1
  Al  Al16  1  0.666679  0.666650  0.050618  1
  Al  Al17  1  0.333331  0.332806  0.947428  1
  Al  Al18  1  0.339542  0.548475  0.250000  1
  Al  Al19  1  0.659550  0.450349  0.750000  1
  Al  Al20  1  0.548206  0.339059  0.250000  1
  Al  Al21  1  0.451329  0.661410  0.750000  1
  Ir  Ir22  1  0.671805  0.327772  0.999560  1
  Ir  Ir23  1  0.327912  0.672155  0.999583  1
  Ir  Ir24  1  0.327912  0.672155  0.500417  1
  Ir  Ir25  1  0.671805  0.327772  0.500440  1
  Ir  Ir26  1  0.000410  0.000206  0.999488  1
  Ir  Ir27  1  0.000410  0.000206  0.500512  1
