# generated using pymatgen
data_PrNd7Zn(Si4Rh)3
_symmetry_space_group_name_H-M   'P 1'
_cell_length_a   8.24743100
_cell_length_b   8.24743009
_cell_length_c   8.50408400
_cell_angle_alpha   90.00000000
_cell_angle_beta   90.00000000
_cell_angle_gamma   119.99999964
_symmetry_Int_Tables_number   1
_chemical_formula_structural   PrNd7Zn(Si4Rh)3
_chemical_formula_sum   'Pr1 Nd7 Zn1 Si12 Rh3'
_cell_volume   500.95130042
_cell_formula_units_Z   1
loop_
 _symmetry_equiv_pos_site_id
 _symmetry_equiv_pos_as_xyz
  1  'x, y, z'
loop_
 _atom_site_type_symbol
 _atom_site_label
 _atom_site_symmetry_multiplicity
 _atom_site_fract_x
 _atom_site_fract_y
 _atom_site_fract_z
 _atom_site_occupancy
  Pr  Pr0  1  0.000000  0.000000  0.749071  1
  Nd  Nd1  1  0.000000  0.000000  0.251322  1
  Nd  Nd2  1  0.497318  0.502682  0.745731  1
  Nd  Nd3  1  0.497318  0.994637  0.745731  1
  Nd  Nd4  1  0.005363  0.502682  0.745731  1
  Nd  Nd5  1  0.498745  0.501255  0.254056  1
  Nd  Nd6  1  0.002510  0.501255  0.254056  1
  Nd  Nd7  1  0.498745  0.997490  0.254056  1
  Zn  Zn8  1  0.666667  0.333333  0.996899  1
  Si  Si9  1  0.836409  0.163591  0.000784  1
  Si  Si10  1  0.836409  0.672818  0.000784  1
  Si  Si11  1  0.327182  0.163591  0.000784  1
  Si  Si12  1  0.832619  0.167381  0.500077  1
  Si  Si13  1  0.832619  0.665238  0.500077  1
  Si  Si14  1  0.334762  0.167381  0.500077  1
  Si  Si15  1  0.166852  0.833148  0.498991  1
  Si  Si16  1  0.666295  0.833148  0.498991  1
  Si  Si17  1  0.166852  0.333705  0.498991  1
  Si  Si18  1  0.168546  0.831454  0.000754  1
  Si  Si19  1  0.662909  0.831454  0.000754  1
  Si  Si20  1  0.168546  0.337091  0.000754  1
  Rh  Rh21  1  0.666667  0.333333  0.502159  1
  Rh  Rh22  1  0.333333  0.666667  0.497559  1
  Rh  Rh23  1  0.333333  0.666667  0.001812  1
