# generated using pymatgen
data_Tb3PrB10
_symmetry_space_group_name_H-M   'P 1'
_cell_length_a   7.17959700
_cell_length_b   7.17149946
_cell_length_c   7.19964903
_cell_angle_alpha   77.04452432
_cell_angle_beta   90.00000000
_cell_angle_gamma   90.00000000
_symmetry_Int_Tables_number   1
_chemical_formula_structural   Tb3PrB10
_chemical_formula_sum   'Tb6 Pr2 B20'
_cell_volume   361.26265879
_cell_formula_units_Z   2
loop_
 _symmetry_equiv_pos_site_id
 _symmetry_equiv_pos_as_xyz
  1  'x, y, z'
loop_
 _atom_site_type_symbol
 _atom_site_label
 _atom_site_symmetry_multiplicity
 _atom_site_fract_x
 _atom_site_fract_y
 _atom_site_fract_z
 _atom_site_occupancy
  Tb  Tb0  1  0.316125  0.753528  0.254203  1
  Tb  Tb1  1  0.816125  0.246472  0.245797  1
  Tb  Tb2  1  0.684626  0.244779  0.744511  1
  Tb  Tb3  1  0.184626  0.755221  0.755489  1
  Tb  Tb4  1  0.692956  0.764415  0.629166  1
  Tb  Tb5  1  0.192956  0.235585  0.870834  1
  Pr  Pr6  1  0.311530  0.221053  0.376240  1
  Pr  Pr7  1  0.811530  0.778947  0.123760  1
  B  B8  1  0.502827  0.315587  0.036841  1
  B  B9  1  0.002827  0.684413  0.463159  1
  B  B10  1  0.496223  0.685806  0.958122  1
  B  B11  1  0.996223  0.314194  0.541878  1
  B  B12  1  0.484438  0.926033  0.921901  1
  B  B13  1  0.984438  0.073967  0.578099  1
  B  B14  1  0.506939  0.077421  0.065755  1
  B  B15  1  0.006939  0.922579  0.434245  1
  B  B16  1  0.327569  0.496712  0.038902  1
  B  B17  1  0.827569  0.503288  0.461098  1
  B  B18  1  0.673579  0.503407  0.959143  1
  B  B19  1  0.173579  0.496593  0.540857  1
  B  B20  1  0.911200  0.497697  0.910453  1
  B  B21  1  0.411200  0.502303  0.589547  1
  B  B22  1  0.090602  0.499406  0.089918  1
  B  B23  1  0.590602  0.500594  0.410082  1
  B  B24  1  0.962223  0.495986  0.674632  1
  B  B25  1  0.462223  0.504014  0.825368  1
  B  B26  1  0.039164  0.502416  0.327746  1
  B  B27  1  0.539164  0.497584  0.172254  1
