# generated using pymatgen
data_Yb6Al24Fe3Os5
_symmetry_space_group_name_H-M   'P 1'
_cell_length_a   8.79072000
_cell_length_b   8.77634277
_cell_length_c   9.49536499
_cell_angle_alpha   90.28096402
_cell_angle_beta   90.00000000
_cell_angle_gamma   120.05419785
_symmetry_Int_Tables_number   1
_chemical_formula_structural   Yb6Al24Fe3Os5
_chemical_formula_sum   'Yb6 Al24 Fe3 Os5'
_cell_volume   634.06810335
_cell_formula_units_Z   1
loop_
 _symmetry_equiv_pos_site_id
 _symmetry_equiv_pos_as_xyz
  1  'x, y, z'
loop_
 _atom_site_type_symbol
 _atom_site_label
 _atom_site_symmetry_multiplicity
 _atom_site_fract_x
 _atom_site_fract_y
 _atom_site_fract_z
 _atom_site_occupancy
  Yb  Yb0  1  0.195666  0.391332  0.249109  1
  Yb  Yb1  1  0.804334  0.608668  0.750891  1
  Yb  Yb2  1  0.610149  0.802442  0.250973  1
  Yb  Yb3  1  0.389851  0.197558  0.749027  1
  Yb  Yb4  1  0.192291  0.802442  0.250973  1
  Yb  Yb5  1  0.807709  0.197558  0.749027  1
  Al  Al6  1  0.336698  0.673397  0.996474  1
  Al  Al7  1  0.663302  0.326603  0.003526  1
  Al  Al8  1  0.666338  0.332675  0.495790  1
  Al  Al9  1  0.333662  0.667325  0.504210  1
  Al  Al10  1  0.158152  0.316304  0.573697  1
  Al  Al11  1  0.841848  0.683696  0.426303  1
  Al  Al12  1  0.684830  0.843856  0.575421  1
  Al  Al13  1  0.841673  0.683345  0.074163  1
  Al  Al14  1  0.315170  0.156144  0.424579  1
  Al  Al15  1  0.158327  0.316655  0.925837  1
  Al  Al16  1  0.159026  0.843856  0.575421  1
  Al  Al17  1  0.315776  0.154919  0.074760  1
  Al  Al18  1  0.840974  0.156144  0.424579  1
  Al  Al19  1  0.684224  0.845081  0.925240  1
  Al  Al20  1  0.839143  0.154919  0.074760  1
  Al  Al21  1  0.160857  0.845081  0.925240  1
  Al  Al22  1  0.557851  0.115704  0.245518  1
  Al  Al23  1  0.442149  0.884296  0.754482  1
  Al  Al24  1  0.874667  0.436019  0.249682  1
  Al  Al25  1  0.125333  0.563981  0.750318  1
  Al  Al26  1  0.561352  0.436019  0.249682  1
  Al  Al27  1  0.438648  0.563981  0.750318  1
  Al  Al28  1  0.999517  0.999032  0.249841  1
  Al  Al29  1  0.000483  0.000968  0.750159  1
  Fe  Fe30  1  0.500000  0.000000  0.000000  1
  Fe  Fe31  1  0.000000  0.000000  0.000000  1
  Fe  Fe32  1  0.000000  0.000000  0.500000  1
  Os  Os33  1  0.000000  0.500000  0.000000  1
  Os  Os34  1  0.500000  0.000000  0.500000  1
  Os  Os35  1  0.500000  0.500000  0.000000  1
  Os  Os36  1  0.000000  0.500000  0.500000  1
  Os  Os37  1  0.500000  0.500000  0.500000  1
