# generated using pymatgen
data_Th6Pd7Rh
_symmetry_space_group_name_H-M   'P 1'
_cell_length_a   8.21849878
_cell_length_b   8.21849920
_cell_length_c   8.21849893
_cell_angle_alpha   114.66487855
_cell_angle_beta   114.66487897
_cell_angle_gamma   114.66487334
_symmetry_Int_Tables_number   1
_chemical_formula_structural   Th6Pd7Rh
_chemical_formula_sum   'Th6 Pd7 Rh1'
_cell_volume   319.95116918
_cell_formula_units_Z   1
loop_
 _symmetry_equiv_pos_site_id
 _symmetry_equiv_pos_as_xyz
  1  'x, y, z'
loop_
 _atom_site_type_symbol
 _atom_site_label
 _atom_site_symmetry_multiplicity
 _atom_site_fract_x
 _atom_site_fract_y
 _atom_site_fract_z
 _atom_site_occupancy
  Th  Th0  1  0.400633  0.028315  0.274834  1
  Th  Th1  1  0.028315  0.274834  0.400633  1
  Th  Th2  1  0.274834  0.400633  0.028315  1
  Th  Th3  1  0.599367  0.971685  0.725166  1
  Th  Th4  1  0.971685  0.725166  0.599367  1
  Th  Th5  1  0.725166  0.599367  0.971685  1
  Pd  Pd6  1  0.500000  0.500000  0.500000  1
  Pd  Pd7  1  0.227749  0.062845  0.565166  1
  Pd  Pd8  1  0.062845  0.565166  0.227749  1
  Pd  Pd9  1  0.565166  0.227749  0.062845  1
  Pd  Pd10  1  0.772251  0.937155  0.434834  1
  Pd  Pd11  1  0.937155  0.434834  0.772251  1
  Pd  Pd12  1  0.434834  0.772251  0.937155  1
  Rh  Rh13  1  0.000000  0.000000  0.000000  1
