# generated using pymatgen
data_Nd2Ge2RuPt3
_symmetry_space_group_name_H-M   'P 1'
_cell_length_a   9.71245200
_cell_length_b   9.71245337
_cell_length_c   4.19089700
_cell_angle_alpha   90.00000000
_cell_angle_beta   90.00000000
_cell_angle_gamma   155.46549174
_symmetry_Int_Tables_number   1
_chemical_formula_structural   Nd2Ge2RuPt3
_chemical_formula_sum   'Nd2 Ge2 Ru1 Pt3'
_cell_volume   164.15921978
_cell_formula_units_Z   1
loop_
 _symmetry_equiv_pos_site_id
 _symmetry_equiv_pos_as_xyz
  1  'x, y, z'
loop_
 _atom_site_type_symbol
 _atom_site_label
 _atom_site_symmetry_multiplicity
 _atom_site_fract_x
 _atom_site_fract_y
 _atom_site_fract_z
 _atom_site_occupancy
  Nd  Nd0  1  0.102363  0.897637  0.750000  1
  Nd  Nd1  1  0.897571  0.102429  0.250000  1
  Ge  Ge2  1  0.322861  0.677138  0.750000  1
  Ge  Ge3  1  0.677069  0.322931  0.250000  1
  Ru  Ru4  1  0.750105  0.249896  0.750000  1
  Pt  Pt5  1  0.545572  0.454427  0.250000  1
  Pt  Pt6  1  0.454164  0.545836  0.750000  1
  Pt  Pt7  1  0.250295  0.749705  0.250000  1
