# generated using pymatgen
data_Pa4Co3NiP4
_symmetry_space_group_name_H-M   'P 1'
_cell_length_a   3.88692900
_cell_length_b   3.88692903
_cell_length_c   15.26763200
_cell_angle_alpha   90.00000000
_cell_angle_beta   90.00000000
_cell_angle_gamma   120.00000827
_symmetry_Int_Tables_number   1
_chemical_formula_structural   Pa4Co3NiP4
_chemical_formula_sum   'Pa4 Co3 Ni1 P4'
_cell_volume   199.76320514
_cell_formula_units_Z   1
loop_
 _symmetry_equiv_pos_site_id
 _symmetry_equiv_pos_as_xyz
  1  'x, y, z'
loop_
 _atom_site_type_symbol
 _atom_site_label
 _atom_site_symmetry_multiplicity
 _atom_site_fract_x
 _atom_site_fract_y
 _atom_site_fract_z
 _atom_site_occupancy
  Pa  Pa0  1  0.000000  0.000000  0.501232  1
  Pa  Pa1  1  0.000000  0.000000  0.995058  1
  Pa  Pa2  1  0.000000  0.000000  0.253158  1
  Pa  Pa3  1  0.000000  0.000000  0.749952  1
  Co  Co4  1  0.333333  0.666667  0.383870  1
  Co  Co5  1  0.666667  0.333333  0.615682  1
  Co  Co6  1  0.666667  0.333333  0.880282  1
  Ni  Ni7  1  0.333333  0.666667  0.122338  1
  P  P8  1  0.333333  0.666667  0.870846  1
  P  P9  1  0.666667  0.333333  0.125967  1
  P  P10  1  0.666667  0.333333  0.371335  1
  P  P11  1  0.333333  0.666667  0.630280  1
