# generated using pymatgen
data_YbHoLu2(B6Ru)2
_symmetry_space_group_name_H-M   'P 1'
_cell_length_a   3.61051900
_cell_length_b   9.07117443
_cell_length_c   11.46240708
_cell_angle_alpha   89.86297107
_cell_angle_beta   90.00000000
_cell_angle_gamma   90.00000000
_symmetry_Int_Tables_number   1
_chemical_formula_structural   YbHoLu2(B6Ru)2
_chemical_formula_sum   'Yb2 Ho2 Lu4 B24 Ru4'
_cell_volume   375.41164397
_cell_formula_units_Z   2
loop_
 _symmetry_equiv_pos_site_id
 _symmetry_equiv_pos_as_xyz
  1  'x, y, z'
loop_
 _atom_site_type_symbol
 _atom_site_label
 _atom_site_symmetry_multiplicity
 _atom_site_fract_x
 _atom_site_fract_y
 _atom_site_fract_z
 _atom_site_occupancy
  Yb  Yb0  1  0.000000  0.324411  0.414742  1
  Yb  Yb1  1  0.000000  0.675589  0.585258  1
  Ho  Ho2  1  0.000000  0.821914  0.086076  1
  Ho  Ho3  1  0.000000  0.178086  0.913924  1
  Lu  Lu4  1  0.000000  0.942223  0.370207  1
  Lu  Lu5  1  0.000000  0.057777  0.629793  1
  Lu  Lu6  1  0.000000  0.442952  0.130501  1
  Lu  Lu7  1  0.000000  0.557048  0.869499  1
  B  B8  1  0.500000  0.554404  0.432236  1
  B  B9  1  0.500000  0.445596  0.567764  1
  B  B10  1  0.500000  0.054037  0.066846  1
  B  B11  1  0.500000  0.945963  0.933154  1
  B  B12  1  0.500000  0.749225  0.417817  1
  B  B13  1  0.500000  0.250775  0.582183  1
  B  B14  1  0.500000  0.249713  0.081363  1
  B  B15  1  0.500000  0.750287  0.918637  1
  B  B16  1  0.500000  0.791942  0.264379  1
  B  B17  1  0.500000  0.208058  0.735621  1
  B  B18  1  0.500000  0.291070  0.234675  1
  B  B19  1  0.500000  0.708930  0.765325  1
  B  B20  1  0.500000  0.630646  0.184384  1
  B  B21  1  0.500000  0.369354  0.815616  1
  B  B22  1  0.500000  0.130293  0.314756  1
  B  B23  1  0.500000  0.869707  0.685244  1
  B  B24  1  0.500000  0.982640  0.212164  1
  B  B25  1  0.500000  0.017360  0.787836  1
  B  B26  1  0.500000  0.483199  0.287569  1
  B  B27  1  0.500000  0.516801  0.712431  1
  B  B28  1  0.500000  0.601363  0.027731  1
  B  B29  1  0.500000  0.398637  0.972269  1
  B  B30  1  0.500000  0.098234  0.473033  1
  B  B31  1  0.500000  0.901766  0.526967  1
  Ru  Ru32  1  0.000000  0.640274  0.318040  1
  Ru  Ru33  1  0.000000  0.359726  0.681960  1
  Ru  Ru34  1  0.000000  0.137720  0.178737  1
  Ru  Ru35  1  0.000000  0.862280  0.821263  1
