# generated using pymatgen
data_LiIn3P6N13
_symmetry_space_group_name_H-M   'P 1'
_cell_length_a   7.20160754
_cell_length_b   7.20160704
_cell_length_c   7.20160800
_cell_angle_alpha   109.52834573
_cell_angle_beta   109.52834433
_cell_angle_gamma   109.52834878
_symmetry_Int_Tables_number   1
_chemical_formula_structural   LiIn3P6N13
_chemical_formula_sum   'Li1 In3 P6 N13'
_cell_volume   286.90921955
_cell_formula_units_Z   1
loop_
 _symmetry_equiv_pos_site_id
 _symmetry_equiv_pos_as_xyz
  1  'x, y, z'
loop_
 _atom_site_type_symbol
 _atom_site_label
 _atom_site_symmetry_multiplicity
 _atom_site_fract_x
 _atom_site_fract_y
 _atom_site_fract_z
 _atom_site_occupancy
  Li  Li0  1  0.319355  0.319355  0.319355  1
  In  In1  1  0.707744  0.000707  0.000707  1
  In  In2  1  0.000707  0.000707  0.707744  1
  In  In3  1  0.000707  0.707744  0.000707  1
  P  P4  1  0.248276  0.743695  0.497949  1
  P  P5  1  0.743695  0.248276  0.497949  1
  P  P6  1  0.743695  0.497949  0.248276  1
  P  P7  1  0.248276  0.497949  0.743695  1
  P  P8  1  0.497949  0.743695  0.248276  1
  P  P9  1  0.497949  0.248276  0.743695  1
  N  N10  1  0.014772  0.014772  0.014772  1
  N  N11  1  0.714205  0.272332  0.272332  1
  N  N12  1  0.272332  0.714205  0.272332  1
  N  N13  1  0.284576  0.556226  0.556226  1
  N  N14  1  0.556226  0.556226  0.284576  1
  N  N15  1  0.437914  0.724382  0.998193  1
  N  N16  1  0.998193  0.724382  0.437914  1
  N  N17  1  0.556226  0.284576  0.556226  1
  N  N18  1  0.724382  0.998193  0.437914  1
  N  N19  1  0.437914  0.998193  0.724382  1
  N  N20  1  0.724382  0.437914  0.998193  1
  N  N21  1  0.272332  0.272332  0.714205  1
  N  N22  1  0.998193  0.437914  0.724382  1
