# generated using pymatgen
data_TbHoPt2F14
_symmetry_space_group_name_H-M   'P 1'
_cell_length_a   5.55430300
_cell_length_b   8.88947597
_cell_length_c   11.99897790
_cell_angle_alpha   62.45437754
_cell_angle_beta   90.00000000
_cell_angle_gamma   90.00000000
_symmetry_Int_Tables_number   1
_chemical_formula_structural   TbHoPt2F14
_chemical_formula_sum   'Tb2 Ho2 Pt4 F28'
_cell_volume   525.28949086
_cell_formula_units_Z   2
loop_
 _symmetry_equiv_pos_site_id
 _symmetry_equiv_pos_as_xyz
  1  'x, y, z'
loop_
 _atom_site_type_symbol
 _atom_site_label
 _atom_site_symmetry_multiplicity
 _atom_site_fract_x
 _atom_site_fract_y
 _atom_site_fract_z
 _atom_site_occupancy
  Tb  Tb0  1  0.760842  0.813052  0.764635  1
  Tb  Tb1  1  0.260842  0.186948  0.735365  1
  Ho  Ho2  1  0.238960  0.185379  0.235801  1
  Ho  Ho3  1  0.738960  0.814621  0.264199  1
  Pt  Pt4  1  0.758790  0.271883  0.957786  1
  Pt  Pt5  1  0.258790  0.728117  0.542214  1
  Pt  Pt6  1  0.240966  0.726816  0.044310  1
  Pt  Pt7  1  0.740966  0.273184  0.455690  1
  F  F8  1  0.435416  0.702511  0.916645  1
  F  F9  1  0.935416  0.297489  0.583355  1
  F  F10  1  0.562916  0.296776  0.084864  1
  F  F11  1  0.062916  0.703224  0.415136  1
  F  F12  1  0.440779  0.278606  0.541469  1
  F  F13  1  0.940779  0.721394  0.958531  1
  F  F14  1  0.560119  0.722813  0.456542  1
  F  F15  1  0.060119  0.277187  0.043458  1
  F  F16  1  0.774938  0.520416  0.858908  1
  F  F17  1  0.274938  0.479584  0.641092  1
  F  F18  1  0.225386  0.477565  0.142098  1
  F  F19  1  0.725386  0.522435  0.357902  1
  F  F20  1  0.753989  0.022865  0.051005  1
  F  F21  1  0.253989  0.977135  0.448995  1
  F  F22  1  0.245727  0.975669  0.950671  1
  F  F23  1  0.745727  0.024331  0.549329  1
  F  F24  1  0.966360  0.724676  0.635500  1
  F  F25  1  0.466360  0.275324  0.864500  1
  F  F26  1  0.034230  0.274732  0.363066  1
  F  F27  1  0.534230  0.725268  0.136934  1
  F  F28  1  0.050709  0.746005  0.175981  1
  F  F29  1  0.550709  0.253995  0.324019  1
  F  F30  1  0.947001  0.254303  0.825159  1
  F  F31  1  0.447001  0.745697  0.674841  1
  F  F32  1  0.416527  0.970607  0.232676  1
  F  F33  1  0.916527  0.029393  0.267324  1
  F  F34  1  0.586344  0.030775  0.767853  1
  F  F35  1  0.086344  0.969225  0.732147  1
