# generated using pymatgen
data_Sr4GdErNb2O12
_symmetry_space_group_name_H-M   'P 1'
_cell_length_a   5.96897657
_cell_length_b   5.86418589
_cell_length_c   10.18031955
_cell_angle_alpha   55.04638568
_cell_angle_beta   89.95081103
_cell_angle_gamma   89.97918643
_symmetry_Int_Tables_number   1
_chemical_formula_structural   Sr4GdErNb2O12
_chemical_formula_sum   'Sr4 Gd1 Er1 Nb2 O12'
_cell_volume   292.06488609
_cell_formula_units_Z   1
loop_
 _symmetry_equiv_pos_site_id
 _symmetry_equiv_pos_as_xyz
  1  'x, y, z'
loop_
 _atom_site_type_symbol
 _atom_site_label
 _atom_site_symmetry_multiplicity
 _atom_site_fract_x
 _atom_site_fract_y
 _atom_site_fract_z
 _atom_site_occupancy
  Sr  Sr0  1  0.459437  0.256863  0.752804  1
  Sr  Sr1  1  0.960713  0.738995  0.751531  1
  Sr  Sr2  1  0.039287  0.261005  0.248469  1
  Sr  Sr3  1  0.540563  0.743137  0.247196  1
  Gd  Gd4  1  0.500000  0.000000  0.500000  1
  Er  Er5  1  0.000000  0.000000  0.000000  1
  Nb  Nb6  1  0.500000  0.500000  0.000000  1
  Nb  Nb7  1  0.000000  0.500000  0.500000  1
  O  O8  1  0.723267  0.641352  0.548393  1
  O  O9  1  0.224437  0.349583  0.953289  1
  O  O10  1  0.276733  0.358648  0.451607  1
  O  O11  1  0.775563  0.650417  0.046711  1
  O  O12  1  0.192707  0.732555  0.544003  1
  O  O13  1  0.699625  0.266668  0.958008  1
  O  O14  1  0.807293  0.267445  0.455997  1
  O  O15  1  0.300375  0.733332  0.041992  1
  O  O16  1  0.026943  0.179162  0.736842  1
  O  O17  1  0.527597  0.819068  0.766837  1
  O  O18  1  0.973057  0.820838  0.263158  1
  O  O19  1  0.472403  0.180932  0.233163  1
