# generated using pymatgen
data_Tm16Cd4Co3Ni
_symmetry_space_group_name_H-M   'P 1'
_cell_length_a   9.41442136
_cell_length_b   9.38442477
_cell_length_c   9.38442500
_cell_angle_alpha   60.00000270
_cell_angle_beta   60.10534676
_cell_angle_gamma   60.10535073
_symmetry_Int_Tables_number   1
_chemical_formula_structural   Tm16Cd4Co3Ni
_chemical_formula_sum   'Tm16 Cd4 Co3 Ni1'
_cell_volume   587.19680323
_cell_formula_units_Z   1
loop_
 _symmetry_equiv_pos_site_id
 _symmetry_equiv_pos_as_xyz
  1  'x, y, z'
loop_
 _atom_site_type_symbol
 _atom_site_label
 _atom_site_symmetry_multiplicity
 _atom_site_fract_x
 _atom_site_fract_y
 _atom_site_fract_z
 _atom_site_occupancy
  Tm  Tm0  1  0.343652  0.348114  0.348114  1
  Tm  Tm1  1  0.343652  0.348114  0.960120  1
  Tm  Tm2  1  0.343652  0.960120  0.348114  1
  Tm  Tm3  1  0.961686  0.346105  0.346105  1
  Tm  Tm4  1  0.816572  0.187766  0.187766  1
  Tm  Tm5  1  0.187550  0.812647  0.812647  1
  Tm  Tm6  1  0.187550  0.812647  0.187156  1
  Tm  Tm7  1  0.816572  0.187766  0.807895  1
  Tm  Tm8  1  0.187550  0.187156  0.812647  1
  Tm  Tm9  1  0.816572  0.807895  0.187766  1
  Tm  Tm10  1  0.937175  0.562350  0.562350  1
  Tm  Tm11  1  0.561337  0.937202  0.937202  1
  Tm  Tm12  1  0.561337  0.937202  0.564259  1
  Tm  Tm13  1  0.937175  0.562350  0.938124  1
  Tm  Tm14  1  0.561337  0.564259  0.937202  1
  Tm  Tm15  1  0.937175  0.938124  0.562350  1
  Cd  Cd16  1  0.580983  0.580912  0.580912  1
  Cd  Cd17  1  0.580983  0.580912  0.257194  1
  Cd  Cd18  1  0.580983  0.257194  0.580912  1
  Cd  Cd19  1  0.256276  0.581242  0.581242  1
  Co  Co20  1  0.141082  0.141384  0.141384  1
  Co  Co21  1  0.141082  0.141384  0.576151  1
  Co  Co22  1  0.141082  0.576151  0.141384  1
  Ni  Ni23  1  0.576986  0.141005  0.141005  1
