# generated using pymatgen
data_Rb16NdPaBi8
_symmetry_space_group_name_H-M   'P 1'
_cell_length_a   12.34053182
_cell_length_b   12.34053245
_cell_length_c   12.34053200
_cell_angle_alpha   60.00000121
_cell_angle_beta   59.99999952
_cell_angle_gamma   60.00000447
_symmetry_Int_Tables_number   1
_chemical_formula_structural   Rb16NdPaBi8
_chemical_formula_sum   'Rb16 Nd1 Pa1 Bi8'
_cell_volume   1328.88278812
_cell_formula_units_Z   1
loop_
 _symmetry_equiv_pos_site_id
 _symmetry_equiv_pos_as_xyz
  1  'x, y, z'
loop_
 _atom_site_type_symbol
 _atom_site_label
 _atom_site_symmetry_multiplicity
 _atom_site_fract_x
 _atom_site_fract_y
 _atom_site_fract_z
 _atom_site_occupancy
  Rb  Rb0  1  0.623794  0.128619  0.623794  1
  Rb  Rb1  1  0.623794  0.623794  0.128619  1
  Rb  Rb2  1  0.128619  0.623794  0.623794  1
  Rb  Rb3  1  0.623794  0.623794  0.623794  1
  Rb  Rb4  1  0.036930  0.036930  0.463070  1
  Rb  Rb5  1  0.775456  0.224544  0.224544  1
  Rb  Rb6  1  0.224544  0.775456  0.775456  1
  Rb  Rb7  1  0.775456  0.775456  0.224544  1
  Rb  Rb8  1  0.775456  0.224544  0.775456  1
  Rb  Rb9  1  0.224544  0.775456  0.224544  1
  Rb  Rb10  1  0.463070  0.036930  0.463070  1
  Rb  Rb11  1  0.463070  0.036930  0.036930  1
  Rb  Rb12  1  0.036930  0.463070  0.463070  1
  Rb  Rb13  1  0.036930  0.463070  0.036930  1
  Rb  Rb14  1  0.224544  0.224544  0.775456  1
  Rb  Rb15  1  0.463070  0.463070  0.036930  1
  Nd  Nd16  1  0.500000  0.500000  0.500000  1
  Pa  Pa17  1  0.750000  0.750000  0.750000  1
  Bi  Bi18  1  0.393858  0.818427  0.393858  1
  Bi  Bi19  1  0.851336  0.851336  0.445994  1
  Bi  Bi20  1  0.445994  0.851336  0.851336  1
  Bi  Bi21  1  0.851336  0.851336  0.851336  1
  Bi  Bi22  1  0.818427  0.393858  0.393858  1
  Bi  Bi23  1  0.393858  0.393858  0.393858  1
  Bi  Bi24  1  0.393858  0.393858  0.818427  1
  Bi  Bi25  1  0.851336  0.445994  0.851336  1
