# generated using pymatgen
data_SrMnBi2(Pt2O7)2
_symmetry_space_group_name_H-M   'P 1'
_cell_length_a   7.44252969
_cell_length_b   7.31560732
_cell_length_c   7.33820469
_cell_angle_alpha   59.41723873
_cell_angle_beta   59.52858729
_cell_angle_gamma   59.42439708
_symmetry_Int_Tables_number   1
_chemical_formula_structural   SrMnBi2(Pt2O7)2
_chemical_formula_sum   'Sr1 Mn1 Bi2 Pt4 O14'
_cell_volume   279.02564011
_cell_formula_units_Z   1
loop_
 _symmetry_equiv_pos_site_id
 _symmetry_equiv_pos_as_xyz
  1  'x, y, z'
loop_
 _atom_site_type_symbol
 _atom_site_label
 _atom_site_symmetry_multiplicity
 _atom_site_fract_x
 _atom_site_fract_y
 _atom_site_fract_z
 _atom_site_occupancy
  Sr  Sr0  1  0.125000  0.125000  0.625000  1
  Mn  Mn1  1  0.125000  0.625000  0.125000  1
  Bi  Bi2  1  0.625000  0.125000  0.125000  1
  Bi  Bi3  1  0.125000  0.125000  0.125000  1
  Pt  Pt4  1  0.625000  0.625000  0.125000  1
  Pt  Pt5  1  0.625000  0.125000  0.625000  1
  Pt  Pt6  1  0.125000  0.625000  0.625000  1
  Pt  Pt7  1  0.625000  0.625000  0.625000  1
  O  O8  1  0.244848  0.295784  0.214521  1
  O  O9  1  0.005152  0.954216  0.035479  1
  O  O10  1  0.544266  0.960949  0.536487  1
  O  O11  1  0.294310  0.704204  0.290635  1
  O  O12  1  0.539149  0.545796  0.959365  1
  O  O13  1  0.959025  0.557499  0.524451  1
  O  O14  1  0.539825  0.959731  0.960618  1
  O  O15  1  0.958297  0.960949  0.536487  1
  O  O16  1  0.955690  0.545796  0.959365  1
  O  O17  1  0.710175  0.290269  0.289382  1
  O  O18  1  0.290975  0.692501  0.725549  1
  O  O19  1  0.705734  0.289051  0.713513  1
  O  O20  1  0.291703  0.289051  0.713513  1
  O  O21  1  0.710851  0.704204  0.290635  1
