# generated using pymatgen
data_HfTa3TiB6
_symmetry_space_group_name_H-M   'P 1'
_cell_length_a   11.57249152
_cell_length_b   11.57249105
_cell_length_c   3.33211000
_cell_angle_alpha   90.00000000
_cell_angle_beta   90.00000000
_cell_angle_gamma   164.45737748
_symmetry_Int_Tables_number   1
_chemical_formula_structural   HfTa3TiB6
_chemical_formula_sum   'Hf1 Ta3 Ti1 B6'
_cell_volume   119.57356098
_cell_formula_units_Z   1
loop_
 _symmetry_equiv_pos_site_id
 _symmetry_equiv_pos_as_xyz
  1  'x, y, z'
loop_
 _atom_site_type_symbol
 _atom_site_label
 _atom_site_symmetry_multiplicity
 _atom_site_fract_x
 _atom_site_fract_y
 _atom_site_fract_z
 _atom_site_occupancy
  Hf  Hf0  1  0.000414  0.999586  0.000000  1
  Ta  Ta1  1  0.804044  0.195956  0.500000  1
  Ta  Ta2  1  0.384151  0.615849  0.000000  1
  Ta  Ta3  1  0.616962  0.383038  0.000000  1
  Ti  Ti4  1  0.195064  0.804936  0.500000  1
  B  B5  1  0.459292  0.540708  0.500000  1
  B  B6  1  0.541975  0.458025  0.500000  1
  B  B7  1  0.269966  0.730034  0.000000  1
  B  B8  1  0.727047  0.272953  0.000000  1
  B  B9  1  0.083289  0.916711  0.500000  1
  B  B10  1  0.917795  0.082205  0.500000  1
