# generated using pymatgen
data_Nd2Tm3In4
_symmetry_space_group_name_H-M   'P 1'
_cell_length_a   8.32465600
_cell_length_b   8.32465600
_cell_length_c   15.20192300
_cell_angle_alpha   90.00000000
_cell_angle_beta   90.00000000
_cell_angle_gamma   90.00000000
_symmetry_Int_Tables_number   1
_chemical_formula_structural   Nd2Tm3In4
_chemical_formula_sum   'Nd8 Tm12 In16'
_cell_volume   1053.49170598
_cell_formula_units_Z   4
loop_
 _symmetry_equiv_pos_site_id
 _symmetry_equiv_pos_as_xyz
  1  'x, y, z'
loop_
 _atom_site_type_symbol
 _atom_site_label
 _atom_site_symmetry_multiplicity
 _atom_site_fract_x
 _atom_site_fract_y
 _atom_site_fract_z
 _atom_site_occupancy
  Nd  Nd0  1  0.645797  0.998324  0.466375  1
  Nd  Nd1  1  0.354203  0.001676  0.966375  1
  Nd  Nd2  1  0.998324  0.645797  0.533625  1
  Nd  Nd3  1  0.498324  0.854203  0.216375  1
  Nd  Nd4  1  0.501676  0.145797  0.716375  1
  Nd  Nd5  1  0.854203  0.498324  0.783625  1
  Nd  Nd6  1  0.145797  0.501676  0.283625  1
  Nd  Nd7  1  0.001676  0.354203  0.033625  1
  Tm  Tm8  1  0.502289  0.345421  0.122429  1
  Tm  Tm9  1  0.002289  0.154579  0.627571  1
  Tm  Tm10  1  0.845421  0.997711  0.872429  1
  Tm  Tm11  1  0.154579  0.002289  0.372429  1
  Tm  Tm12  1  0.497711  0.654579  0.622429  1
  Tm  Tm13  1  0.345421  0.502289  0.877571  1
  Tm  Tm14  1  0.654579  0.497711  0.377571  1
  Tm  Tm15  1  0.997711  0.845421  0.127571  1
  Tm  Tm16  1  0.326029  0.326029  0.500000  1
  Tm  Tm17  1  0.173971  0.826029  0.750000  1
  Tm  Tm18  1  0.826029  0.173971  0.250000  1
  Tm  Tm19  1  0.673971  0.673971  0.000000  1
  In  In20  1  0.289396  0.949006  0.563960  1
  In  In21  1  0.710604  0.050994  0.063960  1
  In  In22  1  0.949006  0.289396  0.436040  1
  In  In23  1  0.449006  0.210604  0.313960  1
  In  In24  1  0.550994  0.789396  0.813960  1
  In  In25  1  0.210604  0.449006  0.686040  1
  In  In26  1  0.789396  0.550994  0.186040  1
  In  In27  1  0.050994  0.710604  0.936040  1
  In  In28  1  0.800339  0.855984  0.676443  1
  In  In29  1  0.199661  0.144016  0.176443  1
  In  In30  1  0.855984  0.800339  0.323557  1
  In  In31  1  0.355984  0.699661  0.426443  1
  In  In32  1  0.644016  0.300339  0.926443  1
  In  In33  1  0.699661  0.355984  0.573557  1
  In  In34  1  0.300339  0.644016  0.073557  1
  In  In35  1  0.144016  0.199661  0.823557  1
