# generated using pymatgen
data_Gd3Zn2IrAu3
_symmetry_space_group_name_H-M   'P 1'
_cell_length_a   3.76269500
_cell_length_b   7.73408515
_cell_length_c   7.48586400
_cell_angle_alpha   120.79079693
_cell_angle_beta   90.00000000
_cell_angle_gamma   90.00000000
_symmetry_Int_Tables_number   1
_chemical_formula_structural   Gd3Zn2IrAu3
_chemical_formula_sum   'Gd3 Zn2 Ir1 Au3'
_cell_volume   187.13902523
_cell_formula_units_Z   1
loop_
 _symmetry_equiv_pos_site_id
 _symmetry_equiv_pos_as_xyz
  1  'x, y, z'
loop_
 _atom_site_type_symbol
 _atom_site_label
 _atom_site_symmetry_multiplicity
 _atom_site_fract_x
 _atom_site_fract_y
 _atom_site_fract_z
 _atom_site_occupancy
  Gd  Gd0  1  0.000000  0.420878  0.018939  1
  Gd  Gd1  1  0.000000  0.612599  0.605363  1
  Gd  Gd2  1  0.000000  0.967215  0.379283  1
  Zn  Zn3  1  0.500000  0.273752  0.264005  1
  Zn  Zn4  1  0.500000  0.997735  0.731896  1
  Ir  Ir5  1  0.500000  0.659750  0.351109  1
  Au  Au6  1  0.500000  0.310372  0.650513  1
  Au  Au7  1  0.000000  0.027715  0.004523  1
  Au  Au8  1  0.500000  0.730085  0.994367  1
