# generated using pymatgen
data_Y4Lu6Sn7Pb
_symmetry_space_group_name_H-M   'P 1'
_cell_length_a   8.01432900
_cell_length_b   8.17631391
_cell_length_c   15.39251700
_cell_angle_alpha   90.10570167
_cell_angle_beta   90.00000000
_cell_angle_gamma   90.00000000
_symmetry_Int_Tables_number   1
_chemical_formula_structural   Y4Lu6Sn7Pb
_chemical_formula_sum   'Y8 Lu12 Sn14 Pb2'
_cell_volume   1008.63405360
_cell_formula_units_Z   2
loop_
 _symmetry_equiv_pos_site_id
 _symmetry_equiv_pos_as_xyz
  1  'x, y, z'
loop_
 _atom_site_type_symbol
 _atom_site_label
 _atom_site_symmetry_multiplicity
 _atom_site_fract_x
 _atom_site_fract_y
 _atom_site_fract_z
 _atom_site_occupancy
  Y  Y0  1  0.518079  0.324373  0.902665  1
  Y  Y1  1  0.018079  0.175627  0.597335  1
  Y  Y2  1  0.480893  0.680589  0.403525  1
  Y  Y3  1  0.980893  0.819411  0.096475  1
  Y  Y4  1  0.484109  0.674894  0.096670  1
  Y  Y5  1  0.984109  0.825106  0.403330  1
  Y  Y6  1  0.514141  0.320443  0.597324  1
  Y  Y7  1  0.014141  0.179557  0.902676  1
  Lu  Lu8  1  0.360058  0.835498  0.875018  1
  Lu  Lu9  1  0.860058  0.664502  0.624982  1
  Lu  Lu10  1  0.640038  0.159333  0.375390  1
  Lu  Lu11  1  0.140038  0.340667  0.124610  1
  Lu  Lu12  1  0.642758  0.162386  0.124492  1
  Lu  Lu13  1  0.142758  0.337614  0.375508  1
  Lu  Lu14  1  0.359850  0.837342  0.624136  1
  Lu  Lu15  1  0.859850  0.662658  0.875864  1
  Lu  Lu16  1  0.191430  0.503986  0.750214  1
  Lu  Lu17  1  0.691430  0.996014  0.749786  1
  Lu  Lu18  1  0.808998  0.496173  0.248143  1
  Lu  Lu19  1  0.308998  0.003827  0.251857  1
  Sn  Sn20  1  0.698215  0.959024  0.541815  1
  Sn  Sn21  1  0.198215  0.540976  0.958185  1
  Sn  Sn22  1  0.697054  0.959455  0.957917  1
  Sn  Sn23  1  0.197054  0.540545  0.542083  1
  Sn  Sn24  1  0.302017  0.042076  0.459009  1
  Sn  Sn25  1  0.802017  0.457924  0.040991  1
  Sn  Sn26  1  0.556318  0.622563  0.749440  1
  Sn  Sn27  1  0.056318  0.877437  0.750560  1
  Sn  Sn28  1  0.445119  0.375930  0.250465  1
  Sn  Sn29  1  0.945119  0.124070  0.249535  1
  Sn  Sn30  1  0.325563  0.147737  0.750481  1
  Sn  Sn31  1  0.825563  0.352263  0.749519  1
  Sn  Sn32  1  0.673927  0.850903  0.249977  1
  Sn  Sn33  1  0.173927  0.649097  0.250023  1
  Pb  Pb34  1  0.301432  0.041109  0.041607  1
  Pb  Pb35  1  0.801432  0.458891  0.458393  1
