# generated using pymatgen
data_Nd3ClO4
_symmetry_space_group_name_H-M   'P 1'
_cell_length_a   6.47560959
_cell_length_b   6.47560942
_cell_length_c   12.24663300
_cell_angle_alpha   90.00000000
_cell_angle_beta   90.00000000
_cell_angle_gamma   142.25274151
_symmetry_Int_Tables_number   1
_chemical_formula_structural   Nd3ClO4
_chemical_formula_sum   'Nd6 Cl2 O8'
_cell_volume   314.38133262
_cell_formula_units_Z   2
loop_
 _symmetry_equiv_pos_site_id
 _symmetry_equiv_pos_as_xyz
  1  'x, y, z'
loop_
 _atom_site_type_symbol
 _atom_site_label
 _atom_site_symmetry_multiplicity
 _atom_site_fract_x
 _atom_site_fract_y
 _atom_site_fract_z
 _atom_site_occupancy
  Nd  Nd0  1  0.323190  0.676810  0.101033  1
  Nd  Nd1  1  0.676810  0.323190  0.898967  1
  Nd  Nd2  1  0.676810  0.323190  0.601033  1
  Nd  Nd3  1  0.323190  0.676810  0.398967  1
  Nd  Nd4  1  0.624548  0.375452  0.250000  1
  Nd  Nd5  1  0.375452  0.624548  0.750000  1
  Cl  Cl6  1  0.000000  0.000000  0.000000  1
  Cl  Cl7  1  0.000000  0.000000  0.500000  1
  O  O8  1  0.202972  0.797028  0.250000  1
  O  O9  1  0.266889  0.733111  0.589234  1
  O  O10  1  0.266889  0.733111  0.910766  1
  O  O11  1  0.797028  0.202972  0.750000  1
  O  O12  1  0.733111  0.266889  0.410766  1
  O  O13  1  0.440106  0.559894  0.250000  1
  O  O14  1  0.559894  0.440106  0.750000  1
  O  O15  1  0.733111  0.266889  0.089234  1
