# generated using pymatgen
data_Tb5Y3Hf3Si16W9
_symmetry_space_group_name_H-M   'P 1'
_cell_length_a   6.97612103
_cell_length_b   6.97668815
_cell_length_c   12.93836811
_cell_angle_alpha   89.98679845
_cell_angle_beta   90.02877648
_cell_angle_gamma   89.90223985
_symmetry_Int_Tables_number   1
_chemical_formula_structural   Tb5Y3Hf3Si16W9
_chemical_formula_sum   'Tb5 Y3 Hf3 Si16 W9'
_cell_volume   629.71222162
_cell_formula_units_Z   1
loop_
 _symmetry_equiv_pos_site_id
 _symmetry_equiv_pos_as_xyz
  1  'x, y, z'
loop_
 _atom_site_type_symbol
 _atom_site_label
 _atom_site_symmetry_multiplicity
 _atom_site_fract_x
 _atom_site_fract_y
 _atom_site_fract_z
 _atom_site_occupancy
  Tb  Tb0  1  0.500108  0.839091  0.030809  1
  Tb  Tb1  1  0.839069  0.500078  0.969137  1
  Tb  Tb2  1  0.498197  0.162165  0.531385  1
  Tb  Tb3  1  0.336292  0.001108  0.783047  1
  Tb  Tb4  1  0.662834  0.003519  0.279582  1
  Y  Y5  1  0.001182  0.336394  0.216971  1
  Y  Y6  1  0.003435  0.662706  0.720391  1
  Y  Y7  1  0.162101  0.498319  0.468626  1
  Hf  Hf8  1  0.832577  0.832789  0.500029  1
  Hf  Hf9  1  0.331062  0.667505  0.247810  1
  Hf  Hf10  1  0.667355  0.330792  0.752235  1
  Si  Si11  1  0.372651  0.294976  0.317521  1
  Si  Si12  1  0.625589  0.707036  0.817491  1
  Si  Si13  1  0.205059  0.873315  0.568127  1
  Si  Si14  1  0.124449  0.802022  0.933616  1
  Si  Si15  1  0.802156  0.124498  0.066378  1
  Si  Si16  1  0.873833  0.205193  0.431895  1
  Si  Si17  1  0.294704  0.373167  0.682403  1
  Si  Si18  1  0.707009  0.625239  0.182401  1
  Si  Si19  1  0.289215  0.043750  0.184237  1
  Si  Si20  1  0.708250  0.959609  0.688573  1
  Si  Si21  1  0.458409  0.790924  0.437559  1
  Si  Si22  1  0.210281  0.532034  0.059228  1
  Si  Si23  1  0.532112  0.210341  0.940736  1
  Si  Si24  1  0.791316  0.458602  0.562416  1
  Si  Si25  1  0.043646  0.289594  0.815653  1
  Si  Si26  1  0.959728  0.707978  0.311420  1
  W  W27  1  0.166331  0.166326  0.000135  1
  W  W28  1  0.162001  0.994775  0.375064  1
  W  W29  1  0.833470  0.005674  0.876911  1
  W  W30  1  0.506117  0.661791  0.626621  1
  W  W31  1  0.340136  0.497240  0.873667  1
  W  W32  1  0.496993  0.340141  0.126374  1
  W  W33  1  0.661924  0.505862  0.373346  1
  W  W34  1  0.995011  0.162149  0.624956  1
  W  W35  1  0.005401  0.833301  0.123250  1
