# generated using pymatgen
data_PrBeSiIr2
_symmetry_space_group_name_H-M   'P 1'
_cell_length_a   5.70700464
_cell_length_b   5.70700416
_cell_length_c   5.70700431
_cell_angle_alpha   137.58230260
_cell_angle_beta   137.58229530
_cell_angle_gamma   61.54333406
_symmetry_Int_Tables_number   1
_chemical_formula_structural   PrBeSiIr2
_chemical_formula_sum   'Pr1 Be1 Si1 Ir2'
_cell_volume   83.60786666
_cell_formula_units_Z   1
loop_
 _symmetry_equiv_pos_site_id
 _symmetry_equiv_pos_as_xyz
  1  'x, y, z'
loop_
 _atom_site_type_symbol
 _atom_site_label
 _atom_site_symmetry_multiplicity
 _atom_site_fract_x
 _atom_site_fract_y
 _atom_site_fract_z
 _atom_site_occupancy
  Pr  Pr0  1  0.001561  0.001561  0.000000  1
  Be  Be1  1  0.635677  0.635677  0.000000  1
  Si  Si2  1  0.369526  0.369526  0.000000  1
  Ir  Ir3  1  0.746618  0.246618  0.500000  1
  Ir  Ir4  1  0.246618  0.746618  0.500000  1
