# generated using pymatgen
data_Tm4Al3GaPtRh3
_symmetry_space_group_name_H-M   'P 1'
_cell_length_a   4.24467300
_cell_length_b   6.78571881
_cell_length_c   7.87867116
_cell_angle_alpha   89.96743774
_cell_angle_beta   90.00000000
_cell_angle_gamma   90.00000000
_symmetry_Int_Tables_number   1
_chemical_formula_structural   Tm4Al3GaPtRh3
_chemical_formula_sum   'Tm4 Al3 Ga1 Pt1 Rh3'
_cell_volume   226.93056914
_cell_formula_units_Z   1
loop_
 _symmetry_equiv_pos_site_id
 _symmetry_equiv_pos_as_xyz
  1  'x, y, z'
loop_
 _atom_site_type_symbol
 _atom_site_label
 _atom_site_symmetry_multiplicity
 _atom_site_fract_x
 _atom_site_fract_y
 _atom_site_fract_z
 _atom_site_occupancy
  Tm  Tm0  1  0.250000  0.963263  0.323426  1
  Tm  Tm1  1  0.750000  0.540185  0.817907  1
  Tm  Tm2  1  0.250000  0.466637  0.182419  1
  Tm  Tm3  1  0.750000  0.030658  0.676345  1
  Al  Al4  1  0.750000  0.135912  0.062847  1
  Al  Al5  1  0.250000  0.362493  0.559704  1
  Al  Al6  1  0.250000  0.861153  0.940084  1
  Ga  Ga7  1  0.750000  0.639878  0.438093  1
  Pt  Pt8  1  0.250000  0.236814  0.876549  1
  Rh  Rh9  1  0.750000  0.764027  0.118336  1
  Rh  Rh10  1  0.750000  0.260908  0.378115  1
  Rh  Rh11  1  0.250000  0.738070  0.626175  1
