# generated using pymatgen
data_TmLu7In3Au
_symmetry_space_group_name_H-M   'P 1'
_cell_length_a   10.40911615
_cell_length_b   10.40911578
_cell_length_c   6.76000101
_cell_angle_alpha   90.00560194
_cell_angle_beta   89.99440154
_cell_angle_gamma   119.98167122
_symmetry_Int_Tables_number   1
_chemical_formula_structural   TmLu7In3Au
_chemical_formula_sum   'Tm2 Lu14 In6 Au2'
_cell_volume   634.43226974
_cell_formula_units_Z   2
loop_
 _symmetry_equiv_pos_site_id
 _symmetry_equiv_pos_as_xyz
  1  'x, y, z'
loop_
 _atom_site_type_symbol
 _atom_site_label
 _atom_site_symmetry_multiplicity
 _atom_site_fract_x
 _atom_site_fract_y
 _atom_site_fract_z
 _atom_site_occupancy
  Tm  Tm0  1  0.522441  0.044804  0.527263  1
  Tm  Tm1  1  0.955196  0.477559  0.527263  1
  Lu  Lu2  1  0.522517  0.477483  0.527243  1
  Lu  Lu3  1  0.477551  0.955090  0.027196  1
  Lu  Lu4  1  0.044910  0.522449  0.027196  1
  Lu  Lu5  1  0.477533  0.522467  0.027199  1
  Lu  Lu6  1  0.173423  0.346596  0.741746  1
  Lu  Lu7  1  0.653404  0.826577  0.741746  1
  Lu  Lu8  1  0.173276  0.826724  0.741843  1
  Lu  Lu9  1  0.826655  0.653477  0.241478  1
  Lu  Lu10  1  0.346523  0.173345  0.241478  1
  Lu  Lu11  1  0.826763  0.173237  0.241324  1
  Lu  Lu12  1  0.666594  0.333406  0.884621  1
  Lu  Lu13  1  0.333428  0.666572  0.384126  1
  Lu  Lu14  1  0.000011  0.999989  0.505345  1
  Lu  Lu15  1  0.999991  0.000009  0.005434  1
  In  In16  1  0.835905  0.671962  0.761205  1
  In  In17  1  0.328038  0.164095  0.761205  1
  In  In18  1  0.836033  0.163967  0.761334  1
  In  In19  1  0.164024  0.328121  0.261203  1
  In  In20  1  0.671879  0.835976  0.261203  1
  In  In21  1  0.164075  0.835925  0.261228  1
  Au  Au22  1  0.666504  0.333496  0.297711  1
  Au  Au23  1  0.333325  0.666675  0.798091  1
