# generated using pymatgen
data_Tb6HoScO12
_symmetry_space_group_name_H-M   'P 1'
_cell_length_a   6.69695417
_cell_length_b   6.69695360
_cell_length_c   6.69695473
_cell_angle_alpha   92.56617974
_cell_angle_beta   92.56616797
_cell_angle_gamma   92.56617440
_symmetry_Int_Tables_number   1
_chemical_formula_structural   Tb6HoScO12
_chemical_formula_sum   'Tb6 Ho1 Sc1 O12'
_cell_volume   299.42145147
_cell_formula_units_Z   1
loop_
 _symmetry_equiv_pos_site_id
 _symmetry_equiv_pos_as_xyz
  1  'x, y, z'
loop_
 _atom_site_type_symbol
 _atom_site_label
 _atom_site_symmetry_multiplicity
 _atom_site_fract_x
 _atom_site_fract_y
 _atom_site_fract_z
 _atom_site_occupancy
  Tb  Tb0  1  0.742867  0.929753  0.439089  1
  Tb  Tb1  1  0.929753  0.439089  0.742867  1
  Tb  Tb2  1  0.439089  0.742867  0.929753  1
  Tb  Tb3  1  0.257133  0.070247  0.560911  1
  Tb  Tb4  1  0.070247  0.560911  0.257133  1
  Tb  Tb5  1  0.560911  0.257133  0.070247  1
  Ho  Ho6  1  0.000000  0.000000  0.000000  1
  Sc  Sc7  1  0.500000  0.500000  0.500000  1
  O  O8  1  0.592458  0.464377  0.804418  1
  O  O9  1  0.464377  0.804418  0.592458  1
  O  O10  1  0.804418  0.592458  0.464377  1
  O  O11  1  0.407542  0.535623  0.195582  1
  O  O12  1  0.535623  0.195582  0.407542  1
  O  O13  1  0.195582  0.407542  0.535623  1
  O  O14  1  0.068542  0.907241  0.315740  1
  O  O15  1  0.907241  0.315740  0.068542  1
  O  O16  1  0.684260  0.931458  0.092759  1
  O  O17  1  0.092759  0.684260  0.931458  1
  O  O18  1  0.931458  0.092759  0.684260  1
  O  O19  1  0.315740  0.068542  0.907241  1
