# generated using pymatgen
data_Sr6YCr(BO3)6
_symmetry_space_group_name_H-M   'P 1'
_cell_length_a   7.77249228
_cell_length_b   7.77249253
_cell_length_c   7.77249397
_cell_angle_alpha   105.34596079
_cell_angle_beta   105.34595449
_cell_angle_gamma   105.34595660
_symmetry_Int_Tables_number   1
_chemical_formula_structural   Sr6YCr(BO3)6
_chemical_formula_sum   'Sr6 Y1 Cr1 B6 O18'
_cell_volume   407.40410329
_cell_formula_units_Z   1
loop_
 _symmetry_equiv_pos_site_id
 _symmetry_equiv_pos_as_xyz
  1  'x, y, z'
loop_
 _atom_site_type_symbol
 _atom_site_label
 _atom_site_symmetry_multiplicity
 _atom_site_fract_x
 _atom_site_fract_y
 _atom_site_fract_z
 _atom_site_occupancy
  Sr  Sr0  1  0.650552  0.267211  0.163848  1
  Sr  Sr1  1  0.163848  0.650552  0.267210  1
  Sr  Sr2  1  0.732789  0.836152  0.349448  1
  Sr  Sr3  1  0.267211  0.163848  0.650552  1
  Sr  Sr4  1  0.836152  0.349448  0.732789  1
  Sr  Sr5  1  0.349448  0.732789  0.836152  1
  Y  Y6  1  0.000000  0.000000  0.000000  1
  Cr  Cr7  1  0.500000  0.500000  0.500000  1
  B  B8  1  0.296558  0.379358  0.048804  1
  B  B9  1  0.379358  0.048805  0.296558  1
  B  B10  1  0.048805  0.296558  0.379358  1
  B  B11  1  0.951195  0.703442  0.620642  1
  B  B12  1  0.620642  0.951195  0.703442  1
  B  B13  1  0.703442  0.620642  0.951195  1
  O  O14  1  0.724787  0.813507  0.013819  1
  O  O15  1  0.803239  0.547116  0.067712  1
  O  O16  1  0.986181  0.275213  0.186493  1
  O  O17  1  0.452883  0.932287  0.196761  1
  O  O18  1  0.430670  0.501344  0.229569  1
  O  O19  1  0.186493  0.986181  0.275213  1
  O  O20  1  0.501344  0.229569  0.430669  1
  O  O21  1  0.932287  0.196762  0.452883  1
  O  O22  1  0.229569  0.430670  0.501344  1
  O  O23  1  0.770431  0.569330  0.498656  1
  O  O24  1  0.067713  0.803238  0.547117  1
  O  O25  1  0.498656  0.770431  0.569331  1
  O  O26  1  0.813507  0.013819  0.724787  1
  O  O27  1  0.569330  0.498656  0.770431  1
  O  O28  1  0.547117  0.067713  0.803239  1
  O  O29  1  0.013819  0.724787  0.813507  1
  O  O30  1  0.196761  0.452884  0.932288  1
  O  O31  1  0.275213  0.186493  0.986181  1
