# generated using pymatgen
data_CePrAl20(RuRh)2
_symmetry_space_group_name_H-M   'P 1'
_cell_length_a   6.87327825
_cell_length_b   6.87327788
_cell_length_c   9.18470269
_cell_angle_alpha   89.99587865
_cell_angle_beta   90.00412498
_cell_angle_gamma   97.40151160
_symmetry_Int_Tables_number   1
_chemical_formula_structural   CePrAl20(RuRh)2
_chemical_formula_sum   'Ce1 Pr1 Al20 Ru2 Rh2'
_cell_volume   430.28789116
_cell_formula_units_Z   1
loop_
 _symmetry_equiv_pos_site_id
 _symmetry_equiv_pos_as_xyz
  1  'x, y, z'
loop_
 _atom_site_type_symbol
 _atom_site_label
 _atom_site_symmetry_multiplicity
 _atom_site_fract_x
 _atom_site_fract_y
 _atom_site_fract_z
 _atom_site_occupancy
  Ce  Ce0  1  0.877236  0.122764  0.749979  1
  Pr  Pr1  1  0.126165  0.873835  0.249626  1
  Al  Al2  1  0.408852  0.141041  0.748709  1
  Al  Al3  1  0.140616  0.408556  0.251380  1
  Al  Al4  1  0.591444  0.859384  0.251380  1
  Al  Al5  1  0.858959  0.591148  0.748709  1
  Al  Al6  1  0.518860  0.776659  0.747174  1
  Al  Al7  1  0.775647  0.517966  0.253047  1
  Al  Al8  1  0.482034  0.224353  0.253047  1
  Al  Al9  1  0.223341  0.481140  0.747174  1
  Al  Al10  1  0.841417  0.158583  0.398446  1
  Al  Al11  1  0.157664  0.842336  0.601432  1
  Al  Al12  1  0.840335  0.159665  0.103926  1
  Al  Al13  1  0.158640  0.841360  0.895744  1
  Al  Al14  1  0.622711  0.377289  0.548925  1
  Al  Al15  1  0.377142  0.622858  0.451939  1
  Al  Al16  1  0.621764  0.378236  0.947795  1
  Al  Al17  1  0.378522  0.621478  0.051106  1
  Al  Al18  1  0.774814  0.775406  0.999029  1
  Al  Al19  1  0.776965  0.777127  0.500910  1
  Al  Al20  1  0.224594  0.225186  0.999029  1
  Al  Al21  1  0.222873  0.223035  0.500910  1
  Ru  Ru22  1  0.500979  0.000947  0.500768  1
  Ru  Ru23  1  0.999053  0.499021  0.500768  1
  Rh  Rh24  1  0.500359  0.000985  0.999524  1
  Rh  Rh25  1  0.999015  0.499641  0.999524  1
