# generated using pymatgen
data_Tb4ScIr3
_symmetry_space_group_name_H-M   'P 1'
_cell_length_a   10.82064900
_cell_length_b   10.82064900
_cell_length_c   6.27794500
_cell_angle_alpha   90.00000000
_cell_angle_beta   90.00000000
_cell_angle_gamma   90.00000000
_symmetry_Int_Tables_number   1
_chemical_formula_structural   Tb4ScIr3
_chemical_formula_sum   'Tb16 Sc4 Ir12'
_cell_volume   735.06226058
_cell_formula_units_Z   4
loop_
 _symmetry_equiv_pos_site_id
 _symmetry_equiv_pos_as_xyz
  1  'x, y, z'
loop_
 _atom_site_type_symbol
 _atom_site_label
 _atom_site_symmetry_multiplicity
 _atom_site_fract_x
 _atom_site_fract_y
 _atom_site_fract_z
 _atom_site_occupancy
  Tb  Tb0  1  0.287467  0.086473  0.378401  1
  Tb  Tb1  1  0.287467  0.913527  0.878401  1
  Tb  Tb2  1  0.712533  0.086473  0.878401  1
  Tb  Tb3  1  0.712533  0.913527  0.378401  1
  Tb  Tb4  1  0.586473  0.787467  0.878401  1
  Tb  Tb5  1  0.586473  0.212533  0.378401  1
  Tb  Tb6  1  0.413527  0.787467  0.378401  1
  Tb  Tb7  1  0.413527  0.212533  0.878401  1
  Tb  Tb8  1  0.212533  0.413527  0.621599  1
  Tb  Tb9  1  0.212533  0.586473  0.121599  1
  Tb  Tb10  1  0.787467  0.413527  0.121599  1
  Tb  Tb11  1  0.787467  0.586473  0.621599  1
  Tb  Tb12  1  0.913527  0.712533  0.121599  1
  Tb  Tb13  1  0.913527  0.287467  0.621599  1
  Tb  Tb14  1  0.086473  0.712533  0.621599  1
  Tb  Tb15  1  0.086473  0.287467  0.121599  1
  Sc  Sc16  1  0.000000  0.000000  0.500000  1
  Sc  Sc17  1  0.000000  0.000000  0.000000  1
  Sc  Sc18  1  0.500000  0.500000  0.000000  1
  Sc  Sc19  1  0.500000  0.500000  0.500000  1
  Ir  Ir20  1  0.853287  0.146713  0.250000  1
  Ir  Ir21  1  0.853287  0.853287  0.750000  1
  Ir  Ir22  1  0.146713  0.146713  0.750000  1
  Ir  Ir23  1  0.146713  0.853287  0.250000  1
  Ir  Ir24  1  0.646713  0.353287  0.750000  1
  Ir  Ir25  1  0.646713  0.646713  0.250000  1
  Ir  Ir26  1  0.353287  0.353287  0.250000  1
  Ir  Ir27  1  0.353287  0.646713  0.750000  1
  Ir  Ir28  1  0.500000  0.000000  0.122166  1
  Ir  Ir29  1  0.500000  0.000000  0.622166  1
  Ir  Ir30  1  0.000000  0.500000  0.877834  1
  Ir  Ir31  1  0.000000  0.500000  0.377834  1
