# generated using pymatgen
data_ThV(Sb4Os)3
_symmetry_space_group_name_H-M   'P 1'
_cell_length_a   8.19117194
_cell_length_b   8.19117277
_cell_length_c   8.19117218
_cell_angle_alpha   109.57139067
_cell_angle_beta   109.57140260
_cell_angle_gamma   109.57139594
_symmetry_Int_Tables_number   1
_chemical_formula_structural   ThV(Sb4Os)3
_chemical_formula_sum   'Th1 V1 Sb12 Os3'
_cell_volume   421.49751313
_cell_formula_units_Z   1
loop_
 _symmetry_equiv_pos_site_id
 _symmetry_equiv_pos_as_xyz
  1  'x, y, z'
loop_
 _atom_site_type_symbol
 _atom_site_label
 _atom_site_symmetry_multiplicity
 _atom_site_fract_x
 _atom_site_fract_y
 _atom_site_fract_z
 _atom_site_occupancy
  Th  Th0  1  0.000000  0.000000  0.000000  1
  V  V1  1  0.500000  0.500000  0.500000  1
  Sb  Sb2  1  0.337439  0.180681  0.843765  1
  Sb  Sb3  1  0.662561  0.819319  0.156235  1
  Sb  Sb4  1  0.664013  0.505519  0.846678  1
  Sb  Sb5  1  0.335987  0.494481  0.153322  1
  Sb  Sb6  1  0.180681  0.843765  0.337439  1
  Sb  Sb7  1  0.819319  0.156235  0.662561  1
  Sb  Sb8  1  0.505519  0.846678  0.664013  1
  Sb  Sb9  1  0.494481  0.153322  0.335987  1
  Sb  Sb10  1  0.843765  0.337439  0.180681  1
  Sb  Sb11  1  0.156235  0.662561  0.819319  1
  Sb  Sb12  1  0.846678  0.664013  0.505519  1
  Sb  Sb13  1  0.153322  0.335987  0.494481  1
  Os  Os14  1  0.000000  0.000000  0.500000  1
  Os  Os15  1  0.500000  0.000000  0.000000  1
  Os  Os16  1  0.000000  0.500000  0.000000  1
