# generated using pymatgen
data_Tm3Ni2Sn3Ir
_symmetry_space_group_name_H-M   'P 1'
_cell_length_a   7.44911000
_cell_length_b   7.44911007
_cell_length_c   3.72389100
_cell_angle_alpha   90.00000000
_cell_angle_beta   90.00000000
_cell_angle_gamma   120.00000857
_symmetry_Int_Tables_number   1
_chemical_formula_structural   Tm3Ni2Sn3Ir
_chemical_formula_sum   'Tm3 Ni2 Sn3 Ir1'
_cell_volume   178.95190824
_cell_formula_units_Z   1
loop_
 _symmetry_equiv_pos_site_id
 _symmetry_equiv_pos_as_xyz
  1  'x, y, z'
loop_
 _atom_site_type_symbol
 _atom_site_label
 _atom_site_symmetry_multiplicity
 _atom_site_fract_x
 _atom_site_fract_y
 _atom_site_fract_z
 _atom_site_occupancy
  Tm  Tm0  1  0.998147  0.402055  0.500000  1
  Tm  Tm1  1  0.597945  0.596092  0.500000  1
  Tm  Tm2  1  0.403908  0.001853  0.500000  1
  Ni  Ni3  1  0.333333  0.666667  0.000000  1
  Ni  Ni4  1  0.000000  0.000000  0.500000  1
  Sn  Sn5  1  0.006091  0.743940  0.000000  1
  Sn  Sn6  1  0.256060  0.262151  0.000000  1
  Sn  Sn7  1  0.737849  0.993909  0.000000  1
  Ir  Ir8  1  0.666667  0.333333  0.000000  1
