# generated using pymatgen
data_Li2AgAuS2
_symmetry_space_group_name_H-M   'P 1'
_cell_length_a   7.25170831
_cell_length_b   7.49558298
_cell_length_c   6.32464068
_cell_angle_alpha   62.62428623
_cell_angle_beta   64.15294798
_cell_angle_gamma   50.75846530
_symmetry_Int_Tables_number   1
_chemical_formula_structural   Li2AgAuS2
_chemical_formula_sum   'Li4 Ag2 Au2 S4'
_cell_volume   231.11460604
_cell_formula_units_Z   2
loop_
 _symmetry_equiv_pos_site_id
 _symmetry_equiv_pos_as_xyz
  1  'x, y, z'
loop_
 _atom_site_type_symbol
 _atom_site_label
 _atom_site_symmetry_multiplicity
 _atom_site_fract_x
 _atom_site_fract_y
 _atom_site_fract_z
 _atom_site_occupancy
  Li  Li0  1  0.152956  0.135043  0.853466  1
  Li  Li1  1  0.853466  0.858536  0.152956  1
  Li  Li2  1  0.097044  0.114957  0.396534  1
  Li  Li3  1  0.396534  0.391464  0.097044  1
  Ag  Ag4  1  0.125000  0.625000  0.625000  1
  Ag  Ag5  1  0.625000  0.625000  0.125000  1
  Au  Au6  1  0.625000  0.625000  0.625000  1
  Au  Au7  1  0.625000  0.125000  0.625000  1
  S  S8  1  0.042781  0.454426  0.459384  1
  S  S9  1  0.790616  0.206591  0.207219  1
  S  S10  1  0.459384  0.043409  0.042781  1
  S  S11  1  0.207219  0.795574  0.790616  1
