# generated using pymatgen
data_NdErReB6
_symmetry_space_group_name_H-M   'P 1'
_cell_length_a   3.71790000
_cell_length_b   9.23009100
_cell_length_c   11.68937300
_cell_angle_alpha   90.00000000
_cell_angle_beta   90.00000000
_cell_angle_gamma   90.00000000
_symmetry_Int_Tables_number   1
_chemical_formula_structural   NdErReB6
_chemical_formula_sum   'Nd4 Er4 Re4 B24'
_cell_volume   401.13901531
_cell_formula_units_Z   4
loop_
 _symmetry_equiv_pos_site_id
 _symmetry_equiv_pos_as_xyz
  1  'x, y, z'
loop_
 _atom_site_type_symbol
 _atom_site_label
 _atom_site_symmetry_multiplicity
 _atom_site_fract_x
 _atom_site_fract_y
 _atom_site_fract_z
 _atom_site_occupancy
  Nd  Nd0  1  0.000000  0.322703  0.414085  1
  Nd  Nd1  1  0.000000  0.677297  0.585915  1
  Nd  Nd2  1  0.000000  0.822703  0.085915  1
  Nd  Nd3  1  0.000000  0.177297  0.914085  1
  Er  Er4  1  0.000000  0.943254  0.369563  1
  Er  Er5  1  0.000000  0.056746  0.630437  1
  Er  Er6  1  0.000000  0.443254  0.130437  1
  Er  Er7  1  0.000000  0.556746  0.869563  1
  Re  Re8  1  0.000000  0.639959  0.319064  1
  Re  Re9  1  0.000000  0.360041  0.680936  1
  Re  Re10  1  0.000000  0.139959  0.180936  1
  Re  Re11  1  0.000000  0.860041  0.819064  1
  B  B12  1  0.500000  0.555143  0.430536  1
  B  B13  1  0.500000  0.444857  0.569464  1
  B  B14  1  0.500000  0.055143  0.069464  1
  B  B15  1  0.500000  0.944857  0.930536  1
  B  B16  1  0.500000  0.750389  0.416201  1
  B  B17  1  0.500000  0.249611  0.583799  1
  B  B18  1  0.500000  0.250389  0.083799  1
  B  B19  1  0.500000  0.749611  0.916201  1
  B  B20  1  0.500000  0.791853  0.266377  1
  B  B21  1  0.500000  0.208147  0.733623  1
  B  B22  1  0.500000  0.291853  0.233623  1
  B  B23  1  0.500000  0.708147  0.766377  1
  B  B24  1  0.500000  0.629685  0.186410  1
  B  B25  1  0.500000  0.370315  0.813590  1
  B  B26  1  0.500000  0.129685  0.313590  1
  B  B27  1  0.500000  0.870315  0.686410  1
  B  B28  1  0.500000  0.983855  0.213332  1
  B  B29  1  0.500000  0.016145  0.786668  1
  B  B30  1  0.500000  0.483855  0.286668  1
  B  B31  1  0.500000  0.516145  0.713332  1
  B  B32  1  0.500000  0.596093  0.026616  1
  B  B33  1  0.500000  0.403907  0.973384  1
  B  B34  1  0.500000  0.096093  0.473384  1
  B  B35  1  0.500000  0.903907  0.526616  1
