# generated using pymatgen
data_Ta5NbCo4(ReN)2
_symmetry_space_group_name_H-M   'P 1'
_cell_length_a   8.10248265
_cell_length_b   8.09973295
_cell_length_c   8.09973247
_cell_angle_alpha   60.02245859
_cell_angle_beta   59.98877076
_cell_angle_gamma   59.98877153
_symmetry_Int_Tables_number   1
_chemical_formula_structural   Ta5NbCo4(ReN)2
_chemical_formula_sum   'Ta10 Nb2 Co8 Re4 N4'
_cell_volume   375.87582079
_cell_formula_units_Z   2
loop_
 _symmetry_equiv_pos_site_id
 _symmetry_equiv_pos_as_xyz
  1  'x, y, z'
loop_
 _atom_site_type_symbol
 _atom_site_label
 _atom_site_symmetry_multiplicity
 _atom_site_fract_x
 _atom_site_fract_y
 _atom_site_fract_z
 _atom_site_occupancy
  Ta  Ta0  1  0.807799  0.807799  0.192201  1
  Ta  Ta1  1  0.192201  0.192201  0.807799  1
  Ta  Ta2  1  0.807799  0.192201  0.807799  1
  Ta  Ta3  1  0.192201  0.807799  0.192201  1
  Ta  Ta4  1  0.192354  0.807646  0.807646  1
  Ta  Ta5  1  0.807646  0.192354  0.192354  1
  Ta  Ta6  1  0.442570  0.442570  0.057430  1
  Ta  Ta7  1  0.057430  0.057430  0.442570  1
  Ta  Ta8  1  0.442570  0.057430  0.442570  1
  Ta  Ta9  1  0.057430  0.442570  0.057430  1
  Nb  Nb10  1  0.058740  0.441260  0.441260  1
  Nb  Nb11  1  0.441260  0.058740  0.058740  1
  Co  Co12  1  0.733832  0.421741  0.421741  1
  Co  Co13  1  0.421741  0.733832  0.422685  1
  Co  Co14  1  0.421741  0.422685  0.733832  1
  Co  Co15  1  0.422685  0.421741  0.421741  1
  Co  Co16  1  0.515127  0.828238  0.828238  1
  Co  Co17  1  0.828238  0.515127  0.828397  1
  Co  Co18  1  0.828238  0.828397  0.515127  1
  Co  Co19  1  0.828397  0.828238  0.828238  1
  Re  Re20  1  0.125157  0.625396  0.625396  1
  Re  Re21  1  0.625396  0.125157  0.624050  1
  Re  Re22  1  0.625396  0.624050  0.125157  1
  Re  Re23  1  0.624050  0.625396  0.625396  1
  N  N24  1  0.626512  0.125498  0.125498  1
  N  N25  1  0.125498  0.626512  0.122493  1
  N  N26  1  0.125498  0.122493  0.626512  1
  N  N27  1  0.122493  0.125498  0.125498  1
