# generated using pymatgen
data_Zr4GaFe6Si
_symmetry_space_group_name_H-M   'P 1'
_cell_length_a   5.00551300
_cell_length_b   5.00532844
_cell_length_c   8.14396400
_cell_angle_alpha   89.99838090
_cell_angle_beta   89.99884150
_cell_angle_gamma   59.99810944
_symmetry_Int_Tables_number   1
_chemical_formula_structural   Zr4GaFe6Si
_chemical_formula_sum   'Zr4 Ga1 Fe6 Si1'
_cell_volume   176.70115031
_cell_formula_units_Z   1
loop_
 _symmetry_equiv_pos_site_id
 _symmetry_equiv_pos_as_xyz
  1  'x, y, z'
loop_
 _atom_site_type_symbol
 _atom_site_label
 _atom_site_symmetry_multiplicity
 _atom_site_fract_x
 _atom_site_fract_y
 _atom_site_fract_z
 _atom_site_occupancy
  Zr  Zr0  1  0.333334  0.333335  0.564140  1
  Zr  Zr1  1  0.666666  0.666665  0.435860  1
  Zr  Zr2  1  0.666666  0.666665  0.064361  1
  Zr  Zr3  1  0.333334  0.333335  0.935639  1
  Ga  Ga4  1  0.000000  0.000000  0.000000  1
  Fe  Fe5  1  0.828828  0.342331  0.746317  1
  Fe  Fe6  1  0.342317  0.828842  0.746319  1
  Fe  Fe7  1  0.828828  0.828839  0.746314  1
  Fe  Fe8  1  0.171172  0.657669  0.253683  1
  Fe  Fe9  1  0.657683  0.171158  0.253681  1
  Fe  Fe10  1  0.171172  0.171161  0.253686  1
  Si  Si11  1  0.000000  0.000000  0.500000  1
