# generated using pymatgen
data_Hf16Ni4Mo3Pd
_symmetry_space_group_name_H-M   'P 1'
_cell_length_a   8.68871449
_cell_length_b   8.68871471
_cell_length_c   8.68871519
_cell_angle_alpha   60.11724879
_cell_angle_beta   60.11723997
_cell_angle_gamma   60.11724834
_symmetry_Int_Tables_number   1
_chemical_formula_structural   Hf16Ni4Mo3Pd
_chemical_formula_sum   'Hf16 Ni4 Mo3 Pd1'
_cell_volume   465.05434550
_cell_formula_units_Z   1
loop_
 _symmetry_equiv_pos_site_id
 _symmetry_equiv_pos_as_xyz
  1  'x, y, z'
loop_
 _atom_site_type_symbol
 _atom_site_label
 _atom_site_symmetry_multiplicity
 _atom_site_fract_x
 _atom_site_fract_y
 _atom_site_fract_z
 _atom_site_occupancy
  Hf  Hf0  1  0.690633  0.102849  0.102849  1
  Hf  Hf1  1  0.102849  0.690633  0.102849  1
  Hf  Hf2  1  0.102849  0.102849  0.690633  1
  Hf  Hf3  1  0.103217  0.103217  0.103217  1
  Hf  Hf4  1  0.315724  0.315724  0.690340  1
  Hf  Hf5  1  0.685214  0.685214  0.315407  1
  Hf  Hf6  1  0.315724  0.690340  0.315724  1
  Hf  Hf7  1  0.685214  0.315407  0.685214  1
  Hf  Hf8  1  0.690340  0.315724  0.315724  1
  Hf  Hf9  1  0.315407  0.685214  0.685214  1
  Hf  Hf10  1  0.952669  0.952669  0.546332  1
  Hf  Hf11  1  0.551754  0.551754  0.946439  1
  Hf  Hf12  1  0.952669  0.546332  0.952669  1
  Hf  Hf13  1  0.551754  0.946439  0.551754  1
  Hf  Hf14  1  0.546332  0.952669  0.952669  1
  Hf  Hf15  1  0.946439  0.551754  0.551754  1
  Ni  Ni16  1  0.323445  0.890841  0.890841  1
  Ni  Ni17  1  0.890841  0.323445  0.890841  1
  Ni  Ni18  1  0.890841  0.890841  0.323445  1
  Ni  Ni19  1  0.891736  0.891736  0.891736  1
  Mo  Mo20  1  0.996147  0.332932  0.332932  1
  Mo  Mo21  1  0.332932  0.996147  0.332932  1
  Mo  Mo22  1  0.332932  0.332932  0.996147  1
  Pd  Pd23  1  0.332334  0.332334  0.332334  1
