# generated using pymatgen
data_Zr6Al16Cu2Pd4Ru
_symmetry_space_group_name_H-M   'P 1'
_cell_length_a   8.76169263
_cell_length_b   8.74671204
_cell_length_c   8.74671185
_cell_angle_alpha   60.11334393
_cell_angle_beta   59.94332566
_cell_angle_gamma   59.94332734
_symmetry_Int_Tables_number   1
_chemical_formula_structural   Zr6Al16Cu2Pd4Ru
_chemical_formula_sum   'Zr6 Al16 Cu2 Pd4 Ru1'
_cell_volume   473.98009272
_cell_formula_units_Z   1
loop_
 _symmetry_equiv_pos_site_id
 _symmetry_equiv_pos_as_xyz
  1  'x, y, z'
loop_
 _atom_site_type_symbol
 _atom_site_label
 _atom_site_symmetry_multiplicity
 _atom_site_fract_x
 _atom_site_fract_y
 _atom_site_fract_z
 _atom_site_occupancy
  Zr  Zr0  1  0.188122  0.811878  0.811878  1
  Zr  Zr1  1  0.811878  0.188122  0.188122  1
  Zr  Zr2  1  0.809149  0.190851  0.809149  1
  Zr  Zr3  1  0.809149  0.809149  0.190851  1
  Zr  Zr4  1  0.190851  0.809149  0.190851  1
  Zr  Zr5  1  0.190851  0.190851  0.809149  1
  Al  Al6  1  0.829917  0.835183  0.835183  1
  Al  Al7  1  0.835183  0.829917  0.499714  1
  Al  Al8  1  0.499714  0.835183  0.835183  1
  Al  Al9  1  0.835183  0.499714  0.829917  1
  Al  Al10  1  0.170083  0.164817  0.164817  1
  Al  Al11  1  0.164817  0.170083  0.500286  1
  Al  Al12  1  0.164817  0.500286  0.170083  1
  Al  Al13  1  0.500286  0.164817  0.164817  1
  Al  Al14  1  0.616962  0.618562  0.618562  1
  Al  Al15  1  0.618562  0.616962  0.145917  1
  Al  Al16  1  0.145917  0.618562  0.618562  1
  Al  Al17  1  0.618562  0.145917  0.616962  1
  Al  Al18  1  0.383038  0.381438  0.381438  1
  Al  Al19  1  0.381438  0.383038  0.854083  1
  Al  Al20  1  0.381438  0.854083  0.383038  1
  Al  Al21  1  0.854083  0.381438  0.381438  1
  Cu  Cu22  1  0.000000  0.500000  0.500000  1
  Cu  Cu23  1  0.500000  0.000000  0.000000  1
  Pd  Pd24  1  0.500000  0.000000  0.500000  1
  Pd  Pd25  1  0.500000  0.500000  0.000000  1
  Pd  Pd26  1  0.000000  0.500000  0.000000  1
  Pd  Pd27  1  0.000000  0.000000  0.500000  1
  Ru  Ru28  1  0.500000  0.500000  0.500000  1
