# generated using pymatgen
data_Tb6Dy2Sc12Si15Ag
_symmetry_space_group_name_H-M   'P 1'
_cell_length_a   7.14806561
_cell_length_b   7.38774482
_cell_length_c   14.10210102
_cell_angle_alpha   89.84784932
_cell_angle_beta   89.61223058
_cell_angle_gamma   90.21710185
_symmetry_Int_Tables_number   1
_chemical_formula_structural   Tb6Dy2Sc12Si15Ag
_chemical_formula_sum   'Tb6 Dy2 Sc12 Si15 Ag1'
_cell_volume   744.67986753
_cell_formula_units_Z   1
loop_
 _symmetry_equiv_pos_site_id
 _symmetry_equiv_pos_as_xyz
  1  'x, y, z'
loop_
 _atom_site_type_symbol
 _atom_site_label
 _atom_site_symmetry_multiplicity
 _atom_site_fract_x
 _atom_site_fract_y
 _atom_site_fract_z
 _atom_site_occupancy
  Tb  Tb0  1  0.011851  0.174977  0.098010  1
  Tb  Tb1  1  0.988154  0.826839  0.903580  1
  Tb  Tb2  1  0.487598  0.676260  0.903731  1
  Tb  Tb3  1  0.989358  0.831084  0.597622  1
  Tb  Tb4  1  0.511831  0.324371  0.096469  1
  Tb  Tb5  1  0.008505  0.171343  0.398956  1
  Dy  Dy6  1  0.511714  0.322469  0.399992  1
  Dy  Dy7  1  0.494440  0.678236  0.600265  1
  Sc  Sc8  1  0.163670  0.501785  0.753262  1
  Sc  Sc9  1  0.836978  0.498495  0.251113  1
  Sc  Sc10  1  0.337153  0.999781  0.248952  1
  Sc  Sc11  1  0.665744  0.996404  0.751212  1
  Sc  Sc12  1  0.342802  0.173697  0.626974  1
  Sc  Sc13  1  0.664206  0.822873  0.374044  1
  Sc  Sc14  1  0.166880  0.674580  0.371969  1
  Sc  Sc15  1  0.669488  0.824252  0.124734  1
  Sc  Sc16  1  0.825703  0.325926  0.625144  1
  Sc  Sc17  1  0.329108  0.175379  0.875889  1
  Sc  Sc18  1  0.830731  0.322867  0.875704  1
  Sc  Sc19  1  0.168797  0.676154  0.125285  1
  Si  Si20  1  0.036980  0.122833  0.749532  1
  Si  Si21  1  0.964222  0.881717  0.249082  1
  Si  Si22  1  0.466077  0.615870  0.248386  1
  Si  Si23  1  0.534977  0.385598  0.752100  1
  Si  Si24  1  0.286506  0.874812  0.750575  1
  Si  Si25  1  0.711289  0.126427  0.248675  1
  Si  Si26  1  0.214234  0.371749  0.248922  1
  Si  Si27  1  0.788760  0.627036  0.752047  1
  Si  Si28  1  0.834291  0.537276  0.459236  1
  Si  Si29  1  0.338265  0.961294  0.461207  1
  Si  Si30  1  0.844120  0.535791  0.039027  1
  Si  Si31  1  0.658649  0.036182  0.537723  1
  Si  Si32  1  0.154821  0.464428  0.961743  1
  Si  Si33  1  0.656717  0.035410  0.960528  1
  Si  Si34  1  0.342543  0.964192  0.039729  1
  Ag  Ag35  1  0.162839  0.461616  0.538577  1
