# generated using pymatgen
data_Pa6Al24Tc3Ru5
_symmetry_space_group_name_H-M   'P 1'
_cell_length_a   8.88739100
_cell_length_b   8.89235547
_cell_length_c   9.42695100
_cell_angle_alpha   89.87602509
_cell_angle_beta   90.00000000
_cell_angle_gamma   119.98153752
_symmetry_Int_Tables_number   1
_chemical_formula_structural   Pa6Al24Tc3Ru5
_chemical_formula_sum   'Pa6 Al24 Tc3 Ru5'
_cell_volume   645.31594329
_cell_formula_units_Z   1
loop_
 _symmetry_equiv_pos_site_id
 _symmetry_equiv_pos_as_xyz
  1  'x, y, z'
loop_
 _atom_site_type_symbol
 _atom_site_label
 _atom_site_symmetry_multiplicity
 _atom_site_fract_x
 _atom_site_fract_y
 _atom_site_fract_z
 _atom_site_occupancy
  Pa  Pa0  1  0.196267  0.392535  0.250402  1
  Pa  Pa1  1  0.803733  0.607465  0.749598  1
  Pa  Pa2  1  0.606229  0.805557  0.248041  1
  Pa  Pa3  1  0.393771  0.194443  0.751959  1
  Pa  Pa4  1  0.199328  0.805557  0.248041  1
  Pa  Pa5  1  0.800672  0.194443  0.751959  1
  Al  Al6  1  0.332687  0.665375  0.015135  1
  Al  Al7  1  0.667313  0.334625  0.984865  1
  Al  Al8  1  0.666667  0.333333  0.516201  1
  Al  Al9  1  0.333333  0.666667  0.483799  1
  Al  Al10  1  0.161395  0.322790  0.580393  1
  Al  Al11  1  0.838605  0.677210  0.419607  1
  Al  Al12  1  0.676787  0.838182  0.579750  1
  Al  Al13  1  0.838500  0.677000  0.080158  1
  Al  Al14  1  0.323213  0.161818  0.420250  1
  Al  Al15  1  0.161500  0.323000  0.919842  1
  Al  Al16  1  0.161396  0.838182  0.579750  1
  Al  Al17  1  0.323112  0.162429  0.081174  1
  Al  Al18  1  0.838604  0.161818  0.420250  1
  Al  Al19  1  0.676888  0.837571  0.918826  1
  Al  Al20  1  0.839314  0.162429  0.081174  1
  Al  Al21  1  0.160686  0.837571  0.918826  1
  Al  Al22  1  0.563287  0.126574  0.251130  1
  Al  Al23  1  0.436713  0.873426  0.748870  1
  Al  Al24  1  0.875722  0.438301  0.250389  1
  Al  Al25  1  0.124278  0.561699  0.749611  1
  Al  Al26  1  0.562580  0.438301  0.250389  1
  Al  Al27  1  0.437420  0.561699  0.749611  1
  Al  Al28  1  0.999885  0.999770  0.250010  1
  Al  Al29  1  0.000115  0.000230  0.749990  1
  Tc  Tc30  1  0.500000  0.000000  0.000000  1
  Tc  Tc31  1  0.000000  0.000000  0.000000  1
  Tc  Tc32  1  0.000000  0.000000  0.500000  1
  Ru  Ru33  1  0.000000  0.500000  0.000000  1
  Ru  Ru34  1  0.500000  0.000000  0.500000  1
  Ru  Ru35  1  0.500000  0.500000  0.000000  1
  Ru  Ru36  1  0.000000  0.500000  0.500000  1
  Ru  Ru37  1  0.500000  0.500000  0.500000  1
