# generated using pymatgen
data_KRb3Cl16
_symmetry_space_group_name_H-M   'P 1'
_cell_length_a   7.50145538
_cell_length_b   9.32102246
_cell_length_c   10.19958206
_cell_angle_alpha   66.69589595
_cell_angle_beta   90.63940749
_cell_angle_gamma   89.45688507
_symmetry_Int_Tables_number   1
_chemical_formula_structural   KRb3Cl16
_chemical_formula_sum   'K1 Rb3 Cl16'
_cell_volume   654.87003408
_cell_formula_units_Z   1
loop_
 _symmetry_equiv_pos_site_id
 _symmetry_equiv_pos_as_xyz
  1  'x, y, z'
loop_
 _atom_site_type_symbol
 _atom_site_label
 _atom_site_symmetry_multiplicity
 _atom_site_fract_x
 _atom_site_fract_y
 _atom_site_fract_z
 _atom_site_occupancy
  K  K0  1  0.620077  0.747044  0.725524  1
  Rb  Rb1  1  0.138163  0.255774  0.791607  1
  Rb  Rb2  1  0.380077  0.267625  0.280191  1
  Rb  Rb3  1  0.862425  0.735885  0.219377  1
  Cl  Cl4  1  0.372468  0.536977  0.516211  1
  Cl  Cl5  1  0.878280  0.470616  0.973703  1
  Cl  Cl6  1  0.620340  0.451576  0.484808  1
  Cl  Cl7  1  0.128091  0.552961  0.002675  1
  Cl  Cl8  1  0.041426  0.653214  0.569190  1
  Cl  Cl9  1  0.538478  0.355429  0.923658  1
  Cl  Cl10  1  0.961227  0.339635  0.423874  1
  Cl  Cl11  1  0.462232  0.660136  0.055482  1
  Cl  Cl12  1  0.195682  0.854325  0.605448  1
  Cl  Cl13  1  0.693355  0.151544  0.890273  1
  Cl  Cl14  1  0.804959  0.134913  0.397240  1
  Cl  Cl15  1  0.306252  0.855686  0.108773  1
  Cl  Cl16  1  0.353672  0.042250  0.639340  1
  Cl  Cl17  1  0.851105  0.960001  0.859304  1
  Cl  Cl18  1  0.642121  0.941587  0.375464  1
  Cl  Cl19  1  0.149573  0.032819  0.157857  1
