# generated using pymatgen
data_Hf3Zr3(Ti2Pb3)2
_symmetry_space_group_name_H-M   'P 1'
_cell_length_a   8.42097719
_cell_length_b   8.45605973
_cell_length_c   5.66870800
_cell_angle_alpha   90.00000000
_cell_angle_beta   90.00000000
_cell_angle_gamma   119.66068366
_symmetry_Int_Tables_number   1
_chemical_formula_structural   Hf3Zr3(Ti2Pb3)2
_chemical_formula_sum   'Hf3 Zr3 Ti4 Pb6'
_cell_volume   350.76806712
_cell_formula_units_Z   1
loop_
 _symmetry_equiv_pos_site_id
 _symmetry_equiv_pos_as_xyz
  1  'x, y, z'
loop_
 _atom_site_type_symbol
 _atom_site_label
 _atom_site_symmetry_multiplicity
 _atom_site_fract_x
 _atom_site_fract_y
 _atom_site_fract_z
 _atom_site_occupancy
  Hf  Hf0  1  0.999099  0.764478  0.750000  1
  Hf  Hf1  1  0.760114  0.759294  0.250000  1
  Hf  Hf2  1  0.240171  0.240340  0.750000  1
  Zr  Zr3  1  0.231830  0.999986  0.250000  1
  Zr  Zr4  1  0.767926  0.999091  0.750000  1
  Zr  Zr5  1  0.001002  0.238782  0.250000  1
  Ti  Ti6  1  0.333342  0.667042  0.999969  1
  Ti  Ti7  1  0.666577  0.332183  0.999973  1
  Ti  Ti8  1  0.666577  0.332183  0.500027  1
  Ti  Ti9  1  0.333342  0.667042  0.500031  1
  Pb  Pb10  1  0.600095  0.999341  0.250000  1
  Pb  Pb11  1  0.399404  0.999531  0.750000  1
  Pb  Pb12  1  0.999834  0.600143  0.250000  1
  Pb  Pb13  1  0.000315  0.401050  0.750000  1
  Pb  Pb14  1  0.401117  0.400832  0.250000  1
  Pb  Pb15  1  0.599255  0.598683  0.750000  1
