# generated using pymatgen
data_Th2As4IrRu3
_symmetry_space_group_name_H-M   'P 1'
_cell_length_a   4.34941700
_cell_length_b   4.34941700
_cell_length_c   9.77933400
_cell_angle_alpha   90.00000000
_cell_angle_beta   90.00000000
_cell_angle_gamma   90.00000000
_symmetry_Int_Tables_number   1
_chemical_formula_structural   Th2As4IrRu3
_chemical_formula_sum   'Th2 As4 Ir1 Ru3'
_cell_volume   184.99984918
_cell_formula_units_Z   1
loop_
 _symmetry_equiv_pos_site_id
 _symmetry_equiv_pos_as_xyz
  1  'x, y, z'
loop_
 _atom_site_type_symbol
 _atom_site_label
 _atom_site_symmetry_multiplicity
 _atom_site_fract_x
 _atom_site_fract_y
 _atom_site_fract_z
 _atom_site_occupancy
  Th  Th0  1  0.000000  0.500000  0.254962  1
  Th  Th1  1  0.500000  0.000000  0.747250  1
  As  As2  1  0.000000  0.000000  0.502143  1
  As  As3  1  0.500000  0.500000  0.502143  1
  As  As4  1  0.000000  0.500000  0.867596  1
  As  As5  1  0.500000  0.000000  0.127846  1
  Ir  Ir6  1  0.500000  0.000000  0.379036  1
  Ru  Ru7  1  0.000000  0.000000  0.000467  1
  Ru  Ru8  1  0.500000  0.500000  0.000467  1
  Ru  Ru9  1  0.000000  0.500000  0.618090  1
