# generated using pymatgen
data_Sm4Sc4Re(B8Rh)3
_symmetry_space_group_name_H-M   'P 1'
_cell_length_a   3.60912000
_cell_length_b   9.05633355
_cell_length_c   11.45257972
_cell_angle_alpha   90.04028899
_cell_angle_beta   90.00000000
_cell_angle_gamma   90.00000000
_symmetry_Int_Tables_number   1
_chemical_formula_structural   Sm4Sc4Re(B8Rh)3
_chemical_formula_sum   'Sm4 Sc4 Re1 B24 Rh3'
_cell_volume   374.33199413
_cell_formula_units_Z   1
loop_
 _symmetry_equiv_pos_site_id
 _symmetry_equiv_pos_as_xyz
  1  'x, y, z'
loop_
 _atom_site_type_symbol
 _atom_site_label
 _atom_site_symmetry_multiplicity
 _atom_site_fract_x
 _atom_site_fract_y
 _atom_site_fract_z
 _atom_site_occupancy
  Sm  Sm0  1  0.000000  0.320608  0.414766  1
  Sm  Sm1  1  0.000000  0.680672  0.587451  1
  Sm  Sm2  1  0.000000  0.820190  0.083520  1
  Sm  Sm3  1  0.000000  0.177825  0.913788  1
  Sc  Sc4  1  0.000000  0.944917  0.373639  1
  Sc  Sc5  1  0.000000  0.052019  0.626954  1
  Sc  Sc6  1  0.000000  0.444675  0.126272  1
  Sc  Sc7  1  0.000000  0.557560  0.874395  1
  Re  Re8  1  0.000000  0.858989  0.817710  1
  B  B9  1  0.500000  0.556831  0.432380  1
  B  B10  1  0.500000  0.444145  0.567804  1
  B  B11  1  0.500000  0.056341  0.068205  1
  B  B12  1  0.500000  0.944471  0.931622  1
  B  B13  1  0.500000  0.755060  0.417959  1
  B  B14  1  0.500000  0.245338  0.582054  1
  B  B15  1  0.500000  0.254547  0.082392  1
  B  B16  1  0.500000  0.745818  0.917340  1
  B  B17  1  0.500000  0.794204  0.264650  1
  B  B18  1  0.500000  0.205697  0.734053  1
  B  B19  1  0.500000  0.295404  0.235341  1
  B  B20  1  0.500000  0.704965  0.765124  1
  B  B21  1  0.500000  0.628043  0.181707  1
  B  B22  1  0.500000  0.371784  0.818429  1
  B  B23  1  0.500000  0.128982  0.318349  1
  B  B24  1  0.500000  0.871045  0.682704  1
  B  B25  1  0.500000  0.982947  0.215964  1
  B  B26  1  0.500000  0.017484  0.784272  1
  B  B27  1  0.500000  0.482666  0.284215  1
  B  B28  1  0.500000  0.516704  0.715883  1
  B  B29  1  0.500000  0.597175  0.026871  1
  B  B30  1  0.500000  0.401434  0.974145  1
  B  B31  1  0.500000  0.098253  0.473273  1
  B  B32  1  0.500000  0.902162  0.525115  1
  Rh  Rh33  1  0.000000  0.641497  0.317963  1
  Rh  Rh34  1  0.000000  0.358868  0.682275  1
  Rh  Rh35  1  0.000000  0.140676  0.181416  1
