# generated using pymatgen
data_NaLa2PrDy3IrBr12
_symmetry_space_group_name_H-M   'P 1'
_cell_length_a   9.28786099
_cell_length_b   9.72687179
_cell_length_c   9.52079403
_cell_angle_alpha   106.68073365
_cell_angle_beta   106.64057241
_cell_angle_gamma   108.21398953
_symmetry_Int_Tables_number   1
_chemical_formula_structural   NaLa2PrDy3IrBr12
_chemical_formula_sum   'Na1 La2 Pr1 Dy3 Ir1 Br12'
_cell_volume   712.67028947
_cell_formula_units_Z   1
loop_
 _symmetry_equiv_pos_site_id
 _symmetry_equiv_pos_as_xyz
  1  'x, y, z'
loop_
 _atom_site_type_symbol
 _atom_site_label
 _atom_site_symmetry_multiplicity
 _atom_site_fract_x
 _atom_site_fract_y
 _atom_site_fract_z
 _atom_site_occupancy
  Na  Na0  1  0.500193  0.499172  0.499305  1
  La  La1  1  0.690222  0.969259  0.892169  1
  La  La2  1  0.878826  0.670837  0.972619  1
  Pr  Pr3  1  0.125915  0.328240  0.029353  1
  Dy  Dy4  1  0.297492  0.029101  0.105460  1
  Dy  Dy5  1  0.028292  0.115801  0.322182  1
  Dy  Dy6  1  0.970776  0.886624  0.678367  1
  Ir  Ir7  1  0.993237  0.000896  0.998114  1
  Br  Br8  1  0.229360  0.703186  0.079903  1
  Br  Br9  1  0.465323  0.358397  0.157917  1
  Br  Br10  1  0.685909  0.073818  0.225998  1
  Br  Br11  1  0.933714  0.801840  0.330670  1
  Br  Br12  1  0.149749  0.444662  0.371069  1
  Br  Br13  1  0.363682  0.151976  0.441905  1
  Br  Br14  1  0.635680  0.838143  0.540072  1
  Br  Br15  1  0.853246  0.558020  0.627193  1
  Br  Br16  1  0.071107  0.202319  0.672662  1
  Br  Br17  1  0.313622  0.932581  0.792764  1
  Br  Br18  1  0.528692  0.620368  0.836819  1
  Br  Br19  1  0.784964  0.314764  0.925464  1
