# generated using pymatgen
data_Ho16MgCd3(IrPt)2
_symmetry_space_group_name_H-M   'P 1'
_cell_length_a   9.64096402
_cell_length_b   9.64096468
_cell_length_c   9.60954260
_cell_angle_alpha   59.89229465
_cell_angle_beta   59.89229169
_cell_angle_gamma   60.16177062
_symmetry_Int_Tables_number   1
_chemical_formula_structural   Ho16MgCd3(IrPt)2
_chemical_formula_sum   'Ho16 Mg1 Cd3 Ir2 Pt2'
_cell_volume   631.31503282
_cell_formula_units_Z   1
loop_
 _symmetry_equiv_pos_site_id
 _symmetry_equiv_pos_as_xyz
  1  'x, y, z'
loop_
 _atom_site_type_symbol
 _atom_site_label
 _atom_site_symmetry_multiplicity
 _atom_site_fract_x
 _atom_site_fract_y
 _atom_site_fract_z
 _atom_site_occupancy
  Ho  Ho0  1  0.600194  0.600194  0.596385  1
  Ho  Ho1  1  0.600777  0.600777  0.202574  1
  Ho  Ho2  1  0.605411  0.195992  0.600490  1
  Ho  Ho3  1  0.195992  0.605411  0.600490  1
  Ho  Ho4  1  0.055480  0.442173  0.440682  1
  Ho  Ho5  1  0.437786  0.058668  0.063568  1
  Ho  Ho6  1  0.442173  0.055480  0.440682  1
  Ho  Ho7  1  0.058668  0.437786  0.063568  1
  Ho  Ho8  1  0.442057  0.442057  0.057295  1
  Ho  Ho9  1  0.062057  0.062057  0.436199  1
  Ho  Ho10  1  0.188333  0.816207  0.812635  1
  Ho  Ho11  1  0.813665  0.187782  0.187447  1
  Ho  Ho12  1  0.816207  0.188333  0.812635  1
  Ho  Ho13  1  0.187782  0.813665  0.187447  1
  Ho  Ho14  1  0.814609  0.814609  0.187830  1
  Ho  Ho15  1  0.187413  0.187413  0.811597  1
  Mg  Mg16  1  0.826029  0.826029  0.826536  1
  Cd  Cd17  1  0.831596  0.831596  0.503943  1
  Cd  Cd18  1  0.830826  0.504797  0.831890  1
  Cd  Cd19  1  0.504797  0.830826  0.831890  1
  Ir  Ir20  1  0.390874  0.823514  0.393652  1
  Ir  Ir21  1  0.823514  0.390874  0.393652  1
  Pt  Pt22  1  0.391834  0.391834  0.395094  1
  Pt  Pt23  1  0.391929  0.391929  0.821820  1
