# generated using pymatgen
data_DySiTc4P
_symmetry_space_group_name_H-M   'P 1'
_cell_length_a   7.40341400
_cell_length_b   7.40341400
_cell_length_c   4.02840000
_cell_angle_alpha   90.00000000
_cell_angle_beta   90.00000000
_cell_angle_gamma   90.21477570
_symmetry_Int_Tables_number   1
_chemical_formula_structural   DySiTc4P
_chemical_formula_sum   'Dy2 Si2 Tc8 P2'
_cell_volume   220.79722366
_cell_formula_units_Z   2
loop_
 _symmetry_equiv_pos_site_id
 _symmetry_equiv_pos_as_xyz
  1  'x, y, z'
loop_
 _atom_site_type_symbol
 _atom_site_label
 _atom_site_symmetry_multiplicity
 _atom_site_fract_x
 _atom_site_fract_y
 _atom_site_fract_z
 _atom_site_occupancy
  Dy  Dy0  1  0.000000  0.000000  0.000000  1
  Dy  Dy1  1  0.500000  0.500000  0.500000  1
  Si  Si2  1  0.711580  0.288420  0.000000  1
  Si  Si3  1  0.288420  0.711580  0.000000  1
  Tc  Tc4  1  0.591502  0.844847  0.000000  1
  Tc  Tc5  1  0.844847  0.591502  0.000000  1
  Tc  Tc6  1  0.155153  0.408498  0.000000  1
  Tc  Tc7  1  0.408498  0.155153  0.000000  1
  Tc  Tc8  1  0.662269  0.083111  0.500000  1
  Tc  Tc9  1  0.916889  0.337731  0.500000  1
  Tc  Tc10  1  0.083111  0.662269  0.500000  1
  Tc  Tc11  1  0.337731  0.916889  0.500000  1
  P  P12  1  0.790566  0.790566  0.500000  1
  P  P13  1  0.209434  0.209434  0.500000  1
