# generated using pymatgen
data_LiTb11(PrPb2)8
_symmetry_space_group_name_H-M   'P 1'
_cell_length_a   8.34450900
_cell_length_b   8.41236756
_cell_length_c   15.93709400
_cell_angle_alpha   90.00000000
_cell_angle_beta   90.00000000
_cell_angle_gamma   90.02092989
_symmetry_Int_Tables_number   1
_chemical_formula_structural   LiTb11(PrPb2)8
_chemical_formula_sum   'Li1 Tb11 Pr8 Pb16'
_cell_volume   1118.73733726
_cell_formula_units_Z   1
loop_
 _symmetry_equiv_pos_site_id
 _symmetry_equiv_pos_as_xyz
  1  'x, y, z'
loop_
 _atom_site_type_symbol
 _atom_site_label
 _atom_site_symmetry_multiplicity
 _atom_site_fract_x
 _atom_site_fract_y
 _atom_site_fract_z
 _atom_site_occupancy
  Li  Li0  1  0.701759  0.997264  0.250000  1
  Tb  Tb1  1  0.637209  0.160435  0.622353  1
  Tb  Tb2  1  0.136651  0.342060  0.878862  1
  Tb  Tb3  1  0.372445  0.841598  0.123282  1
  Tb  Tb4  1  0.864120  0.663318  0.377892  1
  Tb  Tb5  1  0.372445  0.841598  0.376718  1
  Tb  Tb6  1  0.864120  0.663318  0.122108  1
  Tb  Tb7  1  0.637209  0.160435  0.877647  1
  Tb  Tb8  1  0.136651  0.342060  0.621138  1
  Tb  Tb9  1  0.800503  0.495485  0.750000  1
  Tb  Tb10  1  0.301282  0.005212  0.750000  1
  Tb  Tb11  1  0.197126  0.505450  0.250000  1
  Pr  Pr12  1  0.479326  0.678231  0.596875  1
  Pr  Pr13  1  0.979033  0.822090  0.902712  1
  Pr  Pr14  1  0.521045  0.314835  0.098082  1
  Pr  Pr15  1  0.014023  0.176281  0.402860  1
  Pr  Pr16  1  0.521045  0.314835  0.401918  1
  Pr  Pr17  1  0.014023  0.176281  0.097140  1
  Pr  Pr18  1  0.479326  0.678231  0.903125  1
  Pr  Pr19  1  0.979033  0.822090  0.597288  1
  Pb  Pb20  1  0.703560  0.957219  0.458259  1
  Pb  Pb21  1  0.204415  0.539778  0.045349  1
  Pb  Pb22  1  0.297535  0.040654  0.957838  1
  Pb  Pb23  1  0.796154  0.460149  0.542639  1
  Pb  Pb24  1  0.297535  0.040654  0.542162  1
  Pb  Pb25  1  0.796154  0.460149  0.957361  1
  Pb  Pb26  1  0.703560  0.957219  0.041741  1
  Pb  Pb27  1  0.204415  0.539778  0.454651  1
  Pb  Pb28  1  0.439549  0.373517  0.750000  1
  Pb  Pb29  1  0.940644  0.125603  0.750000  1
  Pb  Pb30  1  0.565467  0.622749  0.250000  1
  Pb  Pb31  1  0.055573  0.882119  0.250000  1
  Pb  Pb32  1  0.667469  0.852071  0.750000  1
  Pb  Pb33  1  0.167225  0.649314  0.750000  1
  Pb  Pb34  1  0.325299  0.144759  0.250000  1
  Pb  Pb35  1  0.827075  0.353160  0.250000  1
