# generated using pymatgen
data_Dy2FeTcBr2
_symmetry_space_group_name_H-M   'P 1'
_cell_length_a   3.91809200
_cell_length_b   3.91807437
_cell_length_c   12.05344400
_cell_angle_alpha   89.99995140
_cell_angle_beta   90.00022156
_cell_angle_gamma   120.00008586
_symmetry_Int_Tables_number   1
_chemical_formula_structural   Dy2FeTcBr2
_chemical_formula_sum   'Dy2 Fe1 Tc1 Br2'
_cell_volume   160.24655976
_cell_formula_units_Z   1
loop_
 _symmetry_equiv_pos_site_id
 _symmetry_equiv_pos_as_xyz
  1  'x, y, z'
loop_
 _atom_site_type_symbol
 _atom_site_label
 _atom_site_symmetry_multiplicity
 _atom_site_fract_x
 _atom_site_fract_y
 _atom_site_fract_z
 _atom_site_occupancy
  Dy  Dy0  1  0.999997  0.999999  0.323203  1
  Dy  Dy1  1  0.000000  0.000001  0.674442  1
  Fe  Fe2  1  0.666669  0.333334  0.517293  1
  Tc  Tc3  1  0.333335  0.666668  0.487085  1
  Br  Br4  1  0.666666  0.333333  0.165345  1
  Br  Br5  1  0.333331  0.666663  0.832632  1
