# generated using pymatgen
data_Au3(BrF3)2
_symmetry_space_group_name_H-M   'P 1'
_cell_length_a   12.05170600
_cell_length_b   6.24008630
_cell_length_c   8.54520560
_cell_angle_alpha   44.03197048
_cell_angle_beta   90.00000000
_cell_angle_gamma   90.00000000
_symmetry_Int_Tables_number   1
_chemical_formula_structural   Au3(BrF3)2
_chemical_formula_sum   'Au6 Br4 F12'
_cell_volume   446.66684417
_cell_formula_units_Z   2
loop_
 _symmetry_equiv_pos_site_id
 _symmetry_equiv_pos_as_xyz
  1  'x, y, z'
loop_
 _atom_site_type_symbol
 _atom_site_label
 _atom_site_symmetry_multiplicity
 _atom_site_fract_x
 _atom_site_fract_y
 _atom_site_fract_z
 _atom_site_occupancy
  Au  Au0  1  0.317474  0.726640  0.010059  1
  Au  Au1  1  0.817474  0.273360  0.489941  1
  Au  Au2  1  0.682526  0.273360  0.989941  1
  Au  Au3  1  0.182526  0.726640  0.510059  1
  Au  Au4  1  0.000000  0.500000  0.000000  1
  Au  Au5  1  0.500000  0.500000  0.500000  1
  Br  Br6  1  0.496858  0.919514  0.822061  1
  Br  Br7  1  0.996858  0.080486  0.677939  1
  Br  Br8  1  0.503142  0.080486  0.177939  1
  Br  Br9  1  0.003142  0.919514  0.322061  1
  F  F10  1  0.897535  0.554276  0.193749  1
  F  F11  1  0.397535  0.445724  0.306251  1
  F  F12  1  0.326384  0.535507  0.673515  1
  F  F13  1  0.826384  0.464493  0.826485  1
  F  F14  1  0.673616  0.464493  0.326485  1
  F  F15  1  0.173616  0.535507  0.173515  1
  F  F16  1  0.264365  0.982325  0.227116  1
  F  F17  1  0.764365  0.017675  0.272884  1
  F  F18  1  0.735635  0.017675  0.772884  1
  F  F19  1  0.235635  0.982325  0.727116  1
  F  F20  1  0.602465  0.554276  0.693749  1
  F  F21  1  0.102465  0.445724  0.806251  1
