# generated using pymatgen
data_Er5TmInCoSi
_symmetry_space_group_name_H-M   'P 1'
_cell_length_a   8.38201556
_cell_length_b   8.38719984
_cell_length_c   8.38201600
_cell_angle_alpha   113.39634425
_cell_angle_beta   110.93975875
_cell_angle_gamma   104.18935725
_symmetry_Int_Tables_number   1
_chemical_formula_structural   Er5TmInCoSi
_chemical_formula_sum   'Er10 Tm2 In2 Co2 Si2'
_cell_volume   450.67892664
_cell_formula_units_Z   2
loop_
 _symmetry_equiv_pos_site_id
 _symmetry_equiv_pos_as_xyz
  1  'x, y, z'
loop_
 _atom_site_type_symbol
 _atom_site_label
 _atom_site_symmetry_multiplicity
 _atom_site_fract_x
 _atom_site_fract_y
 _atom_site_fract_z
 _atom_site_occupancy
  Er  Er0  1  0.443854  0.241741  0.201682  1
  Er  Er1  1  0.556146  0.758259  0.798318  1
  Er  Er2  1  0.040057  0.241741  0.797886  1
  Er  Er3  1  0.959943  0.758259  0.202114  1
  Er  Er4  1  0.186940  0.288354  0.475603  1
  Er  Er5  1  0.813060  0.711646  0.524397  1
  Er  Er6  1  0.187249  0.711646  0.898586  1
  Er  Er7  1  0.812751  0.288354  0.101414  1
  Er  Er8  1  0.305866  0.616586  0.310720  1
  Er  Er9  1  0.694134  0.383414  0.689280  1
  Tm  Tm10  1  0.305953  0.995088  0.689135  1
  Tm  Tm11  1  0.694047  0.004912  0.310865  1
  In  In12  1  0.500000  0.500000  0.000000  1
  In  In13  1  0.000000  0.000000  0.000000  1
  Co  Co14  1  0.108445  0.608564  0.500118  1
  Co  Co15  1  0.891555  0.391436  0.499882  1
  Si  Si16  1  0.360470  0.000000  0.360470  1
  Si  Si17  1  0.639530  0.000000  0.639530  1
