# generated using pymatgen
data_Eu16O25
_symmetry_space_group_name_H-M   'P 1'
_cell_length_a   9.46739320
_cell_length_b   9.46739354
_cell_length_c   9.46739300
_cell_angle_alpha   109.53989397
_cell_angle_beta   109.53989470
_cell_angle_gamma   109.53990260
_symmetry_Int_Tables_number   1
_chemical_formula_structural   Eu16O25
_chemical_formula_sum   'Eu16 O25'
_cell_volume   651.56861179
_cell_formula_units_Z   1
loop_
 _symmetry_equiv_pos_site_id
 _symmetry_equiv_pos_as_xyz
  1  'x, y, z'
loop_
 _atom_site_type_symbol
 _atom_site_label
 _atom_site_symmetry_multiplicity
 _atom_site_fract_x
 _atom_site_fract_y
 _atom_site_fract_z
 _atom_site_occupancy
  Eu  Eu0  1  0.218859  0.746439  0.969401  1
  Eu  Eu1  1  0.249659  0.030354  0.775349  1
  Eu  Eu2  1  0.023013  0.023013  0.023013  1
  Eu  Eu3  1  0.470416  0.722662  0.752257  1
  Eu  Eu4  1  0.752257  0.470416  0.722662  1
  Eu  Eu5  1  0.969401  0.218859  0.746439  1
  Eu  Eu6  1  0.281482  0.251397  0.513107  1
  Eu  Eu7  1  0.499367  0.993953  0.500997  1
  Eu  Eu8  1  0.722662  0.752257  0.470416  1
  Eu  Eu9  1  0.030354  0.775349  0.249659  1
  Eu  Eu10  1  0.251397  0.513107  0.281482  1
  Eu  Eu11  1  0.513107  0.281482  0.251397  1
  Eu  Eu12  1  0.993953  0.500997  0.499367  1
  Eu  Eu13  1  0.746439  0.969401  0.218859  1
  Eu  Eu14  1  0.775349  0.249659  0.030354  1
  Eu  Eu15  1  0.500997  0.499367  0.993953  1
  O  O16  1  0.965990  0.734541  0.972215  1
  O  O17  1  0.230532  0.269939  0.757245  1
  O  O18  1  0.004124  0.467222  0.735957  1
  O  O19  1  0.539753  0.508852  0.764730  1
  O  O20  1  0.528456  0.263494  0.990679  1
  O  O21  1  0.727962  0.235067  0.770080  1
  O  O22  1  0.972215  0.965990  0.734541  1
  O  O23  1  0.734541  0.972215  0.965990  1
  O  O24  1  0.757245  0.230532  0.269939  1
  O  O25  1  0.735957  0.004124  0.467222  1
  O  O26  1  0.512387  0.224404  0.471194  1
  O  O27  1  0.224404  0.471194  0.512387  1
  O  O28  1  0.764730  0.539753  0.508852  1
  O  O29  1  0.508852  0.764730  0.539753  1
  O  O30  1  0.263494  0.990679  0.528456  1
  O  O31  1  0.235067  0.770080  0.727962  1
  O  O32  1  0.018878  0.026851  0.274454  1
  O  O33  1  0.274454  0.018878  0.026851  1
  O  O34  1  0.269939  0.757245  0.230532  1
  O  O35  1  0.467222  0.735957  0.004124  1
  O  O36  1  0.471194  0.512387  0.224404  1
  O  O37  1  0.272280  0.272280  0.272280  1
  O  O38  1  0.990679  0.528456  0.263494  1
  O  O39  1  0.770080  0.727962  0.235067  1
  O  O40  1  0.026851  0.274454  0.018878  1
