# generated using pymatgen
data_Ho3Er17CoBi8Ru2Rh
_symmetry_space_group_name_H-M   'P 1'
_cell_length_a   7.93724699
_cell_length_b   8.93733800
_cell_length_c   12.36652418
_cell_angle_alpha   90.00000000
_cell_angle_beta   89.75067514
_cell_angle_gamma   90.00000000
_symmetry_Int_Tables_number   1
_chemical_formula_structural   Ho3Er17CoBi8Ru2Rh
_chemical_formula_sum   'Ho3 Er17 Co1 Bi8 Ru2 Rh1'
_cell_volume   877.24644424
_cell_formula_units_Z   1
loop_
 _symmetry_equiv_pos_site_id
 _symmetry_equiv_pos_as_xyz
  1  'x, y, z'
loop_
 _atom_site_type_symbol
 _atom_site_label
 _atom_site_symmetry_multiplicity
 _atom_site_fract_x
 _atom_site_fract_y
 _atom_site_fract_z
 _atom_site_occupancy
  Ho  Ho0  1  0.616234  0.750000  0.311605  1
  Ho  Ho1  1  0.053891  0.750000  0.498142  1
  Ho  Ho2  1  0.447398  0.750000  0.996894  1
  Er  Er3  1  0.345615  0.750000  0.699564  1
  Er  Er4  1  0.657090  0.250000  0.293926  1
  Er  Er5  1  0.842597  0.250000  0.793070  1
  Er  Er6  1  0.157786  0.750000  0.207275  1
  Er  Er7  1  0.878607  0.750000  0.805491  1
  Er  Er8  1  0.119287  0.250000  0.192237  1
  Er  Er9  1  0.380979  0.250000  0.691722  1
  Er  Er10  1  0.675443  0.545153  0.564120  1
  Er  Er11  1  0.326733  0.463630  0.437456  1
  Er  Er12  1  0.175043  0.455401  0.934707  1
  Er  Er13  1  0.326733  0.036370  0.437456  1
  Er  Er14  1  0.823363  0.541401  0.065612  1
  Er  Er15  1  0.675443  0.954847  0.564120  1
  Er  Er16  1  0.823363  0.958599  0.065612  1
  Er  Er17  1  0.175043  0.044599  0.934707  1
  Er  Er18  1  0.945358  0.250000  0.502656  1
  Er  Er19  1  0.553282  0.250000  0.002327  1
  Co  Co20  1  0.429478  0.750000  0.490532  1
  Bi  Bi21  1  0.569561  0.508936  0.826891  1
  Bi  Bi22  1  0.429511  0.491180  0.173142  1
  Bi  Bi23  1  0.071507  0.490639  0.672631  1
  Bi  Bi24  1  0.429511  0.008820  0.173142  1
  Bi  Bi25  1  0.929746  0.508877  0.327890  1
  Bi  Bi26  1  0.569561  0.991064  0.826891  1
  Bi  Bi27  1  0.929746  0.991123  0.327890  1
  Bi  Bi28  1  0.071507  0.009361  0.672631  1
  Ru  Ru29  1  0.925916  0.250000  0.010367  1
  Ru  Ru30  1  0.572083  0.250000  0.509595  1
  Rh  Rh31  1  0.072583  0.750000  0.989698  1
