# generated using pymatgen
data_Pr3Ho7(SiHg)4
_symmetry_space_group_name_H-M   'P 1'
_cell_length_a   9.16653789
_cell_length_b   8.60324578
_cell_length_c   7.60197537
_cell_angle_alpha   89.77900428
_cell_angle_beta   90.16303246
_cell_angle_gamma   129.19447907
_symmetry_Int_Tables_number   1
_chemical_formula_structural   Pr3Ho7(SiHg)4
_chemical_formula_sum   'Pr3 Ho7 Si4 Hg4'
_cell_volume   464.61749230
_cell_formula_units_Z   1
loop_
 _symmetry_equiv_pos_site_id
 _symmetry_equiv_pos_as_xyz
  1  'x, y, z'
loop_
 _atom_site_type_symbol
 _atom_site_label
 _atom_site_symmetry_multiplicity
 _atom_site_fract_x
 _atom_site_fract_y
 _atom_site_fract_z
 _atom_site_occupancy
  Pr  Pr0  1  0.067291  0.340179  0.321354  1
  Pr  Pr1  1  0.934364  0.661163  0.678845  1
  Pr  Pr2  1  0.432340  0.159507  0.824739  1
  Ho  Ho3  1  0.779021  0.537719  0.175072  1
  Ho  Ho4  1  0.566666  0.830743  0.173448  1
  Ho  Ho5  1  0.223449  0.468422  0.824232  1
  Ho  Ho6  1  0.720164  0.961900  0.674901  1
  Ho  Ho7  1  0.276005  0.038245  0.325959  1
  Ho  Ho8  1  0.000365  0.002876  0.999036  1
  Ho  Ho9  1  0.499045  0.501047  0.498768  1
  Si  Si10  1  0.381154  0.386130  0.121664  1
  Si  Si11  1  0.620452  0.619964  0.880349  1
  Si  Si12  1  0.120300  0.120453  0.622339  1
  Si  Si13  1  0.875160  0.881125  0.375452  1
  Hg  Hg14  1  0.818522  0.249949  0.975642  1
  Hg  Hg15  1  0.180817  0.738282  0.040718  1
  Hg  Hg16  1  0.673958  0.238561  0.468746  1
  Hg  Hg17  1  0.330925  0.763736  0.518736  1
