# generated using pymatgen
data_Ho2Mn6V(FeP2)3
_symmetry_space_group_name_H-M   'P 1'
_cell_length_a   3.61403900
_cell_length_b   10.52934043
_cell_length_c   12.17812261
_cell_angle_alpha   90.11787410
_cell_angle_beta   90.00000000
_cell_angle_gamma   90.00000000
_symmetry_Int_Tables_number   1
_chemical_formula_structural   Ho2Mn6V(FeP2)3
_chemical_formula_sum   'Ho4 Mn12 V2 Fe6 P12'
_cell_volume   463.41856201
_cell_formula_units_Z   2
loop_
 _symmetry_equiv_pos_site_id
 _symmetry_equiv_pos_as_xyz
  1  'x, y, z'
loop_
 _atom_site_type_symbol
 _atom_site_label
 _atom_site_symmetry_multiplicity
 _atom_site_fract_x
 _atom_site_fract_y
 _atom_site_fract_z
 _atom_site_occupancy
  Ho  Ho0  1  0.250000  0.579770  0.711171  1
  Ho  Ho1  1  0.250000  0.919917  0.209272  1
  Ho  Ho2  1  0.750000  0.415333  0.291420  1
  Ho  Ho3  1  0.750000  0.085053  0.791975  1
  Mn  Mn4  1  0.250000  0.789105  0.485993  1
  Mn  Mn5  1  0.750000  0.208191  0.512033  1
  Mn  Mn6  1  0.250000  0.404319  0.494116  1
  Mn  Mn7  1  0.250000  0.093159  0.991445  1
  Mn  Mn8  1  0.750000  0.589930  0.506610  1
  Mn  Mn9  1  0.750000  0.910431  0.007327  1
  Mn  Mn10  1  0.250000  0.217379  0.178165  1
  Mn  Mn11  1  0.250000  0.282272  0.673276  1
  Mn  Mn12  1  0.750000  0.780840  0.822548  1
  Mn  Mn13  1  0.750000  0.719345  0.326317  1
  Mn  Mn14  1  0.250000  0.876655  0.695813  1
  Mn  Mn15  1  0.250000  0.624486  0.200223  1
  V  V16  1  0.250000  0.703465  0.987343  1
  V  V17  1  0.750000  0.299251  0.011197  1
  Fe  Fe18  1  0.750000  0.125490  0.301852  1
  Fe  Fe19  1  0.750000  0.375442  0.799998  1
  Fe  Fe20  1  0.250000  0.464179  0.935046  1
  Fe  Fe21  1  0.250000  0.035769  0.433922  1
  Fe  Fe22  1  0.750000  0.538394  0.067967  1
  Fe  Fe23  1  0.750000  0.961492  0.568117  1
  P  P24  1  0.250000  0.424360  0.112516  1
  P  P25  1  0.250000  0.077103  0.610393  1
  P  P26  1  0.750000  0.572575  0.887788  1
  P  P27  1  0.750000  0.927242  0.388502  1
  P  P28  1  0.250000  0.269720  0.867341  1
  P  P29  1  0.250000  0.230717  0.371187  1
  P  P30  1  0.750000  0.738178  0.129807  1
  P  P31  1  0.750000  0.761845  0.627821  1
  P  P32  1  0.250000  0.590285  0.387743  1
  P  P33  1  0.250000  0.905737  0.885069  1
  P  P34  1  0.750000  0.406087  0.614341  1
  P  P35  1  0.750000  0.096485  0.114344  1
