# generated using pymatgen
data_Y2Lu2Co9Si5
_symmetry_space_group_name_H-M   'P 1'
_cell_length_a   5.16907000
_cell_length_b   5.16906956
_cell_length_c   21.72737000
_cell_angle_alpha   90.00000000
_cell_angle_beta   90.00000000
_cell_angle_gamma   119.99999003
_symmetry_Int_Tables_number   1
_chemical_formula_structural   Y2Lu2Co9Si5
_chemical_formula_sum   'Y4 Lu4 Co18 Si10'
_cell_volume   502.76220831
_cell_formula_units_Z   2
loop_
 _symmetry_equiv_pos_site_id
 _symmetry_equiv_pos_as_xyz
  1  'x, y, z'
loop_
 _atom_site_type_symbol
 _atom_site_label
 _atom_site_symmetry_multiplicity
 _atom_site_fract_x
 _atom_site_fract_y
 _atom_site_fract_z
 _atom_site_occupancy
  Y  Y0  1  0.333333  0.666667  0.673437  1
  Y  Y1  1  0.666667  0.333333  0.326563  1
  Y  Y2  1  0.666667  0.333333  0.173437  1
  Y  Y3  1  0.333333  0.666667  0.826563  1
  Lu  Lu4  1  0.333333  0.666667  0.526933  1
  Lu  Lu5  1  0.666667  0.333333  0.473067  1
  Lu  Lu6  1  0.666667  0.333333  0.026933  1
  Lu  Lu7  1  0.333333  0.666667  0.973067  1
  Co  Co8  1  0.167544  0.335088  0.086225  1
  Co  Co9  1  0.832456  0.664912  0.913775  1
  Co  Co10  1  0.664912  0.832456  0.086225  1
  Co  Co11  1  0.832456  0.664912  0.586225  1
  Co  Co12  1  0.335088  0.167544  0.913775  1
  Co  Co13  1  0.167544  0.335088  0.413775  1
  Co  Co14  1  0.167544  0.832456  0.086225  1
  Co  Co15  1  0.335088  0.167544  0.586225  1
  Co  Co16  1  0.832456  0.167544  0.913775  1
  Co  Co17  1  0.664912  0.832456  0.413775  1
  Co  Co18  1  0.832456  0.167544  0.586225  1
  Co  Co19  1  0.167544  0.832456  0.413775  1
  Co  Co20  1  0.166655  0.333308  0.250000  1
  Co  Co21  1  0.833345  0.666692  0.750000  1
  Co  Co22  1  0.666692  0.833345  0.250000  1
  Co  Co23  1  0.333308  0.166655  0.750000  1
  Co  Co24  1  0.166655  0.833345  0.250000  1
  Co  Co25  1  0.833345  0.166655  0.750000  1
  Si  Si26  1  0.000000  0.000000  0.000000  1
  Si  Si27  1  0.000000  0.000000  0.500000  1
  Si  Si28  1  0.333333  0.666667  0.167743  1
  Si  Si29  1  0.666667  0.333333  0.832257  1
  Si  Si30  1  0.666667  0.333333  0.667743  1
  Si  Si31  1  0.333333  0.666667  0.332257  1
  Si  Si32  1  0.000000  0.000000  0.167514  1
  Si  Si33  1  0.000000  0.000000  0.832486  1
  Si  Si34  1  0.000000  0.000000  0.667514  1
  Si  Si35  1  0.000000  0.000000  0.332486  1
