# generated using pymatgen
data_Tb4Yb6PrIn9Pd4
_symmetry_space_group_name_H-M   'P 1'
_cell_length_a   13.32306342
_cell_length_b   13.32242924
_cell_length_c   3.72874200
_cell_angle_alpha   90.00000000
_cell_angle_beta   90.00000000
_cell_angle_gamma   111.78785072
_symmetry_Int_Tables_number   1
_chemical_formula_structural   Tb4Yb6PrIn9Pd4
_chemical_formula_sum   'Tb4 Yb6 Pr1 In9 Pd4'
_cell_volume   614.55669326
_cell_formula_units_Z   1
loop_
 _symmetry_equiv_pos_site_id
 _symmetry_equiv_pos_as_xyz
  1  'x, y, z'
loop_
 _atom_site_type_symbol
 _atom_site_label
 _atom_site_symmetry_multiplicity
 _atom_site_fract_x
 _atom_site_fract_y
 _atom_site_fract_z
 _atom_site_occupancy
  Tb  Tb0  1  0.376056  0.623506  0.000000  1
  Tb  Tb1  1  0.623944  0.376494  0.000000  1
  Tb  Tb2  1  0.311989  0.311751  0.000000  1
  Tb  Tb3  1  0.688011  0.688249  0.000000  1
  Yb  Yb4  1  0.415325  0.070639  0.000000  1
  Yb  Yb5  1  0.584675  0.929361  0.000000  1
  Yb  Yb6  1  0.070647  0.415211  0.000000  1
  Yb  Yb7  1  0.929353  0.584789  0.000000  1
  Yb  Yb8  1  0.161211  0.838599  0.000000  1
  Yb  Yb9  1  0.838789  0.161401  0.000000  1
  Pr  Pr10  1  0.000000  0.000000  0.000000  1
  In  In11  1  0.369052  0.835911  0.500000  1
  In  In12  1  0.630948  0.164089  0.500000  1
  In  In13  1  0.835889  0.369212  0.500000  1
  In  In14  1  0.164111  0.630788  0.500000  1
  In  In15  1  0.221755  0.079654  0.500000  1
  In  In16  1  0.778245  0.920346  0.500000  1
  In  In17  1  0.079854  0.221597  0.500000  1
  In  In18  1  0.920146  0.778403  0.500000  1
  In  In19  1  0.500000  0.500000  0.500000  1
  Pd  Pd20  1  0.448341  0.246111  0.500000  1
  Pd  Pd21  1  0.551659  0.753889  0.500000  1
  Pd  Pd22  1  0.246059  0.448142  0.500000  1
  Pd  Pd23  1  0.753941  0.551858  0.500000  1
