# generated using pymatgen
data_Lu12Co4BiRh
_symmetry_space_group_name_H-M   'P 1'
_cell_length_a   8.15756244
_cell_length_b   8.15644417
_cell_length_c   8.15756006
_cell_angle_alpha   111.00314550
_cell_angle_beta   111.13262919
_cell_angle_gamma   106.32827894
_symmetry_Int_Tables_number   1
_chemical_formula_structural   Lu12Co4BiRh
_chemical_formula_sum   'Lu12 Co4 Bi1 Rh1'
_cell_volume   416.86459904
_cell_formula_units_Z   1
loop_
 _symmetry_equiv_pos_site_id
 _symmetry_equiv_pos_as_xyz
  1  'x, y, z'
loop_
 _atom_site_type_symbol
 _atom_site_label
 _atom_site_symmetry_multiplicity
 _atom_site_fract_x
 _atom_site_fract_y
 _atom_site_fract_z
 _atom_site_occupancy
  Lu  Lu0  1  0.286060  0.183664  0.469704  1
  Lu  Lu1  1  0.713940  0.816336  0.530296  1
  Lu  Lu2  1  0.286040  0.816336  0.102395  1
  Lu  Lu3  1  0.713960  0.183664  0.897605  1
  Lu  Lu4  1  0.619851  0.311360  0.308520  1
  Lu  Lu5  1  0.380149  0.688640  0.691480  1
  Lu  Lu6  1  0.002840  0.311360  0.691509  1
  Lu  Lu7  1  0.997160  0.688640  0.308491  1
  Lu  Lu8  1  0.212986  0.411513  0.198528  1
  Lu  Lu9  1  0.787014  0.588487  0.801472  1
  Lu  Lu10  1  0.212981  0.014449  0.801468  1
  Lu  Lu11  1  0.787019  0.985551  0.198532  1
  Co  Co12  1  0.000014  0.375388  0.375374  1
  Co  Co13  1  0.999986  0.624612  0.624626  1
  Co  Co14  1  0.388047  0.888057  0.500010  1
  Co  Co15  1  0.611953  0.111943  0.499990  1
  Bi  Bi16  1  0.500000  0.500000  0.000000  1
  Rh  Rh17  1  0.000000  0.000000  0.000000  1
