# generated using pymatgen
data_Dy3ErCo8(PRh)12
_symmetry_space_group_name_H-M   'P 1'
_cell_length_a   3.78790500
_cell_length_b   10.63547370
_cell_length_c   12.22430976
_cell_angle_alpha   89.95894511
_cell_angle_beta   90.00000000
_cell_angle_gamma   90.00000000
_symmetry_Int_Tables_number   1
_chemical_formula_structural   Dy3ErCo8(PRh)12
_chemical_formula_sum   'Dy3 Er1 Co8 P12 Rh12'
_cell_volume   492.47042162
_cell_formula_units_Z   1
loop_
 _symmetry_equiv_pos_site_id
 _symmetry_equiv_pos_as_xyz
  1  'x, y, z'
loop_
 _atom_site_type_symbol
 _atom_site_label
 _atom_site_symmetry_multiplicity
 _atom_site_fract_x
 _atom_site_fract_y
 _atom_site_fract_z
 _atom_site_occupancy
  Dy  Dy0  1  0.250000  0.917523  0.209272  1
  Dy  Dy1  1  0.750000  0.417512  0.290793  1
  Dy  Dy2  1  0.750000  0.082585  0.790865  1
  Er  Er3  1  0.250000  0.582523  0.709119  1
  Co  Co4  1  0.250000  0.883071  0.696624  1
  Co  Co5  1  0.250000  0.616690  0.196371  1
  Co  Co6  1  0.750000  0.116862  0.303627  1
  Co  Co7  1  0.750000  0.383831  0.803073  1
  Co  Co8  1  0.250000  0.463748  0.932202  1
  Co  Co9  1  0.250000  0.036571  0.433062  1
  Co  Co10  1  0.750000  0.536724  0.066468  1
  Co  Co11  1  0.750000  0.963080  0.567206  1
  P  P12  1  0.250000  0.431374  0.110304  1
  P  P13  1  0.250000  0.068725  0.610820  1
  P  P14  1  0.750000  0.568870  0.888446  1
  P  P15  1  0.750000  0.931139  0.389384  1
  P  P16  1  0.250000  0.273964  0.871137  1
  P  P17  1  0.250000  0.226061  0.371132  1
  P  P18  1  0.750000  0.725892  0.129014  1
  P  P19  1  0.750000  0.773428  0.629168  1
  P  P20  1  0.250000  0.600293  0.381115  1
  P  P21  1  0.250000  0.899524  0.881140  1
  P  P22  1  0.750000  0.400103  0.619256  1
  P  P23  1  0.750000  0.100567  0.118889  1
  Rh  Rh24  1  0.250000  0.715995  0.990704  1
  Rh  Rh25  1  0.250000  0.783926  0.490864  1
  Rh  Rh26  1  0.750000  0.284135  0.008944  1
  Rh  Rh27  1  0.750000  0.215941  0.509687  1
  Rh  Rh28  1  0.250000  0.408809  0.479266  1
  Rh  Rh29  1  0.250000  0.091132  0.979210  1
  Rh  Rh30  1  0.750000  0.591114  0.521949  1
  Rh  Rh31  1  0.750000  0.908754  0.020994  1
  Rh  Rh32  1  0.250000  0.226565  0.180152  1
  Rh  Rh33  1  0.250000  0.273833  0.680319  1
  Rh  Rh34  1  0.750000  0.773046  0.819424  1
  Rh  Rh35  1  0.750000  0.726092  0.319997  1
