# generated using pymatgen
data_Pr2Al4Ga8Pt
_symmetry_space_group_name_H-M   'P 1'
_cell_length_a   6.10078200
_cell_length_b   6.10078200
_cell_length_c   15.84062200
_cell_angle_alpha   90.00000000
_cell_angle_beta   90.00000000
_cell_angle_gamma   90.00000000
_symmetry_Int_Tables_number   1
_chemical_formula_structural   Pr2Al4Ga8Pt
_chemical_formula_sum   'Pr4 Al8 Ga16 Pt2'
_cell_volume   589.58068018
_cell_formula_units_Z   2
loop_
 _symmetry_equiv_pos_site_id
 _symmetry_equiv_pos_as_xyz
  1  'x, y, z'
loop_
 _atom_site_type_symbol
 _atom_site_label
 _atom_site_symmetry_multiplicity
 _atom_site_fract_x
 _atom_site_fract_y
 _atom_site_fract_z
 _atom_site_occupancy
  Pr  Pr0  1  0.750000  0.250000  0.250616  1
  Pr  Pr1  1  0.250000  0.750000  0.250616  1
  Pr  Pr2  1  0.250000  0.750000  0.749384  1
  Pr  Pr3  1  0.750000  0.250000  0.749384  1
  Al  Al4  1  0.499973  0.999973  0.912946  1
  Al  Al5  1  0.999973  0.000027  0.912946  1
  Al  Al6  1  0.500027  0.499973  0.912946  1
  Al  Al7  1  0.000027  0.500027  0.912946  1
  Al  Al8  1  0.500027  0.000027  0.087054  1
  Al  Al9  1  0.000027  0.999973  0.087054  1
  Al  Al10  1  0.499973  0.500027  0.087054  1
  Al  Al11  1  0.999973  0.499973  0.087054  1
  Ga  Ga12  1  0.250000  0.250000  0.186310  1
  Ga  Ga13  1  0.750000  0.750000  0.186310  1
  Ga  Ga14  1  0.750000  0.750000  0.813690  1
  Ga  Ga15  1  0.250000  0.250000  0.813690  1
  Ga  Ga16  1  0.250000  0.250000  0.343696  1
  Ga  Ga17  1  0.750000  0.750000  0.343696  1
  Ga  Ga18  1  0.750000  0.750000  0.656304  1
  Ga  Ga19  1  0.250000  0.250000  0.656304  1
  Ga  Ga20  1  0.578103  0.078103  0.431561  1
  Ga  Ga21  1  0.078103  0.921897  0.431561  1
  Ga  Ga22  1  0.421897  0.578103  0.431561  1
  Ga  Ga23  1  0.921897  0.421897  0.431561  1
  Ga  Ga24  1  0.421897  0.921897  0.568439  1
  Ga  Ga25  1  0.921897  0.078103  0.568439  1
  Ga  Ga26  1  0.578103  0.421897  0.568439  1
  Ga  Ga27  1  0.078103  0.578103  0.568439  1
  Pt  Pt28  1  0.750000  0.250000  0.000000  1
  Pt  Pt29  1  0.250000  0.750000  0.000000  1
