# generated using pymatgen
data_Hf4Ta3Nb(GeP)2
_symmetry_space_group_name_H-M   'P 1'
_cell_length_a   3.58086200
_cell_length_b   6.96982531
_cell_length_c   8.45766038
_cell_angle_alpha   90.03438943
_cell_angle_beta   90.00000000
_cell_angle_gamma   90.00000000
_symmetry_Int_Tables_number   1
_chemical_formula_structural   Hf4Ta3Nb(GeP)2
_chemical_formula_sum   'Hf4 Ta3 Nb1 Ge2 P2'
_cell_volume   211.08610271
_cell_formula_units_Z   1
loop_
 _symmetry_equiv_pos_site_id
 _symmetry_equiv_pos_as_xyz
  1  'x, y, z'
loop_
 _atom_site_type_symbol
 _atom_site_label
 _atom_site_symmetry_multiplicity
 _atom_site_fract_x
 _atom_site_fract_y
 _atom_site_fract_z
 _atom_site_occupancy
  Hf  Hf0  1  0.250000  0.036564  0.670179  1
  Hf  Hf1  1  0.250000  0.536361  0.830193  1
  Hf  Hf2  1  0.750000  0.459051  0.160377  1
  Hf  Hf3  1  0.750000  0.958794  0.338874  1
  Ta  Ta4  1  0.750000  0.865244  0.932947  1
  Ta  Ta5  1  0.250000  0.638675  0.447306  1
  Ta  Ta6  1  0.250000  0.138682  0.053194  1
  Nb  Nb7  1  0.750000  0.365370  0.566662  1
  Ge  Ge8  1  0.250000  0.258524  0.356600  1
  Ge  Ge9  1  0.250000  0.758341  0.143539  1
  P  P10  1  0.750000  0.742617  0.642630  1
  P  P11  1  0.750000  0.241778  0.857499  1
