# generated using pymatgen
data_CeNd(CrSe3)2
_symmetry_space_group_name_H-M   'P 1'
_cell_length_a   4.06064900
_cell_length_b   8.24620301
_cell_length_c   13.79857017
_cell_angle_alpha   90.16842088
_cell_angle_beta   90.00000000
_cell_angle_gamma   90.00000000
_symmetry_Int_Tables_number   1
_chemical_formula_structural   CeNd(CrSe3)2
_chemical_formula_sum   'Ce2 Nd2 Cr4 Se12'
_cell_volume   462.04224277
_cell_formula_units_Z   2
loop_
 _symmetry_equiv_pos_site_id
 _symmetry_equiv_pos_as_xyz
  1  'x, y, z'
loop_
 _atom_site_type_symbol
 _atom_site_label
 _atom_site_symmetry_multiplicity
 _atom_site_fract_x
 _atom_site_fract_y
 _atom_site_fract_z
 _atom_site_occupancy
  Ce  Ce0  1  0.250000  0.594868  0.328167  1
  Ce  Ce1  1  0.750000  0.405132  0.671833  1
  Nd  Nd2  1  0.250000  0.094537  0.171227  1
  Nd  Nd3  1  0.750000  0.905463  0.828773  1
  Cr  Cr4  1  0.250000  0.337597  0.948739  1
  Cr  Cr5  1  0.750000  0.662403  0.051261  1
  Cr  Cr6  1  0.250000  0.837646  0.551218  1
  Cr  Cr7  1  0.750000  0.162354  0.448782  1
  Se  Se8  1  0.750000  0.010893  0.607132  1
  Se  Se9  1  0.250000  0.989107  0.392868  1
  Se  Se10  1  0.750000  0.510361  0.892715  1
  Se  Se11  1  0.250000  0.489639  0.107285  1
  Se  Se12  1  0.750000  0.307685  0.287009  1
  Se  Se13  1  0.250000  0.692315  0.712991  1
  Se  Se14  1  0.750000  0.811271  0.211942  1
  Se  Se15  1  0.250000  0.188729  0.788058  1
  Se  Se16  1  0.750000  0.156935  0.004417  1
  Se  Se17  1  0.250000  0.843065  0.995583  1
  Se  Se18  1  0.750000  0.657303  0.495407  1
  Se  Se19  1  0.250000  0.342697  0.504593  1
