# generated using pymatgen
data_YEr(Th2Ir)6
_symmetry_space_group_name_H-M   'P 1'
_cell_length_a   10.01512686
_cell_length_b   10.02816122
_cell_length_c   6.34612423
_cell_angle_alpha   90.40459855
_cell_angle_beta   89.93059555
_cell_angle_gamma   119.81244079
_symmetry_Int_Tables_number   1
_chemical_formula_structural   YEr(Th2Ir)6
_chemical_formula_sum   'Y1 Er1 Th12 Ir6'
_cell_volume   552.99641391
_cell_formula_units_Z   1
loop_
 _symmetry_equiv_pos_site_id
 _symmetry_equiv_pos_as_xyz
  1  'x, y, z'
loop_
 _atom_site_type_symbol
 _atom_site_label
 _atom_site_symmetry_multiplicity
 _atom_site_fract_x
 _atom_site_fract_y
 _atom_site_fract_z
 _atom_site_occupancy
  Y  Y0  1  0.458732  0.538976  0.295465  1
  Er  Er1  1  0.081252  0.539847  0.297418  1
  Th  Th2  1  0.918028  0.459692  0.799832  1
  Th  Th3  1  0.254613  0.129368  0.498677  1
  Th  Th4  1  0.541004  0.083411  0.793485  1
  Th  Th5  1  0.745463  0.873825  0.999665  1
  Th  Th6  1  0.665242  0.332215  0.306062  1
  Th  Th7  1  0.128048  0.871630  0.002416  1
  Th  Th8  1  0.455449  0.911418  0.291137  1
  Th  Th9  1  0.543291  0.457173  0.795886  1
  Th  Th10  1  0.874462  0.130411  0.500510  1
  Th  Th11  1  0.128535  0.257022  0.001090  1
  Th  Th12  1  0.871638  0.742651  0.497655  1
  Th  Th13  1  0.332859  0.665896  0.782182  1
  Ir  Ir14  1  0.812388  0.623520  0.055082  1
  Ir  Ir15  1  0.813341  0.189541  0.056050  1
  Ir  Ir16  1  0.627800  0.817663  0.551147  1
  Ir  Ir17  1  0.375668  0.188673  0.053760  1
  Ir  Ir18  1  0.184186  0.373221  0.555932  1
  Ir  Ir19  1  0.188002  0.813847  0.550550  1
