# generated using pymatgen
data_Tm8Lu4Co4SnOs
_symmetry_space_group_name_H-M   'P 1'
_cell_length_a   8.13825846
_cell_length_b   8.13825840
_cell_length_c   8.13825785
_cell_angle_alpha   111.79275506
_cell_angle_beta   110.55342177
_cell_angle_gamma   106.12113672
_symmetry_Int_Tables_number   1
_chemical_formula_structural   Tm8Lu4Co4SnOs
_chemical_formula_sum   'Tm8 Lu4 Co4 Sn1 Os1'
_cell_volume   413.82025435
_cell_formula_units_Z   1
loop_
 _symmetry_equiv_pos_site_id
 _symmetry_equiv_pos_as_xyz
  1  'x, y, z'
loop_
 _atom_site_type_symbol
 _atom_site_label
 _atom_site_symmetry_multiplicity
 _atom_site_fract_x
 _atom_site_fract_y
 _atom_site_fract_z
 _atom_site_occupancy
  Tm  Tm0  1  0.418571  0.222927  0.195643  1
  Tm  Tm1  1  0.581429  0.777073  0.804357  1
  Tm  Tm2  1  0.027285  0.222927  0.804357  1
  Tm  Tm3  1  0.972715  0.777073  0.195643  1
  Tm  Tm4  1  0.181625  0.277485  0.459111  1
  Tm  Tm5  1  0.818375  0.722515  0.540889  1
  Tm  Tm6  1  0.181625  0.722515  0.904140  1
  Tm  Tm7  1  0.818375  0.277485  0.095860  1
  Lu  Lu8  1  0.314745  0.622159  0.307413  1
  Lu  Lu9  1  0.685255  0.377841  0.692587  1
  Lu  Lu10  1  0.314745  0.007332  0.692587  1
  Lu  Lu11  1  0.685255  0.992668  0.307413  1
  Co  Co12  1  0.373995  0.000000  0.373995  1
  Co  Co13  1  0.626005  0.000000  0.626005  1
  Co  Co14  1  0.112687  0.612687  0.500000  1
  Co  Co15  1  0.887313  0.387313  0.500000  1
  Sn  Sn16  1  0.500000  0.500000  0.000000  1
  Os  Os17  1  0.000000  0.000000  0.000000  1
