# generated using pymatgen
data_Dy7HoTi3Si16Tc9
_symmetry_space_group_name_H-M   'P 1'
_cell_length_a   6.79095791
_cell_length_b   6.79097378
_cell_length_c   12.95354806
_cell_angle_alpha   90.08471739
_cell_angle_beta   89.92457303
_cell_angle_gamma   89.44741825
_symmetry_Int_Tables_number   1
_chemical_formula_structural   Dy7HoTi3Si16Tc9
_chemical_formula_sum   'Dy7 Ho1 Ti3 Si16 Tc9'
_cell_volume   597.35262344
_cell_formula_units_Z   1
loop_
 _symmetry_equiv_pos_site_id
 _symmetry_equiv_pos_as_xyz
  1  'x, y, z'
loop_
 _atom_site_type_symbol
 _atom_site_label
 _atom_site_symmetry_multiplicity
 _atom_site_fract_x
 _atom_site_fract_y
 _atom_site_fract_z
 _atom_site_occupancy
  Dy  Dy0  1  0.000887  0.338192  0.528657  1
  Dy  Dy1  1  0.662524  0.998208  0.970941  1
  Dy  Dy2  1  0.174657  0.490718  0.782933  1
  Dy  Dy3  1  0.822532  0.511771  0.283116  1
  Dy  Dy4  1  0.490758  0.174684  0.217025  1
  Dy  Dy5  1  0.511798  0.822529  0.716872  1
  Dy  Dy6  1  0.338209  0.000896  0.471359  1
  Ho  Ho7  1  0.998645  0.662093  0.029017  1
  Ti  Ti8  1  0.843795  0.155626  0.748981  1
  Ti  Ti9  1  0.155641  0.843780  0.250920  1
  Ti  Ti10  1  0.334885  0.334853  0.000041  1
  Si  Si11  1  0.014351  0.736708  0.444836  1
  Si  Si12  1  0.977302  0.270135  0.942754  1
  Si  Si13  1  0.736706  0.014349  0.555167  1
  Si  Si14  1  0.198747  0.475008  0.186094  1
  Si  Si15  1  0.799514  0.528060  0.685273  1
  Si  Si16  1  0.474879  0.198969  0.813825  1
  Si  Si17  1  0.528095  0.799549  0.314734  1
  Si  Si18  1  0.269492  0.977152  0.057257  1
  Si  Si19  1  0.789486  0.881522  0.180584  1
  Si  Si20  1  0.317415  0.603843  0.560337  1
  Si  Si21  1  0.693388  0.387228  0.062843  1
  Si  Si22  1  0.603838  0.317418  0.439649  1
  Si  Si23  1  0.386541  0.693184  0.937233  1
  Si  Si24  1  0.116424  0.212264  0.317672  1
  Si  Si25  1  0.212259  0.116430  0.682338  1
  Si  Si26  1  0.881836  0.789205  0.819424  1
  Tc  Tc27  1  0.306932  0.524120  0.368856  1
  Tc  Tc28  1  0.818124  0.016719  0.364388  1
  Tc  Tc29  1  0.989728  0.180963  0.136062  1
  Tc  Tc30  1  0.016759  0.818109  0.635603  1
  Tc  Tc31  1  0.524091  0.306957  0.631062  1
  Tc  Tc32  1  0.180720  0.989660  0.864039  1
  Tc  Tc33  1  0.665357  0.665312  0.499999  1
  Tc  Tc34  1  0.478965  0.684353  0.130935  1
  Tc  Tc35  1  0.684719  0.479430  0.869173  1
