# generated using pymatgen
data_Tb6AlGa3Ru4
_symmetry_space_group_name_H-M   'P 1'
_cell_length_a   5.60197500
_cell_length_b   7.72368000
_cell_length_c   13.67918200
_cell_angle_alpha   90.00000000
_cell_angle_beta   90.00000000
_cell_angle_gamma   90.00000000
_symmetry_Int_Tables_number   1
_chemical_formula_structural   Tb6AlGa3Ru4
_chemical_formula_sum   'Tb12 Al2 Ga6 Ru8'
_cell_volume   591.86896271
_cell_formula_units_Z   2
loop_
 _symmetry_equiv_pos_site_id
 _symmetry_equiv_pos_as_xyz
  1  'x, y, z'
loop_
 _atom_site_type_symbol
 _atom_site_label
 _atom_site_symmetry_multiplicity
 _atom_site_fract_x
 _atom_site_fract_y
 _atom_site_fract_z
 _atom_site_occupancy
  Tb  Tb0  1  0.847039  0.904496  0.596238  1
  Tb  Tb1  1  0.151721  0.400745  0.903816  1
  Tb  Tb2  1  0.847039  0.595504  0.096238  1
  Tb  Tb3  1  0.621963  0.266152  0.750000  1
  Tb  Tb4  1  0.621963  0.233848  0.250000  1
  Tb  Tb5  1  0.847039  0.595504  0.403762  1
  Tb  Tb6  1  0.378661  0.736645  0.250000  1
  Tb  Tb7  1  0.151721  0.099255  0.096184  1
  Tb  Tb8  1  0.151721  0.099255  0.403816  1
  Tb  Tb9  1  0.378661  0.763355  0.750000  1
  Tb  Tb10  1  0.151721  0.400745  0.596184  1
  Tb  Tb11  1  0.847039  0.904496  0.903762  1
  Al  Al12  1  0.374637  0.750000  0.500000  1
  Al  Al13  1  0.374637  0.750000  0.000000  1
  Ga  Ga14  1  0.125059  0.108874  0.750000  1
  Ga  Ga15  1  0.632939  0.250000  0.500000  1
  Ga  Ga16  1  0.125059  0.391126  0.250000  1
  Ga  Ga17  1  0.875936  0.888847  0.250000  1
  Ga  Ga18  1  0.875936  0.611153  0.750000  1
  Ga  Ga19  1  0.632939  0.250000  0.000000  1
  Ru  Ru20  1  0.351717  0.033914  0.907063  1
  Ru  Ru21  1  0.351717  0.466086  0.092937  1
  Ru  Ru22  1  0.644926  0.962124  0.094426  1
  Ru  Ru23  1  0.644926  0.537876  0.905574  1
  Ru  Ru24  1  0.644926  0.962124  0.405574  1
  Ru  Ru25  1  0.644926  0.537876  0.594426  1
  Ru  Ru26  1  0.351717  0.466086  0.407063  1
  Ru  Ru27  1  0.351717  0.033914  0.592937  1
