# generated using pymatgen
data_Y12Er4Cd4IrPd3
_symmetry_space_group_name_H-M   'P 1'
_cell_length_a   9.69551897
_cell_length_b   9.67314105
_cell_length_c   9.67314100
_cell_angle_alpha   59.99999675
_cell_angle_beta   60.07631771
_cell_angle_gamma   60.07631679
_symmetry_Int_Tables_number   1
_chemical_formula_structural   Y12Er4Cd4IrPd3
_chemical_formula_sum   'Y12 Er4 Cd4 Ir1 Pd3'
_cell_volume   642.23075970
_cell_formula_units_Z   1
loop_
 _symmetry_equiv_pos_site_id
 _symmetry_equiv_pos_as_xyz
  1  'x, y, z'
loop_
 _atom_site_type_symbol
 _atom_site_label
 _atom_site_symmetry_multiplicity
 _atom_site_fract_x
 _atom_site_fract_y
 _atom_site_fract_z
 _atom_site_occupancy
  Y  Y0  1  0.807215  0.188584  0.188584  1
  Y  Y1  1  0.190076  0.810369  0.810369  1
  Y  Y2  1  0.190076  0.810369  0.189185  1
  Y  Y3  1  0.807215  0.188584  0.815616  1
  Y  Y4  1  0.190076  0.189185  0.810369  1
  Y  Y5  1  0.807215  0.815616  0.188584  1
  Y  Y6  1  0.934213  0.565822  0.565822  1
  Y  Y7  1  0.566979  0.935192  0.935192  1
  Y  Y8  1  0.566979  0.935192  0.562637  1
  Y  Y9  1  0.934213  0.565822  0.934143  1
  Y  Y10  1  0.566979  0.562637  0.935192  1
  Y  Y11  1  0.934213  0.934143  0.565822  1
  Er  Er12  1  0.355666  0.348898  0.348898  1
  Er  Er13  1  0.355666  0.348898  0.946538  1
  Er  Er14  1  0.355666  0.946538  0.348898  1
  Er  Er15  1  0.938815  0.353729  0.353729  1
  Cd  Cd16  1  0.581485  0.581837  0.581837  1
  Cd  Cd17  1  0.581485  0.581837  0.254843  1
  Cd  Cd18  1  0.581485  0.254843  0.581837  1
  Cd  Cd19  1  0.255874  0.581376  0.581376  1
  Ir  Ir20  1  0.567550  0.144150  0.144150  1
  Pd  Pd21  1  0.143621  0.145812  0.145812  1
  Pd  Pd22  1  0.143621  0.145812  0.564755  1
  Pd  Pd23  1  0.143621  0.564755  0.145812  1
