# generated using pymatgen
data_Li2Ho3Ga4
_symmetry_space_group_name_H-M   'P 1'
_cell_length_a   7.02119096
_cell_length_b   6.97782127
_cell_length_c   4.36152400
_cell_angle_alpha   90.00000000
_cell_angle_beta   90.00000000
_cell_angle_gamma   119.79588205
_symmetry_Int_Tables_number   1
_chemical_formula_structural   Li2Ho3Ga4
_chemical_formula_sum   'Li2 Ho3 Ga4'
_cell_volume   185.43389644
_cell_formula_units_Z   1
loop_
 _symmetry_equiv_pos_site_id
 _symmetry_equiv_pos_as_xyz
  1  'x, y, z'
loop_
 _atom_site_type_symbol
 _atom_site_label
 _atom_site_symmetry_multiplicity
 _atom_site_fract_x
 _atom_site_fract_y
 _atom_site_fract_z
 _atom_site_occupancy
  Li  Li0  1  0.769220  0.772190  0.500000  1
  Li  Li1  1  0.230780  0.002970  0.500000  1
  Ho  Ho2  1  0.000000  0.562881  0.000000  1
  Ho  Ho3  1  0.427313  0.427185  0.000000  1
  Ho  Ho4  1  0.572687  0.999872  0.000000  1
  Ga  Ga5  1  0.000000  0.236540  0.500000  1
  Ga  Ga6  1  0.666744  0.334912  0.500000  1
  Ga  Ga7  1  0.000000  0.995283  0.000000  1
  Ga  Ga8  1  0.333256  0.668169  0.500000  1
