# generated using pymatgen
data_TbPa3Rh4
_symmetry_space_group_name_H-M   'P 1'
_cell_length_a   3.95545500
_cell_length_b   5.78294154
_cell_length_c   7.55716341
_cell_angle_alpha   89.49152320
_cell_angle_beta   90.00000000
_cell_angle_gamma   90.00000000
_symmetry_Int_Tables_number   1
_chemical_formula_structural   TbPa3Rh4
_chemical_formula_sum   'Tb1 Pa3 Rh4'
_cell_volume   172.85699572
_cell_formula_units_Z   1
loop_
 _symmetry_equiv_pos_site_id
 _symmetry_equiv_pos_as_xyz
  1  'x, y, z'
loop_
 _atom_site_type_symbol
 _atom_site_label
 _atom_site_symmetry_multiplicity
 _atom_site_fract_x
 _atom_site_fract_y
 _atom_site_fract_z
 _atom_site_occupancy
  Tb  Tb0  1  0.750000  0.837137  0.827811  1
  Pa  Pa1  1  0.250000  0.333402  0.673990  1
  Pa  Pa2  1  0.250000  0.170289  0.167474  1
  Pa  Pa3  1  0.750000  0.672769  0.330442  1
  Rh  Rh4  1  0.250000  0.819272  0.549260  1
  Rh  Rh5  1  0.250000  0.660256  0.081825  1
  Rh  Rh6  1  0.750000  0.181083  0.433911  1
  Rh  Rh7  1  0.750000  0.325791  0.935287  1
