# generated using pymatgen
data_Tb7Ho(Si4W3)4
_symmetry_space_group_name_H-M   'P 1'
_cell_length_a   6.78943269
_cell_length_b   6.94789401
_cell_length_c   12.92018811
_cell_angle_alpha   90.02219248
_cell_angle_beta   89.99523057
_cell_angle_gamma   90.01913534
_symmetry_Int_Tables_number   1
_chemical_formula_structural   Tb7Ho(Si4W3)4
_chemical_formula_sum   'Tb7 Ho1 Si16 W12'
_cell_volume   609.47437467
_cell_formula_units_Z   1
loop_
 _symmetry_equiv_pos_site_id
 _symmetry_equiv_pos_as_xyz
  1  'x, y, z'
loop_
 _atom_site_type_symbol
 _atom_site_label
 _atom_site_symmetry_multiplicity
 _atom_site_fract_x
 _atom_site_fract_y
 _atom_site_fract_z
 _atom_site_occupancy
  Tb  Tb0  1  0.495687  0.667212  0.593476  1
  Tb  Tb1  1  0.995966  0.832864  0.906597  1
  Tb  Tb2  1  0.504440  0.332807  0.093565  1
  Tb  Tb3  1  0.004007  0.167503  0.406868  1
  Tb  Tb4  1  0.504010  0.332705  0.406894  1
  Tb  Tb5  1  0.004170  0.167368  0.093543  1
  Tb  Tb6  1  0.495710  0.667238  0.906094  1
  Ho  Ho7  1  0.995157  0.832133  0.593539  1
  Si  Si8  1  0.661222  0.957013  0.453225  1
  Si  Si9  1  0.161099  0.543005  0.047261  1
  Si  Si10  1  0.339567  0.043226  0.952397  1
  Si  Si11  1  0.839258  0.457601  0.547404  1
  Si  Si12  1  0.337773  0.042224  0.547345  1
  Si  Si13  1  0.839129  0.456956  0.952556  1
  Si  Si14  1  0.660840  0.956756  0.047325  1
  Si  Si15  1  0.160850  0.543645  0.453103  1
  Si  Si16  1  0.463592  0.368779  0.749903  1
  Si  Si17  1  0.964012  0.129800  0.749317  1
  Si  Si18  1  0.536544  0.630984  0.250171  1
  Si  Si19  1  0.036392  0.869571  0.250188  1
  Si  Si20  1  0.697073  0.867677  0.749593  1
  Si  Si21  1  0.195522  0.632383  0.749434  1
  Si  Si22  1  0.303626  0.132260  0.250176  1
  Si  Si23  1  0.803691  0.368471  0.250371  1
  W  W24  1  0.667882  0.162852  0.625754  1
  W  W25  1  0.167349  0.336310  0.873755  1
  W  W26  1  0.332225  0.836903  0.125769  1
  W  W27  1  0.832411  0.663935  0.374655  1
  W  W28  1  0.332116  0.836774  0.374292  1
  W  W29  1  0.832588  0.663603  0.126038  1
  W  W30  1  0.668484  0.163062  0.874010  1
  W  W31  1  0.167835  0.336633  0.625625  1
  W  W32  1  0.833994  0.498474  0.749676  1
  W  W33  1  0.333755  0.000837  0.749516  1
  W  W34  1  0.166078  0.501837  0.250200  1
  W  W35  1  0.665951  0.998597  0.250361  1
