# generated using pymatgen
data_Nd(S8I)3
_symmetry_space_group_name_H-M   'P 1'
_cell_length_a   15.53036906
_cell_length_b   15.53036949
_cell_length_c   15.53036995
_cell_angle_alpha   119.13837360
_cell_angle_beta   119.13837663
_cell_angle_gamma   119.13837361
_symmetry_Int_Tables_number   1
_chemical_formula_structural   Nd(S8I)3
_chemical_formula_sum   'Nd1 S24 I3'
_cell_volume   900.83202373
_cell_formula_units_Z   1
loop_
 _symmetry_equiv_pos_site_id
 _symmetry_equiv_pos_as_xyz
  1  'x, y, z'
loop_
 _atom_site_type_symbol
 _atom_site_label
 _atom_site_symmetry_multiplicity
 _atom_site_fract_x
 _atom_site_fract_y
 _atom_site_fract_z
 _atom_site_occupancy
  Nd  Nd0  1  0.455190  0.455190  0.455190  1
  S  S1  1  0.999389  0.588942  0.588942  1
  S  S2  1  0.588942  0.588942  0.999389  1
  S  S3  1  0.588942  0.999389  0.588942  1
  S  S4  1  0.248545  0.853587  0.728030  1
  S  S5  1  0.853587  0.728030  0.248545  1
  S  S6  1  0.728030  0.248545  0.853587  1
  S  S7  1  0.853587  0.248545  0.728030  1
  S  S8  1  0.248545  0.728030  0.853587  1
  S  S9  1  0.728030  0.853587  0.248545  1
  S  S10  1  0.086627  0.610514  0.432813  1
  S  S11  1  0.610514  0.432813  0.086627  1
  S  S12  1  0.432813  0.086627  0.610514  1
  S  S13  1  0.610514  0.086627  0.432813  1
  S  S14  1  0.086627  0.432813  0.610514  1
  S  S15  1  0.432813  0.610514  0.086627  1
  S  S16  1  0.372487  0.759999  0.633533  1
  S  S17  1  0.759999  0.633533  0.372487  1
  S  S18  1  0.633533  0.372487  0.759999  1
  S  S19  1  0.759999  0.372487  0.633533  1
  S  S20  1  0.372487  0.633533  0.759999  1
  S  S21  1  0.633533  0.759999  0.372487  1
  S  S22  1  0.177051  0.457820  0.457820  1
  S  S23  1  0.457820  0.457820  0.177051  1
  S  S24  1  0.457820  0.177051  0.457820  1
  I  I25  1  0.057699  0.905988  0.905988  1
  I  I26  1  0.905988  0.905988  0.057699  1
  I  I27  1  0.905988  0.057699  0.905988  1
