# generated using pymatgen
data_SrCaTbCd(Ga4Ag)2
_symmetry_space_group_name_H-M   'P 1'
_cell_length_a   4.38084817
_cell_length_b   8.50931716
_cell_length_c   8.50931800
_cell_angle_alpha   69.87301223
_cell_angle_beta   75.08328145
_cell_angle_gamma   75.08326296
_symmetry_Int_Tables_number   1
_chemical_formula_structural   SrCaTbCd(Ga4Ag)2
_chemical_formula_sum   'Sr1 Ca1 Tb1 Cd1 Ga8 Ag2'
_cell_volume   282.77522177
_cell_formula_units_Z   1
loop_
 _symmetry_equiv_pos_site_id
 _symmetry_equiv_pos_as_xyz
  1  'x, y, z'
loop_
 _atom_site_type_symbol
 _atom_site_label
 _atom_site_symmetry_multiplicity
 _atom_site_fract_x
 _atom_site_fract_y
 _atom_site_fract_z
 _atom_site_occupancy
  Sr  Sr0  1  0.498756  0.501266  0.501266  1
  Ca  Ca1  1  0.198356  0.801221  0.801221  1
  Tb  Tb2  1  0.799195  0.200498  0.200498  1
  Cd  Cd3  1  0.501095  0.999335  0.999335  1
  Ga  Ga4  1  0.352747  0.368278  0.926879  1
  Ga  Ga5  1  0.649010  0.626802  0.075118  1
  Ga  Ga6  1  0.352747  0.926879  0.368278  1
  Ga  Ga7  1  0.649010  0.075118  0.626802  1
  Ga  Ga8  1  0.162991  0.467264  0.207204  1
  Ga  Ga9  1  0.835916  0.530351  0.797019  1
  Ga  Ga10  1  0.162991  0.207204  0.467264  1
  Ga  Ga11  1  0.835916  0.797019  0.530351  1
  Ag  Ag12  1  0.000637  0.802654  0.196107  1
  Ag  Ag13  1  0.000637  0.196107  0.802654  1
