# generated using pymatgen
data_NdTh2(CuSn)3
_symmetry_space_group_name_H-M   'P 1'
_cell_length_a   4.53232000
_cell_length_b   4.53232064
_cell_length_c   11.98330800
_cell_angle_alpha   90.00000000
_cell_angle_beta   90.00000000
_cell_angle_gamma   119.99999531
_symmetry_Int_Tables_number   1
_chemical_formula_structural   NdTh2(CuSn)3
_chemical_formula_sum   'Nd1 Th2 Cu3 Sn3'
_cell_volume   213.18103485
_cell_formula_units_Z   1
loop_
 _symmetry_equiv_pos_site_id
 _symmetry_equiv_pos_as_xyz
  1  'x, y, z'
loop_
 _atom_site_type_symbol
 _atom_site_label
 _atom_site_symmetry_multiplicity
 _atom_site_fract_x
 _atom_site_fract_y
 _atom_site_fract_z
 _atom_site_occupancy
  Nd  Nd0  1  0.000000  0.000000  0.160767  1
  Th  Th1  1  0.000000  0.000000  0.827825  1
  Th  Th2  1  0.000000  0.000000  0.490538  1
  Cu  Cu3  1  0.666667  0.333333  0.019852  1
  Cu  Cu4  1  0.333333  0.666667  0.618290  1
  Cu  Cu5  1  0.333333  0.666667  0.368294  1
  Sn  Sn6  1  0.666667  0.333333  0.669566  1
  Sn  Sn7  1  0.666667  0.333333  0.312824  1
  Sn  Sn8  1  0.333333  0.666667  0.988043  1
