# generated using pymatgen
data_NaHo(CN2)2
_symmetry_space_group_name_H-M   'P 1'
_cell_length_a   6.33191500
_cell_length_b   7.44639300
_cell_length_c   9.92961700
_cell_angle_alpha   90.00000000
_cell_angle_beta   90.00000000
_cell_angle_gamma   90.00000000
_symmetry_Int_Tables_number   1
_chemical_formula_structural   NaHo(CN2)2
_chemical_formula_sum   'Na4 Ho4 C8 N16'
_cell_volume   468.18072198
_cell_formula_units_Z   4
loop_
 _symmetry_equiv_pos_site_id
 _symmetry_equiv_pos_as_xyz
  1  'x, y, z'
loop_
 _atom_site_type_symbol
 _atom_site_label
 _atom_site_symmetry_multiplicity
 _atom_site_fract_x
 _atom_site_fract_y
 _atom_site_fract_z
 _atom_site_occupancy
  Na  Na0  1  0.250000  0.620779  0.000000  1
  Na  Na1  1  0.750000  0.879221  0.500000  1
  Na  Na2  1  0.750000  0.379221  0.000000  1
  Na  Na3  1  0.250000  0.120779  0.500000  1
  Ho  Ho4  1  0.250000  0.128364  0.000000  1
  Ho  Ho5  1  0.750000  0.371636  0.500000  1
  Ho  Ho6  1  0.750000  0.871636  0.000000  1
  Ho  Ho7  1  0.250000  0.628364  0.500000  1
  C  C8  1  0.414986  0.377743  0.747214  1
  C  C9  1  0.914986  0.122257  0.752786  1
  C  C10  1  0.585014  0.122257  0.247214  1
  C  C11  1  0.085014  0.377743  0.252786  1
  C  C12  1  0.585014  0.622257  0.252786  1
  C  C13  1  0.085014  0.877743  0.247214  1
  C  C14  1  0.414986  0.877743  0.752786  1
  C  C15  1  0.914986  0.622257  0.747214  1
  N  N16  1  0.396083  0.354677  0.868501  1
  N  N17  1  0.896083  0.145323  0.631499  1
  N  N18  1  0.603917  0.145323  0.368501  1
  N  N19  1  0.103917  0.354677  0.131499  1
  N  N20  1  0.603917  0.645323  0.131499  1
  N  N21  1  0.103917  0.854677  0.368501  1
  N  N22  1  0.396083  0.854677  0.631499  1
  N  N23  1  0.896083  0.645323  0.868501  1
  N  N24  1  0.434435  0.401810  0.623587  1
  N  N25  1  0.934435  0.098190  0.876413  1
  N  N26  1  0.565565  0.098190  0.123587  1
  N  N27  1  0.065565  0.401810  0.376413  1
  N  N28  1  0.565565  0.598190  0.376413  1
  N  N29  1  0.065565  0.901810  0.123587  1
  N  N30  1  0.434435  0.901810  0.876413  1
  N  N31  1  0.934435  0.598190  0.623587  1
