# generated using pymatgen
data_Hf8Nb2Ga5Sb
_symmetry_space_group_name_H-M   'P 1'
_cell_length_a   8.06313288
_cell_length_b   8.06313385
_cell_length_c   5.56169812
_cell_angle_alpha   90.01161999
_cell_angle_beta   90.01162522
_cell_angle_gamma   120.05052215
_symmetry_Int_Tables_number   1
_chemical_formula_structural   Hf8Nb2Ga5Sb
_chemical_formula_sum   'Hf8 Nb2 Ga5 Sb1'
_cell_volume   312.98561112
_cell_formula_units_Z   1
loop_
 _symmetry_equiv_pos_site_id
 _symmetry_equiv_pos_as_xyz
  1  'x, y, z'
loop_
 _atom_site_type_symbol
 _atom_site_label
 _atom_site_symmetry_multiplicity
 _atom_site_fract_x
 _atom_site_fract_y
 _atom_site_fract_z
 _atom_site_occupancy
  Hf  Hf0  1  0.330440  0.672047  0.496375  1
  Hf  Hf1  1  0.672047  0.330440  0.496375  1
  Hf  Hf2  1  0.763900  0.763900  0.752923  1
  Hf  Hf3  1  0.243304  0.990079  0.753838  1
  Hf  Hf4  1  0.990079  0.243304  0.753838  1
  Hf  Hf5  1  0.243296  0.243296  0.248976  1
  Hf  Hf6  1  0.753518  0.001070  0.246185  1
  Hf  Hf7  1  0.001070  0.753518  0.246185  1
  Nb  Nb8  1  0.671330  0.330912  0.002274  1
  Nb  Nb9  1  0.330912  0.671330  0.002274  1
  Ga  Ga10  1  0.603266  0.997285  0.755622  1
  Ga  Ga11  1  0.997285  0.603266  0.755622  1
  Ga  Ga12  1  0.607165  0.607165  0.245608  1
  Ga  Ga13  1  0.394162  0.002230  0.244432  1
  Ga  Ga14  1  0.002230  0.394162  0.244432  1
  Sb  Sb15  1  0.395993  0.395993  0.755039  1
