# generated using pymatgen
data_Cs2Y7BBr18
_symmetry_space_group_name_H-M   'P 1'
_cell_length_a   10.70229008
_cell_length_b   10.70228885
_cell_length_c   11.60763112
_cell_angle_alpha   117.45180684
_cell_angle_beta   62.54819450
_cell_angle_gamma   120.00000427
_symmetry_Int_Tables_number   1
_chemical_formula_structural   Cs2Y7BBr18
_chemical_formula_sum   'Cs2 Y7 B1 Br18'
_cell_volume   974.71319364
_cell_formula_units_Z   1
loop_
 _symmetry_equiv_pos_site_id
 _symmetry_equiv_pos_as_xyz
  1  'x, y, z'
loop_
 _atom_site_type_symbol
 _atom_site_label
 _atom_site_symmetry_multiplicity
 _atom_site_fract_x
 _atom_site_fract_y
 _atom_site_fract_z
 _atom_site_occupancy
  Cs  Cs0  1  0.222076  0.777924  0.333774  1
  Cs  Cs1  1  0.777925  0.222075  0.666226  1
  Y  Y2  1  0.776769  0.108285  0.155813  1
  Y  Y3  1  0.891714  0.824298  0.155813  1
  Y  Y4  1  0.175703  0.223231  0.155813  1
  Y  Y5  1  0.500000  0.500000  0.500000  1
  Y  Y6  1  0.824298  0.776770  0.844187  1
  Y  Y7  1  0.108285  0.175701  0.844187  1
  Y  Y8  1  0.223230  0.891713  0.844187  1
  B  B9  1  0.000000  0.000000  0.000000  1
  Br  Br10  1  0.286726  0.424713  0.007509  1
  Br  Br11  1  0.575285  0.869521  0.007509  1
  Br  Br12  1  0.130480  0.713275  0.007509  1
  Br  Br13  1  0.946146  0.348170  0.333441  1
  Br  Br14  1  0.068583  0.053854  0.333441  1
  Br  Br15  1  0.651829  0.931417  0.333441  1
  Br  Br16  1  0.523566  0.214305  0.334389  1
  Br  Br17  1  0.785694  0.643651  0.334389  1
  Br  Br18  1  0.356349  0.476433  0.334389  1
  Br  Br19  1  0.643651  0.523567  0.665611  1
  Br  Br20  1  0.214307  0.356351  0.665611  1
  Br  Br21  1  0.476433  0.785694  0.665611  1
  Br  Br22  1  0.348170  0.068582  0.666558  1
  Br  Br23  1  0.931418  0.946145  0.666558  1
  Br  Br24  1  0.053854  0.651829  0.666558  1
  Br  Br25  1  0.869522  0.286726  0.992491  1
  Br  Br26  1  0.424713  0.130478  0.992491  1
  Br  Br27  1  0.713274  0.575287  0.992491  1
