# generated using pymatgen
data_La5Er3(Al4Au3)4
_symmetry_space_group_name_H-M   'P 1'
_cell_length_a   13.85815900
_cell_length_b   13.85815947
_cell_length_c   4.32607600
_cell_angle_alpha   90.00000000
_cell_angle_beta   90.00000000
_cell_angle_gamma   120.00000126
_symmetry_Int_Tables_number   1
_chemical_formula_structural   La5Er3(Al4Au3)4
_chemical_formula_sum   'La5 Er3 Al16 Au12'
_cell_volume   719.50839495
_cell_formula_units_Z   1
loop_
 _symmetry_equiv_pos_site_id
 _symmetry_equiv_pos_as_xyz
  1  'x, y, z'
loop_
 _atom_site_type_symbol
 _atom_site_label
 _atom_site_symmetry_multiplicity
 _atom_site_fract_x
 _atom_site_fract_y
 _atom_site_fract_z
 _atom_site_occupancy
  La  La0  1  0.333333  0.666667  0.000000  1
  La  La1  1  0.666667  0.333333  0.000000  1
  La  La2  1  0.810968  0.000000  0.500000  1
  La  La3  1  0.000000  0.810968  0.500000  1
  La  La4  1  0.189032  0.189032  0.500000  1
  Er  Er5  1  0.434382  0.000000  0.000000  1
  Er  Er6  1  0.000000  0.434382  0.000000  1
  Er  Er7  1  0.565618  0.565618  0.000000  1
  Al  Al8  1  0.186871  0.377868  0.000000  1
  Al  Al9  1  0.622132  0.809004  0.000000  1
  Al  Al10  1  0.377868  0.186871  0.000000  1
  Al  Al11  1  0.190996  0.813129  0.000000  1
  Al  Al12  1  0.809004  0.622132  0.000000  1
  Al  Al13  1  0.813129  0.190996  0.000000  1
  Al  Al14  1  0.273613  0.000000  0.500000  1
  Al  Al15  1  0.000000  0.273613  0.500000  1
  Al  Al16  1  0.726387  0.726387  0.500000  1
  Al  Al17  1  0.363321  0.483254  0.500000  1
  Al  Al18  1  0.516746  0.880067  0.500000  1
  Al  Al19  1  0.483254  0.363321  0.500000  1
  Al  Al20  1  0.119933  0.636679  0.500000  1
  Al  Al21  1  0.880067  0.516746  0.500000  1
  Al  Al22  1  0.636679  0.119933  0.500000  1
  Al  Al23  1  0.000000  0.000000  0.000000  1
  Au  Au24  1  0.171527  0.476347  0.500000  1
  Au  Au25  1  0.523653  0.695180  0.500000  1
  Au  Au26  1  0.476347  0.171527  0.500000  1
  Au  Au27  1  0.304820  0.828473  0.500000  1
  Au  Au28  1  0.695180  0.523653  0.500000  1
  Au  Au29  1  0.828473  0.304820  0.500000  1
  Au  Au30  1  0.180053  0.000000  0.000000  1
  Au  Au31  1  0.000000  0.180053  0.000000  1
  Au  Au32  1  0.819947  0.819947  0.000000  1
  Au  Au33  1  0.637826  0.000000  0.000000  1
  Au  Au34  1  0.000000  0.637826  0.000000  1
  Au  Au35  1  0.362174  0.362174  0.000000  1
