# generated using pymatgen
data_Ca(La3Ir2)3
_symmetry_space_group_name_H-M   'P 1'
_cell_length_a   11.44151400
_cell_length_b   11.44151400
_cell_length_c   6.61568200
_cell_angle_alpha   90.00000000
_cell_angle_beta   90.00000000
_cell_angle_gamma   90.00000000
_symmetry_Int_Tables_number   1
_chemical_formula_structural   Ca(La3Ir2)3
_chemical_formula_sum   'Ca2 La18 Ir12'
_cell_volume   866.04730430
_cell_formula_units_Z   2
loop_
 _symmetry_equiv_pos_site_id
 _symmetry_equiv_pos_as_xyz
  1  'x, y, z'
loop_
 _atom_site_type_symbol
 _atom_site_label
 _atom_site_symmetry_multiplicity
 _atom_site_fract_x
 _atom_site_fract_y
 _atom_site_fract_z
 _atom_site_occupancy
  Ca  Ca0  1  0.000000  0.000000  0.500000  1
  Ca  Ca1  1  0.000000  0.000000  0.000000  1
  La  La2  1  0.287857  0.089711  0.389528  1
  La  La3  1  0.287857  0.910289  0.889528  1
  La  La4  1  0.712143  0.089711  0.889528  1
  La  La5  1  0.712143  0.910289  0.389528  1
  La  La6  1  0.590826  0.792037  0.886431  1
  La  La7  1  0.590826  0.207963  0.386431  1
  La  La8  1  0.409174  0.792037  0.386431  1
  La  La9  1  0.409174  0.207963  0.886431  1
  La  La10  1  0.207963  0.409174  0.613569  1
  La  La11  1  0.207963  0.590826  0.113569  1
  La  La12  1  0.792037  0.409174  0.113569  1
  La  La13  1  0.792037  0.590826  0.613569  1
  La  La14  1  0.910289  0.712143  0.110472  1
  La  La15  1  0.910289  0.287857  0.610472  1
  La  La16  1  0.089711  0.712143  0.610472  1
  La  La17  1  0.089711  0.287857  0.110472  1
  La  La18  1  0.500000  0.500000  0.000000  1
  La  La19  1  0.500000  0.500000  0.500000  1
  Ir  Ir20  1  0.841361  0.158639  0.250000  1
  Ir  Ir21  1  0.841361  0.841361  0.750000  1
  Ir  Ir22  1  0.158639  0.158639  0.750000  1
  Ir  Ir23  1  0.158639  0.841361  0.250000  1
  Ir  Ir24  1  0.654240  0.345760  0.750000  1
  Ir  Ir25  1  0.654240  0.654240  0.250000  1
  Ir  Ir26  1  0.345760  0.345760  0.250000  1
  Ir  Ir27  1  0.345760  0.654240  0.750000  1
  Ir  Ir28  1  0.500000  0.000000  0.114451  1
  Ir  Ir29  1  0.500000  0.000000  0.614451  1
  Ir  Ir30  1  0.000000  0.500000  0.885549  1
  Ir  Ir31  1  0.000000  0.500000  0.385549  1
