# generated using pymatgen
data_Pr9U2NbS20
_symmetry_space_group_name_H-M   'P 1'
_cell_length_a   7.50670378
_cell_length_b   8.10702600
_cell_length_c   12.05163364
_cell_angle_alpha   90.00000000
_cell_angle_beta   90.37722504
_cell_angle_gamma   90.00000000
_symmetry_Int_Tables_number   1
_chemical_formula_structural   Pr9U2NbS20
_chemical_formula_sum   'Pr9 U2 Nb1 S20'
_cell_volume   733.41088738
_cell_formula_units_Z   1
loop_
 _symmetry_equiv_pos_site_id
 _symmetry_equiv_pos_as_xyz
  1  'x, y, z'
loop_
 _atom_site_type_symbol
 _atom_site_label
 _atom_site_symmetry_multiplicity
 _atom_site_fract_x
 _atom_site_fract_y
 _atom_site_fract_z
 _atom_site_occupancy
  Pr  Pr0  1  0.926197  0.750000  0.493450  1
  Pr  Pr1  1  0.474043  0.001445  0.319419  1
  Pr  Pr2  1  0.974837  0.000189  0.175766  1
  Pr  Pr3  1  0.526066  0.499133  0.677826  1
  Pr  Pr4  1  0.027443  0.498352  0.828119  1
  Pr  Pr5  1  0.526066  0.000867  0.677826  1
  Pr  Pr6  1  0.027443  0.001648  0.828119  1
  Pr  Pr7  1  0.474043  0.498555  0.319419  1
  Pr  Pr8  1  0.974837  0.499811  0.175766  1
  U  U9  1  0.059164  0.250000  0.505484  1
  U  U10  1  0.567331  0.750000  0.988825  1
  Nb  Nb11  1  0.427056  0.250000  0.002691  1
  S  S12  1  0.176029  0.750000  0.302723  1
  S  S13  1  0.659181  0.250000  0.173376  1
  S  S14  1  0.832426  0.250000  0.686097  1
  S  S15  1  0.330961  0.750000  0.814610  1
  S  S16  1  0.537510  0.750000  0.498177  1
  S  S17  1  0.068894  0.250000  0.004087  1
  S  S18  1  0.447216  0.250000  0.500763  1
  S  S19  1  0.952332  0.750000  0.000320  1
  S  S20  1  0.801683  0.750000  0.723511  1
  S  S21  1  0.319584  0.250000  0.800384  1
  S  S22  1  0.190584  0.250000  0.290779  1
  S  S23  1  0.690710  0.750000  0.209842  1
  S  S24  1  0.162531  0.524221  0.602849  1
  S  S25  1  0.660012  0.453303  0.912259  1
  S  S26  1  0.837261  0.051204  0.400719  1
  S  S27  1  0.344376  0.978918  0.085483  1
  S  S28  1  0.837261  0.448796  0.400719  1
  S  S29  1  0.344376  0.521082  0.085483  1
  S  S30  1  0.162531  0.975779  0.602849  1
  S  S31  1  0.660012  0.046697  0.912259  1
