# generated using pymatgen
data_Nd7Sm4In9Pd4
_symmetry_space_group_name_H-M   'P 1'
_cell_length_a   13.46034147
_cell_length_b   13.45927543
_cell_length_c   3.78954400
_cell_angle_alpha   90.00000000
_cell_angle_beta   90.00000000
_cell_angle_gamma   111.34610578
_symmetry_Int_Tables_number   1
_chemical_formula_structural   Nd7Sm4In9Pd4
_chemical_formula_sum   'Nd7 Sm4 In9 Pd4'
_cell_volume   639.44073818
_cell_formula_units_Z   1
loop_
 _symmetry_equiv_pos_site_id
 _symmetry_equiv_pos_as_xyz
  1  'x, y, z'
loop_
 _atom_site_type_symbol
 _atom_site_label
 _atom_site_symmetry_multiplicity
 _atom_site_fract_x
 _atom_site_fract_y
 _atom_site_fract_z
 _atom_site_occupancy
  Nd  Nd0  1  0.417269  0.069516  0.000000  1
  Nd  Nd1  1  0.582731  0.930484  0.000000  1
  Nd  Nd2  1  0.069529  0.417321  0.000000  1
  Nd  Nd3  1  0.930471  0.582679  0.000000  1
  Nd  Nd4  1  0.158821  0.841213  0.000000  1
  Nd  Nd5  1  0.841179  0.158787  0.000000  1
  Nd  Nd6  1  0.000000  0.000000  0.000000  1
  Sm  Sm7  1  0.371686  0.628355  0.000000  1
  Sm  Sm8  1  0.628314  0.371645  0.000000  1
  Sm  Sm9  1  0.310088  0.310102  0.000000  1
  Sm  Sm10  1  0.689912  0.689898  0.000000  1
  In  In11  1  0.367436  0.837186  0.500000  1
  In  In12  1  0.632564  0.162814  0.500000  1
  In  In13  1  0.837170  0.367325  0.500000  1
  In  In14  1  0.162830  0.632675  0.500000  1
  In  In15  1  0.220558  0.078617  0.500000  1
  In  In16  1  0.779442  0.921383  0.500000  1
  In  In17  1  0.078613  0.220568  0.500000  1
  In  In18  1  0.921387  0.779432  0.500000  1
  In  In19  1  0.500000  0.500000  0.500000  1
  Pd  Pd20  1  0.450621  0.249285  0.500000  1
  Pd  Pd21  1  0.549379  0.750715  0.500000  1
  Pd  Pd22  1  0.249285  0.450644  0.500000  1
  Pd  Pd23  1  0.750715  0.549356  0.500000  1
