# generated using pymatgen
data_Sm7Y2Er11Pb16
_symmetry_space_group_name_H-M   'P 1'
_cell_length_a   8.22553507
_cell_length_b   8.33019584
_cell_length_c   15.69564712
_cell_angle_alpha   90.00616075
_cell_angle_beta   90.19231838
_cell_angle_gamma   90.05693864
_symmetry_Int_Tables_number   1
_chemical_formula_structural   Sm7Y2Er11Pb16
_chemical_formula_sum   'Sm7 Y2 Er11 Pb16'
_cell_volume   1075.46413568
_cell_formula_units_Z   1
loop_
 _symmetry_equiv_pos_site_id
 _symmetry_equiv_pos_as_xyz
  1  'x, y, z'
loop_
 _atom_site_type_symbol
 _atom_site_label
 _atom_site_symmetry_multiplicity
 _atom_site_fract_x
 _atom_site_fract_y
 _atom_site_fract_z
 _atom_site_occupancy
  Sm  Sm0  1  0.973543  0.821868  0.903376  1
  Sm  Sm1  1  0.527192  0.322389  0.097343  1
  Sm  Sm2  1  0.029209  0.175750  0.400784  1
  Sm  Sm3  1  0.526783  0.322479  0.402056  1
  Sm  Sm4  1  0.026802  0.177760  0.097630  1
  Sm  Sm5  1  0.473771  0.677992  0.903407  1
  Sm  Sm6  1  0.971894  0.822595  0.598017  1
  Y  Y7  1  0.129726  0.341567  0.620780  1
  Y  Y8  1  0.471095  0.678930  0.598024  1
  Er  Er9  1  0.630998  0.158546  0.622938  1
  Er  Er10  1  0.131732  0.342338  0.878028  1
  Er  Er11  1  0.368349  0.842182  0.122462  1
  Er  Er12  1  0.869224  0.657614  0.377679  1
  Er  Er13  1  0.370444  0.841985  0.376354  1
  Er  Er14  1  0.868466  0.657886  0.122364  1
  Er  Er15  1  0.631439  0.157752  0.878359  1
  Er  Er16  1  0.797479  0.495028  0.750170  1
  Er  Er17  1  0.298625  0.005353  0.750329  1
  Er  Er18  1  0.202121  0.505629  0.249299  1
  Er  Er19  1  0.702217  0.994747  0.250047  1
  Pb  Pb20  1  0.710117  0.961089  0.457172  1
  Pb  Pb21  1  0.208952  0.539583  0.042968  1
  Pb  Pb22  1  0.290896  0.039887  0.957470  1
  Pb  Pb23  1  0.784812  0.463736  0.543205  1
  Pb  Pb24  1  0.292520  0.035496  0.542609  1
  Pb  Pb25  1  0.791597  0.460279  0.957275  1
  Pb  Pb26  1  0.708999  0.960102  0.043180  1
  Pb  Pb27  1  0.210855  0.541024  0.455957  1
  Pb  Pb28  1  0.435464  0.373183  0.751063  1
  Pb  Pb29  1  0.935201  0.126029  0.751055  1
  Pb  Pb30  1  0.564943  0.626721  0.249488  1
  Pb  Pb31  1  0.064318  0.872526  0.249615  1
  Pb  Pb32  1  0.660121  0.846640  0.750084  1
  Pb  Pb33  1  0.161299  0.653096  0.750399  1
  Pb  Pb34  1  0.339406  0.152959  0.249316  1
  Pb  Pb35  1  0.839394  0.347258  0.249698  1
