# generated using pymatgen
data_Y3HoCu3Pd
_symmetry_space_group_name_H-M   'P 1'
_cell_length_a   4.50912700
_cell_length_b   5.44475957
_cell_length_c   7.14850327
_cell_angle_alpha   90.02865967
_cell_angle_beta   90.00000000
_cell_angle_gamma   90.00000000
_symmetry_Int_Tables_number   1
_chemical_formula_structural   Y3HoCu3Pd
_chemical_formula_sum   'Y3 Ho1 Cu3 Pd1'
_cell_volume   175.50368509
_cell_formula_units_Z   1
loop_
 _symmetry_equiv_pos_site_id
 _symmetry_equiv_pos_as_xyz
  1  'x, y, z'
loop_
 _atom_site_type_symbol
 _atom_site_label
 _atom_site_symmetry_multiplicity
 _atom_site_fract_x
 _atom_site_fract_y
 _atom_site_fract_z
 _atom_site_occupancy
  Y  Y0  1  0.250000  0.135749  0.182196  1
  Y  Y1  1  0.750000  0.638450  0.318898  1
  Y  Y2  1  0.750000  0.863745  0.816427  1
  Ho  Ho3  1  0.250000  0.362493  0.682764  1
  Cu  Cu4  1  0.250000  0.623272  0.031203  1
  Cu  Cu5  1  0.750000  0.138653  0.463865  1
  Cu  Cu6  1  0.750000  0.374682  0.966837  1
  Pd  Pd7  1  0.250000  0.862956  0.537811  1
