# generated using pymatgen
data_TmBi3Te10
_symmetry_space_group_name_H-M   'P 1'
_cell_length_a   23.84132843
_cell_length_b   23.84132753
_cell_length_c   3.17713600
_cell_angle_alpha   90.00000000
_cell_angle_beta   90.00000000
_cell_angle_gamma   166.29118698
_symmetry_Int_Tables_number   1
_chemical_formula_structural   TmBi3Te10
_chemical_formula_sum   'Tm1 Bi3 Te10'
_cell_volume   427.97882514
_cell_formula_units_Z   1
loop_
 _symmetry_equiv_pos_site_id
 _symmetry_equiv_pos_as_xyz
  1  'x, y, z'
loop_
 _atom_site_type_symbol
 _atom_site_label
 _atom_site_symmetry_multiplicity
 _atom_site_fract_x
 _atom_site_fract_y
 _atom_site_fract_z
 _atom_site_occupancy
  Tm  Tm0  1  0.105239  0.894761  0.750000  1
  Bi  Bi1  1  0.682100  0.317900  0.250000  1
  Bi  Bi2  1  0.319461  0.680539  0.750000  1
  Bi  Bi3  1  0.887090  0.112910  0.250000  1
  Te  Te4  1  0.618091  0.381909  0.250000  1
  Te  Te5  1  0.385460  0.614540  0.750000  1
  Te  Te6  1  0.821150  0.178850  0.250000  1
  Te  Te7  1  0.173134  0.826866  0.750000  1
  Te  Te8  1  0.955470  0.044530  0.750000  1
  Te  Te9  1  0.047333  0.952667  0.250000  1
  Te  Te10  1  0.545552  0.454448  0.750000  1
  Te  Te11  1  0.459591  0.540409  0.250000  1
  Te  Te12  1  0.748363  0.251637  0.750000  1
  Te  Te13  1  0.251965  0.748035  0.250000  1
