# generated using pymatgen
data_Lu5U(Si3Os)8
_symmetry_space_group_name_H-M   'P 1'
_cell_length_a   10.10468256
_cell_length_b   10.10468171
_cell_length_c   8.12113300
_cell_angle_alpha   89.85679275
_cell_angle_beta   90.14320724
_cell_angle_gamma   132.63726725
_symmetry_Int_Tables_number   1
_chemical_formula_structural   Lu5U(Si3Os)8
_chemical_formula_sum   'Lu5 U1 Si24 Os8'
_cell_volume   610.00794780
_cell_formula_units_Z   1
loop_
 _symmetry_equiv_pos_site_id
 _symmetry_equiv_pos_as_xyz
  1  'x, y, z'
loop_
 _atom_site_type_symbol
 _atom_site_label
 _atom_site_symmetry_multiplicity
 _atom_site_fract_x
 _atom_site_fract_y
 _atom_site_fract_z
 _atom_site_occupancy
  Lu  Lu0  1  0.499645  0.499687  0.498614  1
  Lu  Lu1  1  0.999687  0.999645  0.001386  1
  Lu  Lu2  1  0.501846  0.001846  0.750000  1
  Lu  Lu3  1  0.999548  0.499548  0.250000  1
  Lu  Lu4  1  0.499261  0.999261  0.250000  1
  U  U5  1  0.002541  0.502541  0.750000  1
  Si  Si6  1  0.796675  0.206993  0.502453  1
  Si  Si7  1  0.292513  0.703417  0.997591  1
  Si  Si8  1  0.203417  0.792513  0.502409  1
  Si  Si9  1  0.706993  0.296675  0.997547  1
  Si  Si10  1  0.332751  0.331530  0.831131  1
  Si  Si11  1  0.666587  0.667387  0.167584  1
  Si  Si12  1  0.167387  0.166587  0.332416  1
  Si  Si13  1  0.831530  0.832751  0.668869  1
  Si  Si14  1  0.122354  0.886225  0.730998  1
  Si  Si15  1  0.114642  0.880238  0.274631  1
  Si  Si16  1  0.613259  0.380018  0.225591  1
  Si  Si17  1  0.622576  0.386862  0.768943  1
  Si  Si18  1  0.880018  0.113259  0.274409  1
  Si  Si19  1  0.886862  0.122576  0.731057  1
  Si  Si20  1  0.386225  0.622354  0.769002  1
  Si  Si21  1  0.380238  0.614642  0.225369  1
  Si  Si22  1  0.342172  0.108426  0.503058  1
  Si  Si23  1  0.887207  0.650105  0.494998  1
  Si  Si24  1  0.391100  0.157510  0.004108  1
  Si  Si25  1  0.848770  0.612870  0.994141  1
  Si  Si26  1  0.657510  0.891100  0.495892  1
  Si  Si27  1  0.112870  0.348770  0.505859  1
  Si  Si28  1  0.608426  0.842172  0.996942  1
  Si  Si29  1  0.150105  0.387207  0.005002  1
  Os  Os30  1  0.663688  0.325903  0.495625  1
  Os  Os31  1  0.173497  0.836285  0.004635  1
  Os  Os32  1  0.336285  0.673497  0.495365  1
  Os  Os33  1  0.825903  0.163688  0.004375  1
  Os  Os34  1  0.126503  0.126586  0.627752  1
  Os  Os35  1  0.872293  0.870528  0.374250  1
  Os  Os36  1  0.370528  0.372293  0.125750  1
  Os  Os37  1  0.626586  0.626503  0.872248  1
