# generated using pymatgen
data_Mg4Zn6CoPt
_symmetry_space_group_name_H-M   'P 1'
_cell_length_a   5.11683919
_cell_length_b   5.18793000
_cell_length_c   8.35268900
_cell_angle_alpha   90.00000000
_cell_angle_beta   90.00000000
_cell_angle_gamma   119.81528887
_symmetry_Int_Tables_number   1
_chemical_formula_structural   Mg4Zn6CoPt
_chemical_formula_sum   'Mg4 Zn6 Co1 Pt1'
_cell_volume   192.37921756
_cell_formula_units_Z   1
loop_
 _symmetry_equiv_pos_site_id
 _symmetry_equiv_pos_as_xyz
  1  'x, y, z'
loop_
 _atom_site_type_symbol
 _atom_site_label
 _atom_site_symmetry_multiplicity
 _atom_site_fract_x
 _atom_site_fract_y
 _atom_site_fract_z
 _atom_site_occupancy
  Mg  Mg0  1  0.324670  0.657334  0.068115  1
  Mg  Mg1  1  0.675987  0.331336  0.562282  1
  Mg  Mg2  1  0.675987  0.331336  0.937718  1
  Mg  Mg3  1  0.324670  0.657334  0.431885  1
  Zn  Zn4  1  0.990116  0.013241  0.008206  1
  Zn  Zn5  1  0.990116  0.013241  0.491794  1
  Zn  Zn6  1  0.345743  0.163645  0.250000  1
  Zn  Zn7  1  0.665420  0.830827  0.750000  1
  Zn  Zn8  1  0.169974  0.835453  0.750000  1
  Zn  Zn9  1  0.832160  0.654752  0.250000  1
  Co  Co10  1  0.824373  0.165309  0.250000  1
  Pt  Pt11  1  0.180783  0.346192  0.750000  1
