# generated using pymatgen
data_CaLa2(NdRh)6
_symmetry_space_group_name_H-M   'P 1'
_cell_length_a   7.65939704
_cell_length_b   7.65939618
_cell_length_c   7.65939759
_cell_angle_alpha   70.60462087
_cell_angle_beta   70.60461722
_cell_angle_gamma   70.60461962
_symmetry_Int_Tables_number   1
_chemical_formula_structural   CaLa2(NdRh)6
_chemical_formula_sum   'Ca1 La2 Nd6 Rh6'
_cell_volume   387.17181792
_cell_formula_units_Z   1
loop_
 _symmetry_equiv_pos_site_id
 _symmetry_equiv_pos_as_xyz
  1  'x, y, z'
loop_
 _atom_site_type_symbol
 _atom_site_label
 _atom_site_symmetry_multiplicity
 _atom_site_fract_x
 _atom_site_fract_y
 _atom_site_fract_z
 _atom_site_occupancy
  Ca  Ca0  1  0.000000  0.000000  0.000000  1
  La  La1  1  0.800015  0.800015  0.800015  1
  La  La2  1  0.199985  0.199985  0.199985  1
  Nd  Nd3  1  0.157385  0.388599  0.668441  1
  Nd  Nd4  1  0.668441  0.157385  0.388599  1
  Nd  Nd5  1  0.388599  0.668441  0.157385  1
  Nd  Nd6  1  0.842615  0.611401  0.331559  1
  Nd  Nd7  1  0.331559  0.842615  0.611401  1
  Nd  Nd8  1  0.611401  0.331559  0.842615  1
  Rh  Rh9  1  0.953030  0.173721  0.579129  1
  Rh  Rh10  1  0.579129  0.953030  0.173721  1
  Rh  Rh11  1  0.173721  0.579129  0.953030  1
  Rh  Rh12  1  0.046970  0.826279  0.420871  1
  Rh  Rh13  1  0.420871  0.046970  0.826279  1
  Rh  Rh14  1  0.826279  0.420871  0.046970  1
