# generated using pymatgen
data_Nd7ThTiPd24
_symmetry_space_group_name_H-M   'P 1'
_cell_length_a   8.51619587
_cell_length_b   8.51619587
_cell_length_c   8.51619587
_cell_angle_alpha   89.96340805
_cell_angle_beta   89.96340805
_cell_angle_gamma   89.96340805
_symmetry_Int_Tables_number   1
_chemical_formula_structural   Nd7ThTiPd24
_chemical_formula_sum   'Nd7 Th1 Ti1 Pd24'
_cell_volume   617.64176975
_cell_formula_units_Z   1
loop_
 _symmetry_equiv_pos_site_id
 _symmetry_equiv_pos_as_xyz
  1  'x, y, z'
loop_
 _atom_site_type_symbol
 _atom_site_label
 _atom_site_symmetry_multiplicity
 _atom_site_fract_x
 _atom_site_fract_y
 _atom_site_fract_z
 _atom_site_occupancy
  Nd  Nd0  1  0.747922  0.747922  0.747922  1
  Nd  Nd1  1  0.748217  0.748217  0.251895  1
  Nd  Nd2  1  0.748217  0.251895  0.748217  1
  Nd  Nd3  1  0.251866  0.251866  0.748362  1
  Nd  Nd4  1  0.251866  0.748362  0.251866  1
  Nd  Nd5  1  0.251895  0.748217  0.748217  1
  Nd  Nd6  1  0.748362  0.251866  0.251866  1
  Th  Th7  1  0.252525  0.252525  0.252525  1
  Ti  Ti8  1  0.999638  0.999638  0.999638  1
  Pd  Pd9  1  0.262166  0.498828  0.001523  1
  Pd  Pd10  1  0.737873  0.499970  0.000095  1
  Pd  Pd11  1  0.001523  0.262166  0.498828  1
  Pd  Pd12  1  0.498828  0.262166  0.001523  1
  Pd  Pd13  1  0.000095  0.737873  0.499970  1
  Pd  Pd14  1  0.499970  0.737873  0.000095  1
  Pd  Pd15  1  0.498828  0.001523  0.262166  1
  Pd  Pd16  1  0.262166  0.001523  0.498828  1
  Pd  Pd17  1  0.499970  0.000095  0.737873  1
  Pd  Pd18  1  0.737873  0.000095  0.499970  1
  Pd  Pd19  1  0.001523  0.498828  0.262166  1
  Pd  Pd20  1  0.000095  0.499970  0.737873  1
  Pd  Pd21  1  0.253621  0.498593  0.498593  1
  Pd  Pd22  1  0.746511  0.499927  0.499927  1
  Pd  Pd23  1  0.498593  0.253621  0.498593  1
  Pd  Pd24  1  0.499927  0.746511  0.499927  1
  Pd  Pd25  1  0.498593  0.498593  0.253621  1
  Pd  Pd26  1  0.499927  0.499927  0.746511  1
  Pd  Pd27  1  0.297576  0.000720  0.000720  1
  Pd  Pd28  1  0.702490  0.999952  0.999952  1
  Pd  Pd29  1  0.000720  0.297576  0.000720  1
  Pd  Pd30  1  0.999952  0.702490  0.999952  1
  Pd  Pd31  1  0.000720  0.000720  0.297576  1
  Pd  Pd32  1  0.999952  0.999952  0.702490  1
