# generated using pymatgen
data_Sc2AlPt4Rh
_symmetry_space_group_name_H-M   'P 1'
_cell_length_a   4.14087500
_cell_length_b   5.58928236
_cell_length_c   11.00513780
_cell_angle_alpha   90.10620062
_cell_angle_beta   90.00000000
_cell_angle_gamma   90.00000000
_symmetry_Int_Tables_number   1
_chemical_formula_structural   Sc2AlPt4Rh
_chemical_formula_sum   'Sc4 Al2 Pt8 Rh2'
_cell_volume   254.70819003
_cell_formula_units_Z   2
loop_
 _symmetry_equiv_pos_site_id
 _symmetry_equiv_pos_as_xyz
  1  'x, y, z'
loop_
 _atom_site_type_symbol
 _atom_site_label
 _atom_site_symmetry_multiplicity
 _atom_site_fract_x
 _atom_site_fract_y
 _atom_site_fract_z
 _atom_site_occupancy
  Sc  Sc0  1  0.500000  0.190602  0.635180  1
  Sc  Sc1  1  0.500000  0.809398  0.364820  1
  Sc  Sc2  1  0.500000  0.688254  0.855814  1
  Sc  Sc3  1  0.500000  0.311746  0.144186  1
  Al  Al4  1  0.000000  0.500000  0.500000  1
  Al  Al5  1  0.000000  0.000000  0.000000  1
  Pt  Pt6  1  0.500000  0.804476  0.106150  1
  Pt  Pt7  1  0.500000  0.195524  0.893850  1
  Pt  Pt8  1  0.000000  0.442770  0.742970  1
  Pt  Pt9  1  0.000000  0.557230  0.257030  1
  Pt  Pt10  1  0.000000  0.943522  0.755904  1
  Pt  Pt11  1  0.000000  0.056478  0.244096  1
  Pt  Pt12  1  0.000000  0.500000  0.000000  1
  Pt  Pt13  1  0.000000  0.000000  0.500000  1
  Rh  Rh14  1  0.500000  0.304253  0.391325  1
  Rh  Rh15  1  0.500000  0.695747  0.608675  1
