# generated using pymatgen
data_Ac8Mn7O24
_symmetry_space_group_name_H-M   'P 1'
_cell_length_a   8.00806138
_cell_length_b   8.00724261
_cell_length_c   9.66168768
_cell_angle_alpha   113.76284861
_cell_angle_beta   113.75580050
_cell_angle_gamma   90.56642597
_symmetry_Int_Tables_number   1
_chemical_formula_structural   Ac8Mn7O24
_chemical_formula_sum   'Ac8 Mn7 O24'
_cell_volume   507.88093970
_cell_formula_units_Z   1
loop_
 _symmetry_equiv_pos_site_id
 _symmetry_equiv_pos_as_xyz
  1  'x, y, z'
loop_
 _atom_site_type_symbol
 _atom_site_label
 _atom_site_symmetry_multiplicity
 _atom_site_fract_x
 _atom_site_fract_y
 _atom_site_fract_z
 _atom_site_occupancy
  Ac  Ac0  1  0.860718  0.382960  0.242160  1
  Ac  Ac1  1  0.619305  0.138184  0.757676  1
  Ac  Ac2  1  0.618443  0.616616  0.759399  1
  Ac  Ac3  1  0.860377  0.862831  0.242523  1
  Ac  Ac4  1  0.380695  0.861816  0.242324  1
  Ac  Ac5  1  0.139282  0.617040  0.757840  1
  Ac  Ac6  1  0.139623  0.137169  0.757477  1
  Ac  Ac7  1  0.381557  0.383384  0.240601  1
  Mn  Mn8  1  0.500000  0.000000  0.000000  1
  Mn  Mn9  1  0.750244  0.250708  0.499962  1
  Mn  Mn10  1  0.756889  0.755698  0.512117  1
  Mn  Mn11  1  0.000000  0.500000  0.000000  1
  Mn  Mn12  1  0.249756  0.749292  0.500037  1
  Mn  Mn13  1  0.243111  0.244302  0.487883  1
  Mn  Mn14  1  0.000000  0.000000  0.000000  1
  O  O15  1  0.965494  0.741200  0.976045  1
  O  O16  1  0.895639  0.350745  0.747184  1
  O  O17  1  0.849962  0.908032  0.757252  1
  O  O18  1  0.758633  0.474465  0.984943  1
  O  O19  1  0.980457  0.214840  0.469951  1
  O  O20  1  0.786673  0.510763  0.529226  1
  O  O21  1  0.720246  0.995966  0.481088  1
  O  O22  1  0.476584  0.224057  0.980496  1
  O  O23  1  0.396260  0.848199  0.747277  1
  O  O24  1  0.766300  0.032639  0.025999  1
  O  O25  1  0.656037  0.624746  0.277500  1
  O  O26  1  0.514423  0.280046  0.519393  1
  O  O27  1  0.343963  0.375254  0.722500  1
  O  O28  1  0.485577  0.719954  0.480607  1
  O  O29  1  0.233700  0.967361  0.974001  1
  O  O30  1  0.603740  0.151801  0.252723  1
  O  O31  1  0.279754  0.004034  0.518912  1
  O  O32  1  0.523416  0.775943  0.019504  1
  O  O33  1  0.213327  0.489237  0.470774  1
  O  O34  1  0.241367  0.525535  0.015057  1
  O  O35  1  0.019543  0.785160  0.530049  1
  O  O36  1  0.150038  0.091968  0.242748  1
  O  O37  1  0.104361  0.649255  0.252816  1
  O  O38  1  0.034506  0.258800  0.023955  1
