# generated using pymatgen
data_Lu7ScTa11VSi16
_symmetry_space_group_name_H-M   'P 1'
_cell_length_a   6.95989511
_cell_length_b   6.96365075
_cell_length_c   12.82419115
_cell_angle_alpha   90.08537917
_cell_angle_beta   89.99049972
_cell_angle_gamma   90.01848556
_symmetry_Int_Tables_number   1
_chemical_formula_structural   Lu7ScTa11VSi16
_chemical_formula_sum   'Lu7 Sc1 Ta11 V1 Si16'
_cell_volume   621.54009241
_cell_formula_units_Z   1
loop_
 _symmetry_equiv_pos_site_id
 _symmetry_equiv_pos_as_xyz
  1  'x, y, z'
loop_
 _atom_site_type_symbol
 _atom_site_label
 _atom_site_symmetry_multiplicity
 _atom_site_fract_x
 _atom_site_fract_y
 _atom_site_fract_z
 _atom_site_occupancy
  Lu  Lu0  1  0.997691  0.659844  0.032619  1
  Lu  Lu1  1  0.841551  0.498736  0.282083  1
  Lu  Lu2  1  0.158964  0.501944  0.780615  1
  Lu  Lu3  1  0.498849  0.842169  0.717303  1
  Lu  Lu4  1  0.500903  0.158136  0.220294  1
  Lu  Lu5  1  0.002307  0.340817  0.529459  1
  Lu  Lu6  1  0.658882  0.999005  0.969311  1
  Sc  Sc7  1  0.342765  0.998429  0.468669  1
  Ta  Ta8  1  0.328626  0.329170  0.000259  1
  Ta  Ta9  1  0.171549  0.830432  0.251413  1
  Ta  Ta10  1  0.828136  0.171365  0.748308  1
  Ta  Ta11  1  0.671807  0.670939  0.499177  1
  Ta  Ta12  1  0.006513  0.152524  0.126825  1
  Ta  Ta13  1  0.348092  0.506062  0.376693  1
  Ta  Ta14  1  0.652281  0.494115  0.876285  1
  Ta  Ta15  1  0.506733  0.346016  0.621831  1
  Ta  Ta16  1  0.494638  0.654183  0.124955  1
  Ta  Ta17  1  0.993993  0.848441  0.626106  1
  Ta  Ta18  1  0.152587  0.006532  0.873219  1
  V  V19  1  0.846145  0.991709  0.373860  1
  Si  Si20  1  0.296944  0.955659  0.064612  1
  Si  Si21  1  0.547849  0.800509  0.317091  1
  Si  Si22  1  0.455381  0.203248  0.813314  1
  Si  Si23  1  0.796666  0.544554  0.685066  1
  Si  Si24  1  0.204126  0.453973  0.187434  1
  Si  Si25  1  0.702762  0.042300  0.559170  1
  Si  Si26  1  0.955207  0.297549  0.935872  1
  Si  Si27  1  0.042565  0.711343  0.435167  1
  Si  Si28  1  0.704061  0.364322  0.070760  1
  Si  Si29  1  0.130624  0.198057  0.323274  1
  Si  Si30  1  0.863826  0.795727  0.819333  1
  Si  Si31  1  0.205685  0.135700  0.678338  1
  Si  Si32  1  0.796692  0.866442  0.184625  1
  Si  Si33  1  0.294862  0.637401  0.568192  1
  Si  Si34  1  0.363922  0.704938  0.930641  1
  Si  Si35  1  0.635817  0.287712  0.427826  1
