# generated using pymatgen
data_NdY5Al24Pd3Ru5
_symmetry_space_group_name_H-M   'P 1'
_cell_length_a   8.87046998
_cell_length_b   8.85189968
_cell_length_c   9.56143823
_cell_angle_alpha   90.13832488
_cell_angle_beta   89.87428589
_cell_angle_gamma   119.90675384
_symmetry_Int_Tables_number   1
_chemical_formula_structural   NdY5Al24Pd3Ru5
_chemical_formula_sum   'Nd1 Y5 Al24 Pd3 Ru5'
_cell_volume   650.79277250
_cell_formula_units_Z   1
loop_
 _symmetry_equiv_pos_site_id
 _symmetry_equiv_pos_as_xyz
  1  'x, y, z'
loop_
 _atom_site_type_symbol
 _atom_site_label
 _atom_site_symmetry_multiplicity
 _atom_site_fract_x
 _atom_site_fract_y
 _atom_site_fract_z
 _atom_site_occupancy
  Nd  Nd0  1  0.811101  0.190172  0.750476  1
  Y  Y1  1  0.194217  0.387462  0.249851  1
  Y  Y2  1  0.805122  0.612620  0.750022  1
  Y  Y3  1  0.615102  0.805192  0.251882  1
  Y  Y4  1  0.385224  0.195409  0.748099  1
  Y  Y5  1  0.189953  0.807698  0.250190  1
  Al  Al6  1  0.335587  0.664700  0.028191  1
  Al  Al7  1  0.663427  0.336257  0.976078  1
  Al  Al8  1  0.669310  0.339192  0.523188  1
  Al  Al9  1  0.330467  0.662113  0.473088  1
  Al  Al10  1  0.165807  0.328792  0.574325  1
  Al  Al11  1  0.836305  0.672892  0.423454  1
  Al  Al12  1  0.674274  0.829837  0.576509  1
  Al  Al13  1  0.831411  0.675168  0.080292  1
  Al  Al14  1  0.324657  0.168293  0.421592  1
  Al  Al15  1  0.170374  0.325914  0.921713  1
  Al  Al16  1  0.156098  0.832071  0.577051  1
  Al  Al17  1  0.324192  0.168121  0.078675  1
  Al  Al18  1  0.844079  0.168292  0.419951  1
  Al  Al19  1  0.674656  0.829821  0.923492  1
  Al  Al20  1  0.837728  0.160317  0.083137  1
  Al  Al21  1  0.162127  0.839132  0.919887  1
  Al  Al22  1  0.562086  0.126275  0.250147  1
  Al  Al23  1  0.435004  0.871519  0.749976  1
  Al  Al24  1  0.875107  0.438804  0.252740  1
  Al  Al25  1  0.126583  0.563740  0.746389  1
  Al  Al26  1  0.560318  0.439580  0.249725  1
  Al  Al27  1  0.439295  0.560618  0.750190  1
  Al  Al28  1  0.999438  0.999261  0.250361  1
  Al  Al29  1  0.002645  0.998847  0.749733  1
  Pd  Pd30  1  0.498681  0.999392  0.000825  1
  Pd  Pd31  1  0.000539  0.501214  0.000805  1
  Pd  Pd32  1  0.498874  0.999473  0.499212  1
  Ru  Ru33  1  0.499559  0.500320  0.000469  1
  Ru  Ru34  1  0.000759  0.501338  0.498759  1
  Ru  Ru35  1  0.499700  0.500233  0.499410  1
  Ru  Ru36  1  0.000130  0.999814  0.000266  1
  Ru  Ru37  1  0.000063  0.000107  0.499852  1
