# generated using pymatgen
data_Pr12Ir2PtRhBr12
_symmetry_space_group_name_H-M   'P 1'
_cell_length_a   10.61884489
_cell_length_b   10.53628872
_cell_length_c   10.60719972
_cell_angle_alpha   109.31125439
_cell_angle_beta   109.62614769
_cell_angle_gamma   109.36296762
_symmetry_Int_Tables_number   1
_chemical_formula_structural   Pr12Ir2PtRhBr12
_chemical_formula_sum   'Pr12 Ir2 Pt1 Rh1 Br12'
_cell_volume   914.84327665
_cell_formula_units_Z   1
loop_
 _symmetry_equiv_pos_site_id
 _symmetry_equiv_pos_as_xyz
  1  'x, y, z'
loop_
 _atom_site_type_symbol
 _atom_site_label
 _atom_site_symmetry_multiplicity
 _atom_site_fract_x
 _atom_site_fract_y
 _atom_site_fract_z
 _atom_site_occupancy
  Pr  Pr0  1  0.469336  0.484302  0.234777  1
  Pr  Pr1  1  0.745057  0.232852  0.263596  1
  Pr  Pr2  1  0.744590  0.011910  0.481934  1
  Pr  Pr3  1  0.237344  0.470023  0.481934  1
  Pr  Pr4  1  0.265440  0.750474  0.234777  1
  Pr  Pr5  1  0.030902  0.264771  0.015927  1
  Pr  Pr6  1  0.018540  0.030745  0.263596  1
  Pr  Pr7  1  0.485026  0.751157  0.015927  1
  Pr  Pr8  1  0.484489  0.234489  0.468978  1
  Pr  Pr9  1  0.017664  0.487709  0.754481  1
  Pr  Pr10  1  0.264872  0.014872  0.029744  1
  Pr  Pr11  1  0.236818  0.266772  0.754481  1
  Ir  Ir12  1  0.250139  0.250408  0.249388  1
  Ir  Ir13  1  0.499249  0.998980  0.249388  1
  Pt  Pt14  1  0.000676  0.250676  0.501352  1
  Rh  Rh15  1  0.249936  0.499936  0.999874  1
  Br  Br16  1  0.249423  0.752712  0.745785  1
  Br  Br17  1  0.506004  0.502770  0.753466  1
  Br  Br18  1  0.991785  0.745727  0.996071  1
  Br  Br19  1  0.747462  0.250696  0.753466  1
  Br  Br20  1  0.996362  0.993075  0.745785  1
  Br  Br21  1  0.249877  0.996255  0.504027  1
  Br  Br22  1  0.754150  0.507772  0.504027  1
  Br  Br23  1  0.504287  0.250345  0.996071  1
  Br  Br24  1  0.753682  0.746796  0.249777  1
  Br  Br25  1  0.746609  0.996609  0.993219  1
  Br  Br26  1  0.996096  0.502982  0.249777  1
  Br  Br27  1  0.504186  0.754186  0.508371  1
