# generated using pymatgen
data_CeGdTa6O18
_symmetry_space_group_name_H-M   'P 1'
_cell_length_a   7.58336447
_cell_length_b   5.39727892
_cell_length_c   8.31453339
_cell_angle_alpha   87.54444216
_cell_angle_beta   89.96807054
_cell_angle_gamma   89.97284460
_symmetry_Int_Tables_number   1
_chemical_formula_structural   CeGdTa6O18
_chemical_formula_sum   'Ce1 Gd1 Ta6 O18'
_cell_volume   339.99739509
_cell_formula_units_Z   1
loop_
 _symmetry_equiv_pos_site_id
 _symmetry_equiv_pos_as_xyz
  1  'x, y, z'
loop_
 _atom_site_type_symbol
 _atom_site_label
 _atom_site_symmetry_multiplicity
 _atom_site_fract_x
 _atom_site_fract_y
 _atom_site_fract_z
 _atom_site_occupancy
  Ce  Ce0  1  0.249855  0.966794  0.437098  1
  Gd  Gd1  1  0.749873  0.036661  0.565614  1
  Ta  Ta2  1  0.000442  0.000696  0.999408  1
  Ta  Ta3  1  0.500234  0.001266  0.999559  1
  Ta  Ta4  1  0.005040  0.527573  0.698267  1
  Ta  Ta5  1  0.494664  0.527730  0.698318  1
  Ta  Ta6  1  0.991807  0.473389  0.302530  1
  Ta  Ta7  1  0.508366  0.473496  0.302489  1
  O  O8  1  0.250100  0.910459  0.980603  1
  O  O9  1  0.939731  0.847805  0.785394  1
  O  O10  1  0.560312  0.847752  0.785249  1
  O  O11  1  0.957362  0.737676  0.468007  1
  O  O12  1  0.542732  0.737571  0.467792  1
  O  O13  1  0.249863  0.648071  0.659138  1
  O  O14  1  0.950308  0.681253  0.122674  1
  O  O15  1  0.549660  0.681202  0.122469  1
  O  O16  1  0.250012  0.561027  0.315790  1
  O  O17  1  0.749979  0.428632  0.688228  1
  O  O18  1  0.050134  0.320494  0.877980  1
  O  O19  1  0.449752  0.320569  0.877935  1
  O  O20  1  0.750082  0.343405  0.341596  1
  O  O21  1  0.035976  0.263265  0.532751  1
  O  O22  1  0.463854  0.263310  0.532833  1
  O  O23  1  0.057877  0.155892  0.210552  1
  O  O24  1  0.442078  0.156045  0.210639  1
  O  O25  1  0.749909  0.087965  0.017082  1
