# generated using pymatgen
data_Nd8Tm12Sn15Ru
_symmetry_space_group_name_H-M   'P 1'
_cell_length_a   7.89836100
_cell_length_b   8.24332316
_cell_length_c   15.35298200
_cell_angle_alpha   90.00000000
_cell_angle_beta   90.00000000
_cell_angle_gamma   89.74419044
_symmetry_Int_Tables_number   1
_chemical_formula_structural   Nd8Tm12Sn15Ru
_chemical_formula_sum   'Nd8 Tm12 Sn15 Ru1'
_cell_volume   999.60338338
_cell_formula_units_Z   1
loop_
 _symmetry_equiv_pos_site_id
 _symmetry_equiv_pos_as_xyz
  1  'x, y, z'
loop_
 _atom_site_type_symbol
 _atom_site_label
 _atom_site_symmetry_multiplicity
 _atom_site_fract_x
 _atom_site_fract_y
 _atom_site_fract_z
 _atom_site_occupancy
  Nd  Nd0  1  0.504904  0.331467  0.902532  1
  Nd  Nd1  1  0.009077  0.178426  0.596491  1
  Nd  Nd2  1  0.493172  0.680531  0.405232  1
  Nd  Nd3  1  0.993325  0.825574  0.094850  1
  Nd  Nd4  1  0.493172  0.680531  0.094768  1
  Nd  Nd5  1  0.993325  0.825574  0.405150  1
  Nd  Nd6  1  0.504904  0.331467  0.597468  1
  Nd  Nd7  1  0.009077  0.178426  0.903509  1
  Tm  Tm8  1  0.370377  0.813191  0.865619  1
  Tm  Tm9  1  0.812521  0.661734  0.633252  1
  Tm  Tm10  1  0.657118  0.169130  0.375350  1
  Tm  Tm11  1  0.157910  0.334569  0.125134  1
  Tm  Tm12  1  0.657118  0.169130  0.124650  1
  Tm  Tm13  1  0.157910  0.334569  0.374866  1
  Tm  Tm14  1  0.370377  0.813191  0.634381  1
  Tm  Tm15  1  0.812521  0.661734  0.866748  1
  Tm  Tm16  1  0.195727  0.502979  0.750000  1
  Tm  Tm17  1  0.679143  0.996671  0.750000  1
  Tm  Tm18  1  0.823432  0.501938  0.250000  1
  Tm  Tm19  1  0.322341  0.999955  0.250000  1
  Sn  Sn20  1  0.320421  0.039696  0.035943  1
  Sn  Sn21  1  0.821251  0.462821  0.460231  1
  Sn  Sn22  1  0.685099  0.966869  0.540452  1
  Sn  Sn23  1  0.172050  0.544645  0.958631  1
  Sn  Sn24  1  0.685099  0.966869  0.959548  1
  Sn  Sn25  1  0.172050  0.544645  0.541369  1
  Sn  Sn26  1  0.320421  0.039696  0.464057  1
  Sn  Sn27  1  0.821251  0.462821  0.039769  1
  Sn  Sn28  1  0.043227  0.877678  0.750000  1
  Sn  Sn29  1  0.459156  0.377468  0.250000  1
  Sn  Sn30  1  0.959498  0.122643  0.250000  1
  Sn  Sn31  1  0.309261  0.138096  0.750000  1
  Sn  Sn32  1  0.804405  0.357896  0.750000  1
  Sn  Sn33  1  0.686343  0.855645  0.250000  1
  Sn  Sn34  1  0.184941  0.646487  0.250000  1
  Ru  Ru35  1  0.538076  0.605238  0.750000  1
