# generated using pymatgen
data_Tb4AlCo4
_symmetry_space_group_name_H-M   'P 1'
_cell_length_a   5.51051556
_cell_length_b   5.51051608
_cell_length_c   8.96029068
_cell_angle_alpha   70.90128120
_cell_angle_beta   70.90127683
_cell_angle_gamma   43.01265350
_symmetry_Int_Tables_number   1
_chemical_formula_structural   Tb4AlCo4
_chemical_formula_sum   'Tb4 Al1 Co4'
_cell_volume   173.74970868
_cell_formula_units_Z   1
loop_
 _symmetry_equiv_pos_site_id
 _symmetry_equiv_pos_as_xyz
  1  'x, y, z'
loop_
 _atom_site_type_symbol
 _atom_site_label
 _atom_site_symmetry_multiplicity
 _atom_site_fract_x
 _atom_site_fract_y
 _atom_site_fract_z
 _atom_site_occupancy
  Tb  Tb0  1  0.745501  0.745501  0.662016  1
  Tb  Tb1  1  0.254499  0.254499  0.337984  1
  Tb  Tb2  1  0.391583  0.391583  0.885463  1
  Tb  Tb3  1  0.608417  0.608417  0.114537  1
  Al  Al4  1  0.500000  0.500000  0.500000  1
  Co  Co5  1  0.036112  0.036112  0.644789  1
  Co  Co6  1  0.963888  0.963888  0.355211  1
  Co  Co7  1  0.091868  0.091868  0.879607  1
  Co  Co8  1  0.908132  0.908132  0.120393  1
