# generated using pymatgen
data_LaYb5Tm2(Cu2Sn5)2
_symmetry_space_group_name_H-M   'P 1'
_cell_length_a   4.45220900
_cell_length_b   8.83922500
_cell_length_c   14.06811900
_cell_angle_alpha   90.00000000
_cell_angle_beta   90.00000000
_cell_angle_gamma   90.00000000
_symmetry_Int_Tables_number   1
_chemical_formula_structural   LaYb5Tm2(Cu2Sn5)2
_chemical_formula_sum   'La1 Yb5 Tm2 Cu4 Sn10'
_cell_volume   553.63783975
_cell_formula_units_Z   1
loop_
 _symmetry_equiv_pos_site_id
 _symmetry_equiv_pos_as_xyz
  1  'x, y, z'
loop_
 _atom_site_type_symbol
 _atom_site_label
 _atom_site_symmetry_multiplicity
 _atom_site_fract_x
 _atom_site_fract_y
 _atom_site_fract_z
 _atom_site_occupancy
  La  La0  1  0.500000  0.140368  0.000000  1
  Yb  Yb1  1  0.500000  0.791570  0.741118  1
  Yb  Yb2  1  0.000000  0.205098  0.753814  1
  Yb  Yb3  1  0.000000  0.205098  0.246186  1
  Yb  Yb4  1  0.000000  0.866375  0.500000  1
  Yb  Yb5  1  0.500000  0.791570  0.258882  1
  Tm  Tm6  1  0.500000  0.694759  0.000000  1
  Tm  Tm7  1  0.000000  0.297358  0.500000  1
  Cu  Cu8  1  0.500000  0.377363  0.642288  1
  Cu  Cu9  1  0.000000  0.624203  0.853170  1
  Cu  Cu10  1  0.000000  0.624203  0.146830  1
  Cu  Cu11  1  0.500000  0.377363  0.357712  1
  Sn  Sn12  1  0.500000  0.084255  0.395747  1
  Sn  Sn13  1  0.000000  0.552937  0.661856  1
  Sn  Sn14  1  0.000000  0.417947  0.000000  1
  Sn  Sn15  1  0.500000  0.445605  0.165250  1
  Sn  Sn16  1  0.500000  0.594341  0.500000  1
  Sn  Sn17  1  0.500000  0.445605  0.834750  1
  Sn  Sn18  1  0.000000  0.913395  0.895598  1
  Sn  Sn19  1  0.000000  0.552937  0.338144  1
  Sn  Sn20  1  0.500000  0.084255  0.604253  1
  Sn  Sn21  1  0.000000  0.913395  0.104402  1
