# generated using pymatgen
data_Nd4NiI5
_symmetry_space_group_name_H-M   'P 1'
_cell_length_a   4.18718000
_cell_length_b   9.09934200
_cell_length_c   19.14020200
_cell_angle_alpha   90.00000000
_cell_angle_beta   90.00000000
_cell_angle_gamma   90.00000000
_symmetry_Int_Tables_number   1
_chemical_formula_structural   Nd4NiI5
_chemical_formula_sum   'Nd8 Ni2 I10'
_cell_volume   729.25285179
_cell_formula_units_Z   2
loop_
 _symmetry_equiv_pos_site_id
 _symmetry_equiv_pos_as_xyz
  1  'x, y, z'
loop_
 _atom_site_type_symbol
 _atom_site_label
 _atom_site_symmetry_multiplicity
 _atom_site_fract_x
 _atom_site_fract_y
 _atom_site_fract_z
 _atom_site_occupancy
  Nd  Nd0  1  0.000000  0.369791  0.854074  1
  Nd  Nd1  1  0.500000  0.575370  0.000000  1
  Nd  Nd2  1  0.000000  0.369791  0.145926  1
  Nd  Nd3  1  0.000000  0.831548  0.500000  1
  Nd  Nd4  1  0.500000  0.630209  0.354074  1
  Nd  Nd5  1  0.000000  0.424630  0.500000  1
  Nd  Nd6  1  0.500000  0.630209  0.645926  1
  Nd  Nd7  1  0.500000  0.168452  0.000000  1
  Ni  Ni8  1  0.500000  0.626096  0.500000  1
  Ni  Ni9  1  0.000000  0.373904  0.000000  1
  I  I10  1  0.500000  0.107435  0.169175  1
  I  I11  1  0.000000  0.361304  0.673985  1
  I  I12  1  0.000000  0.870844  0.000000  1
  I  I13  1  0.000000  0.892565  0.330825  1
  I  I14  1  0.500000  0.107435  0.830825  1
  I  I15  1  0.500000  0.638696  0.826015  1
  I  I16  1  0.000000  0.892565  0.669175  1
  I  I17  1  0.000000  0.361304  0.326015  1
  I  I18  1  0.500000  0.638696  0.173985  1
  I  I19  1  0.500000  0.129156  0.500000  1
