# generated using pymatgen
data_Er3Lu5Re(B8Ru)3
_symmetry_space_group_name_H-M   'P 1'
_cell_length_a   3.61437500
_cell_length_b   9.04917158
_cell_length_c   11.42965502
_cell_angle_alpha   90.12266649
_cell_angle_beta   90.00000000
_cell_angle_gamma   90.00000000
_symmetry_Int_Tables_number   1
_chemical_formula_structural   Er3Lu5Re(B8Ru)3
_chemical_formula_sum   'Er3 Lu5 Re1 B24 Ru3'
_cell_volume   373.83000765
_cell_formula_units_Z   1
loop_
 _symmetry_equiv_pos_site_id
 _symmetry_equiv_pos_as_xyz
  1  'x, y, z'
loop_
 _atom_site_type_symbol
 _atom_site_label
 _atom_site_symmetry_multiplicity
 _atom_site_fract_x
 _atom_site_fract_y
 _atom_site_fract_z
 _atom_site_occupancy
  Er  Er0  1  0.000000  0.322111  0.415118  1
  Er  Er1  1  0.000000  0.680699  0.588051  1
  Er  Er2  1  0.000000  0.822004  0.083507  1
  Lu  Lu3  1  0.000000  0.176880  0.913436  1
  Lu  Lu4  1  0.000000  0.943535  0.371429  1
  Lu  Lu5  1  0.000000  0.056118  0.627697  1
  Lu  Lu6  1  0.000000  0.442779  0.127976  1
  Lu  Lu7  1  0.000000  0.555581  0.872682  1
  Re  Re8  1  0.000000  0.862311  0.820939  1
  B  B9  1  0.500000  0.554254  0.433524  1
  B  B10  1  0.500000  0.446018  0.566935  1
  B  B11  1  0.500000  0.054145  0.066797  1
  B  B12  1  0.500000  0.947667  0.933617  1
  B  B13  1  0.500000  0.749915  0.419552  1
  B  B14  1  0.500000  0.250444  0.580382  1
  B  B15  1  0.500000  0.249373  0.079941  1
  B  B16  1  0.500000  0.749818  0.919519  1
  B  B17  1  0.500000  0.791543  0.265452  1
  B  B18  1  0.500000  0.208029  0.734032  1
  B  B19  1  0.500000  0.291894  0.234304  1
  B  B20  1  0.500000  0.707207  0.765623  1
  B  B21  1  0.500000  0.630237  0.184376  1
  B  B22  1  0.500000  0.368512  0.815597  1
  B  B23  1  0.500000  0.131109  0.315611  1
  B  B24  1  0.500000  0.869646  0.684629  1
  B  B25  1  0.500000  0.982642  0.212830  1
  B  B26  1  0.500000  0.019578  0.787194  1
  B  B27  1  0.500000  0.482378  0.287443  1
  B  B28  1  0.500000  0.517247  0.713211  1
  B  B29  1  0.500000  0.602950  0.029174  1
  B  B30  1  0.500000  0.393954  0.971256  1
  B  B31  1  0.500000  0.104586  0.470798  1
  B  B32  1  0.500000  0.896407  0.527940  1
  Ru  Ru33  1  0.000000  0.638291  0.320522  1
  Ru  Ru34  1  0.000000  0.361609  0.679264  1
  Ru  Ru35  1  0.000000  0.138533  0.179641  1
