# generated using pymatgen
data_DyHoTm2(ReB6)2
_symmetry_space_group_name_H-M   'P 1'
_cell_length_a   3.65819800
_cell_length_b   9.13035600
_cell_length_c   11.51598700
_cell_angle_alpha   90.00189288
_cell_angle_beta   90.00000000
_cell_angle_gamma   90.00000000
_symmetry_Int_Tables_number   1
_chemical_formula_structural   DyHoTm2(ReB6)2
_chemical_formula_sum   'Dy2 Ho2 Tm4 Re4 B24'
_cell_volume   384.64145176
_cell_formula_units_Z   2
loop_
 _symmetry_equiv_pos_site_id
 _symmetry_equiv_pos_as_xyz
  1  'x, y, z'
loop_
 _atom_site_type_symbol
 _atom_site_label
 _atom_site_symmetry_multiplicity
 _atom_site_fract_x
 _atom_site_fract_y
 _atom_site_fract_z
 _atom_site_occupancy
  Dy  Dy0  1  0.000000  0.323288  0.413897  1
  Dy  Dy1  1  0.000000  0.676712  0.586103  1
  Ho  Ho2  1  0.000000  0.823365  0.086062  1
  Ho  Ho3  1  0.000000  0.176635  0.913938  1
  Tm  Tm4  1  0.000000  0.943326  0.370155  1
  Tm  Tm5  1  0.000000  0.056674  0.629845  1
  Tm  Tm6  1  0.000000  0.443337  0.129710  1
  Tm  Tm7  1  0.000000  0.556663  0.870290  1
  Re  Re8  1  0.000000  0.639181  0.320195  1
  Re  Re9  1  0.000000  0.360819  0.679805  1
  Re  Re10  1  0.000000  0.138966  0.179518  1
  Re  Re11  1  0.000000  0.861034  0.820482  1
  B  B12  1  0.500000  0.553551  0.432708  1
  B  B13  1  0.500000  0.446449  0.567292  1
  B  B14  1  0.500000  0.053418  0.067116  1
  B  B15  1  0.500000  0.946582  0.932884  1
  B  B16  1  0.500000  0.750169  0.418503  1
  B  B17  1  0.500000  0.249831  0.581497  1
  B  B18  1  0.500000  0.250115  0.081306  1
  B  B19  1  0.500000  0.749885  0.918694  1
  B  B20  1  0.500000  0.792809  0.265403  1
  B  B21  1  0.500000  0.207191  0.734597  1
  B  B22  1  0.500000  0.292734  0.234423  1
  B  B23  1  0.500000  0.707266  0.765577  1
  B  B24  1  0.500000  0.630620  0.185122  1
  B  B25  1  0.500000  0.369380  0.814878  1
  B  B26  1  0.500000  0.130490  0.314727  1
  B  B27  1  0.500000  0.869510  0.685273  1
  B  B28  1  0.500000  0.981871  0.212312  1
  B  B29  1  0.500000  0.018129  0.787688  1
  B  B30  1  0.500000  0.482031  0.287542  1
  B  B31  1  0.500000  0.517969  0.712458  1
  B  B32  1  0.500000  0.599138  0.027629  1
  B  B33  1  0.500000  0.400862  0.972371  1
  B  B34  1  0.500000  0.098928  0.472423  1
  B  B35  1  0.500000  0.901072  0.527577  1
