# generated using pymatgen
data_TbDy7Ti12Si15As
_symmetry_space_group_name_H-M   'P 1'
_cell_length_a   7.06645389
_cell_length_b   7.06032782
_cell_length_c   12.98724415
_cell_angle_alpha   89.97662769
_cell_angle_beta   89.83365649
_cell_angle_gamma   89.92404808
_symmetry_Int_Tables_number   1
_chemical_formula_structural   TbDy7Ti12Si15As
_chemical_formula_sum   'Tb1 Dy7 Ti12 Si15 As1'
_cell_volume   647.94949174
_cell_formula_units_Z   1
loop_
 _symmetry_equiv_pos_site_id
 _symmetry_equiv_pos_as_xyz
  1  'x, y, z'
loop_
 _atom_site_type_symbol
 _atom_site_label
 _atom_site_symmetry_multiplicity
 _atom_site_fract_x
 _atom_site_fract_y
 _atom_site_fract_z
 _atom_site_occupancy
  Tb  Tb0  1  0.997570  0.660041  0.033466  1
  Dy  Dy1  1  0.340948  0.002044  0.466149  1
  Dy  Dy2  1  0.497085  0.841389  0.717248  1
  Dy  Dy3  1  0.502461  0.159678  0.216488  1
  Dy  Dy4  1  0.839926  0.497105  0.283282  1
  Dy  Dy5  1  0.159650  0.501773  0.783303  1
  Dy  Dy6  1  0.660781  0.995452  0.967313  1
  Dy  Dy7  1  0.000238  0.342476  0.532063  1
  Ti  Ti8  1  0.326200  0.326669  0.999727  1
  Ti  Ti9  1  0.173040  0.827196  0.250098  1
  Ti  Ti10  1  0.823957  0.173355  0.750185  1
  Ti  Ti11  1  0.673019  0.672911  0.500064  1
  Ti  Ti12  1  0.154613  0.009327  0.875992  1
  Ti  Ti13  1  0.491344  0.652515  0.126316  1
  Ti  Ti14  1  0.509338  0.347179  0.627317  1
  Ti  Ti15  1  0.654696  0.493724  0.874140  1
  Ti  Ti16  1  0.346954  0.508147  0.373527  1
  Ti  Ti17  1  0.846937  0.991835  0.376239  1
  Ti  Ti18  1  0.008501  0.152617  0.123670  1
  Ti  Ti19  1  0.989511  0.843618  0.622813  1
  Si  Si20  1  0.369969  0.702846  0.934338  1
  Si  Si21  1  0.628930  0.298042  0.435018  1
  Si  Si22  1  0.702122  0.370425  0.065477  1
  Si  Si23  1  0.297677  0.629737  0.565456  1
  Si  Si24  1  0.797267  0.870717  0.185161  1
  Si  Si25  1  0.129835  0.202289  0.315520  1
  Si  Si26  1  0.871028  0.797916  0.814859  1
  Si  Si27  1  0.291087  0.953135  0.064717  1
  Si  Si28  1  0.546908  0.790618  0.314707  1
  Si  Si29  1  0.461180  0.211182  0.819337  1
  Si  Si30  1  0.790785  0.546816  0.685027  1
  Si  Si31  1  0.209255  0.452804  0.185396  1
  Si  Si32  1  0.708876  0.046153  0.564409  1
  Si  Si33  1  0.953625  0.290399  0.935282  1
  Si  Si34  1  0.046892  0.709645  0.434870  1
  As  As35  1  0.197796  0.128228  0.681026  1
