# generated using pymatgen
data_La2Dy4OsI10
_symmetry_space_group_name_H-M   'P 1'
_cell_length_a   7.88066439
_cell_length_b   9.93534246
_cell_length_c   9.84518000
_cell_angle_alpha   107.02290664
_cell_angle_beta   96.07328392
_cell_angle_gamma   105.90292313
_symmetry_Int_Tables_number   1
_chemical_formula_structural   La2Dy4OsI10
_chemical_formula_sum   'La2 Dy4 Os1 I10'
_cell_volume   694.21229520
_cell_formula_units_Z   1
loop_
 _symmetry_equiv_pos_site_id
 _symmetry_equiv_pos_as_xyz
  1  'x, y, z'
loop_
 _atom_site_type_symbol
 _atom_site_label
 _atom_site_symmetry_multiplicity
 _atom_site_fract_x
 _atom_site_fract_y
 _atom_site_fract_z
 _atom_site_occupancy
  La  La0  1  0.384835  0.956937  0.730481  1
  La  La1  1  0.615165  0.043063  0.269519  1
  Dy  Dy2  1  0.472180  0.289979  0.588457  1
  Dy  Dy3  1  0.527820  0.710021  0.411543  1
  Dy  Dy4  1  0.853711  0.131349  0.670670  1
  Dy  Dy5  1  0.146289  0.868651  0.329330  1
  Os  Os6  1  0.500000  0.000000  0.500000  1
  I  I7  1  0.417482  0.621365  0.674432  1
  I  I8  1  0.582518  0.378635  0.325568  1
  I  I9  1  0.285300  0.267216  0.846848  1
  I  I10  1  0.714700  0.732784  0.153152  1
  I  I11  1  0.853031  0.451993  0.769710  1
  I  I12  1  0.146969  0.548007  0.230290  1
  I  I13  1  0.053755  0.180583  0.415460  1
  I  I14  1  0.226917  0.909369  0.042171  1
  I  I15  1  0.773083  0.090631  0.957829  1
  I  I16  1  0.946245  0.819417  0.584540  1
