# generated using pymatgen
data_Nd2PPt8
_symmetry_space_group_name_H-M   'P 1'
_cell_length_a   9.18878188
_cell_length_b   9.18878030
_cell_length_c   4.31703000
_cell_angle_alpha   90.00000000
_cell_angle_beta   90.00000000
_cell_angle_gamma   145.57317202
_symmetry_Int_Tables_number   1
_chemical_formula_structural   Nd2PPt8
_chemical_formula_sum   'Nd2 P1 Pt8'
_cell_volume   206.07286099
_cell_formula_units_Z   1
loop_
 _symmetry_equiv_pos_site_id
 _symmetry_equiv_pos_as_xyz
  1  'x, y, z'
loop_
 _atom_site_type_symbol
 _atom_site_label
 _atom_site_symmetry_multiplicity
 _atom_site_fract_x
 _atom_site_fract_y
 _atom_site_fract_z
 _atom_site_occupancy
  Nd  Nd0  1  0.619137  0.372139  0.500000  1
  Nd  Nd1  1  0.372139  0.619137  0.500000  1
  P  P2  1  0.224069  0.224069  0.000000  1
  Pt  Pt3  1  0.110740  0.890856  0.000000  1
  Pt  Pt4  1  0.890856  0.110740  0.000000  1
  Pt  Pt5  1  0.489497  0.984576  0.000000  1
  Pt  Pt6  1  0.984576  0.489497  0.000000  1
  Pt  Pt7  1  0.194224  0.791800  0.500000  1
  Pt  Pt8  1  0.791800  0.194224  0.500000  1
  Pt  Pt9  1  0.003824  0.003824  0.500000  1
  Pt  Pt10  1  0.632735  0.632735  0.000000  1
