# generated using pymatgen
data_Zr3(Tl2Se7)2
_symmetry_space_group_name_H-M   'P 1'
_cell_length_a   12.01849431
_cell_length_b   12.01849500
_cell_length_c   14.20662600
_cell_angle_alpha   69.77397776
_cell_angle_beta   69.77397655
_cell_angle_gamma   41.87514335
_symmetry_Int_Tables_number   1
_chemical_formula_structural   Zr3(Tl2Se7)2
_chemical_formula_sum   'Zr6 Tl8 Se28'
_cell_volume   1272.47183871
_cell_formula_units_Z   2
loop_
 _symmetry_equiv_pos_site_id
 _symmetry_equiv_pos_as_xyz
  1  'x, y, z'
loop_
 _atom_site_type_symbol
 _atom_site_label
 _atom_site_symmetry_multiplicity
 _atom_site_fract_x
 _atom_site_fract_y
 _atom_site_fract_z
 _atom_site_occupancy
  Zr  Zr0  1  0.923806  0.411677  0.588040  1
  Zr  Zr1  1  0.588323  0.076194  0.911960  1
  Zr  Zr2  1  0.076194  0.588323  0.411960  1
  Zr  Zr3  1  0.411677  0.923806  0.088040  1
  Zr  Zr4  1  0.762700  0.237300  0.750000  1
  Zr  Zr5  1  0.237300  0.762700  0.250000  1
  Tl  Tl6  1  0.033443  0.360491  0.895296  1
  Tl  Tl7  1  0.639508  0.966557  0.604704  1
  Tl  Tl8  1  0.966557  0.639508  0.104704  1
  Tl  Tl9  1  0.360491  0.033443  0.395296  1
  Tl  Tl10  1  0.170867  0.684595  0.650342  1
  Tl  Tl11  1  0.315405  0.829133  0.849658  1
  Tl  Tl12  1  0.829133  0.315405  0.349658  1
  Tl  Tl13  1  0.684595  0.170867  0.150342  1
  Se  Se14  1  0.881503  0.195864  0.906298  1
  Se  Se15  1  0.804136  0.118497  0.593702  1
  Se  Se16  1  0.118497  0.804136  0.093702  1
  Se  Se17  1  0.195864  0.881503  0.406298  1
  Se  Se18  1  0.656680  0.472918  0.574605  1
  Se  Se19  1  0.527082  0.343320  0.925395  1
  Se  Se20  1  0.343320  0.527082  0.425395  1
  Se  Se21  1  0.472918  0.656680  0.074605  1
  Se  Se22  1  0.081768  0.083734  0.632597  1
  Se  Se23  1  0.916266  0.918232  0.867403  1
  Se  Se24  1  0.918232  0.916266  0.367403  1
  Se  Se25  1  0.083734  0.081768  0.132597  1
  Se  Se26  1  0.740518  0.461483  0.787093  1
  Se  Se27  1  0.538517  0.259482  0.712907  1
  Se  Se28  1  0.259482  0.538517  0.212907  1
  Se  Se29  1  0.461483  0.740518  0.287093  1
  Se  Se30  1  0.983963  0.580835  0.607624  1
  Se  Se31  1  0.419165  0.016037  0.892376  1
  Se  Se32  1  0.016037  0.419165  0.392376  1
  Se  Se33  1  0.580835  0.983963  0.107624  1
  Se  Se34  1  0.853001  0.792861  0.826657  1
  Se  Se35  1  0.207139  0.146999  0.673343  1
  Se  Se36  1  0.146999  0.207139  0.173343  1
  Se  Se37  1  0.792861  0.853001  0.326657  1
  Se  Se38  1  0.293060  0.412286  0.894331  1
  Se  Se39  1  0.587714  0.706940  0.605669  1
  Se  Se40  1  0.706940  0.587714  0.105669  1
  Se  Se41  1  0.412286  0.293060  0.394331  1
