# generated using pymatgen
data_CeEr3Al4Ru3Pt
_symmetry_space_group_name_H-M   'P 1'
_cell_length_a   4.06528500
_cell_length_b   6.93394262
_cell_length_c   8.12248658
_cell_angle_alpha   89.54397341
_cell_angle_beta   90.00000000
_cell_angle_gamma   90.00000000
_symmetry_Int_Tables_number   1
_chemical_formula_structural   CeEr3Al4Ru3Pt
_chemical_formula_sum   'Ce1 Er3 Al4 Ru3 Pt1'
_cell_volume   228.95307835
_cell_formula_units_Z   1
loop_
 _symmetry_equiv_pos_site_id
 _symmetry_equiv_pos_as_xyz
  1  'x, y, z'
loop_
 _atom_site_type_symbol
 _atom_site_label
 _atom_site_symmetry_multiplicity
 _atom_site_fract_x
 _atom_site_fract_y
 _atom_site_fract_z
 _atom_site_occupancy
  Ce  Ce0  1  0.250000  0.473577  0.186810  1
  Er  Er1  1  0.750000  0.538952  0.815676  1
  Er  Er2  1  0.750000  0.033639  0.673351  1
  Er  Er3  1  0.250000  0.965632  0.321147  1
  Al  Al4  1  0.250000  0.857103  0.940242  1
  Al  Al5  1  0.750000  0.127058  0.060663  1
  Al  Al6  1  0.750000  0.643128  0.448287  1
  Al  Al7  1  0.250000  0.365852  0.560761  1
  Ru  Ru8  1  0.250000  0.739794  0.626037  1
  Ru  Ru9  1  0.750000  0.273854  0.367756  1
  Ru  Ru10  1  0.750000  0.753902  0.126324  1
  Pt  Pt11  1  0.250000  0.227505  0.872947  1
