# generated using pymatgen
data_DyHo2Si2GeRu2
_symmetry_space_group_name_H-M   'P 1'
_cell_length_a   5.74085965
_cell_length_b   5.74086019
_cell_length_c   13.88029600
_cell_angle_alpha   90.00000000
_cell_angle_beta   90.00000000
_cell_angle_gamma   137.29846576
_symmetry_Int_Tables_number   1
_chemical_formula_structural   DyHo2Si2GeRu2
_chemical_formula_sum   'Dy2 Ho4 Si4 Ge2 Ru4'
_cell_volume   310.23956948
_cell_formula_units_Z   2
loop_
 _symmetry_equiv_pos_site_id
 _symmetry_equiv_pos_as_xyz
  1  'x, y, z'
loop_
 _atom_site_type_symbol
 _atom_site_label
 _atom_site_symmetry_multiplicity
 _atom_site_fract_x
 _atom_site_fract_y
 _atom_site_fract_z
 _atom_site_occupancy
  Dy  Dy0  1  0.855483  0.144517  0.250000  1
  Dy  Dy1  1  0.144517  0.855483  0.750000  1
  Ho  Ho2  1  0.424342  0.575658  0.887255  1
  Ho  Ho3  1  0.575658  0.424342  0.112745  1
  Ho  Ho4  1  0.575658  0.424342  0.387255  1
  Ho  Ho5  1  0.424342  0.575658  0.612745  1
  Si  Si6  1  0.117420  0.882580  0.538827  1
  Si  Si7  1  0.882580  0.117420  0.461173  1
  Si  Si8  1  0.882580  0.117420  0.038827  1
  Si  Si9  1  0.117420  0.882580  0.961173  1
  Ge  Ge10  1  0.162539  0.837461  0.250000  1
  Ge  Ge11  1  0.837461  0.162539  0.750000  1
  Ru  Ru12  1  0.711852  0.288148  0.578811  1
  Ru  Ru13  1  0.288148  0.711852  0.421189  1
  Ru  Ru14  1  0.288148  0.711852  0.078811  1
  Ru  Ru15  1  0.711852  0.288148  0.921189  1
