# generated using pymatgen
data_Y2MnCo16
_symmetry_space_group_name_H-M   'P 1'
_cell_length_a   6.28568481
_cell_length_b   6.28568508
_cell_length_c   6.28568562
_cell_angle_alpha   96.83840357
_cell_angle_beta   83.16160360
_cell_angle_gamma   96.83840805
_symmetry_Int_Tables_number   1
_chemical_formula_structural   Y2MnCo16
_chemical_formula_sum   'Y2 Mn1 Co16'
_cell_volume   243.43567660
_cell_formula_units_Z   1
loop_
 _symmetry_equiv_pos_site_id
 _symmetry_equiv_pos_as_xyz
  1  'x, y, z'
loop_
 _atom_site_type_symbol
 _atom_site_label
 _atom_site_symmetry_multiplicity
 _atom_site_fract_x
 _atom_site_fract_y
 _atom_site_fract_z
 _atom_site_occupancy
  Y  Y0  1  0.346521  0.653479  0.346521  1
  Y  Y1  1  0.655916  0.344084  0.655917  1
  Mn  Mn2  1  0.096959  0.903041  0.096959  1
  Co  Co3  1  0.711589  0.711235  0.998722  1
  Co  Co4  1  0.997464  0.495533  0.997464  1
  Co  Co5  1  0.288764  0.288411  0.998722  1
  Co  Co6  1  0.504468  0.002536  0.997464  1
  Co  Co7  1  0.654158  0.345842  0.151207  1
  Co  Co8  1  0.998722  0.288411  0.288764  1
  Co  Co9  1  0.711589  0.001278  0.288764  1
  Co  Co10  1  0.848266  0.651897  0.348104  1
  Co  Co11  1  0.348104  0.151735  0.348104  1
  Co  Co12  1  0.997464  0.002536  0.504469  1
  Co  Co13  1  0.654158  0.848793  0.654159  1
  Co  Co14  1  0.151206  0.345842  0.654159  1
  Co  Co15  1  0.288765  0.001278  0.711589  1
  Co  Co16  1  0.998722  0.711236  0.711589  1
  Co  Co17  1  0.348104  0.651896  0.848266  1
  Co  Co18  1  0.899062  0.100939  0.899062  1
