# generated using pymatgen
data_CsLi5(TcH9)3
_symmetry_space_group_name_H-M   'P 1'
_cell_length_a   8.97412026
_cell_length_b   8.97411945
_cell_length_c   5.26996600
_cell_angle_alpha   90.00000000
_cell_angle_beta   90.00000000
_cell_angle_gamma   113.30948646
_symmetry_Int_Tables_number   1
_chemical_formula_structural   CsLi5(TcH9)3
_chemical_formula_sum   'Cs1 Li5 Tc3 H27'
_cell_volume   389.77535609
_cell_formula_units_Z   1
loop_
 _symmetry_equiv_pos_site_id
 _symmetry_equiv_pos_as_xyz
  1  'x, y, z'
loop_
 _atom_site_type_symbol
 _atom_site_label
 _atom_site_symmetry_multiplicity
 _atom_site_fract_x
 _atom_site_fract_y
 _atom_site_fract_z
 _atom_site_occupancy
  Cs  Cs0  1  0.365417  0.365417  0.000000  1
  Li  Li1  1  0.431685  0.016284  0.500000  1
  Li  Li2  1  0.016284  0.431685  0.500000  1
  Li  Li3  1  0.870349  0.870349  0.500000  1
  Li  Li4  1  0.753615  0.148201  0.000000  1
  Li  Li5  1  0.148201  0.753615  0.000000  1
  Tc  Tc6  1  0.945879  0.945879  0.000000  1
  Tc  Tc7  1  0.296948  0.690734  0.500000  1
  Tc  Tc8  1  0.690734  0.296948  0.500000  1
  H  H9  1  0.802039  0.959135  0.195861  1
  H  H10  1  0.959135  0.802039  0.195861  1
  H  H11  1  0.802039  0.959135  0.804139  1
  H  H12  1  0.959135  0.802039  0.804139  1
  H  H13  1  0.038403  0.038403  0.265945  1
  H  H14  1  0.038403  0.038403  0.734055  1
  H  H15  1  0.146373  0.983455  0.000000  1
  H  H16  1  0.983455  0.146373  0.000000  1
  H  H17  1  0.778834  0.778834  0.000000  1
  H  H18  1  0.173749  0.573480  0.264809  1
  H  H19  1  0.418010  0.677647  0.270871  1
  H  H20  1  0.173749  0.573480  0.735191  1
  H  H21  1  0.573480  0.173749  0.735191  1
  H  H22  1  0.315443  0.836499  0.280584  1
  H  H23  1  0.418010  0.677647  0.729129  1
  H  H24  1  0.677647  0.418010  0.729129  1
  H  H25  1  0.573480  0.173749  0.264809  1
  H  H26  1  0.315443  0.836499  0.719416  1
  H  H27  1  0.677647  0.418010  0.270871  1
  H  H28  1  0.836499  0.315443  0.719416  1
  H  H29  1  0.836499  0.315443  0.280584  1
  H  H30  1  0.315142  0.512663  0.500000  1
  H  H31  1  0.489916  0.818402  0.500000  1
  H  H32  1  0.512663  0.315142  0.500000  1
  H  H33  1  0.125577  0.721718  0.500000  1
  H  H34  1  0.818402  0.489916  0.500000  1
  H  H35  1  0.721718  0.125577  0.500000  1
