# generated using pymatgen
data_Ac2MgSnO6
_symmetry_space_group_name_H-M   'P 1'
_cell_length_a   5.76101118
_cell_length_b   5.87704200
_cell_length_c   8.21257900
_cell_angle_alpha   90.00000000
_cell_angle_beta   90.13578519
_cell_angle_gamma   90.00000000
_symmetry_Int_Tables_number   1
_chemical_formula_structural   Ac2MgSnO6
_chemical_formula_sum   'Ac4 Mg2 Sn2 O12'
_cell_volume   278.05829340
_cell_formula_units_Z   2
loop_
 _symmetry_equiv_pos_site_id
 _symmetry_equiv_pos_as_xyz
  1  'x, y, z'
loop_
 _atom_site_type_symbol
 _atom_site_label
 _atom_site_symmetry_multiplicity
 _atom_site_fract_x
 _atom_site_fract_y
 _atom_site_fract_z
 _atom_site_occupancy
  Ac  Ac0  1  0.008491  0.038351  0.249733  1
  Ac  Ac1  1  0.491509  0.538352  0.250267  1
  Ac  Ac2  1  0.508490  0.461648  0.749734  1
  Ac  Ac3  1  0.991510  0.961649  0.750267  1
  Mg  Mg4  1  0.000000  0.500000  0.000001  1
  Mg  Mg5  1  0.500000  0.000000  0.500000  1
  Sn  Sn6  1  0.500004  0.000002  0.000001  1
  Sn  Sn7  1  0.999999  0.500002  0.499997  1
  O  O8  1  0.213712  0.789045  0.040108  1
  O  O9  1  0.289402  0.285973  0.041256  1
  O  O10  1  0.924782  0.480089  0.251020  1
  O  O11  1  0.575218  0.980089  0.248982  1
  O  O12  1  0.210598  0.785974  0.458745  1
  O  O13  1  0.286288  0.289045  0.459892  1
  O  O14  1  0.713712  0.710955  0.540109  1
  O  O15  1  0.789401  0.214025  0.541256  1
  O  O16  1  0.424782  0.019911  0.751018  1
  O  O17  1  0.075218  0.519910  0.748982  1
  O  O18  1  0.710599  0.714025  0.958744  1
  O  O19  1  0.786289  0.210955  0.959891  1
