# generated using pymatgen
data_CaTh(Si2Ni9)2
_symmetry_space_group_name_H-M   'P 1'
_cell_length_a   7.57655775
_cell_length_b   7.57701404
_cell_length_c   7.57655806
_cell_angle_alpha   99.61196006
_cell_angle_beta   99.58965131
_cell_angle_gamma   131.78862093
_symmetry_Int_Tables_number   1
_chemical_formula_structural   CaTh(Si2Ni9)2
_chemical_formula_sum   'Ca1 Th1 Si4 Ni18'
_cell_volume   296.03187067
_cell_formula_units_Z   1
loop_
 _symmetry_equiv_pos_site_id
 _symmetry_equiv_pos_as_xyz
  1  'x, y, z'
loop_
 _atom_site_type_symbol
 _atom_site_label
 _atom_site_symmetry_multiplicity
 _atom_site_fract_x
 _atom_site_fract_y
 _atom_site_fract_z
 _atom_site_occupancy
  Ca  Ca0  1  0.750013  0.250008  0.499994  1
  Th  Th1  1  0.499980  0.499971  0.999991  1
  Si  Si2  1  0.625919  0.876805  0.749094  1
  Si  Si3  1  0.123188  0.374087  0.250900  1
  Si  Si4  1  0.123186  0.872292  0.749106  1
  Si  Si5  1  0.127711  0.876805  0.250887  1
  Ni  Ni6  1  0.249996  0.749995  0.499999  1
  Ni  Ni7  1  0.000009  0.000004  0.999995  1
  Ni  Ni8  1  0.687199  0.014495  0.078693  1
  Ni  Ni9  1  0.687210  0.608523  0.672708  1
  Ni  Ni10  1  0.266420  0.438568  0.580006  1
  Ni  Ni11  1  0.266408  0.686405  0.827845  1
  Ni  Ni12  1  0.935802  0.014495  0.327297  1
  Ni  Ni13  1  0.935817  0.608523  0.921314  1
  Ni  Ni14  1  0.858561  0.438568  0.172148  1
  Ni  Ni15  1  0.858559  0.686405  0.419997  1
  Ni  Ni16  1  0.561442  0.733586  0.420003  1
  Ni  Ni17  1  0.561434  0.141443  0.827859  1
  Ni  Ni18  1  0.985501  0.312795  0.921307  1
  Ni  Ni19  1  0.985503  0.064201  0.672713  1
  Ni  Ni20  1  0.313583  0.733586  0.172145  1
  Ni  Ni21  1  0.313582  0.141443  0.580007  1
  Ni  Ni22  1  0.391489  0.312795  0.327294  1
  Ni  Ni23  1  0.391488  0.064201  0.078698  1
