# generated using pymatgen
data_Ca2Hg(BrO)2
_symmetry_space_group_name_H-M   'P 1'
_cell_length_a   6.38673016
_cell_length_b   6.38673066
_cell_length_c   8.22146581
_cell_angle_alpha   124.77489887
_cell_angle_beta   124.77490129
_cell_angle_gamma   34.72664418
_symmetry_Int_Tables_number   1
_chemical_formula_structural   Ca2Hg(BrO)2
_chemical_formula_sum   'Ca2 Hg1 Br2 O2'
_cell_volume   153.17668278
_cell_formula_units_Z   1
loop_
 _symmetry_equiv_pos_site_id
 _symmetry_equiv_pos_as_xyz
  1  'x, y, z'
loop_
 _atom_site_type_symbol
 _atom_site_label
 _atom_site_symmetry_multiplicity
 _atom_site_fract_x
 _atom_site_fract_y
 _atom_site_fract_z
 _atom_site_occupancy
  Ca  Ca0  1  0.818196  0.818196  0.223886  1
  Ca  Ca1  1  0.181804  0.181804  0.776114  1
  Hg  Hg2  1  0.000000  0.000000  0.000000  1
  Br  Br3  1  0.577083  0.577083  0.381707  1
  Br  Br4  1  0.422917  0.422917  0.618292  1
  O  O5  1  0.192341  0.192341  0.070454  1
  O  O6  1  0.807659  0.807659  0.929546  1
