# generated using pymatgen
data_ErTm9Si5Bi
_symmetry_space_group_name_H-M   'P 1'
_cell_length_a   8.45501616
_cell_length_b   8.45501545
_cell_length_c   6.26192900
_cell_angle_alpha   90.00000000
_cell_angle_beta   90.00000000
_cell_angle_gamma   120.28349003
_symmetry_Int_Tables_number   1
_chemical_formula_structural   ErTm9Si5Bi
_chemical_formula_sum   'Er1 Tm9 Si5 Bi1'
_cell_volume   386.56265590
_cell_formula_units_Z   1
loop_
 _symmetry_equiv_pos_site_id
 _symmetry_equiv_pos_as_xyz
  1  'x, y, z'
loop_
 _atom_site_type_symbol
 _atom_site_label
 _atom_site_symmetry_multiplicity
 _atom_site_fract_x
 _atom_site_fract_y
 _atom_site_fract_z
 _atom_site_occupancy
  Er  Er0  1  0.239379  0.239379  0.750000  1
  Tm  Tm1  1  0.677129  0.330729  0.505067  1
  Tm  Tm2  1  0.330729  0.677129  0.505067  1
  Tm  Tm3  1  0.330729  0.677129  0.994933  1
  Tm  Tm4  1  0.677129  0.330729  0.994933  1
  Tm  Tm5  1  0.768708  0.768708  0.250000  1
  Tm  Tm6  1  0.239101  0.984102  0.250000  1
  Tm  Tm7  1  0.984102  0.239101  0.250000  1
  Tm  Tm8  1  0.755497  0.998598  0.750000  1
  Tm  Tm9  1  0.998598  0.755497  0.750000  1
  Si  Si10  1  0.603826  0.998654  0.250000  1
  Si  Si11  1  0.998654  0.603826  0.250000  1
  Si  Si12  1  0.607153  0.607153  0.750000  1
  Si  Si13  1  0.393482  0.002576  0.750000  1
  Si  Si14  1  0.002576  0.393482  0.750000  1
  Bi  Bi15  1  0.393208  0.393208  0.250000  1
