# generated using pymatgen
data_Dy5Lu2P12Ir16Ru
_symmetry_space_group_name_H-M   'P 1'
_cell_length_a   12.93469188
_cell_length_b   12.71634714
_cell_length_c   3.97953000
_cell_angle_alpha   90.00000000
_cell_angle_beta   90.00000000
_cell_angle_gamma   119.44314506
_symmetry_Int_Tables_number   1
_chemical_formula_structural   Dy5Lu2P12Ir16Ru
_chemical_formula_sum   'Dy5 Lu2 P12 Ir16 Ru1'
_cell_volume   570.02061343
_cell_formula_units_Z   1
loop_
 _symmetry_equiv_pos_site_id
 _symmetry_equiv_pos_as_xyz
  1  'x, y, z'
loop_
 _atom_site_type_symbol
 _atom_site_label
 _atom_site_symmetry_multiplicity
 _atom_site_fract_x
 _atom_site_fract_y
 _atom_site_fract_z
 _atom_site_occupancy
  Dy  Dy0  1  0.336216  0.668139  0.500000  1
  Dy  Dy1  1  0.663784  0.331922  0.500000  1
  Dy  Dy2  1  0.000000  0.809065  0.000000  1
  Dy  Dy3  1  0.183241  0.185107  0.000000  1
  Dy  Dy4  1  0.816759  0.001866  0.000000  1
  Lu  Lu5  1  0.557021  0.553841  0.500000  1
  Lu  Lu6  1  0.442979  0.996820  0.500000  1
  P  P7  1  0.000000  0.638330  0.500000  1
  P  P8  1  0.345415  0.353960  0.500000  1
  P  P9  1  0.654585  0.008545  0.500000  1
  P  P10  1  0.518847  0.686553  0.000000  1
  P  P11  1  0.310902  0.826551  0.000000  1
  P  P12  1  0.172687  0.484558  0.000000  1
  P  P13  1  0.481153  0.167705  0.000000  1
  P  P14  1  0.689098  0.515648  0.000000  1
  P  P15  1  0.827313  0.311870  0.000000  1
  P  P16  1  0.000000  0.180490  0.500000  1
  P  P17  1  0.825963  0.823912  0.500000  1
  P  P18  1  0.174037  0.997949  0.500000  1
  Ir  Ir19  1  0.503068  0.860211  0.000000  1
  Ir  Ir20  1  0.132282  0.638499  0.000000  1
  Ir  Ir21  1  0.354723  0.480919  0.000000  1
  Ir  Ir22  1  0.496932  0.357142  0.000000  1
  Ir  Ir23  1  0.867718  0.506216  0.000000  1
  Ir  Ir24  1  0.645277  0.126195  0.000000  1
  Ir  Ir25  1  0.000000  0.289727  0.000000  1
  Ir  Ir26  1  0.725752  0.722811  0.000000  1
  Ir  Ir27  1  0.274248  0.997060  0.000000  1
  Ir  Ir28  1  0.635227  0.815614  0.500000  1
  Ir  Ir29  1  0.189233  0.813759  0.500000  1
  Ir  Ir30  1  0.172230  0.377469  0.500000  1
  Ir  Ir31  1  0.364773  0.180386  0.500000  1
  Ir  Ir32  1  0.810767  0.624525  0.500000  1
  Ir  Ir33  1  0.827770  0.205239  0.500000  1
  Ir  Ir34  1  0.000000  0.003028  0.500000  1
  Ru  Ru35  1  0.000000  0.458368  0.500000  1
