# generated using pymatgen
data_Y2Lu3Co2
_symmetry_space_group_name_H-M   'P 1'
_cell_length_a   6.22552495
_cell_length_b   6.87863877
_cell_length_c   8.39789336
_cell_angle_alpha   96.73026113
_cell_angle_beta   111.75631290
_cell_angle_gamma   90.00000151
_symmetry_Int_Tables_number   1
_chemical_formula_structural   Y2Lu3Co2
_chemical_formula_sum   'Y4 Lu6 Co4'
_cell_volume   331.33790144
_cell_formula_units_Z   2
loop_
 _symmetry_equiv_pos_site_id
 _symmetry_equiv_pos_as_xyz
  1  'x, y, z'
loop_
 _atom_site_type_symbol
 _atom_site_label
 _atom_site_symmetry_multiplicity
 _atom_site_fract_x
 _atom_site_fract_y
 _atom_site_fract_z
 _atom_site_occupancy
  Y  Y0  1  0.518460  0.085926  0.807000  1
  Y  Y1  1  0.481540  0.914074  0.193000  1
  Y  Y2  1  0.711460  0.414074  0.193000  1
  Y  Y3  1  0.288540  0.585926  0.807000  1
  Lu  Lu4  1  0.291558  0.314480  0.432632  1
  Lu  Lu5  1  0.708442  0.685520  0.567368  1
  Lu  Lu6  1  0.858927  0.185520  0.567368  1
  Lu  Lu7  1  0.141073  0.814480  0.432632  1
  Lu  Lu8  1  0.072638  0.250000  0.000000  1
  Lu  Lu9  1  0.927362  0.750000  0.000000  1
  Co  Co10  1  0.317485  0.570839  0.224280  1
  Co  Co11  1  0.682515  0.429161  0.775720  1
  Co  Co12  1  0.093207  0.929161  0.775720  1
  Co  Co13  1  0.906793  0.070839  0.224280  1
