# generated using pymatgen
data_MgCo(Se2O7)2
_symmetry_space_group_name_H-M   'P 1'
_cell_length_a   5.17987856
_cell_length_b   7.45711613
_cell_length_c   8.65647993
_cell_angle_alpha   92.09874660
_cell_angle_beta   94.26792930
_cell_angle_gamma   105.09062688
_symmetry_Int_Tables_number   1
_chemical_formula_structural   MgCo(Se2O7)2
_chemical_formula_sum   'Mg1 Co1 Se4 O14'
_cell_volume   321.40248203
_cell_formula_units_Z   1
loop_
 _symmetry_equiv_pos_site_id
 _symmetry_equiv_pos_as_xyz
  1  'x, y, z'
loop_
 _atom_site_type_symbol
 _atom_site_label
 _atom_site_symmetry_multiplicity
 _atom_site_fract_x
 _atom_site_fract_y
 _atom_site_fract_z
 _atom_site_occupancy
  Mg  Mg0  1  0.500000  0.000000  0.500000  1
  Co  Co1  1  0.000000  0.500000  0.000000  1
  Se  Se2  1  0.507979  0.648420  0.769296  1
  Se  Se3  1  0.492021  0.351580  0.230704  1
  Se  Se4  1  0.123011  0.246154  0.687872  1
  Se  Se5  1  0.876989  0.753846  0.312128  1
  O  O6  1  0.754327  0.551945  0.814970  1
  O  O7  1  0.245673  0.448055  0.185030  1
  O  O8  1  0.326983  0.686209  0.910431  1
  O  O9  1  0.673017  0.313791  0.089569  1
  O  O10  1  0.610237  0.826976  0.663507  1
  O  O11  1  0.389763  0.173024  0.336493  1
  O  O12  1  0.281654  0.480479  0.628110  1
  O  O13  1  0.718346  0.519521  0.371890  1
  O  O14  1  0.873437  0.189208  0.551660  1
  O  O15  1  0.126563  0.810792  0.448340  1
  O  O16  1  0.345069  0.124812  0.679965  1
  O  O17  1  0.654931  0.875188  0.320035  1
  O  O18  1  0.049692  0.271378  0.868849  1
  O  O19  1  0.950308  0.728622  0.131151  1
