# generated using pymatgen
data_Tm8MnB24Os2Ru
_symmetry_space_group_name_H-M   'P 1'
_cell_length_a   3.59694600
_cell_length_b   9.06044725
_cell_length_c   11.42996100
_cell_angle_alpha   90.06823819
_cell_angle_beta   90.00000000
_cell_angle_gamma   90.00000000
_symmetry_Int_Tables_number   1
_chemical_formula_structural   Tm8MnB24Os2Ru
_chemical_formula_sum   'Tm8 Mn1 B24 Os2 Ru1'
_cell_volume   372.50147322
_cell_formula_units_Z   1
loop_
 _symmetry_equiv_pos_site_id
 _symmetry_equiv_pos_as_xyz
  1  'x, y, z'
loop_
 _atom_site_type_symbol
 _atom_site_label
 _atom_site_symmetry_multiplicity
 _atom_site_fract_x
 _atom_site_fract_y
 _atom_site_fract_z
 _atom_site_occupancy
  Tm  Tm0  1  0.000000  0.322827  0.418057  1
  Tm  Tm1  1  0.000000  0.674694  0.587180  1
  Tm  Tm2  1  0.000000  0.821528  0.084782  1
  Tm  Tm3  1  0.000000  0.180650  0.911560  1
  Tm  Tm4  1  0.000000  0.942631  0.372847  1
  Tm  Tm5  1  0.000000  0.060210  0.628087  1
  Tm  Tm6  1  0.000000  0.443578  0.128022  1
  Tm  Tm7  1  0.000000  0.553759  0.869610  1
  Mn  Mn8  1  0.000000  0.362266  0.679067  1
  B  B9  1  0.500000  0.553203  0.434036  1
  B  B10  1  0.500000  0.445951  0.567793  1
  B  B11  1  0.500000  0.053353  0.066467  1
  B  B12  1  0.500000  0.946599  0.933161  1
  B  B13  1  0.500000  0.748374  0.420386  1
  B  B14  1  0.500000  0.253492  0.581894  1
  B  B15  1  0.500000  0.249008  0.080171  1
  B  B16  1  0.500000  0.750394  0.919221  1
  B  B17  1  0.500000  0.791196  0.265756  1
  B  B18  1  0.500000  0.210479  0.733621  1
  B  B19  1  0.500000  0.291555  0.234940  1
  B  B20  1  0.500000  0.707818  0.765112  1
  B  B21  1  0.500000  0.631254  0.184720  1
  B  B22  1  0.500000  0.368690  0.813296  1
  B  B23  1  0.500000  0.131271  0.315631  1
  B  B24  1  0.500000  0.869133  0.684796  1
  B  B25  1  0.500000  0.981807  0.212570  1
  B  B26  1  0.500000  0.018687  0.787087  1
  B  B27  1  0.500000  0.482208  0.287823  1
  B  B28  1  0.500000  0.515316  0.711505  1
  B  B29  1  0.500000  0.605263  0.028768  1
  B  B30  1  0.500000  0.394553  0.970624  1
  B  B31  1  0.500000  0.106018  0.471067  1
  B  B32  1  0.500000  0.894358  0.529485  1
  Os  Os33  1  0.000000  0.137415  0.178750  1
  Os  Os34  1  0.000000  0.862359  0.821499  1
  Ru  Ru35  1  0.000000  0.638101  0.320607  1
