# generated using pymatgen
data_Ca2NdDyAl8
_symmetry_space_group_name_H-M   'P 1'
_cell_length_a   9.66899286
_cell_length_b   9.66899309
_cell_length_c   9.66899320
_cell_angle_alpha   34.08302586
_cell_angle_beta   34.08302421
_cell_angle_gamma   34.08302247
_symmetry_Int_Tables_number   1
_chemical_formula_structural   Ca2NdDyAl8
_chemical_formula_sum   'Ca2 Nd1 Dy1 Al8'
_cell_volume   253.07613808
_cell_formula_units_Z   1
loop_
 _symmetry_equiv_pos_site_id
 _symmetry_equiv_pos_as_xyz
  1  'x, y, z'
loop_
 _atom_site_type_symbol
 _atom_site_label
 _atom_site_symmetry_multiplicity
 _atom_site_fract_x
 _atom_site_fract_y
 _atom_site_fract_z
 _atom_site_occupancy
  Ca  Ca0  1  0.312702  0.312702  0.312702  1
  Ca  Ca1  1  0.686691  0.686691  0.686691  1
  Nd  Nd2  1  0.811683  0.811683  0.811683  1
  Dy  Dy3  1  0.188675  0.188675  0.188675  1
  Al  Al4  1  0.500493  0.500493  0.500493  1
  Al  Al5  1  0.999661  0.999661  0.999661  1
  Al  Al6  1  0.250003  0.250003  0.756028  1
  Al  Al7  1  0.749648  0.749648  0.244765  1
  Al  Al8  1  0.250003  0.756028  0.250003  1
  Al  Al9  1  0.749648  0.244765  0.749648  1
  Al  Al10  1  0.756028  0.250003  0.250003  1
  Al  Al11  1  0.244765  0.749648  0.749648  1
