# generated using pymatgen
data_HoMn3Cl7O
_symmetry_space_group_name_H-M   'P 1'
_cell_length_a   7.61252162
_cell_length_b   7.64928911
_cell_length_c   7.61252200
_cell_angle_alpha   59.79168835
_cell_angle_beta   58.84265601
_cell_angle_gamma   59.79168221
_symmetry_Int_Tables_number   1
_chemical_formula_structural   HoMn3Cl7O
_chemical_formula_sum   'Ho1 Mn3 Cl7 O1'
_cell_volume   309.64849199
_cell_formula_units_Z   1
loop_
 _symmetry_equiv_pos_site_id
 _symmetry_equiv_pos_as_xyz
  1  'x, y, z'
loop_
 _atom_site_type_symbol
 _atom_site_label
 _atom_site_symmetry_multiplicity
 _atom_site_fract_x
 _atom_site_fract_y
 _atom_site_fract_z
 _atom_site_occupancy
  Ho  Ho0  1  0.029465  0.968279  0.029465  1
  Mn  Mn1  1  0.480926  0.512833  0.022671  1
  Mn  Mn2  1  0.022671  0.512833  0.480926  1
  Mn  Mn3  1  0.500184  0.004198  0.500184  1
  Cl  Cl4  1  0.266560  0.240161  0.266560  1
  Cl  Cl5  1  0.738024  0.766474  0.259850  1
  Cl  Cl6  1  0.259850  0.766474  0.738024  1
  Cl  Cl7  1  0.735655  0.753688  0.735655  1
  Cl  Cl8  1  0.763578  0.281690  0.763578  1
  Cl  Cl9  1  0.253851  0.247398  0.740700  1
  Cl  Cl10  1  0.740700  0.247398  0.253851  1
  O  O11  1  0.208533  0.698575  0.208533  1
