# generated using pymatgen
data_EuHo3Mo2(SeO4)6
_symmetry_space_group_name_H-M   'P 1'
_cell_length_a   6.56552536
_cell_length_b   7.13772248
_cell_length_c   10.85834085
_cell_angle_alpha   84.90736210
_cell_angle_beta   73.13050025
_cell_angle_gamma   86.68167431
_symmetry_Int_Tables_number   1
_chemical_formula_structural   EuHo3Mo2(SeO4)6
_chemical_formula_sum   'Eu1 Ho3 Mo2 Se6 O24'
_cell_volume   484.75864583
_cell_formula_units_Z   1
loop_
 _symmetry_equiv_pos_site_id
 _symmetry_equiv_pos_as_xyz
  1  'x, y, z'
loop_
 _atom_site_type_symbol
 _atom_site_label
 _atom_site_symmetry_multiplicity
 _atom_site_fract_x
 _atom_site_fract_y
 _atom_site_fract_z
 _atom_site_occupancy
  Eu  Eu0  1  0.729082  0.637103  0.508969  1
  Ho  Ho1  1  0.265464  0.360936  0.491669  1
  Ho  Ho2  1  0.205422  0.182574  0.168169  1
  Ho  Ho3  1  0.794639  0.817427  0.832267  1
  Mo  Mo4  1  0.723031  0.894377  0.203891  1
  Mo  Mo5  1  0.278921  0.106781  0.794566  1
  Se  Se6  1  0.206505  0.660844  0.214189  1
  Se  Se7  1  0.797644  0.337799  0.786073  1
  Se  Se8  1  0.658321  0.366428  0.142276  1
  Se  Se9  1  0.338291  0.635015  0.863521  1
  Se  Se10  1  0.785232  0.138386  0.490909  1
  Se  Se11  1  0.209050  0.861761  0.507606  1
  O  O12  1  0.693821  0.669290  0.292400  1
  O  O13  1  0.307707  0.328139  0.701064  1
  O  O14  1  0.717278  0.961508  0.410101  1
  O  O15  1  0.284714  0.041655  0.583044  1
  O  O16  1  0.449597  0.974245  0.230625  1
  O  O17  1  0.552033  0.024212  0.766277  1
  O  O18  1  0.827161  0.173952  0.176441  1
  O  O19  1  0.175790  0.827482  0.821869  1
  O  O20  1  0.787673  0.837368  0.041160  1
  O  O21  1  0.219878  0.167558  0.956340  1
  O  O22  1  0.061265  0.873911  0.193619  1
  O  O23  1  0.941705  0.124205  0.809075  1
  O  O24  1  0.100486  0.497165  0.148205  1
  O  O25  1  0.902573  0.503294  0.851374  1
  O  O26  1  0.091340  0.603079  0.381560  1
  O  O27  1  0.920338  0.390448  0.618730  1
  O  O28  1  0.548609  0.275619  0.037487  1
  O  O29  1  0.447694  0.731590  0.966651  1
  O  O30  1  0.423688  0.345723  0.270695  1
  O  O31  1  0.573606  0.647752  0.736705  1
  O  O32  1  0.041892  0.192597  0.391489  1
  O  O33  1  0.954605  0.815853  0.609999  1
  O  O34  1  0.634613  0.333941  0.457611  1
  O  O35  1  0.350333  0.659981  0.543373  1
