# generated using pymatgen
data_DyHoFe2(P3Rh4)2
_symmetry_space_group_name_H-M   'P 1'
_cell_length_a   3.85449100
_cell_length_b   10.74634000
_cell_length_c   12.42085900
_cell_angle_alpha   90.00000000
_cell_angle_beta   90.00000000
_cell_angle_gamma   90.00000000
_symmetry_Int_Tables_number   1
_chemical_formula_structural   DyHoFe2(P3Rh4)2
_chemical_formula_sum   'Dy2 Ho2 Fe4 P12 Rh16'
_cell_volume   514.49273271
_cell_formula_units_Z   2
loop_
 _symmetry_equiv_pos_site_id
 _symmetry_equiv_pos_as_xyz
  1  'x, y, z'
loop_
 _atom_site_type_symbol
 _atom_site_label
 _atom_site_symmetry_multiplicity
 _atom_site_fract_x
 _atom_site_fract_y
 _atom_site_fract_z
 _atom_site_occupancy
  Dy  Dy0  1  0.750000  0.417262  0.290407  1
  Dy  Dy1  1  0.750000  0.082738  0.790407  1
  Ho  Ho2  1  0.250000  0.582667  0.709553  1
  Ho  Ho3  1  0.250000  0.917333  0.209553  1
  Fe  Fe4  1  0.250000  0.462143  0.932754  1
  Fe  Fe5  1  0.250000  0.037857  0.432754  1
  Fe  Fe6  1  0.750000  0.538189  0.066901  1
  Fe  Fe7  1  0.750000  0.961811  0.566901  1
  P  P8  1  0.250000  0.430369  0.105533  1
  P  P9  1  0.250000  0.069631  0.605533  1
  P  P10  1  0.750000  0.569826  0.894137  1
  P  P11  1  0.750000  0.930174  0.394137  1
  P  P12  1  0.250000  0.270829  0.870171  1
  P  P13  1  0.250000  0.229171  0.370171  1
  P  P14  1  0.750000  0.729377  0.130188  1
  P  P15  1  0.750000  0.770623  0.630188  1
  P  P16  1  0.250000  0.601047  0.388959  1
  P  P17  1  0.250000  0.898953  0.888959  1
  P  P18  1  0.750000  0.399230  0.611065  1
  P  P19  1  0.750000  0.100770  0.111065  1
  Rh  Rh20  1  0.250000  0.716790  0.990926  1
  Rh  Rh21  1  0.250000  0.783210  0.490926  1
  Rh  Rh22  1  0.750000  0.283166  0.009035  1
  Rh  Rh23  1  0.750000  0.216834  0.509035  1
  Rh  Rh24  1  0.250000  0.408705  0.479524  1
  Rh  Rh25  1  0.250000  0.091295  0.979524  1
  Rh  Rh26  1  0.750000  0.591577  0.521095  1
  Rh  Rh27  1  0.750000  0.908423  0.021095  1
  Rh  Rh28  1  0.250000  0.230864  0.175198  1
  Rh  Rh29  1  0.250000  0.269136  0.675198  1
  Rh  Rh30  1  0.750000  0.769023  0.824763  1
  Rh  Rh31  1  0.750000  0.730977  0.324763  1
  Rh  Rh32  1  0.250000  0.881793  0.700652  1
  Rh  Rh33  1  0.250000  0.618207  0.200652  1
  Rh  Rh34  1  0.750000  0.117653  0.299137  1
  Rh  Rh35  1  0.750000  0.382347  0.799137  1
