# generated using pymatgen
data_HfTi4(In2Rh)2
_symmetry_space_group_name_H-M   'P 1'
_cell_length_a   3.22739600
_cell_length_b   7.40897700
_cell_length_c   17.21722200
_cell_angle_alpha   89.99869806
_cell_angle_beta   90.00000000
_cell_angle_gamma   90.00000000
_symmetry_Int_Tables_number   1
_chemical_formula_structural   HfTi4(In2Rh)2
_chemical_formula_sum   'Hf2 Ti8 In8 Rh4'
_cell_volume   411.69309431
_cell_formula_units_Z   2
loop_
 _symmetry_equiv_pos_site_id
 _symmetry_equiv_pos_as_xyz
  1  'x, y, z'
loop_
 _atom_site_type_symbol
 _atom_site_label
 _atom_site_symmetry_multiplicity
 _atom_site_fract_x
 _atom_site_fract_y
 _atom_site_fract_z
 _atom_site_occupancy
  Hf  Hf0  1  0.000000  0.731921  0.778388  1
  Hf  Hf1  1  0.000000  0.268079  0.221612  1
  Ti  Ti2  1  0.000000  0.000000  0.000000  1
  Ti  Ti3  1  0.000000  0.500000  0.500000  1
  Ti  Ti4  1  0.000000  0.232634  0.722589  1
  Ti  Ti5  1  0.000000  0.767366  0.277411  1
  Ti  Ti6  1  0.000000  0.851301  0.579016  1
  Ti  Ti7  1  0.000000  0.148699  0.420984  1
  Ti  Ti8  1  0.000000  0.351442  0.920941  1
  Ti  Ti9  1  0.000000  0.648558  0.079059  1
  In  In10  1  0.500000  0.807651  0.435010  1
  In  In11  1  0.500000  0.192349  0.564990  1
  In  In12  1  0.500000  0.309331  0.063223  1
  In  In13  1  0.500000  0.690669  0.936777  1
  In  In14  1  0.500000  0.940412  0.147721  1
  In  In15  1  0.500000  0.059588  0.852279  1
  In  In16  1  0.500000  0.448009  0.354034  1
  In  In17  1  0.500000  0.551991  0.645966  1
  Rh  Rh18  1  0.500000  0.945753  0.690567  1
  Rh  Rh19  1  0.500000  0.054247  0.309433  1
  Rh  Rh20  1  0.500000  0.437424  0.808148  1
  Rh  Rh21  1  0.500000  0.562576  0.191852  1
