# generated using pymatgen
data_Hf4GaAs
_symmetry_space_group_name_H-M   'P 1'
_cell_length_a   5.39414088
_cell_length_b   5.39414123
_cell_length_c   5.39414127
_cell_angle_alpha   103.93796002
_cell_angle_beta   103.93795488
_cell_angle_gamma   121.21546994
_symmetry_Int_Tables_number   1
_chemical_formula_structural   Hf4GaAs
_chemical_formula_sum   'Hf4 Ga1 As1'
_cell_volume   116.95121429
_cell_formula_units_Z   1
loop_
 _symmetry_equiv_pos_site_id
 _symmetry_equiv_pos_as_xyz
  1  'x, y, z'
loop_
 _atom_site_type_symbol
 _atom_site_label
 _atom_site_symmetry_multiplicity
 _atom_site_fract_x
 _atom_site_fract_y
 _atom_site_fract_z
 _atom_site_occupancy
  Hf  Hf0  1  0.654055  0.154055  0.808110  1
  Hf  Hf1  1  0.845945  0.654055  0.500000  1
  Hf  Hf2  1  0.154055  0.345945  0.500000  1
  Hf  Hf3  1  0.345945  0.845945  0.191890  1
  Ga  Ga4  1  0.250000  0.250000  0.000000  1
  As  As5  1  0.750000  0.750000  0.000000  1
