# generated using pymatgen
data_Ca8LuPt6
_symmetry_space_group_name_H-M   'P 1'
_cell_length_a   7.59751720
_cell_length_b   7.59751735
_cell_length_c   7.59751834
_cell_angle_alpha   70.66731633
_cell_angle_beta   70.66731275
_cell_angle_gamma   70.66732324
_symmetry_Int_Tables_number   1
_chemical_formula_structural   Ca8LuPt6
_chemical_formula_sum   'Ca8 Lu1 Pt6'
_cell_volume   378.21289746
_cell_formula_units_Z   1
loop_
 _symmetry_equiv_pos_site_id
 _symmetry_equiv_pos_as_xyz
  1  'x, y, z'
loop_
 _atom_site_type_symbol
 _atom_site_label
 _atom_site_symmetry_multiplicity
 _atom_site_fract_x
 _atom_site_fract_y
 _atom_site_fract_z
 _atom_site_occupancy
  Ca  Ca0  1  0.400560  0.667748  0.152637  1
  Ca  Ca1  1  0.201775  0.201775  0.201775  1
  Ca  Ca2  1  0.847363  0.599440  0.332252  1
  Ca  Ca3  1  0.667748  0.152637  0.400560  1
  Ca  Ca4  1  0.332252  0.847363  0.599440  1
  Ca  Ca5  1  0.152637  0.400560  0.667748  1
  Ca  Ca6  1  0.798225  0.798225  0.798225  1
  Ca  Ca7  1  0.599440  0.332252  0.847363  1
  Lu  Lu8  1  0.000000  0.000000  0.000000  1
  Pt  Pt9  1  0.849809  0.395432  0.043318  1
  Pt  Pt10  1  0.604568  0.956682  0.150191  1
  Pt  Pt11  1  0.043318  0.849809  0.395432  1
  Pt  Pt12  1  0.956682  0.150191  0.604568  1
  Pt  Pt13  1  0.395432  0.043318  0.849809  1
  Pt  Pt14  1  0.150191  0.604568  0.956682  1
