# generated using pymatgen
data_Sc3Zn2Si3Rh
_symmetry_space_group_name_H-M   'P 1'
_cell_length_a   6.60503509
_cell_length_b   6.60503512
_cell_length_c   4.01728000
_cell_angle_alpha   90.00000000
_cell_angle_beta   90.00000000
_cell_angle_gamma   121.76231975
_symmetry_Int_Tables_number   1
_chemical_formula_structural   Sc3Zn2Si3Rh
_chemical_formula_sum   'Sc3 Zn2 Si3 Rh1'
_cell_volume   149.01274492
_cell_formula_units_Z   1
loop_
 _symmetry_equiv_pos_site_id
 _symmetry_equiv_pos_as_xyz
  1  'x, y, z'
loop_
 _atom_site_type_symbol
 _atom_site_label
 _atom_site_symmetry_multiplicity
 _atom_site_fract_x
 _atom_site_fract_y
 _atom_site_fract_z
 _atom_site_occupancy
  Sc  Sc0  1  0.579431  0.002336  0.500001  1
  Sc  Sc1  1  0.428277  0.428278  0.500001  1
  Sc  Sc2  1  0.002336  0.579431  0.500001  1
  Zn  Zn3  1  0.241025  0.991238  0.000000  1
  Zn  Zn4  1  0.991238  0.241025  0.000000  1
  Si  Si5  1  0.669637  0.347948  0.000000  1
  Si  Si6  1  0.347948  0.669637  0.000000  1
  Si  Si7  1  0.982756  0.982756  0.500001  1
  Rh  Rh8  1  0.757350  0.757351  0.000000  1
