# generated using pymatgen
data_Nd10Al4OsRu5
_symmetry_space_group_name_H-M   'P 1'
_cell_length_a   8.56585215
_cell_length_b   8.58153094
_cell_length_c   8.58153113
_cell_angle_alpha   109.51291267
_cell_angle_beta   109.65975676
_cell_angle_gamma   109.31526343
_symmetry_Int_Tables_number   1
_chemical_formula_structural   Nd10Al4OsRu5
_chemical_formula_sum   'Nd10 Al4 Os1 Ru5'
_cell_volume   485.15058483
_cell_formula_units_Z   1
loop_
 _symmetry_equiv_pos_site_id
 _symmetry_equiv_pos_as_xyz
  1  'x, y, z'
loop_
 _atom_site_type_symbol
 _atom_site_label
 _atom_site_symmetry_multiplicity
 _atom_site_fract_x
 _atom_site_fract_y
 _atom_site_fract_z
 _atom_site_occupancy
  Nd  Nd0  1  0.250000  0.684245  0.434245  1
  Nd  Nd1  1  0.750000  0.816117  0.066117  1
  Nd  Nd2  1  0.434646  0.250428  0.683542  1
  Nd  Nd3  1  0.682372  0.433257  0.248734  1
  Nd  Nd4  1  0.065354  0.748896  0.815782  1
  Nd  Nd5  1  0.817628  0.066362  0.750885  1
  Nd  Nd6  1  0.214605  0.214859  0.214717  1
  Nd  Nd7  1  0.499949  0.999643  0.285507  1
  Nd  Nd8  1  0.285395  0.500110  0.000253  1
  Nd  Nd9  1  0.000051  0.285558  0.499694  1
  Al  Al10  1  0.589911  0.590394  0.590093  1
  Al  Al11  1  0.499270  0.999981  0.909665  1
  Al  Al12  1  0.910089  0.500183  0.000484  1
  Al  Al13  1  0.000730  0.910395  0.500712  1
  Os  Os14  1  0.250000  0.118166  0.868166  1
  Ru  Ru15  1  0.750000  0.381794  0.631794  1
  Ru  Ru16  1  0.867861  0.249984  0.117755  1
  Ru  Ru17  1  0.117970  0.867585  0.250116  1
  Ru  Ru18  1  0.632138  0.749893  0.382123  1
  Ru  Ru19  1  0.382030  0.632146  0.749617  1
