# generated using pymatgen
data_Dy6Ho10CdIn3Ir4
_symmetry_space_group_name_H-M   'P 1'
_cell_length_a   9.62407325
_cell_length_b   9.63673217
_cell_length_c   9.63673100
_cell_angle_alpha   60.00000745
_cell_angle_beta   59.95648685
_cell_angle_gamma   59.95648763
_symmetry_Int_Tables_number   1
_chemical_formula_structural   Dy6Ho10CdIn3Ir4
_chemical_formula_sum   'Dy6 Ho10 Cd1 In3 Ir4'
_cell_volume   631.56423018
_cell_formula_units_Z   1
loop_
 _symmetry_equiv_pos_site_id
 _symmetry_equiv_pos_as_xyz
  1  'x, y, z'
loop_
 _atom_site_type_symbol
 _atom_site_label
 _atom_site_symmetry_multiplicity
 _atom_site_fract_x
 _atom_site_fract_y
 _atom_site_fract_z
 _atom_site_occupancy
  Dy  Dy0  1  0.189351  0.811842  0.811842  1
  Dy  Dy1  1  0.812123  0.188502  0.188502  1
  Dy  Dy2  1  0.812123  0.188502  0.810874  1
  Dy  Dy3  1  0.189351  0.811842  0.186965  1
  Dy  Dy4  1  0.812123  0.810874  0.188502  1
  Dy  Dy5  1  0.189351  0.186965  0.811842  1
  Ho  Ho6  1  0.599253  0.599120  0.599120  1
  Ho  Ho7  1  0.599253  0.599120  0.202507  1
  Ho  Ho8  1  0.599253  0.202507  0.599120  1
  Ho  Ho9  1  0.202599  0.599134  0.599134  1
  Ho  Ho10  1  0.059605  0.440198  0.440198  1
  Ho  Ho11  1  0.439593  0.060604  0.060604  1
  Ho  Ho12  1  0.439593  0.060604  0.439199  1
  Ho  Ho13  1  0.059605  0.440198  0.059999  1
  Ho  Ho14  1  0.439593  0.439199  0.060604  1
  Ho  Ho15  1  0.059605  0.059999  0.440198  1
  Cd  Cd16  1  0.503108  0.832297  0.832297  1
  In  In17  1  0.831943  0.833171  0.833171  1
  In  In18  1  0.831943  0.833171  0.501715  1
  In  In19  1  0.831943  0.501715  0.833171  1
  Ir  Ir20  1  0.391275  0.391276  0.391276  1
  Ir  Ir21  1  0.391275  0.391276  0.826172  1
  Ir  Ir22  1  0.391275  0.826172  0.391276  1
  Ir  Ir23  1  0.824861  0.391713  0.391713  1
