# generated using pymatgen
data_Ce2Dy2V5(Co5P4)3
_symmetry_space_group_name_H-M   'P 1'
_cell_length_a   3.65359400
_cell_length_b   10.43919986
_cell_length_c   11.99262058
_cell_angle_alpha   90.11058931
_cell_angle_beta   90.00000000
_cell_angle_gamma   90.00000000
_symmetry_Int_Tables_number   1
_chemical_formula_structural   Ce2Dy2V5(Co5P4)3
_chemical_formula_sum   'Ce2 Dy2 V5 Co15 P12'
_cell_volume   457.40486840
_cell_formula_units_Z   1
loop_
 _symmetry_equiv_pos_site_id
 _symmetry_equiv_pos_as_xyz
  1  'x, y, z'
loop_
 _atom_site_type_symbol
 _atom_site_label
 _atom_site_symmetry_multiplicity
 _atom_site_fract_x
 _atom_site_fract_y
 _atom_site_fract_z
 _atom_site_occupancy
  Ce  Ce0  1  0.750000  0.418746  0.291377  1
  Ce  Ce1  1  0.750000  0.080014  0.796668  1
  Dy  Dy2  1  0.250000  0.585270  0.709312  1
  Dy  Dy3  1  0.250000  0.918376  0.204117  1
  V  V4  1  0.250000  0.705330  0.987779  1
  V  V5  1  0.250000  0.796409  0.490496  1
  V  V6  1  0.750000  0.294049  0.012164  1
  V  V7  1  0.750000  0.205016  0.510232  1
  V  V8  1  0.250000  0.407390  0.490369  1
  Co  Co9  1  0.250000  0.093877  0.987012  1
  Co  Co10  1  0.750000  0.595340  0.512059  1
  Co  Co11  1  0.750000  0.904162  0.010962  1
  Co  Co12  1  0.250000  0.218583  0.174062  1
  Co  Co13  1  0.250000  0.275994  0.680373  1
  Co  Co14  1  0.750000  0.778748  0.822832  1
  Co  Co15  1  0.750000  0.721995  0.321654  1
  Co  Co16  1  0.250000  0.885231  0.697894  1
  Co  Co17  1  0.250000  0.617892  0.194438  1
  Co  Co18  1  0.750000  0.112867  0.300486  1
  Co  Co19  1  0.750000  0.385549  0.805691  1
  Co  Co20  1  0.250000  0.467503  0.935050  1
  Co  Co21  1  0.250000  0.031269  0.433165  1
  Co  Co22  1  0.750000  0.534659  0.065477  1
  Co  Co23  1  0.750000  0.965390  0.565543  1
  P  P24  1  0.250000  0.418253  0.111434  1
  P  P25  1  0.250000  0.080521  0.611863  1
  P  P26  1  0.750000  0.581775  0.887173  1
  P  P27  1  0.750000  0.918536  0.385354  1
  P  P28  1  0.250000  0.271927  0.869093  1
  P  P29  1  0.250000  0.226202  0.363552  1
  P  P30  1  0.750000  0.731250  0.132413  1
  P  P31  1  0.750000  0.769900  0.633325  1
  P  P32  1  0.250000  0.606285  0.387028  1
  P  P33  1  0.250000  0.896422  0.893082  1
  P  P34  1  0.750000  0.400720  0.619566  1
  P  P35  1  0.750000  0.098551  0.106908  1
