# generated using pymatgen
data_CeCl30
_symmetry_space_group_name_H-M   'P 1'
_cell_length_a   13.58166545
_cell_length_b   13.58166492
_cell_length_c   16.58382696
_cell_angle_alpha   83.48054096
_cell_angle_beta   83.48054107
_cell_angle_gamma   122.82390474
_symmetry_Int_Tables_number   1
_chemical_formula_structural   CeCl30
_chemical_formula_sum   'Ce1 Cl30'
_cell_volume   2497.25357231
_cell_formula_units_Z   1
loop_
 _symmetry_equiv_pos_site_id
 _symmetry_equiv_pos_as_xyz
  1  'x, y, z'
loop_
 _atom_site_type_symbol
 _atom_site_label
 _atom_site_symmetry_multiplicity
 _atom_site_fract_x
 _atom_site_fract_y
 _atom_site_fract_z
 _atom_site_occupancy
  Ce  Ce0  1  0.000000  0.000000  0.000000  1
  Cl  Cl1  1  0.937543  0.937543  0.171867  1
  Cl  Cl2  1  0.062457  0.062457  0.828133  1
  Cl  Cl3  1  0.066064  0.216197  0.005878  1
  Cl  Cl4  1  0.933936  0.783803  0.994122  1
  Cl  Cl5  1  0.216197  0.066064  0.005878  1
  Cl  Cl6  1  0.783803  0.933936  0.994122  1
  Cl  Cl7  1  0.203504  0.744018  0.061563  1
  Cl  Cl8  1  0.796496  0.255982  0.938437  1
  Cl  Cl9  1  0.702866  0.078536  0.258093  1
  Cl  Cl10  1  0.255982  0.796496  0.938437  1
  Cl  Cl11  1  0.297134  0.921464  0.741907  1
  Cl  Cl12  1  0.744018  0.203504  0.061563  1
  Cl  Cl13  1  0.983702  0.195334  0.776385  1
  Cl  Cl14  1  0.921464  0.297134  0.741907  1
  Cl  Cl15  1  0.016298  0.804666  0.223615  1
  Cl  Cl16  1  0.078536  0.702866  0.258093  1
  Cl  Cl17  1  0.804666  0.016298  0.223615  1
  Cl  Cl18  1  0.195334  0.983702  0.776385  1
  Cl  Cl19  1  0.464420  0.547826  0.259813  1
  Cl  Cl20  1  0.535580  0.452174  0.740187  1
  Cl  Cl21  1  0.507629  0.207042  0.451554  1
  Cl  Cl22  1  0.452174  0.535580  0.740187  1
  Cl  Cl23  1  0.492371  0.792958  0.548446  1
  Cl  Cl24  1  0.547826  0.464420  0.259813  1
  Cl  Cl25  1  0.239804  0.429676  0.543998  1
  Cl  Cl26  1  0.792958  0.492371  0.548446  1
  Cl  Cl27  1  0.760196  0.570324  0.456002  1
  Cl  Cl28  1  0.207042  0.507629  0.451554  1
  Cl  Cl29  1  0.570324  0.760196  0.456002  1
  Cl  Cl30  1  0.429676  0.239804  0.543998  1
