# generated using pymatgen
data_Er20Cd6NiRu
_symmetry_space_group_name_H-M   'P 1'
_cell_length_a   9.51613200
_cell_length_b   9.51613245
_cell_length_c   9.72810600
_cell_angle_alpha   90.00000000
_cell_angle_beta   90.00000000
_cell_angle_gamma   120.00000539
_symmetry_Int_Tables_number   1
_chemical_formula_structural   Er20Cd6NiRu
_chemical_formula_sum   'Er20 Cd6 Ni1 Ru1'
_cell_volume   762.92147186
_cell_formula_units_Z   1
loop_
 _symmetry_equiv_pos_site_id
 _symmetry_equiv_pos_as_xyz
  1  'x, y, z'
loop_
 _atom_site_type_symbol
 _atom_site_label
 _atom_site_symmetry_multiplicity
 _atom_site_fract_x
 _atom_site_fract_y
 _atom_site_fract_z
 _atom_site_occupancy
  Er  Er0  1  0.000000  0.000000  0.499904  1
  Er  Er1  1  0.000000  0.000000  0.000096  1
  Er  Er2  1  0.211398  0.788602  0.437481  1
  Er  Er3  1  0.211398  0.422797  0.437481  1
  Er  Er4  1  0.577203  0.788602  0.437481  1
  Er  Er5  1  0.790672  0.209328  0.559475  1
  Er  Er6  1  0.790672  0.581345  0.559475  1
  Er  Er7  1  0.418655  0.209328  0.559475  1
  Er  Er8  1  0.790672  0.209328  0.940525  1
  Er  Er9  1  0.790672  0.581345  0.940525  1
  Er  Er10  1  0.418655  0.209328  0.940525  1
  Er  Er11  1  0.211398  0.788602  0.062519  1
  Er  Er12  1  0.211398  0.422797  0.062519  1
  Er  Er13  1  0.577203  0.788602  0.062519  1
  Er  Er14  1  0.542346  0.457654  0.250000  1
  Er  Er15  1  0.542346  0.084692  0.250000  1
  Er  Er16  1  0.915308  0.457654  0.250000  1
  Er  Er17  1  0.458260  0.541740  0.750000  1
  Er  Er18  1  0.458260  0.916522  0.750000  1
  Er  Er19  1  0.083478  0.541740  0.750000  1
  Cd  Cd20  1  0.885165  0.114835  0.250000  1
  Cd  Cd21  1  0.885165  0.770331  0.250000  1
  Cd  Cd22  1  0.229669  0.114835  0.250000  1
  Cd  Cd23  1  0.114640  0.885360  0.750000  1
  Cd  Cd24  1  0.114640  0.229281  0.750000  1
  Cd  Cd25  1  0.770719  0.885360  0.750000  1
  Ni  Ni26  1  0.333333  0.666667  0.250000  1
  Ru  Ru27  1  0.666667  0.333333  0.750000  1
