# generated using pymatgen
data_Y7Zr(Si4W3)4
_symmetry_space_group_name_H-M   'P 1'
_cell_length_a   6.75839792
_cell_length_b   6.91792346
_cell_length_c   12.92093637
_cell_angle_alpha   90.11230677
_cell_angle_beta   89.98786372
_cell_angle_gamma   90.10479235
_symmetry_Int_Tables_number   1
_chemical_formula_structural   Y7Zr(Si4W3)4
_chemical_formula_sum   'Y7 Zr1 Si16 W12'
_cell_volume   604.10430311
_cell_formula_units_Z   1
loop_
 _symmetry_equiv_pos_site_id
 _symmetry_equiv_pos_as_xyz
  1  'x, y, z'
loop_
 _atom_site_type_symbol
 _atom_site_label
 _atom_site_symmetry_multiplicity
 _atom_site_fract_x
 _atom_site_fract_y
 _atom_site_fract_z
 _atom_site_occupancy
  Y  Y0  1  0.495123  0.667652  0.592972  1
  Y  Y1  1  0.996183  0.832870  0.906730  1
  Y  Y2  1  0.503833  0.332808  0.093647  1
  Y  Y3  1  0.003230  0.166328  0.408054  1
  Y  Y4  1  0.503282  0.332486  0.407764  1
  Y  Y5  1  0.003755  0.167568  0.093648  1
  Y  Y6  1  0.495786  0.667679  0.905190  1
  Zr  Zr7  1  0.993691  0.830345  0.596157  1
  Si  Si8  1  0.663904  0.956975  0.455497  1
  Si  Si9  1  0.161014  0.542054  0.046768  1
  Si  Si10  1  0.339556  0.043455  0.952584  1
  Si  Si11  1  0.840573  0.460170  0.546655  1
  Si  Si12  1  0.331825  0.039740  0.546211  1
  Si  Si13  1  0.839075  0.457054  0.952279  1
  Si  Si14  1  0.661083  0.956893  0.046514  1
  Si  Si15  1  0.160625  0.545421  0.455451  1
  Si  Si16  1  0.464420  0.369696  0.749717  1
  Si  Si17  1  0.964925  0.127341  0.748028  1
  Si  Si18  1  0.536897  0.630197  0.250433  1
  Si  Si19  1  0.036417  0.870809  0.250011  1
  Si  Si20  1  0.699998  0.865943  0.748892  1
  Si  Si21  1  0.194284  0.635220  0.748218  1
  Si  Si22  1  0.302822  0.133667  0.250623  1
  Si  Si23  1  0.803785  0.367328  0.250924  1
  W  W24  1  0.668000  0.160732  0.625354  1
  W  W25  1  0.166526  0.335645  0.872950  1
  W  W26  1  0.332737  0.837569  0.124979  1
  W  W27  1  0.834415  0.665484  0.376479  1
  W  W28  1  0.332509  0.836895  0.374643  1
  W  W29  1  0.833438  0.664358  0.125879  1
  W  W30  1  0.668569  0.161461  0.874018  1
  W  W31  1  0.168140  0.336562  0.624935  1
  W  W32  1  0.833487  0.501573  0.748301  1
  W  W33  1  0.334009  0.999284  0.747339  1
  W  W34  1  0.166591  0.502022  0.250505  1
  W  W35  1  0.665492  0.998715  0.251652  1
