# generated using pymatgen
data_K12Sr6Zr(SnAs6)2
_symmetry_space_group_name_H-M   'P 1'
_cell_length_a   18.28204151
_cell_length_b   18.28204209
_cell_length_c   7.78778108
_cell_angle_alpha   90.00822610
_cell_angle_beta   90.00822794
_cell_angle_gamma   119.97420637
_symmetry_Int_Tables_number   1
_chemical_formula_structural   K12Sr6Zr(SnAs6)2
_chemical_formula_sum   'K24 Sr12 Zr2 Sn4 As24'
_cell_volume   2254.79240941
_cell_formula_units_Z   2
loop_
 _symmetry_equiv_pos_site_id
 _symmetry_equiv_pos_as_xyz
  1  'x, y, z'
loop_
 _atom_site_type_symbol
 _atom_site_label
 _atom_site_symmetry_multiplicity
 _atom_site_fract_x
 _atom_site_fract_y
 _atom_site_fract_z
 _atom_site_occupancy
  K  K0  1  0.533036  0.000064  0.121614  1
  K  K1  1  0.468550  0.468549  0.120862  1
  K  K2  1  0.000064  0.533037  0.121614  1
  K  K3  1  0.134390  0.999890  0.292242  1
  K  K4  1  0.999890  0.134390  0.292242  1
  K  K5  1  0.864949  0.864949  0.292955  1
  K  K6  1  0.524336  0.183272  0.309243  1
  K  K7  1  0.816775  0.341101  0.309312  1
  K  K8  1  0.658926  0.476804  0.309746  1
  K  K9  1  0.183272  0.524336  0.309243  1
  K  K10  1  0.476803  0.658926  0.309746  1
  K  K11  1  0.341101  0.816775  0.309312  1
  K  K12  1  0.468595  0.000142  0.616496  1
  K  K13  1  0.000142  0.468594  0.616496  1
  K  K14  1  0.531727  0.531727  0.621848  1
  K  K15  1  0.866331  0.000627  0.792791  1
  K  K16  1  0.133388  0.133388  0.792776  1
  K  K17  1  0.000627  0.866331  0.792791  1
  K  K18  1  0.658134  0.184022  0.809983  1
  K  K19  1  0.524533  0.340634  0.809478  1
  K  K20  1  0.817115  0.474851  0.810148  1
  K  K21  1  0.340634  0.524533  0.809478  1
  K  K22  1  0.184022  0.658134  0.809983  1
  K  K23  1  0.474850  0.817115  0.810148  1
  Sr  Sr24  1  0.806756  0.137798  0.119592  1
  Sr  Sr25  1  0.330853  0.192906  0.119644  1
  Sr  Sr26  1  0.192906  0.330853  0.119644  1
  Sr  Sr27  1  0.859657  0.669464  0.118369  1
  Sr  Sr28  1  0.137799  0.806756  0.119592  1
  Sr  Sr29  1  0.669464  0.859657  0.118369  1
  Sr  Sr30  1  0.330771  0.139221  0.617344  1
  Sr  Sr31  1  0.860497  0.191534  0.617305  1
  Sr  Sr32  1  0.139222  0.330771  0.617344  1
  Sr  Sr33  1  0.809563  0.669382  0.619353  1
  Sr  Sr34  1  0.669382  0.809563  0.619353  1
  Sr  Sr35  1  0.191534  0.860497  0.617305  1
  Zr  Zr36  1  0.330157  0.999937  0.003783  1
  Zr  Zr37  1  0.999937  0.330157  0.003783  1
  Sn  Sn38  1  0.668797  0.668797  0.001926  1
  Sn  Sn39  1  0.668879  0.000113  0.501793  1
  Sn  Sn40  1  0.331399  0.331399  0.501577  1
  Sn  Sn41  1  0.000113  0.668879  0.501793  1
  As  As42  1  0.316994  0.000058  0.342926  1
  As  As43  1  0.000058  0.316993  0.342926  1
  As  As44  1  0.681676  0.681675  0.346275  1
  As  As45  1  0.805974  0.000012  0.380547  1
  As  As46  1  0.193919  0.193919  0.381278  1
  As  As47  1  0.000012  0.805974  0.380547  1
  As  As48  1  0.681647  0.144241  0.396041  1
  As  As49  1  0.462524  0.318499  0.395385  1
  As  As50  1  0.318499  0.462524  0.395385  1
  As  As51  1  0.855791  0.538031  0.395596  1
  As  As52  1  0.144241  0.681647  0.396041  1
  As  As53  1  0.538032  0.855792  0.395596  1
  As  As54  1  0.681996  0.999962  0.845195  1
  As  As55  1  0.318138  0.318138  0.844808  1
  As  As56  1  0.999962  0.681996  0.845195  1
  As  As57  1  0.196001  0.000058  0.883181  1
  As  As58  1  0.000058  0.196001  0.883181  1
  As  As59  1  0.805920  0.805920  0.880555  1
  As  As60  1  0.460196  0.142038  0.897917  1
  As  As61  1  0.857886  0.318414  0.897687  1
  As  As62  1  0.142038  0.460197  0.897917  1
  As  As63  1  0.682235  0.537918  0.895613  1
  As  As64  1  0.537918  0.682235  0.895613  1
  As  As65  1  0.318414  0.857887  0.897687  1
