# generated using pymatgen
data_TiNb2Mo(PO4)6
_symmetry_space_group_name_H-M   'P 1'
_cell_length_a   8.73912104
_cell_length_b   8.74620905
_cell_length_c   9.04116066
_cell_angle_alpha   89.69843025
_cell_angle_beta   60.98881313
_cell_angle_gamma   119.76710218
_symmetry_Int_Tables_number   1
_chemical_formula_structural   TiNb2Mo(PO4)6
_chemical_formula_sum   'Ti1 Nb2 Mo1 P6 O24'
_cell_volume   496.28224367
_cell_formula_units_Z   1
loop_
 _symmetry_equiv_pos_site_id
 _symmetry_equiv_pos_as_xyz
  1  'x, y, z'
loop_
 _atom_site_type_symbol
 _atom_site_label
 _atom_site_symmetry_multiplicity
 _atom_site_fract_x
 _atom_site_fract_y
 _atom_site_fract_z
 _atom_site_occupancy
  Ti  Ti0  1  0.214088  0.358045  0.428967  1
  Nb  Nb1  1  0.781384  0.141021  0.078590  1
  Nb  Nb2  1  0.783584  0.641181  0.576731  1
  Mo  Mo3  1  0.214334  0.858573  0.929258  1
  P  P4  1  0.280170  0.036967  0.252499  1
  P  P5  1  0.712356  0.743691  0.250360  1
  P  P6  1  0.280281  0.247770  0.747561  1
  P  P7  1  0.721452  0.974549  0.746742  1
  P  P8  1  0.009119  0.534998  0.744485  1
  P  P9  1  0.002324  0.465582  0.253028  1
  O  O10  1  0.487552  0.072127  0.224803  1
  O  O11  1  0.867184  0.364370  0.914993  1
  O  O12  1  0.911901  0.146865  0.583983  1
  O  O13  1  0.849523  0.550467  0.721656  1
  O  O14  1  0.134532  0.628934  0.083967  1
  O  O15  1  0.091654  0.856798  0.415415  1
  O  O16  1  0.149949  0.442558  0.280506  1
  O  O17  1  0.148812  0.712915  0.764909  1
  O  O18  1  0.145641  0.503084  0.579741  1
  O  O19  1  0.271234  0.203506  0.290803  1
  O  O20  1  0.284891  0.016280  0.084184  1
  O  O21  1  0.701119  0.913694  0.226785  1
  O  O22  1  0.511361  0.567158  0.284945  1
  O  O23  1  0.267664  0.270282  0.587458  1
  O  O24  1  0.852310  0.491440  0.418033  1
  O  O25  1  0.084394  0.217239  0.921242  1
  O  O26  1  0.906712  0.776386  0.076964  1
  O  O27  1  0.516107  0.931524  0.772437  1
  O  O28  1  0.731321  0.731495  0.410852  1
  O  O29  1  0.480693  0.429119  0.718965  1
  O  O30  1  0.299433  0.085438  0.767078  1
  O  O31  1  0.720607  0.998320  0.916921  1
  O  O32  1  0.729638  0.801703  0.717260  1
  O  O33  1  0.856676  0.285919  0.227878  1
