# generated using pymatgen
data_Np3Sb4Pt3
_symmetry_space_group_name_H-M   'P 1'
_cell_length_a   8.46214423
_cell_length_b   8.46214490
_cell_length_c   8.46214500
_cell_angle_alpha   109.47122087
_cell_angle_beta   109.47122248
_cell_angle_gamma   109.47122395
_symmetry_Int_Tables_number   1
_chemical_formula_structural   Np3Sb4Pt3
_chemical_formula_sum   'Np6 Sb8 Pt6'
_cell_volume   466.46538773
_cell_formula_units_Z   2
loop_
 _symmetry_equiv_pos_site_id
 _symmetry_equiv_pos_as_xyz
  1  'x, y, z'
loop_
 _atom_site_type_symbol
 _atom_site_label
 _atom_site_symmetry_multiplicity
 _atom_site_fract_x
 _atom_site_fract_y
 _atom_site_fract_z
 _atom_site_occupancy
  Np  Np0  1  0.875000  0.250000  0.125000  1
  Np  Np1  1  0.625000  0.750000  0.375000  1
  Np  Np2  1  0.250000  0.125000  0.875000  1
  Np  Np3  1  0.750000  0.375000  0.625000  1
  Np  Np4  1  0.125000  0.875000  0.250000  1
  Np  Np5  1  0.375000  0.625000  0.750000  1
  Sb  Sb6  1  0.676616  0.500000  0.000000  1
  Sb  Sb7  1  0.500000  0.000000  0.676616  1
  Sb  Sb8  1  0.000000  0.676616  0.500000  1
  Sb  Sb9  1  0.823384  0.823384  0.823384  1
  Sb  Sb10  1  0.500000  0.000000  0.176616  1
  Sb  Sb11  1  0.176616  0.500000  0.000000  1
  Sb  Sb12  1  0.000000  0.176616  0.500000  1
  Sb  Sb13  1  0.323384  0.323384  0.323384  1
  Pt  Pt14  1  0.375000  0.250000  0.625000  1
  Pt  Pt15  1  0.125000  0.750000  0.875000  1
  Pt  Pt16  1  0.250000  0.625000  0.375000  1
  Pt  Pt17  1  0.750000  0.875000  0.125000  1
  Pt  Pt18  1  0.625000  0.375000  0.250000  1
  Pt  Pt19  1  0.875000  0.125000  0.750000  1
