# generated using pymatgen
data_Sc5Ti3V12Si15Ge
_symmetry_space_group_name_H-M   'P 1'
_cell_length_a   6.58050595
_cell_length_b   6.59090326
_cell_length_c   12.16511624
_cell_angle_alpha   90.11748036
_cell_angle_beta   89.95481998
_cell_angle_gamma   89.94754249
_symmetry_Int_Tables_number   1
_chemical_formula_structural   Sc5Ti3V12Si15Ge
_chemical_formula_sum   'Sc5 Ti3 V12 Si15 Ge1'
_cell_volume   527.61757759
_cell_formula_units_Z   1
loop_
 _symmetry_equiv_pos_site_id
 _symmetry_equiv_pos_as_xyz
  1  'x, y, z'
loop_
 _atom_site_type_symbol
 _atom_site_label
 _atom_site_symmetry_multiplicity
 _atom_site_fract_x
 _atom_site_fract_y
 _atom_site_fract_z
 _atom_site_occupancy
  Sc  Sc0  1  0.500603  0.835710  0.721769  1
  Sc  Sc1  1  0.502944  0.165545  0.221500  1
  Sc  Sc2  1  0.999041  0.337697  0.529020  1
  Sc  Sc3  1  0.666297  0.999278  0.970184  1
  Sc  Sc4  1  0.337922  0.998731  0.469525  1
  Ti  Ti5  1  0.005144  0.657140  0.028928  1
  Ti  Ti6  1  0.840440  0.507096  0.279956  1
  Ti  Ti7  1  0.157777  0.492380  0.779691  1
  V  V8  1  0.329352  0.338936  0.999790  1
  V  V9  1  0.163364  0.828123  0.250918  1
  V  V10  1  0.835985  0.169094  0.751238  1
  V  V11  1  0.668827  0.666822  0.500439  1
  V  V12  1  0.998223  0.159914  0.127177  1
  V  V13  1  0.342335  0.505167  0.375376  1
  V  V14  1  0.657488  0.497299  0.877816  1
  V  V15  1  0.508519  0.346625  0.624160  1
  V  V16  1  0.491908  0.651402  0.123257  1
  V  V17  1  0.995288  0.843407  0.627972  1
  V  V18  1  0.154415  0.008550  0.872075  1
  V  V19  1  0.843144  0.990750  0.371738  1
  Si  Si20  1  0.541294  0.791153  0.313898  1
  Si  Si21  1  0.460194  0.208858  0.815317  1
  Si  Si22  1  0.799186  0.539905  0.686277  1
  Si  Si23  1  0.198733  0.461095  0.184854  1
  Si  Si24  1  0.706336  0.039980  0.564534  1
  Si  Si25  1  0.960976  0.299656  0.935017  1
  Si  Si26  1  0.038471  0.703732  0.435065  1
  Si  Si27  1  0.708589  0.374592  0.072974  1
  Si  Si28  1  0.125988  0.206554  0.319976  1
  Si  Si29  1  0.874923  0.790209  0.823404  1
  Si  Si30  1  0.205894  0.133832  0.679645  1
  Si  Si31  1  0.797729  0.861281  0.176447  1
  Si  Si32  1  0.294352  0.629413  0.572656  1
  Si  Si33  1  0.362021  0.699891  0.925086  1
  Si  Si34  1  0.633974  0.298662  0.426497  1
  Ge  Ge35  1  0.292326  0.961524  0.065828  1
