# generated using pymatgen
data_Th8BeSi11Pd4
_symmetry_space_group_name_H-M   'P 1'
_cell_length_a   8.23860477
_cell_length_b   8.23860526
_cell_length_c   8.46609700
_cell_angle_alpha   90.00006233
_cell_angle_beta   89.99993833
_cell_angle_gamma   120.04940214
_symmetry_Int_Tables_number   1
_chemical_formula_structural   Th8BeSi11Pd4
_chemical_formula_sum   'Th8 Be1 Si11 Pd4'
_cell_volume   497.39890467
_cell_formula_units_Z   1
loop_
 _symmetry_equiv_pos_site_id
 _symmetry_equiv_pos_as_xyz
  1  'x, y, z'
loop_
 _atom_site_type_symbol
 _atom_site_label
 _atom_site_symmetry_multiplicity
 _atom_site_fract_x
 _atom_site_fract_y
 _atom_site_fract_z
 _atom_site_occupancy
  Th  Th0  1  0.499758  0.500242  0.752374  1
  Th  Th1  1  0.499935  0.500065  0.247600  1
  Th  Th2  1  0.998276  0.498006  0.752896  1
  Th  Th3  1  0.997902  0.497828  0.247123  1
  Th  Th4  1  0.501994  0.001724  0.752896  1
  Th  Th5  1  0.502172  0.002098  0.247123  1
  Th  Th6  1  0.999633  0.000367  0.750412  1
  Th  Th7  1  0.999630  0.000370  0.249607  1
  Be  Be8  1  0.836829  0.163171  0.999825  1
  Si  Si9  1  0.165282  0.834718  0.000182  1
  Si  Si10  1  0.332037  0.168821  0.999835  1
  Si  Si11  1  0.166079  0.833921  0.499785  1
  Si  Si12  1  0.677498  0.848995  0.000133  1
  Si  Si13  1  0.834514  0.165486  0.500200  1
  Si  Si14  1  0.831179  0.667963  0.999835  1
  Si  Si15  1  0.667988  0.833592  0.499815  1
  Si  Si16  1  0.151005  0.322502  0.000133  1
  Si  Si17  1  0.331597  0.166032  0.500191  1
  Si  Si18  1  0.166408  0.332012  0.499815  1
  Si  Si19  1  0.833968  0.668403  0.500191  1
  Pd  Pd20  1  0.671823  0.328177  0.999709  1
  Pd  Pd21  1  0.334448  0.665552  0.000330  1
  Pd  Pd22  1  0.333178  0.666822  0.499727  1
  Pd  Pd23  1  0.666867  0.333133  0.500264  1
