# generated using pymatgen
data_Ca4Bi3Sb3Rh7
_symmetry_space_group_name_H-M   'P 1'
_cell_length_a   7.72393575
_cell_length_b   7.74312778
_cell_length_c   7.72393608
_cell_angle_alpha   109.52156589
_cell_angle_beta   109.42084458
_cell_angle_gamma   109.52156548
_symmetry_Int_Tables_number   1
_chemical_formula_structural   Ca4Bi3Sb3Rh7
_chemical_formula_sum   'Ca4 Bi3 Sb3 Rh7'
_cell_volume   355.38701682
_cell_formula_units_Z   1
loop_
 _symmetry_equiv_pos_site_id
 _symmetry_equiv_pos_as_xyz
  1  'x, y, z'
loop_
 _atom_site_type_symbol
 _atom_site_label
 _atom_site_symmetry_multiplicity
 _atom_site_fract_x
 _atom_site_fract_y
 _atom_site_fract_z
 _atom_site_occupancy
  Ca  Ca0  1  0.507223  0.002663  0.000000  1
  Ca  Ca1  1  0.000000  0.481811  0.000000  1
  Ca  Ca2  1  0.000000  0.002663  0.507223  1
  Ca  Ca3  1  0.492777  0.495440  0.492777  1
  Bi  Bi4  1  0.308898  0.996195  0.308898  1
  Bi  Bi5  1  0.000000  0.687298  0.691102  1
  Bi  Bi6  1  0.691102  0.687298  0.000000  1
  Sb  Sb7  1  0.674645  0.997449  0.674645  1
  Sb  Sb8  1  0.000000  0.322804  0.325355  1
  Sb  Sb9  1  0.325355  0.322804  0.000000  1
  Rh  Rh10  1  0.249428  0.494505  0.748612  1
  Rh  Rh11  1  0.499185  0.245077  0.750572  1
  Rh  Rh12  1  0.750572  0.245077  0.499185  1
  Rh  Rh13  1  0.500815  0.745892  0.251388  1
  Rh  Rh14  1  0.000000  0.032629  0.000000  1
  Rh  Rh15  1  0.251388  0.745892  0.500815  1
  Rh  Rh16  1  0.748612  0.494505  0.249428  1
