# generated using pymatgen
data_RbCrPtO4
_symmetry_space_group_name_H-M   'P 1'
_cell_length_a   6.14651882
_cell_length_b   7.76925538
_cell_length_c   6.14651873
_cell_angle_alpha   124.24468146
_cell_angle_beta   119.47536768
_cell_angle_gamma   80.74251589
_symmetry_Int_Tables_number   1
_chemical_formula_structural   RbCrPtO4
_chemical_formula_sum   'Rb2 Cr2 Pt2 O8'
_cell_volume   208.46791869
_cell_formula_units_Z   2
loop_
 _symmetry_equiv_pos_site_id
 _symmetry_equiv_pos_as_xyz
  1  'x, y, z'
loop_
 _atom_site_type_symbol
 _atom_site_label
 _atom_site_symmetry_multiplicity
 _atom_site_fract_x
 _atom_site_fract_y
 _atom_site_fract_z
 _atom_site_occupancy
  Rb  Rb0  1  0.578955  0.973100  0.894145  1
  Rb  Rb1  1  0.923207  0.955071  0.531864  1
  Cr  Cr2  1  0.497350  0.458215  0.460864  1
  Cr  Cr3  1  0.002182  0.470063  0.967882  1
  Pt  Pt4  1  0.000955  0.464404  0.465792  1
  Pt  Pt5  1  0.498612  0.464404  0.963448  1
  O  O6  1  0.801412  0.305537  0.507352  1
  O  O7  1  0.298186  0.305537  0.004123  1
  O  O8  1  0.300327  0.302162  0.501835  1
  O  O9  1  0.199156  0.626513  0.927359  1
  O  O10  1  0.805357  0.306907  0.001549  1
  O  O11  1  0.698103  0.622983  0.921257  1
  O  O12  1  0.694471  0.622122  0.427652  1
  O  O13  1  0.201727  0.622983  0.424879  1
