# generated using pymatgen
data_Tm15Lu5Pt16
_symmetry_space_group_name_H-M   'P 1'
_cell_length_a   7.35331574
_cell_length_b   7.44340769
_cell_length_c   14.65623138
_cell_angle_alpha   89.95487716
_cell_angle_beta   90.04716295
_cell_angle_gamma   90.02039242
_symmetry_Int_Tables_number   1
_chemical_formula_structural   Tm15Lu5Pt16
_chemical_formula_sum   'Tm15 Lu5 Pt16'
_cell_volume   802.18959520
_cell_formula_units_Z   1
loop_
 _symmetry_equiv_pos_site_id
 _symmetry_equiv_pos_as_xyz
  1  'x, y, z'
loop_
 _atom_site_type_symbol
 _atom_site_label
 _atom_site_symmetry_multiplicity
 _atom_site_fract_x
 _atom_site_fract_y
 _atom_site_fract_z
 _atom_site_occupancy
  Tm  Tm0  1  0.633747  0.167914  0.621125  1
  Tm  Tm1  1  0.133573  0.331823  0.878460  1
  Tm  Tm2  1  0.366691  0.831715  0.121221  1
  Tm  Tm3  1  0.867457  0.668464  0.379005  1
  Tm  Tm4  1  0.366666  0.831999  0.378760  1
  Tm  Tm5  1  0.866464  0.668196  0.121346  1
  Tm  Tm6  1  0.633516  0.168290  0.878496  1
  Tm  Tm7  1  0.133164  0.331899  0.621282  1
  Tm  Tm8  1  0.477972  0.674469  0.595726  1
  Tm  Tm9  1  0.978433  0.825575  0.904269  1
  Tm  Tm10  1  0.521543  0.325769  0.095626  1
  Tm  Tm11  1  0.021621  0.173546  0.404556  1
  Tm  Tm12  1  0.522251  0.325502  0.404245  1
  Tm  Tm13  1  0.021574  0.174590  0.095631  1
  Tm  Tm14  1  0.478564  0.674465  0.904157  1
  Lu  Lu15  1  0.977938  0.825624  0.596036  1
  Lu  Lu16  1  0.796128  0.509851  0.749729  1
  Lu  Lu17  1  0.296184  0.990366  0.749687  1
  Lu  Lu18  1  0.203814  0.490103  0.250143  1
  Lu  Lu19  1  0.703764  0.009816  0.250098  1
  Pt  Pt20  1  0.701030  0.973645  0.457939  1
  Pt  Pt21  1  0.200409  0.525519  0.042731  1
  Pt  Pt22  1  0.299446  0.025394  0.957017  1
  Pt  Pt23  1  0.799333  0.476141  0.543494  1
  Pt  Pt24  1  0.297525  0.024247  0.543045  1
  Pt  Pt25  1  0.799673  0.474607  0.957145  1
  Pt  Pt26  1  0.700690  0.974756  0.042830  1
  Pt  Pt27  1  0.201415  0.524857  0.456980  1
  Pt  Pt28  1  0.429007  0.385314  0.749799  1
  Pt  Pt29  1  0.929252  0.114488  0.749868  1
  Pt  Pt30  1  0.570990  0.615378  0.250167  1
  Pt  Pt31  1  0.070849  0.885022  0.249910  1
  Pt  Pt32  1  0.655797  0.856114  0.749833  1
  Pt  Pt33  1  0.155086  0.644432  0.749556  1
  Pt  Pt34  1  0.344333  0.143892  0.249971  1
  Pt  Pt35  1  0.844101  0.356221  0.250117  1
