# generated using pymatgen
data_Cs3Tc2F11
_symmetry_space_group_name_H-M   'P 1'
_cell_length_a   6.49722735
_cell_length_b   6.49722673
_cell_length_c   10.03771600
_cell_angle_alpha   108.88324247
_cell_angle_beta   108.88324062
_cell_angle_gamma   89.99999202
_symmetry_Int_Tables_number   1
_chemical_formula_structural   Cs3Tc2F11
_chemical_formula_sum   'Cs3 Tc2 F11'
_cell_volume   376.74337163
_cell_formula_units_Z   1
loop_
 _symmetry_equiv_pos_site_id
 _symmetry_equiv_pos_as_xyz
  1  'x, y, z'
loop_
 _atom_site_type_symbol
 _atom_site_label
 _atom_site_symmetry_multiplicity
 _atom_site_fract_x
 _atom_site_fract_y
 _atom_site_fract_z
 _atom_site_occupancy
  Cs  Cs0  1  0.749999  0.250002  0.500000  1
  Cs  Cs1  1  0.250002  0.749999  0.500000  1
  Cs  Cs2  1  0.000000  0.000000  0.000000  1
  Tc  Tc3  1  0.614598  0.614598  0.229144  1
  Tc  Tc4  1  0.385403  0.385402  0.770857  1
  F  F5  1  0.500000  0.500000  0.000000  1
  F  F6  1  0.402067  0.402068  0.231258  1
  F  F7  1  0.829169  0.402041  0.231199  1
  F  F8  1  0.402041  0.829169  0.231199  1
  F  F9  1  0.829220  0.829220  0.231204  1
  F  F10  1  0.275954  0.275954  0.551953  1
  F  F11  1  0.724048  0.724048  0.448047  1
  F  F12  1  0.170781  0.170781  0.768797  1
  F  F13  1  0.597960  0.170832  0.768802  1
  F  F14  1  0.170832  0.597959  0.768802  1
  F  F15  1  0.597933  0.597933  0.768743  1
