# generated using pymatgen
data_Er4Tm6CoRu3
_symmetry_space_group_name_H-M   'P 1'
_cell_length_a   6.24251308
_cell_length_b   7.20135584
_cell_length_c   8.34566417
_cell_angle_alpha   96.70472052
_cell_angle_beta   111.77158756
_cell_angle_gamma   90.27541007
_symmetry_Int_Tables_number   1
_chemical_formula_structural   Er4Tm6CoRu3
_chemical_formula_sum   'Er4 Tm6 Co1 Ru3'
_cell_volume   345.56042472
_cell_formula_units_Z   1
loop_
 _symmetry_equiv_pos_site_id
 _symmetry_equiv_pos_as_xyz
  1  'x, y, z'
loop_
 _atom_site_type_symbol
 _atom_site_label
 _atom_site_symmetry_multiplicity
 _atom_site_fract_x
 _atom_site_fract_y
 _atom_site_fract_z
 _atom_site_occupancy
  Er  Er0  1  0.789690  0.088477  0.814116  1
  Er  Er1  1  0.979114  0.415906  0.189360  1
  Er  Er2  1  0.209411  0.916864  0.185300  1
  Er  Er3  1  0.014236  0.584215  0.814226  1
  Tm  Tm4  1  0.209036  0.186718  0.566200  1
  Tm  Tm5  1  0.644492  0.315596  0.435219  1
  Tm  Tm6  1  0.794629  0.814916  0.435873  1
  Tm  Tm7  1  0.358322  0.680633  0.566646  1
  Tm  Tm8  1  0.421062  0.252976  0.998454  1
  Tm  Tm9  1  0.579748  0.745947  0.997461  1
  Co  Co10  1  0.602496  0.422096  0.776564  1
  Ru  Ru11  1  0.822155  0.074981  0.218838  1
  Ru  Ru12  1  0.398202  0.575339  0.221499  1
  Ru  Ru13  1  0.177405  0.925338  0.780241  1
