# generated using pymatgen
data_Eu3HoSn3WO14
_symmetry_space_group_name_H-M   'P 1'
_cell_length_a   7.52662844
_cell_length_b   7.51220329
_cell_length_c   7.51220402
_cell_angle_alpha   59.68106577
_cell_angle_beta   59.83529190
_cell_angle_gamma   59.83530040
_symmetry_Int_Tables_number   1
_chemical_formula_structural   Eu3HoSn3WO14
_chemical_formula_sum   'Eu3 Ho1 Sn3 W1 O14'
_cell_volume   298.86976467
_cell_formula_units_Z   1
loop_
 _symmetry_equiv_pos_site_id
 _symmetry_equiv_pos_as_xyz
  1  'x, y, z'
loop_
 _atom_site_type_symbol
 _atom_site_label
 _atom_site_symmetry_multiplicity
 _atom_site_fract_x
 _atom_site_fract_y
 _atom_site_fract_z
 _atom_site_occupancy
  Eu  Eu0  1  0.125000  0.125000  0.125000  1
  Eu  Eu1  1  0.125000  0.625000  0.125000  1
  Eu  Eu2  1  0.125000  0.125000  0.625000  1
  Ho  Ho3  1  0.625000  0.125000  0.125000  1
  Sn  Sn4  1  0.125000  0.625000  0.625000  1
  Sn  Sn5  1  0.625000  0.125000  0.625000  1
  Sn  Sn6  1  0.625000  0.625000  0.125000  1
  W  W7  1  0.625000  0.625000  0.625000  1
  O  O8  1  0.959224  0.543541  0.959940  1
  O  O9  1  0.701553  0.288590  0.288590  1
  O  O10  1  0.305212  0.702969  0.702969  1
  O  O11  1  0.699942  0.301256  0.709872  1
  O  O12  1  0.290776  0.290060  0.706459  1
  O  O13  1  0.699942  0.709872  0.301256  1
  O  O14  1  0.959224  0.959940  0.543541  1
  O  O15  1  0.548447  0.961410  0.961410  1
  O  O16  1  0.944788  0.547031  0.547031  1
  O  O17  1  0.550058  0.540128  0.948744  1
  O  O18  1  0.290776  0.706459  0.290060  1
  O  O19  1  0.550058  0.948744  0.540128  1
  O  O20  1  0.986673  0.003780  0.003780  1
  O  O21  1  0.263327  0.246220  0.246220  1
