# generated using pymatgen
data_Pr4Nd2ScCo16NiP12
_symmetry_space_group_name_H-M   'P 1'
_cell_length_a   3.78841900
_cell_length_b   10.74762100
_cell_length_c   12.53097800
_cell_angle_alpha   90.00000000
_cell_angle_beta   90.00000000
_cell_angle_gamma   90.00000000
_symmetry_Int_Tables_number   1
_chemical_formula_structural   Pr4Nd2ScCo16NiP12
_chemical_formula_sum   'Pr4 Nd2 Sc1 Co16 Ni1 P12'
_cell_volume   510.21746049
_cell_formula_units_Z   1
loop_
 _symmetry_equiv_pos_site_id
 _symmetry_equiv_pos_as_xyz
  1  'x, y, z'
loop_
 _atom_site_type_symbol
 _atom_site_label
 _atom_site_symmetry_multiplicity
 _atom_site_fract_x
 _atom_site_fract_y
 _atom_site_fract_z
 _atom_site_occupancy
  Pr  Pr0  1  0.000000  0.500000  0.525996  1
  Pr  Pr1  1  0.500000  0.000000  0.478585  1
  Pr  Pr2  1  0.500000  0.819473  0.207522  1
  Pr  Pr3  1  0.500000  0.180527  0.207522  1
  Nd  Nd4  1  0.000000  0.685101  0.796634  1
  Nd  Nd5  1  0.000000  0.314899  0.796634  1
  Sc  Sc6  1  0.500000  0.500000  0.149606  1
  Co  Co7  1  0.000000  0.000000  0.838906  1
  Co  Co8  1  0.000000  0.000000  0.294423  1
  Co  Co9  1  0.000000  0.500000  0.984364  1
  Co  Co10  1  0.500000  0.000000  0.011099  1
  Co  Co11  1  0.500000  0.327142  0.989869  1
  Co  Co12  1  0.500000  0.672858  0.989869  1
  Co  Co13  1  0.000000  0.161474  0.999756  1
  Co  Co14  1  0.000000  0.838526  0.999756  1
  Co  Co15  1  0.500000  0.295496  0.434563  1
  Co  Co16  1  0.500000  0.704504  0.434563  1
  Co  Co17  1  0.000000  0.201958  0.571525  1
  Co  Co18  1  0.000000  0.798042  0.571525  1
  Co  Co19  1  0.500000  0.882557  0.709947  1
  Co  Co20  1  0.500000  0.117443  0.709947  1
  Co  Co21  1  0.000000  0.619607  0.298641  1
  Co  Co22  1  0.000000  0.380393  0.298641  1
  Ni  Ni23  1  0.500000  0.500000  0.705590  1
  P  P24  1  0.500000  0.500000  0.887032  1
  P  P25  1  0.000000  0.000000  0.111922  1
  P  P26  1  0.500000  0.500000  0.352552  1
  P  P27  1  0.000000  0.000000  0.660382  1
  P  P28  1  0.500000  0.302315  0.615742  1
  P  P29  1  0.500000  0.697685  0.615742  1
  P  P30  1  0.000000  0.194351  0.388846  1
  P  P31  1  0.000000  0.805649  0.388846  1
  P  P32  1  0.500000  0.853475  0.891202  1
  P  P33  1  0.500000  0.146525  0.891202  1
  P  P34  1  0.000000  0.661857  0.095525  1
  P  P35  1  0.000000  0.338143  0.095525  1
