# generated using pymatgen
data_Dy20Bi12C
_symmetry_space_group_name_H-M   'P 1'
_cell_length_a   15.87576500
_cell_length_b   6.41671024
_cell_length_c   9.17106201
_cell_angle_alpha   89.94945779
_cell_angle_beta   90.00000000
_cell_angle_gamma   90.00000000
_symmetry_Int_Tables_number   1
_chemical_formula_structural   Dy20Bi12C
_chemical_formula_sum   'Dy20 Bi12 C1'
_cell_volume   934.25740965
_cell_formula_units_Z   1
loop_
 _symmetry_equiv_pos_site_id
 _symmetry_equiv_pos_as_xyz
  1  'x, y, z'
loop_
 _atom_site_type_symbol
 _atom_site_label
 _atom_site_symmetry_multiplicity
 _atom_site_fract_x
 _atom_site_fract_y
 _atom_site_fract_z
 _atom_site_occupancy
  Dy  Dy0  1  0.665749  0.500000  0.500000  1
  Dy  Dy1  1  0.166751  0.500000  0.000000  1
  Dy  Dy2  1  0.833249  0.500000  0.000000  1
  Dy  Dy3  1  0.334251  0.500000  0.500000  1
  Dy  Dy4  1  0.834603  0.000000  0.000000  1
  Dy  Dy5  1  0.333686  0.000000  0.500000  1
  Dy  Dy6  1  0.666314  0.000000  0.500000  1
  Dy  Dy7  1  0.165397  0.000000  0.000000  1
  Dy  Dy8  1  0.500000  0.249192  0.755215  1
  Dy  Dy9  1  0.000000  0.271437  0.274801  1
  Dy  Dy10  1  0.622136  0.250840  0.119480  1
  Dy  Dy11  1  0.111278  0.270418  0.610756  1
  Dy  Dy12  1  0.888722  0.270418  0.610756  1
  Dy  Dy13  1  0.377864  0.250840  0.119480  1
  Dy  Dy14  1  0.000000  0.728563  0.725199  1
  Dy  Dy15  1  0.500000  0.750808  0.244785  1
  Dy  Dy16  1  0.888722  0.729582  0.389244  1
  Dy  Dy17  1  0.377864  0.749160  0.880520  1
  Dy  Dy18  1  0.622136  0.749160  0.880520  1
  Dy  Dy19  1  0.111278  0.729582  0.389244  1
  Bi  Bi20  1  0.000000  0.250234  0.894580  1
  Bi  Bi21  1  0.500000  0.248097  0.387220  1
  Bi  Bi22  1  0.802364  0.246555  0.303279  1
  Bi  Bi23  1  0.303961  0.250482  0.804124  1
  Bi  Bi24  1  0.696039  0.250482  0.804124  1
  Bi  Bi25  1  0.197636  0.246555  0.303279  1
  Bi  Bi26  1  0.500000  0.751903  0.612780  1
  Bi  Bi27  1  0.000000  0.749766  0.105420  1
  Bi  Bi28  1  0.696039  0.749518  0.195876  1
  Bi  Bi29  1  0.197636  0.753445  0.696721  1
  Bi  Bi30  1  0.802364  0.753445  0.696721  1
  Bi  Bi31  1  0.303961  0.749518  0.195876  1
  C  C32  1  0.000000  0.500000  0.500000  1
