# generated using pymatgen
data_Th2Ag2HgAu
_symmetry_space_group_name_H-M   'P 1'
_cell_length_a   4.93292200
_cell_length_b   4.93292220
_cell_length_c   6.75561800
_cell_angle_alpha   90.00000000
_cell_angle_beta   90.00000000
_cell_angle_gamma   119.99999865
_symmetry_Int_Tables_number   1
_chemical_formula_structural   Th2Ag2HgAu
_chemical_formula_sum   'Th2 Ag2 Hg1 Au1'
_cell_volume   142.36532909
_cell_formula_units_Z   1
loop_
 _symmetry_equiv_pos_site_id
 _symmetry_equiv_pos_as_xyz
  1  'x, y, z'
loop_
 _atom_site_type_symbol
 _atom_site_label
 _atom_site_symmetry_multiplicity
 _atom_site_fract_x
 _atom_site_fract_y
 _atom_site_fract_z
 _atom_site_occupancy
  Th  Th0  1  0.000000  0.000000  0.238145  1
  Th  Th1  1  0.000000  0.000000  0.761460  1
  Ag  Ag2  1  0.666667  0.333333  0.503448  1
  Ag  Ag3  1  0.666667  0.333333  0.998290  1
  Hg  Hg4  1  0.333333  0.666667  0.498366  1
  Au  Au5  1  0.333333  0.666667  0.000291  1
