# generated using pymatgen
data_Tm13Lu3(ScBi3)4
_symmetry_space_group_name_H-M   'P 1'
_cell_length_a   8.05067744
_cell_length_b   9.33997631
_cell_length_c   11.80446931
_cell_angle_alpha   90.00775941
_cell_angle_beta   89.97473453
_cell_angle_gamma   89.97165021
_symmetry_Int_Tables_number   1
_chemical_formula_structural   Tm13Lu3(ScBi3)4
_chemical_formula_sum   'Tm13 Lu3 Sc4 Bi12'
_cell_volume   887.61487011
_cell_formula_units_Z   1
loop_
 _symmetry_equiv_pos_site_id
 _symmetry_equiv_pos_as_xyz
  1  'x, y, z'
loop_
 _atom_site_type_symbol
 _atom_site_label
 _atom_site_symmetry_multiplicity
 _atom_site_fract_x
 _atom_site_fract_y
 _atom_site_fract_z
 _atom_site_occupancy
  Tm  Tm0  1  0.355168  0.250364  0.283125  1
  Tm  Tm1  1  0.644614  0.749818  0.716791  1
  Tm  Tm2  1  0.145076  0.749886  0.783038  1
  Tm  Tm3  1  0.855090  0.250450  0.216834  1
  Tm  Tm4  1  0.186202  0.250094  0.781505  1
  Tm  Tm5  1  0.813760  0.749982  0.218598  1
  Tm  Tm6  1  0.313763  0.749894  0.281475  1
  Tm  Tm7  1  0.686181  0.250136  0.718525  1
  Tm  Tm8  1  0.195511  0.066702  0.058620  1
  Tm  Tm9  1  0.804562  0.933422  0.941315  1
  Tm  Tm10  1  0.304388  0.933229  0.558700  1
  Tm  Tm11  1  0.804297  0.566466  0.941328  1
  Tm  Tm12  1  0.695558  0.066841  0.441313  1
  Lu  Lu13  1  0.195643  0.432828  0.058648  1
  Lu  Lu14  1  0.695849  0.432798  0.441339  1
  Lu  Lu15  1  0.304125  0.567109  0.558727  1
  Sc  Sc16  1  0.023857  0.249990  0.511855  1
  Sc  Sc17  1  0.976167  0.750071  0.488105  1
  Sc  Sc18  1  0.475818  0.750272  0.011973  1
  Sc  Sc19  1  0.523813  0.249922  0.988096  1
  Bi  Bi20  1  0.400954  0.250944  0.543082  1
  Bi  Bi21  1  0.599084  0.748995  0.456937  1
  Bi  Bi22  1  0.099322  0.749247  0.043054  1
  Bi  Bi23  1  0.901198  0.250172  0.957098  1
  Bi  Bi24  1  0.066079  0.003762  0.329384  1
  Bi  Bi25  1  0.933982  0.996372  0.670591  1
  Bi  Bi26  1  0.433920  0.996328  0.829296  1
  Bi  Bi27  1  0.934208  0.503787  0.670572  1
  Bi  Bi28  1  0.566021  0.003739  0.170659  1
  Bi  Bi29  1  0.065931  0.496246  0.329454  1
  Bi  Bi30  1  0.565909  0.496317  0.170722  1
  Bi  Bi31  1  0.433953  0.503815  0.829243  1
