# generated using pymatgen
data_Ho8LuMg(Ni2Sb)2
_symmetry_space_group_name_H-M   'P 1'
_cell_length_a   8.56713044
_cell_length_b   8.56629595
_cell_length_c   8.56739926
_cell_angle_alpha   128.33471414
_cell_angle_beta   128.34601768
_cell_angle_gamma   76.06589155
_symmetry_Int_Tables_number   1
_chemical_formula_structural   Ho8LuMg(Ni2Sb)2
_chemical_formula_sum   'Ho8 Lu1 Mg1 Ni4 Sb2'
_cell_volume   376.05262183
_cell_formula_units_Z   1
loop_
 _symmetry_equiv_pos_site_id
 _symmetry_equiv_pos_as_xyz
  1  'x, y, z'
loop_
 _atom_site_type_symbol
 _atom_site_label
 _atom_site_symmetry_multiplicity
 _atom_site_fract_x
 _atom_site_fract_y
 _atom_site_fract_z
 _atom_site_occupancy
  Ho  Ho0  1  0.537120  0.711945  0.515548  1
  Ho  Ho1  1  0.021537  0.537129  0.825217  1
  Ho  Ho2  1  0.711887  0.196322  0.174752  1
  Ho  Ho3  1  0.978463  0.462871  0.174783  1
  Ho  Ho4  1  0.196400  0.021564  0.484460  1
  Ho  Ho5  1  0.462880  0.288055  0.484452  1
  Ho  Ho6  1  0.803600  0.978436  0.515540  1
  Ho  Ho7  1  0.288113  0.803678  0.825248  1
  Lu  Lu8  1  0.500000  0.500000  0.000000  1
  Mg  Mg9  1  0.000000  0.000000  0.000000  1
  Ni  Ni10  1  0.377608  0.868994  0.246608  1
  Ni  Ni11  1  0.869005  0.622337  0.491337  1
  Ni  Ni12  1  0.622392  0.131006  0.753392  1
  Ni  Ni13  1  0.130995  0.377663  0.508663  1
  Sb  Sb14  1  0.741788  0.741808  0.000023  1
  Sb  Sb15  1  0.258212  0.258192  0.999977  1
