# generated using pymatgen
data_Dy3P6Ir3Pd17
_symmetry_space_group_name_H-M   'P 1'
_cell_length_a   8.66568915
_cell_length_b   8.66568920
_cell_length_c   8.69382075
_cell_angle_alpha   59.75182385
_cell_angle_beta   59.75182395
_cell_angle_gamma   59.70794904
_symmetry_Int_Tables_number   1
_chemical_formula_structural   Dy3P6Ir3Pd17
_chemical_formula_sum   'Dy3 P6 Ir3 Pd17'
_cell_volume   458.88307189
_cell_formula_units_Z   1
loop_
 _symmetry_equiv_pos_site_id
 _symmetry_equiv_pos_as_xyz
  1  'x, y, z'
loop_
 _atom_site_type_symbol
 _atom_site_label
 _atom_site_symmetry_multiplicity
 _atom_site_fract_x
 _atom_site_fract_y
 _atom_site_fract_z
 _atom_site_occupancy
  Dy  Dy0  1  0.257872  0.257872  0.245393  1
  Dy  Dy1  1  0.743538  0.743538  0.748557  1
  Dy  Dy2  1  0.999651  0.999651  0.000756  1
  P  P3  1  0.728154  0.268011  0.265203  1
  P  P4  1  0.274917  0.726273  0.732231  1
  P  P5  1  0.268011  0.728154  0.265203  1
  P  P6  1  0.726273  0.274917  0.732231  1
  P  P7  1  0.271451  0.271451  0.728064  1
  P  P8  1  0.733291  0.733291  0.270534  1
  Ir  Ir9  1  0.388484  0.388484  0.390018  1
  Ir  Ir10  1  0.613216  0.613216  0.606399  1
  Ir  Ir11  1  0.383685  0.383685  0.840557  1
  Pd  Pd12  1  0.377841  0.854622  0.379539  1
  Pd  Pd13  1  0.619867  0.619867  0.150502  1
  Pd  Pd14  1  0.624404  0.144219  0.616998  1
  Pd  Pd15  1  0.854622  0.377841  0.379539  1
  Pd  Pd16  1  0.144219  0.624404  0.616998  1
  Pd  Pd17  1  0.342256  0.001243  0.001948  1
  Pd  Pd18  1  0.654811  0.999968  0.002525  1
  Pd  Pd19  1  0.999776  0.343779  0.659074  1
  Pd  Pd20  1  0.997744  0.654692  0.349264  1
  Pd  Pd21  1  0.001243  0.342256  0.001948  1
  Pd  Pd22  1  0.654692  0.997744  0.349264  1
  Pd  Pd23  1  0.999968  0.654811  0.002525  1
  Pd  Pd24  1  0.343779  0.999776  0.659074  1
  Pd  Pd25  1  0.998562  0.998562  0.346396  1
  Pd  Pd26  1  0.999074  0.999074  0.658847  1
  Pd  Pd27  1  0.654077  0.344522  0.000206  1
  Pd  Pd28  1  0.344522  0.654077  0.000206  1
