# generated using pymatgen
data_Er11LuTc3Pt
_symmetry_space_group_name_H-M   'P 1'
_cell_length_a   6.27325380
_cell_length_b   7.33294762
_cell_length_c   9.11068516
_cell_angle_alpha   90.02524906
_cell_angle_beta   89.90816026
_cell_angle_gamma   90.02679382
_symmetry_Int_Tables_number   1
_chemical_formula_structural   Er11LuTc3Pt
_chemical_formula_sum   'Er11 Lu1 Tc3 Pt1'
_cell_volume   419.10402586
_cell_formula_units_Z   1
loop_
 _symmetry_equiv_pos_site_id
 _symmetry_equiv_pos_as_xyz
  1  'x, y, z'
loop_
 _atom_site_type_symbol
 _atom_site_label
 _atom_site_symmetry_multiplicity
 _atom_site_fract_x
 _atom_site_fract_y
 _atom_site_fract_z
 _atom_site_occupancy
  Er  Er0  1  0.165914  0.177342  0.436635  1
  Er  Er1  1  0.668027  0.318213  0.558568  1
  Er  Er2  1  0.836200  0.826450  0.940983  1
  Er  Er3  1  0.667342  0.318691  0.941786  1
  Er  Er4  1  0.836049  0.826469  0.559338  1
  Er  Er5  1  0.328685  0.676778  0.432561  1
  Er  Er6  1  0.166210  0.177325  0.063244  1
  Er  Er7  1  0.873544  0.541987  0.249565  1
  Er  Er8  1  0.623259  0.037870  0.249544  1
  Er  Er9  1  0.128880  0.456907  0.750478  1
  Er  Er10  1  0.371416  0.964111  0.750428  1
  Lu  Lu11  1  0.328756  0.676497  0.067017  1
  Tc  Tc12  1  0.038627  0.885893  0.249565  1
  Tc  Tc13  1  0.463392  0.388399  0.249727  1
  Tc  Tc14  1  0.958590  0.113834  0.749810  1
  Pt  Pt15  1  0.545108  0.613235  0.750752  1
