# generated using pymatgen
data_Nb5Fe18CoP12
_symmetry_space_group_name_H-M   'P 1'
_cell_length_a   11.63417800
_cell_length_b   11.63417826
_cell_length_c   3.59018800
_cell_angle_alpha   90.00000000
_cell_angle_beta   90.00000000
_cell_angle_gamma   119.99999926
_symmetry_Int_Tables_number   1
_chemical_formula_structural   Nb5Fe18CoP12
_chemical_formula_sum   'Nb5 Fe18 Co1 P12'
_cell_volume   420.84216275
_cell_formula_units_Z   1
loop_
 _symmetry_equiv_pos_site_id
 _symmetry_equiv_pos_as_xyz
  1  'x, y, z'
loop_
 _atom_site_type_symbol
 _atom_site_label
 _atom_site_symmetry_multiplicity
 _atom_site_fract_x
 _atom_site_fract_y
 _atom_site_fract_z
 _atom_site_occupancy
  Nb  Nb0  1  0.333333  0.666667  0.500000  1
  Nb  Nb1  1  0.666667  0.333333  0.500000  1
  Nb  Nb2  1  0.186501  0.000000  0.000000  1
  Nb  Nb3  1  0.000000  0.186501  0.000000  1
  Nb  Nb4  1  0.813499  0.813499  0.000000  1
  Fe  Fe5  1  0.195000  0.375339  0.500000  1
  Fe  Fe6  1  0.624661  0.819661  0.500000  1
  Fe  Fe7  1  0.180339  0.805000  0.500000  1
  Fe  Fe8  1  0.819661  0.624661  0.500000  1
  Fe  Fe9  1  0.805000  0.180339  0.500000  1
  Fe  Fe10  1  0.375339  0.195000  0.500000  1
  Fe  Fe11  1  0.556245  0.000000  0.500000  1
  Fe  Fe12  1  0.000000  0.556245  0.500000  1
  Fe  Fe13  1  0.443755  0.443755  0.500000  1
  Fe  Fe14  1  0.126040  0.486221  0.000000  1
  Fe  Fe15  1  0.513779  0.639820  0.000000  1
  Fe  Fe16  1  0.360180  0.873960  0.000000  1
  Fe  Fe17  1  0.639820  0.513779  0.000000  1
  Fe  Fe18  1  0.873960  0.360180  0.000000  1
  Fe  Fe19  1  0.486221  0.126040  0.000000  1
  Fe  Fe20  1  0.718073  0.000000  0.000000  1
  Fe  Fe21  1  0.000000  0.718073  0.000000  1
  Fe  Fe22  1  0.281927  0.281927  0.000000  1
  Co  Co23  1  0.000000  0.000000  0.500000  1
  P  P24  1  0.365884  0.000000  0.500000  1
  P  P25  1  0.000000  0.365884  0.500000  1
  P  P26  1  0.634116  0.634116  0.500000  1
  P  P27  1  0.313324  0.481574  0.000000  1
  P  P28  1  0.518426  0.831749  0.000000  1
  P  P29  1  0.168251  0.686676  0.000000  1
  P  P30  1  0.831749  0.518426  0.000000  1
  P  P31  1  0.686676  0.168251  0.000000  1
  P  P32  1  0.481574  0.313324  0.000000  1
  P  P33  1  0.822059  0.000000  0.500000  1
  P  P34  1  0.000000  0.822059  0.500000  1
  P  P35  1  0.177941  0.177941  0.500000  1
