# generated using pymatgen
data_ScPa3Ge4(IrPt)2
_symmetry_space_group_name_H-M   'P 1'
_cell_length_a   4.34644300
_cell_length_b   6.91393226
_cell_length_c   7.63580302
_cell_angle_alpha   89.75177721
_cell_angle_beta   90.00000000
_cell_angle_gamma   90.00000000
_symmetry_Int_Tables_number   1
_chemical_formula_structural   ScPa3Ge4(IrPt)2
_chemical_formula_sum   'Sc1 Pa3 Ge4 Ir2 Pt2'
_cell_volume   229.46145849
_cell_formula_units_Z   1
loop_
 _symmetry_equiv_pos_site_id
 _symmetry_equiv_pos_as_xyz
  1  'x, y, z'
loop_
 _atom_site_type_symbol
 _atom_site_label
 _atom_site_symmetry_multiplicity
 _atom_site_fract_x
 _atom_site_fract_y
 _atom_site_fract_z
 _atom_site_occupancy
  Sc  Sc0  1  0.750000  0.505997  0.792820  1
  Pa  Pa1  1  0.250000  0.998640  0.302166  1
  Pa  Pa2  1  0.250000  0.494976  0.207797  1
  Pa  Pa3  1  0.750000  0.001676  0.701429  1
  Ge  Ge4  1  0.250000  0.323815  0.593508  1
  Ge  Ge5  1  0.250000  0.798134  0.906926  1
  Ge  Ge6  1  0.750000  0.676627  0.418947  1
  Ge  Ge7  1  0.750000  0.192479  0.083091  1
  Ir  Ir8  1  0.250000  0.725422  0.579389  1
  Ir  Ir9  1  0.750000  0.272891  0.412437  1
  Pt  Pt10  1  0.250000  0.223665  0.915391  1
  Pt  Pt11  1  0.750000  0.785677  0.086097  1
