# generated using pymatgen
data_Yb2TmLu(B4Ru)4
_symmetry_space_group_name_H-M   'P 1'
_cell_length_a   3.52806200
_cell_length_b   5.93909613
_cell_length_c   11.48338111
_cell_angle_alpha   89.85857911
_cell_angle_beta   90.00000000
_cell_angle_gamma   90.00000000
_symmetry_Int_Tables_number   1
_chemical_formula_structural   Yb2TmLu(B4Ru)4
_chemical_formula_sum   'Yb2 Tm1 Lu1 B16 Ru4'
_cell_volume   240.61628601
_cell_formula_units_Z   1
loop_
 _symmetry_equiv_pos_site_id
 _symmetry_equiv_pos_as_xyz
  1  'x, y, z'
loop_
 _atom_site_type_symbol
 _atom_site_label
 _atom_site_symmetry_multiplicity
 _atom_site_fract_x
 _atom_site_fract_y
 _atom_site_fract_z
 _atom_site_occupancy
  Yb  Yb0  1  0.500000  0.129110  0.350315  1
  Yb  Yb1  1  0.500000  0.870896  0.649713  1
  Tm  Tm2  1  0.500000  0.629759  0.150381  1
  Lu  Lu3  1  0.500000  0.370147  0.849654  1
  B  B4  1  0.000000  0.974861  0.192185  1
  B  B5  1  0.000000  0.025493  0.807780  1
  B  B6  1  0.000000  0.476926  0.307643  1
  B  B7  1  0.000000  0.522979  0.692638  1
  B  B8  1  0.000000  0.788711  0.314814  1
  B  B9  1  0.000000  0.211299  0.685372  1
  B  B10  1  0.000000  0.288713  0.185710  1
  B  B11  1  0.000000  0.710844  0.814260  1
  B  B12  1  0.000000  0.864706  0.468947  1
  B  B13  1  0.000000  0.135316  0.531049  1
  B  B14  1  0.000000  0.364802  0.030138  1
  B  B15  1  0.000000  0.634979  0.969569  1
  B  B16  1  0.000000  0.887681  0.047421  1
  B  B17  1  0.000000  0.112907  0.952343  1
  B  B18  1  0.000000  0.386699  0.453081  1
  B  B19  1  0.000000  0.613266  0.546926  1
  Ru  Ru20  1  0.500000  0.635974  0.409921  1
  Ru  Ru21  1  0.500000  0.364039  0.590351  1
  Ru  Ru22  1  0.500000  0.141289  0.090596  1
  Ru  Ru23  1  0.500000  0.858606  0.909195  1
