# generated using pymatgen
data_Ti4P2Ru3Rh7
_symmetry_space_group_name_H-M   'P 1'
_cell_length_a   3.93537200
_cell_length_b   5.41119402
_cell_length_c   10.49344120
_cell_angle_alpha   90.20530363
_cell_angle_beta   90.00000000
_cell_angle_gamma   90.00000000
_symmetry_Int_Tables_number   1
_chemical_formula_structural   Ti4P2Ru3Rh7
_chemical_formula_sum   'Ti4 P2 Ru3 Rh7'
_cell_volume   223.45704052
_cell_formula_units_Z   1
loop_
 _symmetry_equiv_pos_site_id
 _symmetry_equiv_pos_as_xyz
  1  'x, y, z'
loop_
 _atom_site_type_symbol
 _atom_site_label
 _atom_site_symmetry_multiplicity
 _atom_site_fract_x
 _atom_site_fract_y
 _atom_site_fract_z
 _atom_site_occupancy
  Ti  Ti0  1  0.500000  0.337047  0.143390  1
  Ti  Ti1  1  0.500000  0.666025  0.857276  1
  Ti  Ti2  1  0.500000  0.835265  0.358232  1
  Ti  Ti3  1  0.500000  0.166577  0.639033  1
  P  P4  1  0.000000  0.992509  0.001886  1
  P  P5  1  0.000000  0.502238  0.500181  1
  Ru  Ru6  1  0.500000  0.325873  0.396815  1
  Ru  Ru7  1  0.500000  0.676299  0.602862  1
  Ru  Ru8  1  0.500000  0.825773  0.101699  1
  Rh  Rh9  1  0.000000  0.001714  0.500839  1
  Rh  Rh10  1  0.000000  0.497389  0.999309  1
  Rh  Rh11  1  0.000000  0.079837  0.243156  1
  Rh  Rh12  1  0.000000  0.919903  0.759310  1
  Rh  Rh13  1  0.000000  0.579528  0.256995  1
  Rh  Rh14  1  0.000000  0.418907  0.741488  1
  Rh  Rh15  1  0.500000  0.175118  0.897529  1
