# generated using pymatgen
data_La2Ti3P7Rh9
_symmetry_space_group_name_H-M   'P 1'
_cell_length_a   9.74683700
_cell_length_b   9.74683686
_cell_length_c   3.89239400
_cell_angle_alpha   90.00000000
_cell_angle_beta   90.00000000
_cell_angle_gamma   120.00000386
_symmetry_Int_Tables_number   1
_chemical_formula_structural   La2Ti3P7Rh9
_chemical_formula_sum   'La2 Ti3 P7 Rh9'
_cell_volume   320.23943404
_cell_formula_units_Z   1
loop_
 _symmetry_equiv_pos_site_id
 _symmetry_equiv_pos_as_xyz
  1  'x, y, z'
loop_
 _atom_site_type_symbol
 _atom_site_label
 _atom_site_symmetry_multiplicity
 _atom_site_fract_x
 _atom_site_fract_y
 _atom_site_fract_z
 _atom_site_occupancy
  La  La0  1  0.000000  0.000000  0.763248  1
  La  La1  1  0.333333  0.666667  0.262904  1
  Ti  Ti2  1  0.784266  0.551483  0.764914  1
  Ti  Ti3  1  0.448517  0.232782  0.764914  1
  Ti  Ti4  1  0.767218  0.215734  0.764914  1
  P  P5  1  0.666667  0.333333  0.267260  1
  P  P6  1  0.070342  0.623020  0.763171  1
  P  P7  1  0.376980  0.447321  0.763171  1
  P  P8  1  0.552679  0.929658  0.763171  1
  P  P9  1  0.255374  0.033948  0.263530  1
  P  P10  1  0.966052  0.221426  0.263530  1
  P  P11  1  0.778574  0.744626  0.263530  1
  Rh  Rh12  1  0.508832  0.060418  0.263634  1
  Rh  Rh13  1  0.939582  0.448415  0.263634  1
  Rh  Rh14  1  0.551585  0.491168  0.263634  1
  Rh  Rh15  1  0.102829  0.380690  0.763438  1
  Rh  Rh16  1  0.619310  0.722139  0.763438  1
  Rh  Rh17  1  0.277861  0.897171  0.763438  1
  Rh  Rh18  1  0.232680  0.266539  0.263488  1
  Rh  Rh19  1  0.733461  0.966141  0.263488  1
  Rh  Rh20  1  0.033859  0.767320  0.263488  1
