# generated using pymatgen
data_NdThMn5(PRh)7
_symmetry_space_group_name_H-M   'P 1'
_cell_length_a   9.50971703
_cell_length_b   9.48614103
_cell_length_c   3.84055700
_cell_angle_alpha   90.00000000
_cell_angle_beta   90.00000000
_cell_angle_gamma   119.89019702
_symmetry_Int_Tables_number   1
_chemical_formula_structural   NdThMn5(PRh)7
_chemical_formula_sum   'Nd1 Th1 Mn5 P7 Rh7'
_cell_volume   300.37340650
_cell_formula_units_Z   1
loop_
 _symmetry_equiv_pos_site_id
 _symmetry_equiv_pos_as_xyz
  1  'x, y, z'
loop_
 _atom_site_type_symbol
 _atom_site_label
 _atom_site_symmetry_multiplicity
 _atom_site_fract_x
 _atom_site_fract_y
 _atom_site_fract_z
 _atom_site_occupancy
  Nd  Nd0  1  0.999554  0.000010  0.500000  1
  Th  Th1  1  0.334173  0.667411  0.000000  1
  Mn  Mn2  1  0.554609  0.067103  0.000000  1
  Mn  Mn3  1  0.934530  0.487443  0.000000  1
  Mn  Mn4  1  0.509367  0.443547  0.000000  1
  Mn  Mn5  1  0.771278  0.558552  0.500000  1
  Mn  Mn6  1  0.438083  0.212288  0.500000  1
  P  P7  1  0.773030  0.036372  0.000000  1
  P  P8  1  0.961108  0.734513  0.000000  1
  P  P9  1  0.261946  0.223436  0.000000  1
  P  P10  1  0.389596  0.943867  0.500000  1
  P  P11  1  0.058559  0.449676  0.500000  1
  P  P12  1  0.555793  0.608965  0.500000  1
  P  P13  1  0.668752  0.336769  0.000000  1
  Rh  Rh14  1  0.033767  0.271784  0.000000  1
  Rh  Rh15  1  0.727932  0.760186  0.000000  1
  Rh  Rh16  1  0.237853  0.965995  0.000000  1
  Rh  Rh17  1  0.609608  0.890710  0.500000  1
  Rh  Rh18  1  0.106169  0.717703  0.500000  1
  Rh  Rh19  1  0.280354  0.389338  0.500000  1
  Rh  Rh20  1  0.793940  0.234333  0.500000  1
