# generated using pymatgen
data_YEr7Cd2(SnAu4)2
_symmetry_space_group_name_H-M   'P 1'
_cell_length_a   7.99461573
_cell_length_b   7.99461573
_cell_length_c   7.30288907
_cell_angle_alpha   89.98854003
_cell_angle_beta   89.98854003
_cell_angle_gamma   90.15893034
_symmetry_Int_Tables_number   1
_chemical_formula_structural   YEr7Cd2(SnAu4)2
_chemical_formula_sum   'Y1 Er7 Cd2 Sn2 Au8'
_cell_volume   466.75416628
_cell_formula_units_Z   1
loop_
 _symmetry_equiv_pos_site_id
 _symmetry_equiv_pos_as_xyz
  1  'x, y, z'
loop_
 _atom_site_type_symbol
 _atom_site_label
 _atom_site_symmetry_multiplicity
 _atom_site_fract_x
 _atom_site_fract_y
 _atom_site_fract_z
 _atom_site_occupancy
  Y  Y0  1  0.342038  0.657962  0.000000  1
  Er  Er1  1  0.183015  0.182985  0.999948  1
  Er  Er2  1  0.317089  0.682911  0.500000  1
  Er  Er3  1  0.683279  0.316721  0.500000  1
  Er  Er4  1  0.817015  0.816985  0.000052  1
  Er  Er5  1  0.657957  0.342043  0.000000  1
  Er  Er6  1  0.842254  0.842693  0.499972  1
  Er  Er7  1  0.157307  0.157746  0.500028  1
  Cd  Cd8  1  0.999837  0.499930  0.749791  1
  Cd  Cd9  1  0.500070  0.000163  0.250209  1
  Sn  Sn10  1  0.999933  0.499872  0.250370  1
  Sn  Sn11  1  0.500128  0.000067  0.749630  1
  Au  Au12  1  0.124427  0.869546  0.773322  1
  Au  Au13  1  0.868209  0.125721  0.224960  1
  Au  Au14  1  0.374827  0.367609  0.276035  1
  Au  Au15  1  0.632391  0.625173  0.723965  1
  Au  Au16  1  0.626585  0.631094  0.275967  1
  Au  Au17  1  0.874279  0.131791  0.775040  1
  Au  Au18  1  0.368906  0.373415  0.724033  1
  Au  Au19  1  0.130454  0.875573  0.226678  1
