# generated using pymatgen
data_Sr21In(Ga4Sn3)2
_symmetry_space_group_name_H-M   'P 1'
_cell_length_a   12.13120190
_cell_length_b   12.13120222
_cell_length_c   12.13120100
_cell_angle_alpha   60.00000059
_cell_angle_beta   59.99999974
_cell_angle_gamma   59.99999753
_symmetry_Int_Tables_number   1
_chemical_formula_structural   Sr21In(Ga4Sn3)2
_chemical_formula_sum   'Sr21 In1 Ga8 Sn6'
_cell_volume   1262.39849116
_cell_formula_units_Z   1
loop_
 _symmetry_equiv_pos_site_id
 _symmetry_equiv_pos_as_xyz
  1  'x, y, z'
loop_
 _atom_site_type_symbol
 _atom_site_label
 _atom_site_symmetry_multiplicity
 _atom_site_fract_x
 _atom_site_fract_y
 _atom_site_fract_z
 _atom_site_occupancy
  Sr  Sr0  1  0.868805  0.868805  0.393585  1
  Sr  Sr1  1  0.606415  0.131195  0.131195  1
  Sr  Sr2  1  0.868805  0.393585  0.868805  1
  Sr  Sr3  1  0.131195  0.131195  0.131195  1
  Sr  Sr4  1  0.393585  0.868805  0.868805  1
  Sr  Sr5  1  0.868805  0.868805  0.868805  1
  Sr  Sr6  1  0.175540  0.824460  0.500000  1
  Sr  Sr7  1  0.824460  0.500000  0.500000  1
  Sr  Sr8  1  0.131195  0.131195  0.606415  1
  Sr  Sr9  1  0.824460  0.175540  0.500000  1
  Sr  Sr10  1  0.175540  0.500000  0.500000  1
  Sr  Sr11  1  0.131195  0.606415  0.131195  1
  Sr  Sr12  1  0.500000  0.500000  0.175540  1
  Sr  Sr13  1  0.500000  0.175540  0.824460  1
  Sr  Sr14  1  0.500000  0.824460  0.175540  1
  Sr  Sr15  1  0.500000  0.500000  0.824460  1
  Sr  Sr16  1  0.500000  0.175540  0.500000  1
  Sr  Sr17  1  0.175540  0.500000  0.824460  1
  Sr  Sr18  1  0.000000  0.000000  0.000000  1
  Sr  Sr19  1  0.500000  0.824460  0.500000  1
  Sr  Sr20  1  0.824460  0.500000  0.175540  1
  In  In21  1  0.500000  0.500000  0.500000  1
  Ga  Ga22  1  0.693275  0.920177  0.693275  1
  Ga  Ga23  1  0.693275  0.693275  0.920177  1
  Ga  Ga24  1  0.693275  0.693275  0.693275  1
  Ga  Ga25  1  0.306725  0.079823  0.306725  1
  Ga  Ga26  1  0.920177  0.693275  0.693275  1
  Ga  Ga27  1  0.306725  0.306725  0.079823  1
  Ga  Ga28  1  0.079823  0.306725  0.306725  1
  Ga  Ga29  1  0.306725  0.306725  0.306725  1
  Sn  Sn30  1  0.786057  0.213943  0.786057  1
  Sn  Sn31  1  0.786057  0.213943  0.213943  1
  Sn  Sn32  1  0.213943  0.786057  0.213943  1
  Sn  Sn33  1  0.213943  0.786057  0.786057  1
  Sn  Sn34  1  0.786057  0.786057  0.213943  1
  Sn  Sn35  1  0.213943  0.213943  0.786057  1
