# generated using pymatgen
data_Lu6AlNiOs
_symmetry_space_group_name_H-M   'P 1'
_cell_length_a   8.19264275
_cell_length_b   8.19264330
_cell_length_c   8.19264300
_cell_angle_alpha   113.11712306
_cell_angle_beta   111.15285551
_cell_angle_gamma   104.27231292
_symmetry_Int_Tables_number   1
_chemical_formula_structural   Lu6AlNiOs
_chemical_formula_sum   'Lu12 Al2 Ni2 Os2'
_cell_volume   420.58316668
_cell_formula_units_Z   2
loop_
 _symmetry_equiv_pos_site_id
 _symmetry_equiv_pos_as_xyz
  1  'x, y, z'
loop_
 _atom_site_type_symbol
 _atom_site_label
 _atom_site_symmetry_multiplicity
 _atom_site_fract_x
 _atom_site_fract_y
 _atom_site_fract_z
 _atom_site_occupancy
  Lu  Lu0  1  0.436797  0.243421  0.193376  1
  Lu  Lu1  1  0.563203  0.756579  0.806624  1
  Lu  Lu2  1  0.050046  0.243421  0.806624  1
  Lu  Lu3  1  0.949954  0.756579  0.193376  1
  Lu  Lu4  1  0.181313  0.282502  0.463815  1
  Lu  Lu5  1  0.818687  0.717498  0.536185  1
  Lu  Lu6  1  0.181313  0.717498  0.898810  1
  Lu  Lu7  1  0.818687  0.282502  0.101190  1
  Lu  Lu8  1  0.331077  0.644326  0.313248  1
  Lu  Lu9  1  0.668923  0.355674  0.686752  1
  Lu  Lu10  1  0.331077  0.017830  0.686752  1
  Lu  Lu11  1  0.668923  0.982170  0.313248  1
  Al  Al12  1  0.500000  0.500000  0.000000  1
  Al  Al13  1  0.000000  0.000000  0.000000  1
  Ni  Ni14  1  0.119286  0.619286  0.500000  1
  Ni  Ni15  1  0.880714  0.380714  0.500000  1
  Os  Os16  1  0.322117  0.000000  0.322117  1
  Os  Os17  1  0.677883  0.000000  0.677883  1
