# generated using pymatgen
data_Lu7Hf(Nb3Si4)4
_symmetry_space_group_name_H-M   'P 1'
_cell_length_a   6.79371478
_cell_length_b   6.99333133
_cell_length_c   13.28588686
_cell_angle_alpha   90.09195645
_cell_angle_beta   90.05566700
_cell_angle_gamma   90.01442307
_symmetry_Int_Tables_number   1
_chemical_formula_structural   Lu7Hf(Nb3Si4)4
_chemical_formula_sum   'Lu7 Hf1 Nb12 Si16'
_cell_volume   631.22063246
_cell_formula_units_Z   1
loop_
 _symmetry_equiv_pos_site_id
 _symmetry_equiv_pos_as_xyz
  1  'x, y, z'
loop_
 _atom_site_type_symbol
 _atom_site_label
 _atom_site_symmetry_multiplicity
 _atom_site_fract_x
 _atom_site_fract_y
 _atom_site_fract_z
 _atom_site_occupancy
  Lu  Lu0  1  0.500753  0.673297  0.594951  1
  Lu  Lu1  1  0.002894  0.827609  0.904337  1
  Lu  Lu2  1  0.497355  0.327762  0.095933  1
  Lu  Lu3  1  0.997662  0.172002  0.405776  1
  Lu  Lu4  1  0.497133  0.327416  0.405240  1
  Lu  Lu5  1  0.997268  0.173537  0.095888  1
  Lu  Lu6  1  0.502491  0.673012  0.903502  1
  Hf  Hf7  1  0.003385  0.824085  0.599224  1
  Nb  Nb8  1  0.665361  0.172997  0.624046  1
  Nb  Nb9  1  0.162748  0.324758  0.873303  1
  Nb  Nb10  1  0.337393  0.825321  0.125302  1
  Nb  Nb11  1  0.838276  0.677386  0.376118  1
  Nb  Nb12  1  0.336415  0.825063  0.375162  1
  Nb  Nb13  1  0.836418  0.674727  0.125415  1
  Nb  Nb14  1  0.665486  0.174200  0.873666  1
  Nb  Nb15  1  0.162805  0.324989  0.624137  1
  Nb  Nb16  1  0.838299  0.494505  0.748257  1
  Nb  Nb17  1  0.336576  0.004259  0.748489  1
  Nb  Nb18  1  0.161734  0.507269  0.250747  1
  Nb  Nb19  1  0.662519  0.994694  0.250827  1
  Si  Si20  1  0.666526  0.964298  0.460922  1
  Si  Si21  1  0.164727  0.535454  0.040156  1
  Si  Si22  1  0.336072  0.035878  0.959396  1
  Si  Si23  1  0.836224  0.467846  0.540868  1
  Si  Si24  1  0.328903  0.032895  0.540310  1
  Si  Si25  1  0.834575  0.464038  0.959704  1
  Si  Si26  1  0.664718  0.964823  0.040086  1
  Si  Si27  1  0.164421  0.538280  0.461367  1
  Si  Si28  1  0.459574  0.378461  0.749026  1
  Si  Si29  1  0.960814  0.116814  0.748290  1
  Si  Si30  1  0.540773  0.620304  0.250483  1
  Si  Si31  1  0.040359  0.881347  0.249758  1
  Si  Si32  1  0.706103  0.866980  0.748898  1
  Si  Si33  1  0.203584  0.632127  0.748935  1
  Si  Si34  1  0.294528  0.132533  0.250600  1
  Si  Si35  1  0.795128  0.369037  0.250884  1
