# generated using pymatgen
data_Ta12Al8CoOs3C4
_symmetry_space_group_name_H-M   'P 1'
_cell_length_a   8.27102274
_cell_length_b   8.27102301
_cell_length_c   8.27102176
_cell_angle_alpha   60.28422561
_cell_angle_beta   60.28422526
_cell_angle_gamma   60.28423118
_symmetry_Int_Tables_number   1
_chemical_formula_structural   Ta12Al8CoOs3C4
_chemical_formula_sum   'Ta12 Al8 Co1 Os3 C4'
_cell_volume   402.66813240
_cell_formula_units_Z   1
loop_
 _symmetry_equiv_pos_site_id
 _symmetry_equiv_pos_as_xyz
  1  'x, y, z'
loop_
 _atom_site_type_symbol
 _atom_site_label
 _atom_site_symmetry_multiplicity
 _atom_site_fract_x
 _atom_site_fract_y
 _atom_site_fract_z
 _atom_site_occupancy
  Ta  Ta0  1  0.558201  0.941537  0.558201  1
  Ta  Ta1  1  0.308463  0.691799  0.691799  1
  Ta  Ta2  1  0.685872  0.310197  0.310197  1
  Ta  Ta3  1  0.310197  0.685872  0.310197  1
  Ta  Ta4  1  0.691799  0.691799  0.308463  1
  Ta  Ta5  1  0.310197  0.310197  0.685872  1
  Ta  Ta6  1  0.558201  0.558201  0.941537  1
  Ta  Ta7  1  0.941537  0.558201  0.558201  1
  Ta  Ta8  1  0.564128  0.939803  0.939803  1
  Ta  Ta9  1  0.939803  0.939803  0.564128  1
  Ta  Ta10  1  0.691799  0.308463  0.691799  1
  Ta  Ta11  1  0.939803  0.564128  0.939803  1
  Al  Al12  1  0.917615  0.917615  0.917615  1
  Al  Al13  1  0.000433  0.328893  0.328893  1
  Al  Al14  1  0.328893  0.000433  0.328893  1
  Al  Al15  1  0.328893  0.328893  0.000433  1
  Al  Al16  1  0.921107  0.249567  0.921107  1
  Al  Al17  1  0.921107  0.921107  0.249567  1
  Al  Al18  1  0.249567  0.921107  0.921107  1
  Al  Al19  1  0.332385  0.332385  0.332385  1
  Co  Co20  1  0.125000  0.125000  0.125000  1
  Os  Os21  1  0.625000  0.125000  0.125000  1
  Os  Os22  1  0.125000  0.625000  0.125000  1
  Os  Os23  1  0.125000  0.125000  0.625000  1
  C  C24  1  0.625000  0.625000  0.625000  1
  C  C25  1  0.125000  0.625000  0.625000  1
  C  C26  1  0.625000  0.125000  0.625000  1
  C  C27  1  0.625000  0.625000  0.125000  1
