# generated using pymatgen
data_Li4La3NpSi8
_symmetry_space_group_name_H-M   'P 1'
_cell_length_a   3.88525600
_cell_length_b   7.77947664
_cell_length_c   10.59856097
_cell_angle_alpha   90.27581798
_cell_angle_beta   90.00000000
_cell_angle_gamma   90.00000000
_symmetry_Int_Tables_number   1
_chemical_formula_structural   Li4La3NpSi8
_chemical_formula_sum   'Li4 La3 Np1 Si8'
_cell_volume   320.34053106
_cell_formula_units_Z   1
loop_
 _symmetry_equiv_pos_site_id
 _symmetry_equiv_pos_as_xyz
  1  'x, y, z'
loop_
 _atom_site_type_symbol
 _atom_site_label
 _atom_site_symmetry_multiplicity
 _atom_site_fract_x
 _atom_site_fract_y
 _atom_site_fract_z
 _atom_site_occupancy
  Li  Li0  1  0.250000  0.987872  0.391664  1
  Li  Li1  1  0.250000  0.497690  0.108675  1
  Li  Li2  1  0.750000  0.004201  0.605665  1
  Li  Li3  1  0.750000  0.504924  0.889944  1
  La  La4  1  0.250000  0.141286  0.866482  1
  La  La5  1  0.250000  0.635044  0.632806  1
  La  La6  1  0.750000  0.865980  0.136347  1
  Np  Np7  1  0.750000  0.366553  0.365592  1
  Si  Si8  1  0.250000  0.236028  0.557979  1
  Si  Si9  1  0.250000  0.731036  0.928959  1
  Si  Si10  1  0.750000  0.759260  0.426297  1
  Si  Si11  1  0.750000  0.277845  0.082090  1
  Si  Si12  1  0.250000  0.648697  0.320914  1
  Si  Si13  1  0.250000  0.177969  0.193513  1
  Si  Si14  1  0.750000  0.330493  0.672562  1
  Si  Si15  1  0.750000  0.835123  0.820511  1
