# generated using pymatgen
data_YbHo2Al3Ge2Pd
_symmetry_space_group_name_H-M   'P 1'
_cell_length_a   7.01781900
_cell_length_b   6.95861870
_cell_length_c   4.27176300
_cell_angle_alpha   90.00000000
_cell_angle_beta   90.00000000
_cell_angle_gamma   120.28182169
_symmetry_Int_Tables_number   1
_chemical_formula_structural   YbHo2Al3Ge2Pd
_chemical_formula_sum   'Yb1 Ho2 Al3 Ge2 Pd1'
_cell_volume   180.14518009
_cell_formula_units_Z   1
loop_
 _symmetry_equiv_pos_site_id
 _symmetry_equiv_pos_as_xyz
  1  'x, y, z'
loop_
 _atom_site_type_symbol
 _atom_site_label
 _atom_site_symmetry_multiplicity
 _atom_site_fract_x
 _atom_site_fract_y
 _atom_site_fract_z
 _atom_site_occupancy
  Yb  Yb0  1  0.417837  0.000000  0.000000  1
  Ho  Ho1  1  0.000571  0.417904  0.000000  1
  Ho  Ho2  1  0.582669  0.582097  0.000000  1
  Al  Al3  1  0.769242  0.000000  0.499999  1
  Al  Al4  1  0.231007  0.237207  0.499999  1
  Al  Al5  1  0.993801  0.762793  0.499999  1
  Ge  Ge6  1  0.671509  0.338023  0.499999  1
  Ge  Ge7  1  0.333485  0.661976  0.499999  1
  Pd  Pd8  1  0.999878  0.000000  0.000000  1
