# generated using pymatgen
data_Ho7ThGePd24
_symmetry_space_group_name_H-M   'P 1'
_cell_length_a   8.35952905
_cell_length_b   8.35952905
_cell_length_c   8.35952905
_cell_angle_alpha   89.99134999
_cell_angle_beta   89.99134999
_cell_angle_gamma   89.99134999
_symmetry_Int_Tables_number   1
_chemical_formula_structural   Ho7ThGePd24
_chemical_formula_sum   'Ho7 Th1 Ge1 Pd24'
_cell_volume   584.17829757
_cell_formula_units_Z   1
loop_
 _symmetry_equiv_pos_site_id
 _symmetry_equiv_pos_as_xyz
  1  'x, y, z'
loop_
 _atom_site_type_symbol
 _atom_site_label
 _atom_site_symmetry_multiplicity
 _atom_site_fract_x
 _atom_site_fract_y
 _atom_site_fract_z
 _atom_site_occupancy
  Ho  Ho0  1  0.745988  0.745988  0.745988  1
  Ho  Ho1  1  0.746079  0.746079  0.253959  1
  Ho  Ho2  1  0.746079  0.253959  0.746079  1
  Ho  Ho3  1  0.253843  0.253843  0.746480  1
  Ho  Ho4  1  0.253843  0.746480  0.253843  1
  Ho  Ho5  1  0.253959  0.746079  0.746079  1
  Ho  Ho6  1  0.746480  0.253843  0.253843  1
  Th  Th7  1  0.254510  0.254510  0.254510  1
  Ge  Ge8  1  0.999451  0.999451  0.999451  1
  Pd  Pd9  1  0.259242  0.500562  0.999475  1
  Pd  Pd10  1  0.740723  0.500147  0.999909  1
  Pd  Pd11  1  0.999475  0.259242  0.500562  1
  Pd  Pd12  1  0.500562  0.259242  0.999475  1
  Pd  Pd13  1  0.999909  0.740723  0.500147  1
  Pd  Pd14  1  0.500147  0.740723  0.999909  1
  Pd  Pd15  1  0.500562  0.999475  0.259242  1
  Pd  Pd16  1  0.259242  0.999475  0.500562  1
  Pd  Pd17  1  0.500147  0.999909  0.740723  1
  Pd  Pd18  1  0.740723  0.999909  0.500147  1
  Pd  Pd19  1  0.999475  0.500562  0.259242  1
  Pd  Pd20  1  0.999909  0.500147  0.740723  1
  Pd  Pd21  1  0.252966  0.500880  0.500880  1
  Pd  Pd22  1  0.747134  0.500082  0.500082  1
  Pd  Pd23  1  0.500880  0.252966  0.500880  1
  Pd  Pd24  1  0.500082  0.747134  0.500082  1
  Pd  Pd25  1  0.500880  0.500880  0.252966  1
  Pd  Pd26  1  0.500082  0.500082  0.747134  1
  Pd  Pd27  1  0.288689  0.998745  0.998745  1
  Pd  Pd28  1  0.711775  0.999837  0.999837  1
  Pd  Pd29  1  0.998745  0.288689  0.998745  1
  Pd  Pd30  1  0.999837  0.711775  0.999837  1
  Pd  Pd31  1  0.998745  0.998745  0.288689  1
  Pd  Pd32  1  0.999837  0.999837  0.711775  1
