# generated using pymatgen
data_Y19HoSi15Pd
_symmetry_space_group_name_H-M   'P 1'
_cell_length_a   7.46783643
_cell_length_b   7.69217229
_cell_length_c   14.64130874
_cell_angle_alpha   90.28299265
_cell_angle_beta   90.41951664
_cell_angle_gamma   90.17667990
_symmetry_Int_Tables_number   1
_chemical_formula_structural   Y19HoSi15Pd
_chemical_formula_sum   'Y19 Ho1 Si15 Pd1'
_cell_volume   841.01675195
_cell_formula_units_Z   1
loop_
 _symmetry_equiv_pos_site_id
 _symmetry_equiv_pos_as_xyz
  1  'x, y, z'
loop_
 _atom_site_type_symbol
 _atom_site_label
 _atom_site_symmetry_multiplicity
 _atom_site_fract_x
 _atom_site_fract_y
 _atom_site_fract_z
 _atom_site_occupancy
  Y  Y0  1  0.183046  0.321724  0.876828  1
  Y  Y1  1  0.319443  0.819396  0.121751  1
  Y  Y2  1  0.820821  0.682227  0.379853  1
  Y  Y3  1  0.320495  0.824451  0.378177  1
  Y  Y4  1  0.817293  0.679954  0.122273  1
  Y  Y5  1  0.680878  0.179906  0.877535  1
  Y  Y6  1  0.178625  0.320626  0.623014  1
  Y  Y7  1  0.526013  0.679740  0.600077  1
  Y  Y8  1  0.028901  0.817339  0.901203  1
  Y  Y9  1  0.470474  0.317709  0.099113  1
  Y  Y10  1  0.974404  0.180986  0.399537  1
  Y  Y11  1  0.470836  0.320669  0.400601  1
  Y  Y12  1  0.970197  0.182531  0.098763  1
  Y  Y13  1  0.530603  0.682478  0.900058  1
  Y  Y14  1  0.027113  0.817399  0.600329  1
  Y  Y15  1  0.851398  0.507190  0.749325  1
  Y  Y16  1  0.351190  0.989581  0.748084  1
  Y  Y17  1  0.149083  0.489392  0.250610  1
  Y  Y18  1  0.651878  0.011662  0.253468  1
  Ho  Ho19  1  0.681473  0.169766  0.620536  1
  Si  Si20  1  0.144834  0.527869  0.040267  1
  Si  Si21  1  0.353609  0.029239  0.959868  1
  Si  Si22  1  0.851467  0.470941  0.541641  1
  Si  Si23  1  0.345237  0.027959  0.541960  1
  Si  Si24  1  0.855750  0.471607  0.959195  1
  Si  Si25  1  0.644374  0.971758  0.039464  1
  Si  Si26  1  0.146948  0.529825  0.460636  1
  Si  Si27  1  0.479191  0.393076  0.749034  1
  Si  Si28  1  0.976169  0.104232  0.751442  1
  Si  Si29  1  0.523350  0.605706  0.249013  1
  Si  Si30  1  0.025816  0.894942  0.247658  1
  Si  Si31  1  0.734752  0.871358  0.751441  1
  Si  Si32  1  0.234204  0.626800  0.750865  1
  Si  Si33  1  0.266850  0.126543  0.247131  1
  Si  Si34  1  0.766211  0.376119  0.249146  1
  Pd  Pd35  1  0.647074  0.977302  0.460106  1
