# generated using pymatgen
data_Tm9LuCuIrPb6
_symmetry_space_group_name_H-M   'P 1'
_cell_length_a   9.10544700
_cell_length_b   9.10544689
_cell_length_c   6.66963700
_cell_angle_alpha   90.00000000
_cell_angle_beta   90.00000000
_cell_angle_gamma   120.00000403
_symmetry_Int_Tables_number   1
_chemical_formula_structural   Tm9LuCuIrPb6
_chemical_formula_sum   'Tm9 Lu1 Cu1 Ir1 Pb6'
_cell_volume   478.88953674
_cell_formula_units_Z   1
loop_
 _symmetry_equiv_pos_site_id
 _symmetry_equiv_pos_as_xyz
  1  'x, y, z'
loop_
 _atom_site_type_symbol
 _atom_site_label
 _atom_site_symmetry_multiplicity
 _atom_site_fract_x
 _atom_site_fract_y
 _atom_site_fract_z
 _atom_site_occupancy
  Tm  Tm0  1  0.244409  0.999941  0.740991  1
  Tm  Tm1  1  0.755532  0.999941  0.259009  1
  Tm  Tm2  1  0.000059  0.244468  0.740991  1
  Tm  Tm3  1  0.000059  0.755591  0.259009  1
  Tm  Tm4  1  0.755532  0.755591  0.740991  1
  Tm  Tm5  1  0.244409  0.244468  0.259009  1
  Tm  Tm6  1  0.333333  0.666667  0.500000  1
  Tm  Tm7  1  0.666667  0.333333  0.500000  1
  Tm  Tm8  1  0.666667  0.333333  0.000000  1
  Lu  Lu9  1  0.333333  0.666667  0.000000  1
  Cu  Cu10  1  0.000000  0.000000  0.000000  1
  Ir  Ir11  1  0.000000  0.000000  0.500000  1
  Pb  Pb12  1  0.602283  0.999649  0.751721  1
  Pb  Pb13  1  0.397365  0.999649  0.248279  1
  Pb  Pb14  1  0.000351  0.602635  0.751721  1
  Pb  Pb15  1  0.000351  0.397717  0.248279  1
  Pb  Pb16  1  0.397365  0.397717  0.751721  1
  Pb  Pb17  1  0.602283  0.602635  0.248279  1
