# generated using pymatgen
data_Tm4AlFe3B16
_symmetry_space_group_name_H-M   'P 1'
_cell_length_a   3.37760900
_cell_length_b   5.87202166
_cell_length_c   11.34881215
_cell_angle_alpha   90.10907510
_cell_angle_beta   90.00000000
_cell_angle_gamma   90.00000000
_symmetry_Int_Tables_number   1
_chemical_formula_structural   Tm4AlFe3B16
_chemical_formula_sum   'Tm4 Al1 Fe3 B16'
_cell_volume   225.08504576
_cell_formula_units_Z   1
loop_
 _symmetry_equiv_pos_site_id
 _symmetry_equiv_pos_as_xyz
  1  'x, y, z'
loop_
 _atom_site_type_symbol
 _atom_site_label
 _atom_site_symmetry_multiplicity
 _atom_site_fract_x
 _atom_site_fract_y
 _atom_site_fract_z
 _atom_site_occupancy
  Tm  Tm0  1  0.500000  0.371673  0.148652  1
  Tm  Tm1  1  0.500000  0.626864  0.850452  1
  Tm  Tm2  1  0.500000  0.123853  0.652587  1
  Tm  Tm3  1  0.500000  0.875021  0.348321  1
  Al  Al4  1  0.500000  0.368263  0.413231  1
  Fe  Fe5  1  0.500000  0.626458  0.587207  1
  Fe  Fe6  1  0.500000  0.135439  0.911277  1
  Fe  Fe7  1  0.500000  0.865711  0.083444  1
  B  B8  1  0.000000  0.111971  0.046182  1
  B  B9  1  0.000000  0.888201  0.953250  1
  B  B10  1  0.000000  0.389594  0.550146  1
  B  B11  1  0.000000  0.618114  0.455802  1
  B  B12  1  0.000000  0.133074  0.470041  1
  B  B13  1  0.000000  0.862890  0.533593  1
  B  B14  1  0.000000  0.362494  0.968347  1
  B  B15  1  0.000000  0.638113  0.031869  1
  B  B16  1  0.000000  0.022769  0.190508  1
  B  B17  1  0.000000  0.975310  0.809357  1
  B  B18  1  0.000000  0.477971  0.692395  1
  B  B19  1  0.000000  0.529214  0.306754  1
  B  B20  1  0.000000  0.211138  0.311560  1
  B  B21  1  0.000000  0.783469  0.684448  1
  B  B22  1  0.000000  0.283062  0.816411  1
  B  B23  1  0.000000  0.719332  0.184167  1
