# generated using pymatgen
data_Sc4CuSi6IrRh5
_symmetry_space_group_name_H-M   'P 1'
_cell_length_a   6.94065763
_cell_length_b   6.94065814
_cell_length_c   6.94065723
_cell_angle_alpha   109.42621340
_cell_angle_beta   109.42621931
_cell_angle_gamma   109.56125953
_symmetry_Int_Tables_number   1
_chemical_formula_structural   Sc4CuSi6IrRh5
_chemical_formula_sum   'Sc4 Cu1 Si6 Ir1 Rh5'
_cell_volume   257.38261904
_cell_formula_units_Z   1
loop_
 _symmetry_equiv_pos_site_id
 _symmetry_equiv_pos_as_xyz
  1  'x, y, z'
loop_
 _atom_site_type_symbol
 _atom_site_label
 _atom_site_symmetry_multiplicity
 _atom_site_fract_x
 _atom_site_fract_y
 _atom_site_fract_z
 _atom_site_occupancy
  Sc  Sc0  1  0.001964  0.998036  0.500000  1
  Sc  Sc1  1  0.001964  0.501964  0.003927  1
  Sc  Sc2  1  0.498036  0.998036  0.996073  1
  Sc  Sc3  1  0.498036  0.501964  0.500000  1
  Cu  Cu4  1  0.750000  0.250000  0.500000  1
  Si  Si5  1  0.681703  0.681703  0.000000  1
  Si  Si6  1  0.314730  0.997803  0.316927  1
  Si  Si7  1  0.002197  0.319124  0.316927  1
  Si  Si8  1  0.318297  0.318297  0.000000  1
  Si  Si9  1  0.680876  0.997803  0.683073  1
  Si  Si10  1  0.002197  0.685270  0.683073  1
  Ir  Ir11  1  0.000000  0.000000  0.000000  1
  Rh  Rh12  1  0.746968  0.494363  0.252605  1
  Rh  Rh13  1  0.505637  0.253032  0.747395  1
  Rh  Rh14  1  0.241758  0.494363  0.747395  1
  Rh  Rh15  1  0.250000  0.750000  0.500000  1
  Rh  Rh16  1  0.505637  0.758242  0.252605  1
