# generated using pymatgen
data_La8Nd2Co3Tc
_symmetry_space_group_name_H-M   'P 1'
_cell_length_a   9.08652369
_cell_length_b   9.10507025
_cell_length_c   7.16763800
_cell_angle_alpha   86.61041196
_cell_angle_beta   86.76744617
_cell_angle_gamma   43.06452434
_symmetry_Int_Tables_number   1
_chemical_formula_structural   La8Nd2Co3Tc
_chemical_formula_sum   'La8 Nd2 Co3 Tc1'
_cell_volume   404.13136597
_cell_formula_units_Z   1
loop_
 _symmetry_equiv_pos_site_id
 _symmetry_equiv_pos_as_xyz
  1  'x, y, z'
loop_
 _atom_site_type_symbol
 _atom_site_label
 _atom_site_symmetry_multiplicity
 _atom_site_fract_x
 _atom_site_fract_y
 _atom_site_fract_z
 _atom_site_occupancy
  La  La0  1  0.014597  0.800538  0.905925  1
  La  La1  1  0.202702  0.977963  0.607832  1
  La  La2  1  0.983336  0.203550  0.107878  1
  La  La3  1  0.794328  0.020229  0.396246  1
  La  La4  1  0.359166  0.217087  0.830647  1
  La  La5  1  0.786860  0.637731  0.664154  1
  La  La6  1  0.639482  0.782607  0.161849  1
  La  La7  1  0.217983  0.355041  0.325805  1
  Nd  Nd8  1  0.577034  0.424560  0.753415  1
  Nd  Nd9  1  0.428327  0.573625  0.249205  1
  Co  Co10  1  0.399787  0.824107  0.917160  1
  Co  Co11  1  0.829185  0.393308  0.414431  1
  Co  Co12  1  0.600749  0.175629  0.086097  1
  Tc  Tc13  1  0.166464  0.614024  0.579352  1
