# generated using pymatgen
data_Tm2Th3(Ge5Rh2)2
_symmetry_space_group_name_H-M   'P 1'
_cell_length_a   13.11401400
_cell_length_b   13.11401400
_cell_length_c   4.37477000
_cell_angle_alpha   90.00000000
_cell_angle_beta   90.00000000
_cell_angle_gamma   90.00000000
_symmetry_Int_Tables_number   1
_chemical_formula_structural   Tm2Th3(Ge5Rh2)2
_chemical_formula_sum   'Tm4 Th6 Ge20 Rh8'
_cell_volume   752.36140917
_cell_formula_units_Z   2
loop_
 _symmetry_equiv_pos_site_id
 _symmetry_equiv_pos_as_xyz
  1  'x, y, z'
loop_
 _atom_site_type_symbol
 _atom_site_label
 _atom_site_symmetry_multiplicity
 _atom_site_fract_x
 _atom_site_fract_y
 _atom_site_fract_z
 _atom_site_occupancy
  Tm  Tm0  1  0.325705  0.825705  0.500000  1
  Tm  Tm1  1  0.825705  0.674295  0.500000  1
  Tm  Tm2  1  0.174295  0.325705  0.500000  1
  Tm  Tm3  1  0.674295  0.174295  0.500000  1
  Th  Th4  1  0.112829  0.612829  0.500000  1
  Th  Th5  1  0.612829  0.887171  0.500000  1
  Th  Th6  1  0.387171  0.112829  0.500000  1
  Th  Th7  1  0.887171  0.387171  0.500000  1
  Th  Th8  1  0.500000  0.500000  0.000000  1
  Th  Th9  1  0.000000  0.000000  0.000000  1
  Ge  Ge10  1  0.337826  0.495504  0.500000  1
  Ge  Ge11  1  0.662174  0.504496  0.500000  1
  Ge  Ge12  1  0.504496  0.337826  0.500000  1
  Ge  Ge13  1  0.495504  0.662174  0.500000  1
  Ge  Ge14  1  0.995504  0.837826  0.500000  1
  Ge  Ge15  1  0.837826  0.004496  0.500000  1
  Ge  Ge16  1  0.162174  0.995504  0.500000  1
  Ge  Ge17  1  0.004496  0.162174  0.500000  1
  Ge  Ge18  1  0.336843  0.300990  0.000000  1
  Ge  Ge19  1  0.663157  0.699010  0.000000  1
  Ge  Ge20  1  0.699010  0.336843  0.000000  1
  Ge  Ge21  1  0.300990  0.663157  0.000000  1
  Ge  Ge22  1  0.800990  0.836843  0.000000  1
  Ge  Ge23  1  0.836843  0.199010  0.000000  1
  Ge  Ge24  1  0.163157  0.800990  0.000000  1
  Ge  Ge25  1  0.199010  0.163157  0.000000  1
  Ge  Ge26  1  0.433024  0.933024  0.000000  1
  Ge  Ge27  1  0.933024  0.566976  0.000000  1
  Ge  Ge28  1  0.566976  0.066976  0.000000  1
  Ge  Ge29  1  0.066976  0.433024  0.000000  1
  Rh  Rh30  1  0.244464  0.977703  0.000000  1
  Rh  Rh31  1  0.755536  0.022297  0.000000  1
  Rh  Rh32  1  0.022297  0.244464  0.000000  1
  Rh  Rh33  1  0.977703  0.755536  0.000000  1
  Rh  Rh34  1  0.477703  0.744464  0.000000  1
  Rh  Rh35  1  0.744464  0.522297  0.000000  1
  Rh  Rh36  1  0.255536  0.477703  0.000000  1
  Rh  Rh37  1  0.522297  0.255536  0.000000  1
