# generated using pymatgen
data_Ti19Si16Pd
_symmetry_space_group_name_H-M   'P 1'
_cell_length_a   6.71006832
_cell_length_b   6.71006832
_cell_length_c   12.13444253
_cell_angle_alpha   89.76928335
_cell_angle_beta   90.23071665
_cell_angle_gamma   89.89585328
_symmetry_Int_Tables_number   1
_chemical_formula_structural   Ti19Si16Pd
_chemical_formula_sum   'Ti19 Si16 Pd1'
_cell_volume   546.34370091
_cell_formula_units_Z   1
loop_
 _symmetry_equiv_pos_site_id
 _symmetry_equiv_pos_as_xyz
  1  'x, y, z'
loop_
 _atom_site_type_symbol
 _atom_site_label
 _atom_site_symmetry_multiplicity
 _atom_site_fract_x
 _atom_site_fract_y
 _atom_site_fract_z
 _atom_site_occupancy
  Ti  Ti0  1  0.995717  0.147203  0.623466  1
  Ti  Ti1  1  0.355188  0.498047  0.869983  1
  Ti  Ti2  1  0.648258  0.503897  0.370891  1
  Ti  Ti3  1  0.498047  0.355188  0.130017  1
  Ti  Ti4  1  0.503897  0.648258  0.629109  1
  Ti  Ti5  1  0.003476  0.850294  0.120628  1
  Ti  Ti6  1  0.147203  0.995717  0.376534  1
  Ti  Ti7  1  0.850294  0.003476  0.879372  1
  Ti  Ti8  1  0.000114  0.348410  0.218607  1
  Ti  Ti9  1  0.153954  0.501677  0.467703  1
  Ti  Ti10  1  0.841137  0.499119  0.969410  1
  Ti  Ti11  1  0.501677  0.153954  0.532297  1
  Ti  Ti12  1  0.499119  0.841137  0.030590  1
  Ti  Ti13  1  0.997290  0.655677  0.719098  1
  Ti  Ti14  1  0.348410  0.000114  0.781393  1
  Ti  Ti15  1  0.655677  0.997290  0.280902  1
  Ti  Ti16  1  0.327401  0.672239  0.248622  1
  Ti  Ti17  1  0.672239  0.327401  0.751378  1
  Ti  Ti18  1  0.828575  0.828575  0.500000  1
  Si  Si19  1  0.047246  0.300600  0.814324  1
  Si  Si20  1  0.202850  0.547923  0.062085  1
  Si  Si21  1  0.800904  0.454396  0.563786  1
  Si  Si22  1  0.547923  0.202850  0.937915  1
  Si  Si23  1  0.454396  0.800904  0.436214  1
  Si  Si24  1  0.955260  0.698972  0.313771  1
  Si  Si25  1  0.300600  0.047246  0.185676  1
  Si  Si26  1  0.698972  0.955260  0.686229  1
  Si  Si27  1  0.293810  0.356570  0.672777  1
  Si  Si28  1  0.137831  0.786650  0.920290  1
  Si  Si29  1  0.857235  0.205599  0.423154  1
  Si  Si30  1  0.786650  0.137831  0.079710  1
  Si  Si31  1  0.205599  0.857235  0.576846  1
  Si  Si32  1  0.705601  0.644855  0.172993  1
  Si  Si33  1  0.356570  0.293810  0.327223  1
  Si  Si34  1  0.644855  0.705601  0.827007  1
  Pd  Pd35  1  0.176024  0.176024  0.000000  1
