# generated using pymatgen
data_Zr2Co9B6Sb
_symmetry_space_group_name_H-M   'P 1'
_cell_length_a   5.73663670
_cell_length_b   5.73663648
_cell_length_c   5.73663639
_cell_angle_alpha   95.42764949
_cell_angle_beta   95.42765260
_cell_angle_gamma   95.42766788
_symmetry_Int_Tables_number   1
_chemical_formula_structural   Zr2Co9B6Sb
_chemical_formula_sum   'Zr2 Co9 B6 Sb1'
_cell_volume   186.07407183
_cell_formula_units_Z   1
loop_
 _symmetry_equiv_pos_site_id
 _symmetry_equiv_pos_as_xyz
  1  'x, y, z'
loop_
 _atom_site_type_symbol
 _atom_site_label
 _atom_site_symmetry_multiplicity
 _atom_site_fract_x
 _atom_site_fract_y
 _atom_site_fract_z
 _atom_site_occupancy
  Zr  Zr0  1  0.672763  0.672763  0.672763  1
  Zr  Zr1  1  0.327237  0.327237  0.327237  1
  Co  Co2  1  0.000000  0.000000  0.500000  1
  Co  Co3  1  0.500000  0.000000  0.000000  1
  Co  Co4  1  0.000000  0.500000  0.000000  1
  Co  Co5  1  0.700943  0.201406  0.700943  1
  Co  Co6  1  0.700943  0.700943  0.201406  1
  Co  Co7  1  0.201406  0.700943  0.700943  1
  Co  Co8  1  0.299057  0.798594  0.299057  1
  Co  Co9  1  0.299057  0.299057  0.798594  1
  Co  Co10  1  0.798594  0.299057  0.299057  1
  B  B11  1  0.613655  0.386345  0.000000  1
  B  B12  1  0.000000  0.613655  0.386345  1
  B  B13  1  0.386345  0.000000  0.613655  1
  B  B14  1  0.000000  0.386345  0.613655  1
  B  B15  1  0.613655  0.000000  0.386345  1
  B  B16  1  0.386345  0.613655  0.000000  1
  Sb  Sb17  1  0.000000  0.000000  0.000000  1
