# generated using pymatgen
data_TbY5RhI10
_symmetry_space_group_name_H-M   'P 1'
_cell_length_a   7.74214874
_cell_length_b   9.69929837
_cell_length_c   9.80566112
_cell_angle_alpha   107.39607001
_cell_angle_beta   97.09842614
_cell_angle_gamma   104.76235333
_symmetry_Int_Tables_number   1
_chemical_formula_structural   TbY5RhI10
_chemical_formula_sum   'Tb1 Y5 Rh1 I10'
_cell_volume   663.35517887
_cell_formula_units_Z   1
loop_
 _symmetry_equiv_pos_site_id
 _symmetry_equiv_pos_as_xyz
  1  'x, y, z'
loop_
 _atom_site_type_symbol
 _atom_site_label
 _atom_site_symmetry_multiplicity
 _atom_site_fract_x
 _atom_site_fract_y
 _atom_site_fract_z
 _atom_site_occupancy
  Tb  Tb0  1  0.529656  0.220744  0.417470  1
  Y  Y1  1  0.470680  0.779418  0.582558  1
  Y  Y2  1  0.146717  0.371924  0.331912  1
  Y  Y3  1  0.853193  0.628258  0.668124  1
  Y  Y4  1  0.613678  0.541390  0.257455  1
  Y  Y5  1  0.386227  0.458845  0.742611  1
  Rh  Rh6  1  0.499976  0.499505  0.499850  1
  I  I7  1  0.145815  0.045627  0.225677  1
  I  I8  1  0.853865  0.954366  0.774234  1
  I  I9  1  0.238068  0.410690  0.035219  1
  I  I10  1  0.761897  0.589322  0.964761  1
  I  I11  1  0.715567  0.239736  0.152303  1
  I  I12  1  0.284624  0.760391  0.847480  1
  I  I13  1  0.047837  0.683519  0.408388  1
  I  I14  1  0.952317  0.316604  0.591722  1
  I  I15  1  0.413442  0.127269  0.678571  1
  I  I16  1  0.586441  0.872392  0.321664  1
