# generated using pymatgen
data_Tm4NbTcOs6
_symmetry_space_group_name_H-M   'P 1'
_cell_length_a   5.42886304
_cell_length_b   5.42833987
_cell_length_c   8.62096401
_cell_angle_alpha   89.99802425
_cell_angle_beta   90.00484077
_cell_angle_gamma   119.99327131
_symmetry_Int_Tables_number   1
_chemical_formula_structural   Tm4NbTcOs6
_chemical_formula_sum   'Tm4 Nb1 Tc1 Os6'
_cell_volume   220.03502684
_cell_formula_units_Z   1
loop_
 _symmetry_equiv_pos_site_id
 _symmetry_equiv_pos_as_xyz
  1  'x, y, z'
loop_
 _atom_site_type_symbol
 _atom_site_label
 _atom_site_symmetry_multiplicity
 _atom_site_fract_x
 _atom_site_fract_y
 _atom_site_fract_z
 _atom_site_occupancy
  Tm  Tm0  1  0.666669  0.333334  0.570667  1
  Tm  Tm1  1  0.333331  0.666666  0.429333  1
  Tm  Tm2  1  0.333333  0.666670  0.061678  1
  Tm  Tm3  1  0.666667  0.333330  0.938322  1
  Nb  Nb4  1  0.000000  0.000000  0.500000  1
  Tc  Tc5  1  0.000000  0.000000  0.000000  1
  Os  Os6  1  0.173409  0.346812  0.751788  1
  Os  Os7  1  0.173402  0.826598  0.751788  1
  Os  Os8  1  0.653186  0.826592  0.751786  1
  Os  Os9  1  0.826591  0.653188  0.248212  1
  Os  Os10  1  0.826598  0.173402  0.248212  1
  Os  Os11  1  0.346814  0.173408  0.248214  1
