# generated using pymatgen
data_Tm4Sc4B24Ir3Ru
_symmetry_space_group_name_H-M   'P 1'
_cell_length_a   3.53306700
_cell_length_b   8.96862036
_cell_length_c   11.32665345
_cell_angle_alpha   90.03239473
_cell_angle_beta   90.00000000
_cell_angle_gamma   90.00000000
_symmetry_Int_Tables_number   1
_chemical_formula_structural   Tm4Sc4B24Ir3Ru
_chemical_formula_sum   'Tm4 Sc4 B24 Ir3 Ru1'
_cell_volume   358.90462741
_cell_formula_units_Z   1
loop_
 _symmetry_equiv_pos_site_id
 _symmetry_equiv_pos_as_xyz
  1  'x, y, z'
loop_
 _atom_site_type_symbol
 _atom_site_label
 _atom_site_symmetry_multiplicity
 _atom_site_fract_x
 _atom_site_fract_y
 _atom_site_fract_z
 _atom_site_occupancy
  Tm  Tm0  1  0.500000  0.317652  0.412666  1
  Tm  Tm1  1  0.500000  0.681074  0.586203  1
  Tm  Tm2  1  0.500000  0.180842  0.915094  1
  Tm  Tm3  1  0.500000  0.820887  0.086732  1
  Sc  Sc4  1  0.500000  0.442163  0.124300  1
  Sc  Sc5  1  0.500000  0.555871  0.876029  1
  Sc  Sc6  1  0.500000  0.055531  0.623868  1
  Sc  Sc7  1  0.500000  0.946637  0.374854  1
  B  B8  1  0.000000  0.101024  0.472740  1
  B  B9  1  0.000000  0.898910  0.527423  1
  B  B10  1  0.000000  0.398947  0.972510  1
  B  B11  1  0.000000  0.601452  0.027411  1
  B  B12  1  0.000000  0.129292  0.317386  1
  B  B13  1  0.000000  0.870347  0.681269  1
  B  B14  1  0.000000  0.370450  0.818774  1
  B  B15  1  0.000000  0.629493  0.181481  1
  B  B16  1  0.000000  0.054636  0.066198  1
  B  B17  1  0.000000  0.945996  0.934867  1
  B  B18  1  0.000000  0.445244  0.564929  1
  B  B19  1  0.000000  0.554269  0.434566  1
  B  B20  1  0.000000  0.480635  0.285441  1
  B  B21  1  0.000000  0.519293  0.714436  1
  B  B22  1  0.000000  0.019486  0.785469  1
  B  B23  1  0.000000  0.981549  0.214497  1
  B  B24  1  0.000000  0.253186  0.080766  1
  B  B25  1  0.000000  0.746232  0.920428  1
  B  B26  1  0.000000  0.246102  0.579418  1
  B  B27  1  0.000000  0.753950  0.420202  1
  B  B28  1  0.000000  0.294273  0.234925  1
  B  B29  1  0.000000  0.704780  0.764202  1
  B  B30  1  0.000000  0.204934  0.735934  1
  B  B31  1  0.000000  0.795042  0.264707  1
  Ir  Ir32  1  0.500000  0.860271  0.819637  1
  Ir  Ir33  1  0.500000  0.359585  0.680668  1
  Ir  Ir34  1  0.500000  0.640114  0.319077  1
  Ru  Ru35  1  0.500000  0.139851  0.180893  1
