# generated using pymatgen
data_Mg12AlGa5Pt6
_symmetry_space_group_name_H-M   'P 1'
_cell_length_a   7.66879300
_cell_length_b   7.66879048
_cell_length_c   8.53012800
_cell_angle_alpha   90.00001494
_cell_angle_beta   90.00002989
_cell_angle_gamma   120.00011010
_symmetry_Int_Tables_number   1
_chemical_formula_structural   Mg12AlGa5Pt6
_chemical_formula_sum   'Mg12 Al1 Ga5 Pt6'
_cell_volume   434.44978381
_cell_formula_units_Z   1
loop_
 _symmetry_equiv_pos_site_id
 _symmetry_equiv_pos_as_xyz
  1  'x, y, z'
loop_
 _atom_site_type_symbol
 _atom_site_label
 _atom_site_symmetry_multiplicity
 _atom_site_fract_x
 _atom_site_fract_y
 _atom_site_fract_z
 _atom_site_occupancy
  Mg  Mg0  1  0.284929  0.286456  0.085761  1
  Mg  Mg1  1  0.999014  0.291264  0.586834  1
  Mg  Mg2  1  0.292253  0.000988  0.586834  1
  Mg  Mg3  1  0.713542  0.998473  0.085760  1
  Mg  Mg4  1  0.001525  0.715071  0.085761  1
  Mg  Mg5  1  0.708735  0.707749  0.586834  1
  Mg  Mg6  1  0.365565  0.366614  0.424632  1
  Mg  Mg7  1  0.999771  0.368692  0.925928  1
  Mg  Mg8  1  0.368921  0.000231  0.925928  1
  Mg  Mg9  1  0.633385  0.998950  0.424631  1
  Mg  Mg10  1  0.001049  0.634435  0.424632  1
  Mg  Mg11  1  0.631309  0.631079  0.925928  1
  Al  Al12  1  0.666667  0.333333  0.225795  1
  Ga  Ga13  1  0.999998  0.999998  0.316179  1
  Ga  Ga14  1  0.000000  0.000000  0.811473  1
  Ga  Ga15  1  0.333332  0.666666  0.224105  1
  Ga  Ga16  1  0.666668  0.333334  0.727969  1
  Ga  Ga17  1  0.333334  0.666667  0.726763  1
  Pt  Pt18  1  0.331066  0.331144  0.755039  1
  Pt  Pt19  1  0.994314  0.330643  0.254911  1
  Pt  Pt20  1  0.336329  0.005685  0.254911  1
  Pt  Pt21  1  0.668857  0.999922  0.755038  1
  Pt  Pt22  1  0.000080  0.668937  0.755038  1
  Pt  Pt23  1  0.669355  0.663670  0.254912  1
