# generated using pymatgen
data_YLuCd2(Ir2O7)2
_symmetry_space_group_name_H-M   'P 1'
_cell_length_a   7.22800181
_cell_length_b   7.22800175
_cell_length_c   7.33998548
_cell_angle_alpha   59.54635959
_cell_angle_beta   59.54636082
_cell_angle_gamma   59.26491002
_symmetry_Int_Tables_number   1
_chemical_formula_structural   YLuCd2(Ir2O7)2
_chemical_formula_sum   'Y1 Lu1 Cd2 Ir4 O14'
_cell_volume   267.77304520
_cell_formula_units_Z   1
loop_
 _symmetry_equiv_pos_site_id
 _symmetry_equiv_pos_as_xyz
  1  'x, y, z'
loop_
 _atom_site_type_symbol
 _atom_site_label
 _atom_site_symmetry_multiplicity
 _atom_site_fract_x
 _atom_site_fract_y
 _atom_site_fract_z
 _atom_site_occupancy
  Y  Y0  1  0.125000  0.125000  0.125000  1
  Lu  Lu1  1  0.125000  0.125000  0.625000  1
  Cd  Cd2  1  0.625000  0.125000  0.125000  1
  Cd  Cd3  1  0.125000  0.625000  0.125000  1
  Ir  Ir4  1  0.125000  0.625000  0.625000  1
  Ir  Ir5  1  0.625000  0.125000  0.625000  1
  Ir  Ir6  1  0.625000  0.625000  0.125000  1
  Ir  Ir7  1  0.625000  0.625000  0.625000  1
  O  O8  1  0.700237  0.700237  0.300673  1
  O  O9  1  0.288817  0.288817  0.706736  1
  O  O10  1  0.717770  0.293602  0.691758  1
  O  O11  1  0.292733  0.711461  0.297396  1
  O  O12  1  0.293602  0.717770  0.691758  1
  O  O13  1  0.711461  0.292733  0.297396  1
  O  O14  1  0.549763  0.549763  0.949327  1
  O  O15  1  0.961183  0.961183  0.543264  1
  O  O16  1  0.532230  0.956398  0.558242  1
  O  O17  1  0.957267  0.538539  0.952604  1
  O  O18  1  0.956398  0.532230  0.558242  1
  O  O19  1  0.538539  0.957267  0.952604  1
  O  O20  1  0.246758  0.246758  0.259029  1
  O  O21  1  0.003242  0.003242  0.990971  1
