# generated using pymatgen
data_Tb5Er5(Tm5Bi6)2
_symmetry_space_group_name_H-M   'P 1'
_cell_length_a   8.21548127
_cell_length_b   9.45985056
_cell_length_c   11.96929019
_cell_angle_alpha   89.97926533
_cell_angle_beta   90.04835757
_cell_angle_gamma   90.00354087
_symmetry_Int_Tables_number   1
_chemical_formula_structural   Tb5Er5(Tm5Bi6)2
_chemical_formula_sum   'Tb5 Er5 Tm10 Bi12'
_cell_volume   930.21962597
_cell_formula_units_Z   1
loop_
 _symmetry_equiv_pos_site_id
 _symmetry_equiv_pos_as_xyz
  1  'x, y, z'
loop_
 _atom_site_type_symbol
 _atom_site_label
 _atom_site_symmetry_multiplicity
 _atom_site_fract_x
 _atom_site_fract_y
 _atom_site_fract_z
 _atom_site_occupancy
  Tb  Tb0  1  0.192579  0.563587  0.440597  1
  Tb  Tb1  1  0.312670  0.250008  0.218707  1
  Tb  Tb2  1  0.812993  0.249981  0.281218  1
  Tb  Tb3  1  0.687349  0.750166  0.781452  1
  Tb  Tb4  1  0.187339  0.750507  0.719088  1
  Er  Er5  1  0.353513  0.750758  0.216875  1
  Er  Er6  1  0.852313  0.750529  0.282629  1
  Er  Er7  1  0.647315  0.250202  0.782826  1
  Er  Er8  1  0.147517  0.250467  0.717207  1
  Er  Er9  1  0.693052  0.565384  0.059268  1
  Tm  Tm10  1  0.193032  0.934225  0.440438  1
  Tm  Tm11  1  0.306782  0.065619  0.940755  1
  Tm  Tm12  1  0.807381  0.434316  0.559271  1
  Tm  Tm13  1  0.307023  0.434293  0.940597  1
  Tm  Tm14  1  0.806273  0.065472  0.559682  1
  Tm  Tm15  1  0.693110  0.934454  0.059262  1
  Tm  Tm16  1  0.476289  0.250078  0.488889  1
  Tm  Tm17  1  0.976067  0.250198  0.010936  1
  Tm  Tm18  1  0.524647  0.750346  0.511276  1
  Tm  Tm19  1  0.024145  0.750143  0.988786  1
  Bi  Bi20  1  0.405504  0.750040  0.958854  1
  Bi  Bi21  1  0.904968  0.750894  0.541442  1
  Bi  Bi22  1  0.594407  0.249716  0.040973  1
  Bi  Bi23  1  0.093557  0.246917  0.459422  1
  Bi  Bi24  1  0.565522  0.994733  0.326169  1
  Bi  Bi25  1  0.065214  0.505812  0.173236  1
  Bi  Bi26  1  0.434507  0.494619  0.674086  1
  Bi  Bi27  1  0.934465  0.005912  0.826344  1
  Bi  Bi28  1  0.434642  0.005851  0.673812  1
  Bi  Bi29  1  0.934238  0.494488  0.826387  1
  Bi  Bi30  1  0.566222  0.505764  0.326038  1
  Bi  Bi31  1  0.065364  0.994518  0.173477  1
