# generated using pymatgen
data_EuCo(P4Ru)3
_symmetry_space_group_name_H-M   'P 1'
_cell_length_a   6.93877121
_cell_length_b   6.99058468
_cell_length_c   6.93877120
_cell_angle_alpha   109.62255855
_cell_angle_beta   109.31945896
_cell_angle_gamma   109.62256268
_symmetry_Int_Tables_number   1
_chemical_formula_structural   EuCo(P4Ru)3
_chemical_formula_sum   'Eu1 Co1 P12 Ru3'
_cell_volume   258.60813305
_cell_formula_units_Z   1
loop_
 _symmetry_equiv_pos_site_id
 _symmetry_equiv_pos_as_xyz
  1  'x, y, z'
loop_
 _atom_site_type_symbol
 _atom_site_label
 _atom_site_symmetry_multiplicity
 _atom_site_fract_x
 _atom_site_fract_y
 _atom_site_fract_z
 _atom_site_occupancy
  Eu  Eu0  1  0.000000  0.000000  0.000000  1
  Co  Co1  1  0.000000  0.500000  0.000000  1
  P  P2  1  0.358490  0.215322  0.857211  1
  P  P3  1  0.641510  0.784678  0.142789  1
  P  P4  1  0.650570  0.499447  0.859673  1
  P  P5  1  0.349430  0.500553  0.140327  1
  P  P6  1  0.209103  0.848877  0.349430  1
  P  P7  1  0.790897  0.151123  0.650570  1
  P  P8  1  0.498721  0.856832  0.641510  1
  P  P9  1  0.501279  0.143168  0.358490  1
  P  P10  1  0.859673  0.360226  0.209103  1
  P  P11  1  0.140327  0.639774  0.790897  1
  P  P12  1  0.857211  0.641889  0.498721  1
  P  P13  1  0.142789  0.358111  0.501279  1
  Ru  Ru14  1  0.000000  0.000000  0.500000  1
  Ru  Ru15  1  0.500000  0.000000  0.000000  1
  Ru  Ru16  1  0.500000  0.500000  0.500000  1
