# generated using pymatgen
data_Zr3PaTeI11
_symmetry_space_group_name_H-M   'P 1'
_cell_length_a   6.72901981
_cell_length_b   8.06638301
_cell_length_c   14.05500299
_cell_angle_alpha   89.95357830
_cell_angle_beta   89.87204011
_cell_angle_gamma   90.07953912
_symmetry_Int_Tables_number   1
_chemical_formula_structural   Zr3PaTeI11
_chemical_formula_sum   'Zr3 Pa1 Te1 I11'
_cell_volume   762.88652491
_cell_formula_units_Z   1
loop_
 _symmetry_equiv_pos_site_id
 _symmetry_equiv_pos_as_xyz
  1  'x, y, z'
loop_
 _atom_site_type_symbol
 _atom_site_label
 _atom_site_symmetry_multiplicity
 _atom_site_fract_x
 _atom_site_fract_y
 _atom_site_fract_z
 _atom_site_occupancy
  Zr  Zr0  1  0.756838  0.747882  0.504426  1
  Zr  Zr1  1  0.254828  0.247953  0.999588  1
  Zr  Zr2  1  0.745245  0.247983  0.999592  1
  Pa  Pa3  1  0.246011  0.747409  0.505016  1
  Te  Te4  1  0.989285  0.601460  0.649708  1
  I  I5  1  0.990267  0.057496  0.494420  1
  I  I6  1  0.000251  0.100046  0.852714  1
  I  I7  1  0.999591  0.100330  0.147282  1
  I  I8  1  0.507523  0.901654  0.351015  1
  I  I9  1  0.499802  0.396709  0.148483  1
  I  I10  1  0.509593  0.443798  0.498472  1
  I  I11  1  0.509722  0.908467  0.652696  1
  I  I12  1  0.500572  0.397083  0.851366  1
  I  I13  1  0.499827  0.949058  0.000040  1
  I  I14  1  0.000249  0.543897  0.999886  1
  I  I15  1  0.990397  0.608777  0.345298  1
