# generated using pymatgen
data_Be6Co2TcW3
_symmetry_space_group_name_H-M   'P 1'
_cell_length_a   4.53584900
_cell_length_b   4.53584885
_cell_length_c   7.21671700
_cell_angle_alpha   90.00000000
_cell_angle_beta   90.00000000
_cell_angle_gamma   120.00000839
_symmetry_Int_Tables_number   1
_chemical_formula_structural   Be6Co2TcW3
_chemical_formula_sum   'Be6 Co2 Tc1 W3'
_cell_volume   128.58414820
_cell_formula_units_Z   1
loop_
 _symmetry_equiv_pos_site_id
 _symmetry_equiv_pos_as_xyz
  1  'x, y, z'
loop_
 _atom_site_type_symbol
 _atom_site_label
 _atom_site_symmetry_multiplicity
 _atom_site_fract_x
 _atom_site_fract_y
 _atom_site_fract_z
 _atom_site_occupancy
  Be  Be0  1  0.832088  0.167912  0.251595  1
  Be  Be1  1  0.832088  0.664175  0.251595  1
  Be  Be2  1  0.335825  0.167912  0.251595  1
  Be  Be3  1  0.168802  0.831198  0.749506  1
  Be  Be4  1  0.168802  0.337603  0.749506  1
  Be  Be5  1  0.662397  0.831198  0.749506  1
  Co  Co6  1  0.000000  0.000000  0.501102  1
  Co  Co7  1  0.000000  0.000000  0.001725  1
  Tc  Tc8  1  0.333333  0.666667  0.427390  1
  W  W9  1  0.666667  0.333333  0.562820  1
  W  W10  1  0.666667  0.333333  0.932470  1
  W  W11  1  0.333333  0.666667  0.071191  1
