# generated using pymatgen
data_Y6ReB14Ru
_symmetry_space_group_name_H-M   'P 1'
_cell_length_a   8.08401625
_cell_length_b   8.08401585
_cell_length_c   9.35452000
_cell_angle_alpha   90.00000000
_cell_angle_beta   90.00000000
_cell_angle_gamma   154.73320182
_symmetry_Int_Tables_number   1
_chemical_formula_structural   Y6ReB14Ru
_chemical_formula_sum   'Y6 Re1 B14 Ru1'
_cell_volume   260.93644391
_cell_formula_units_Z   1
loop_
 _symmetry_equiv_pos_site_id
 _symmetry_equiv_pos_as_xyz
  1  'x, y, z'
loop_
 _atom_site_type_symbol
 _atom_site_label
 _atom_site_symmetry_multiplicity
 _atom_site_fract_x
 _atom_site_fract_y
 _atom_site_fract_z
 _atom_site_occupancy
  Y  Y0  1  0.894504  0.105496  0.939830  1
  Y  Y1  1  0.105595  0.894405  0.061002  1
  Y  Y2  1  0.757005  0.242995  0.250000  1
  Y  Y3  1  0.243054  0.756946  0.750000  1
  Y  Y4  1  0.894504  0.105496  0.560170  1
  Y  Y5  1  0.105595  0.894405  0.438998  1
  Re  Re6  1  0.947158  0.052842  0.250000  1
  B  B7  1  0.543143  0.456857  0.250000  1
  B  B8  1  0.457746  0.542254  0.750000  1
  B  B9  1  0.520733  0.479267  0.903539  1
  B  B10  1  0.479390  0.520610  0.095521  1
  B  B11  1  0.479390  0.520610  0.404479  1
  B  B12  1  0.520733  0.479267  0.596461  1
  B  B13  1  0.631257  0.368743  0.848406  1
  B  B14  1  0.368015  0.631985  0.150950  1
  B  B15  1  0.726769  0.273231  0.965399  1
  B  B16  1  0.272708  0.727292  0.033497  1
  B  B17  1  0.272708  0.727292  0.466503  1
  B  B18  1  0.726769  0.273231  0.534601  1
  B  B19  1  0.631257  0.368743  0.651594  1
  B  B20  1  0.368015  0.631985  0.349050  1
  Ru  Ru21  1  0.053950  0.946050  0.750000  1
