# generated using pymatgen
data_PrEr2BiO7
_symmetry_space_group_name_H-M   'P 1'
_cell_length_a   6.61237579
_cell_length_b   6.60904556
_cell_length_c   7.73016455
_cell_angle_alpha   106.94916477
_cell_angle_beta   89.98202878
_cell_angle_gamma   99.30966226
_symmetry_Int_Tables_number   1
_chemical_formula_structural   PrEr2BiO7
_chemical_formula_sum   'Pr2 Er4 Bi2 O14'
_cell_volume   318.49685577
_cell_formula_units_Z   2
loop_
 _symmetry_equiv_pos_site_id
 _symmetry_equiv_pos_as_xyz
  1  'x, y, z'
loop_
 _atom_site_type_symbol
 _atom_site_label
 _atom_site_symmetry_multiplicity
 _atom_site_fract_x
 _atom_site_fract_y
 _atom_site_fract_z
 _atom_site_occupancy
  Pr  Pr0  1  0.740296  0.481787  0.620835  1
  Pr  Pr1  1  0.259704  0.518213  0.379165  1
  Er  Er2  1  0.465747  0.005550  0.250060  1
  Er  Er3  1  0.534253  0.994450  0.749940  1
  Er  Er4  1  0.275278  0.538415  0.886093  1
  Er  Er5  1  0.724722  0.461585  0.113907  1
  Bi  Bi6  1  0.000000  0.000000  0.500000  1
  Bi  Bi7  1  0.000000  0.000000  0.000000  1
  O  O8  1  0.454843  0.655335  0.158615  1
  O  O9  1  0.545157  0.344665  0.841385  1
  O  O10  1  0.301265  0.924070  0.953249  1
  O  O11  1  0.698735  0.075930  0.046751  1
  O  O12  1  0.300769  0.931753  0.513491  1
  O  O13  1  0.699231  0.068247  0.486509  1
  O  O14  1  0.549683  0.357097  0.334254  1
  O  O15  1  0.450317  0.642903  0.665746  1
  O  O16  1  0.925824  0.664702  0.958634  1
  O  O17  1  0.074176  0.335298  0.041366  1
  O  O18  1  0.079549  0.342561  0.625900  1
  O  O19  1  0.920451  0.657439  0.374100  1
  O  O20  1  0.873135  0.907283  0.726080  1
  O  O21  1  0.126865  0.092717  0.273920  1
