# generated using pymatgen
data_NaNdSm5OsBr12
_symmetry_space_group_name_H-M   'P 1'
_cell_length_a   9.47392006
_cell_length_b   9.49662317
_cell_length_c   9.47580961
_cell_angle_alpha   106.99603997
_cell_angle_beta   106.88112201
_cell_angle_gamma   107.20563060
_symmetry_Int_Tables_number   1
_chemical_formula_structural   NaNdSm5OsBr12
_chemical_formula_sum   'Na1 Nd1 Sm5 Os1 Br12'
_cell_volume   709.46454300
_cell_formula_units_Z   1
loop_
 _symmetry_equiv_pos_site_id
 _symmetry_equiv_pos_as_xyz
  1  'x, y, z'
loop_
 _atom_site_type_symbol
 _atom_site_label
 _atom_site_symmetry_multiplicity
 _atom_site_fract_x
 _atom_site_fract_y
 _atom_site_fract_z
 _atom_site_occupancy
  Na  Na0  1  0.499951  0.499900  0.500021  1
  Nd  Nd1  1  0.112637  0.319443  0.029330  1
  Sm  Sm2  1  0.317387  0.029879  0.111101  1
  Sm  Sm3  1  0.029463  0.110391  0.316934  1
  Sm  Sm4  1  0.970085  0.888191  0.682584  1
  Sm  Sm5  1  0.682607  0.970194  0.889105  1
  Sm  Sm6  1  0.888147  0.683097  0.970420  1
  Os  Os7  1  0.999792  0.999827  0.999501  1
  Br  Br8  1  0.216875  0.687235  0.073217  1
  Br  Br9  1  0.456655  0.368059  0.153781  1
  Br  Br10  1  0.683985  0.071912  0.216151  1
  Br  Br11  1  0.928728  0.783404  0.316368  1
  Br  Br12  1  0.152053  0.451400  0.372766  1
  Br  Br13  1  0.368089  0.151071  0.450892  1
  Br  Br14  1  0.631884  0.848820  0.549091  1
  Br  Br15  1  0.848192  0.548782  0.631719  1
  Br  Br16  1  0.070197  0.213838  0.678911  1
  Br  Br17  1  0.315932  0.927895  0.783745  1
  Br  Br18  1  0.548325  0.631655  0.848556  1
  Br  Br19  1  0.779013  0.315009  0.925810  1
