# generated using pymatgen
data_Fe9Si3(Mo3N)4
_symmetry_space_group_name_H-M   'P 1'
_cell_length_a   7.87011545
_cell_length_b   7.87011547
_cell_length_c   7.87011701
_cell_angle_alpha   59.21607541
_cell_angle_beta   59.21607352
_cell_angle_gamma   59.21607474
_symmetry_Int_Tables_number   1
_chemical_formula_structural   Fe9Si3(Mo3N)4
_chemical_formula_sum   'Fe9 Si3 Mo12 N4'
_cell_volume   338.53396822
_cell_formula_units_Z   1
loop_
 _symmetry_equiv_pos_site_id
 _symmetry_equiv_pos_as_xyz
  1  'x, y, z'
loop_
 _atom_site_type_symbol
 _atom_site_label
 _atom_site_symmetry_multiplicity
 _atom_site_fract_x
 _atom_site_fract_y
 _atom_site_fract_z
 _atom_site_occupancy
  Fe  Fe0  1  0.625000  0.625000  0.625000  1
  Fe  Fe1  1  0.739768  0.419745  0.419745  1
  Fe  Fe2  1  0.419745  0.739768  0.419745  1
  Fe  Fe3  1  0.419745  0.419745  0.739768  1
  Fe  Fe4  1  0.417612  0.417612  0.417612  1
  Fe  Fe5  1  0.510232  0.830255  0.830255  1
  Fe  Fe6  1  0.830255  0.510232  0.830255  1
  Fe  Fe7  1  0.830255  0.830255  0.510232  1
  Fe  Fe8  1  0.832388  0.832388  0.832388  1
  Si  Si9  1  0.125000  0.625000  0.625000  1
  Si  Si10  1  0.625000  0.125000  0.625000  1
  Si  Si11  1  0.625000  0.625000  0.125000  1
  Mo  Mo12  1  0.797497  0.797497  0.204776  1
  Mo  Mo13  1  0.195681  0.195681  0.803955  1
  Mo  Mo14  1  0.797497  0.204776  0.797497  1
  Mo  Mo15  1  0.195681  0.803955  0.195681  1
  Mo  Mo16  1  0.204776  0.797497  0.797497  1
  Mo  Mo17  1  0.803955  0.195681  0.195681  1
  Mo  Mo18  1  0.452503  0.452503  0.045224  1
  Mo  Mo19  1  0.054319  0.054319  0.446045  1
  Mo  Mo20  1  0.452503  0.045224  0.452503  1
  Mo  Mo21  1  0.054319  0.446045  0.054319  1
  Mo  Mo22  1  0.045224  0.452503  0.452503  1
  Mo  Mo23  1  0.446045  0.054319  0.054319  1
  N  N24  1  0.625000  0.125000  0.125000  1
  N  N25  1  0.125000  0.625000  0.125000  1
  N  N26  1  0.125000  0.125000  0.625000  1
  N  N27  1  0.125000  0.125000  0.125000  1
