# generated using pymatgen
data_Si2Bi3(PPd5)4
_symmetry_space_group_name_H-M   'P 1'
_cell_length_a   8.69697683
_cell_length_b   8.68200464
_cell_length_c   8.68200400
_cell_angle_alpha   60.11412707
_cell_angle_beta   59.94293288
_cell_angle_gamma   59.94293798
_symmetry_Int_Tables_number   1
_chemical_formula_structural   Si2Bi3(PPd5)4
_chemical_formula_sum   'Si2 Bi3 P4 Pd20'
_cell_volume   463.54373516
_cell_formula_units_Z   1
loop_
 _symmetry_equiv_pos_site_id
 _symmetry_equiv_pos_as_xyz
  1  'x, y, z'
loop_
 _atom_site_type_symbol
 _atom_site_label
 _atom_site_symmetry_multiplicity
 _atom_site_fract_x
 _atom_site_fract_y
 _atom_site_fract_z
 _atom_site_occupancy
  Si  Si0  1  0.732771  0.267229  0.267229  1
  Si  Si1  1  0.267229  0.732771  0.732771  1
  Bi  Bi2  1  0.250000  0.250000  0.250000  1
  Bi  Bi3  1  0.750000  0.750000  0.750000  1
  Bi  Bi4  1  0.000000  0.000000  0.000000  1
  P  P5  1  0.265954  0.734046  0.265954  1
  P  P6  1  0.734046  0.265954  0.734046  1
  P  P7  1  0.265954  0.265954  0.734046  1
  P  P8  1  0.734046  0.734046  0.265954  1
  Pd  Pd9  1  0.382560  0.384870  0.384870  1
  Pd  Pd10  1  0.617440  0.615130  0.615130  1
  Pd  Pd11  1  0.384870  0.382560  0.847702  1
  Pd  Pd12  1  0.384870  0.847702  0.382560  1
  Pd  Pd13  1  0.615130  0.617440  0.152298  1
  Pd  Pd14  1  0.615130  0.152298  0.617440  1
  Pd  Pd15  1  0.847702  0.384870  0.384870  1
  Pd  Pd16  1  0.152298  0.615130  0.615130  1
  Pd  Pd17  1  0.344267  0.000000  0.000000  1
  Pd  Pd18  1  0.655733  0.000000  0.000000  1
  Pd  Pd19  1  0.000000  0.344267  0.655733  1
  Pd  Pd20  1  0.000000  0.655733  0.344267  1
  Pd  Pd21  1  0.000753  0.345970  0.999247  1
  Pd  Pd22  1  0.654030  0.999247  0.345970  1
  Pd  Pd23  1  0.999247  0.654030  0.000753  1
  Pd  Pd24  1  0.345970  0.000753  0.654030  1
  Pd  Pd25  1  0.000753  0.999247  0.345970  1
  Pd  Pd26  1  0.999247  0.000753  0.654030  1
  Pd  Pd27  1  0.654030  0.345970  0.999247  1
  Pd  Pd28  1  0.345970  0.654030  0.000753  1
