# generated using pymatgen
data_Dy(NpGa4)3
_symmetry_space_group_name_H-M   'P 1'
_cell_length_a   6.06090000
_cell_length_b   6.06089918
_cell_length_c   9.71766600
_cell_angle_alpha   90.00000000
_cell_angle_beta   90.00000000
_cell_angle_gamma   119.99999356
_symmetry_Int_Tables_number   1
_chemical_formula_structural   Dy(NpGa4)3
_chemical_formula_sum   'Dy1 Np3 Ga12'
_cell_volume   309.14825990
_cell_formula_units_Z   1
loop_
 _symmetry_equiv_pos_site_id
 _symmetry_equiv_pos_as_xyz
  1  'x, y, z'
loop_
 _atom_site_type_symbol
 _atom_site_label
 _atom_site_symmetry_multiplicity
 _atom_site_fract_x
 _atom_site_fract_y
 _atom_site_fract_z
 _atom_site_occupancy
  Dy  Dy0  1  0.000000  0.000000  0.000000  1
  Np  Np1  1  0.000000  0.000000  0.500000  1
  Np  Np2  1  0.333333  0.666667  0.249503  1
  Np  Np3  1  0.666667  0.333333  0.750497  1
  Ga  Ga4  1  0.500000  0.500000  0.500000  1
  Ga  Ga5  1  0.500000  0.000000  0.500000  1
  Ga  Ga6  1  0.000000  0.500000  0.500000  1
  Ga  Ga7  1  0.500000  0.500000  0.000000  1
  Ga  Ga8  1  0.500000  0.000000  0.000000  1
  Ga  Ga9  1  0.000000  0.500000  0.000000  1
  Ga  Ga10  1  0.819563  0.639127  0.251026  1
  Ga  Ga11  1  0.360873  0.180437  0.251026  1
  Ga  Ga12  1  0.819563  0.180437  0.251026  1
  Ga  Ga13  1  0.180437  0.360873  0.748974  1
  Ga  Ga14  1  0.639127  0.819563  0.748974  1
  Ga  Ga15  1  0.180437  0.819563  0.748974  1
