# generated using pymatgen
data_YEr2Tm13(In3Ir)2
_symmetry_space_group_name_H-M   'P 1'
_cell_length_a   10.28493400
_cell_length_b   10.29870341
_cell_length_c   7.02271615
_cell_angle_alpha   90.04096911
_cell_angle_beta   90.00000000
_cell_angle_gamma   119.95577568
_symmetry_Int_Tables_number   1
_chemical_formula_structural   YEr2Tm13(In3Ir)2
_chemical_formula_sum   'Y1 Er2 Tm13 In6 Ir2'
_cell_volume   644.48531043
_cell_formula_units_Z   1
loop_
 _symmetry_equiv_pos_site_id
 _symmetry_equiv_pos_as_xyz
  1  'x, y, z'
loop_
 _atom_site_type_symbol
 _atom_site_label
 _atom_site_symmetry_multiplicity
 _atom_site_fract_x
 _atom_site_fract_y
 _atom_site_fract_z
 _atom_site_occupancy
  Y  Y0  1  0.532501  0.065001  0.792969  1
  Er  Er1  1  0.000174  0.000347  0.778534  1
  Er  Er2  1  0.999946  0.999893  0.278565  1
  Tm  Tm3  1  0.932498  0.466098  0.793084  1
  Tm  Tm4  1  0.533602  0.466098  0.793084  1
  Tm  Tm5  1  0.465765  0.931529  0.293325  1
  Tm  Tm6  1  0.067658  0.534047  0.293808  1
  Tm  Tm7  1  0.466390  0.534047  0.293808  1
  Tm  Tm8  1  0.823416  0.646832  0.498116  1
  Tm  Tm9  1  0.354028  0.177747  0.496666  1
  Tm  Tm10  1  0.823720  0.177747  0.496666  1
  Tm  Tm11  1  0.177082  0.354162  0.998871  1
  Tm  Tm12  1  0.646426  0.822180  0.999194  1
  Tm  Tm13  1  0.175755  0.822180  0.999194  1
  Tm  Tm14  1  0.667048  0.334092  0.174920  1
  Tm  Tm15  1  0.332823  0.665646  0.675512  1
  In  In16  1  0.836635  0.673271  0.040070  1
  In  In17  1  0.325311  0.162667  0.040308  1
  In  In18  1  0.837355  0.162667  0.040308  1
  In  In19  1  0.163228  0.326457  0.541464  1
  In  In20  1  0.673873  0.837554  0.541105  1
  In  In21  1  0.163682  0.837554  0.541105  1
  Ir  Ir22  1  0.667785  0.335568  0.566545  1
  Ir  Ir23  1  0.333303  0.666608  0.068682  1
