# generated using pymatgen
data_LaSm(Co3Si2)2
_symmetry_space_group_name_H-M   'P 1'
_cell_length_a   6.36128180
_cell_length_b   6.36128137
_cell_length_c   6.36128274
_cell_angle_alpha   130.29123610
_cell_angle_beta   114.69647794
_cell_angle_gamma   86.30274940
_symmetry_Int_Tables_number   1
_chemical_formula_structural   LaSm(Co3Si2)2
_chemical_formula_sum   'La1 Sm1 Co6 Si4'
_cell_volume   170.34870965
_cell_formula_units_Z   1
loop_
 _symmetry_equiv_pos_site_id
 _symmetry_equiv_pos_as_xyz
  1  'x, y, z'
loop_
 _atom_site_type_symbol
 _atom_site_label
 _atom_site_symmetry_multiplicity
 _atom_site_fract_x
 _atom_site_fract_y
 _atom_site_fract_z
 _atom_site_occupancy
  La  La0  1  0.750000  0.466179  0.716179  1
  Sm  Sm1  1  0.250000  0.537562  0.287562  1
  Co  Co2  1  0.998474  0.999291  0.497765  1
  Co  Co3  1  0.501526  0.999291  0.000818  1
  Co  Co4  1  0.718718  0.997584  0.719148  1
  Co  Co5  1  0.221563  0.500429  0.719148  1
  Co  Co6  1  0.278437  0.997584  0.278866  1
  Co  Co7  1  0.781282  0.500429  0.278866  1
  Si  Si8  1  0.082073  0.880107  0.798033  1
  Si  Si9  1  0.923385  0.126176  0.202791  1
  Si  Si10  1  0.576615  0.779409  0.202791  1
  Si  Si11  1  0.417927  0.215958  0.798033  1
