# generated using pymatgen
data_US4Br
_symmetry_space_group_name_H-M   'P 1'
_cell_length_a   7.08908331
_cell_length_b   7.81386932
_cell_length_c   7.33817122
_cell_angle_alpha   106.29661102
_cell_angle_beta   118.94379283
_cell_angle_gamma   89.01166384
_symmetry_Int_Tables_number   1
_chemical_formula_structural   US4Br
_chemical_formula_sum   'U2 S8 Br2'
_cell_volume   338.00272141
_cell_formula_units_Z   2
loop_
 _symmetry_equiv_pos_site_id
 _symmetry_equiv_pos_as_xyz
  1  'x, y, z'
loop_
 _atom_site_type_symbol
 _atom_site_label
 _atom_site_symmetry_multiplicity
 _atom_site_fract_x
 _atom_site_fract_y
 _atom_site_fract_z
 _atom_site_occupancy
  U  U0  1  0.309138  0.000731  0.118128  1
  U  U1  1  0.691132  0.999278  0.882414  1
  S  S2  1  0.521266  0.269222  0.076515  1
  S  S3  1  0.043370  0.271432  0.117964  1
  S  S4  1  0.004226  0.857214  0.185806  1
  S  S5  1  0.735154  0.151355  0.293679  1
  S  S6  1  0.264707  0.848651  0.706291  1
  S  S7  1  0.995884  0.142754  0.814134  1
  S  S8  1  0.956717  0.728605  0.881925  1
  S  S9  1  0.478496  0.730747  0.923349  1
  Br  Br10  1  0.565226  0.785918  0.420269  1
  Br  Br11  1  0.434685  0.214091  0.579527  1
