# generated using pymatgen
data_Na2Al(Ni2P)6
_symmetry_space_group_name_H-M   'P 1'
_cell_length_a   9.12570000
_cell_length_b   9.12569961
_cell_length_c   3.57760900
_cell_angle_alpha   90.00000000
_cell_angle_beta   90.00000000
_cell_angle_gamma   120.00000866
_symmetry_Int_Tables_number   1
_chemical_formula_structural   Na2Al(Ni2P)6
_chemical_formula_sum   'Na2 Al1 Ni12 P6'
_cell_volume   258.02145792
_cell_formula_units_Z   1
loop_
 _symmetry_equiv_pos_site_id
 _symmetry_equiv_pos_as_xyz
  1  'x, y, z'
loop_
 _atom_site_type_symbol
 _atom_site_label
 _atom_site_symmetry_multiplicity
 _atom_site_fract_x
 _atom_site_fract_y
 _atom_site_fract_z
 _atom_site_occupancy
  Na  Na0  1  0.666667  0.333333  0.000000  1
  Na  Na1  1  0.000000  0.000000  0.500000  1
  Al  Al2  1  0.333333  0.666667  0.000000  1
  Ni  Ni3  1  0.718075  0.100809  0.500000  1
  Ni  Ni4  1  0.899191  0.617266  0.500000  1
  Ni  Ni5  1  0.382734  0.281925  0.500000  1
  Ni  Ni6  1  0.769696  0.726741  0.000000  1
  Ni  Ni7  1  0.273259  0.042954  0.000000  1
  Ni  Ni8  1  0.957046  0.230304  0.000000  1
  Ni  Ni9  1  0.565779  0.766626  0.500000  1
  Ni  Ni10  1  0.233374  0.799153  0.500000  1
  Ni  Ni11  1  0.200847  0.434221  0.500000  1
  Ni  Ni12  1  0.497347  0.957929  0.000000  1
  Ni  Ni13  1  0.042071  0.539417  0.000000  1
  Ni  Ni14  1  0.460583  0.502653  0.000000  1
  P  P15  1  0.445956  0.074287  0.500000  1
  P  P16  1  0.925713  0.371669  0.500000  1
  P  P17  1  0.628331  0.554044  0.500000  1
  P  P18  1  0.741618  0.957429  0.000000  1
  P  P19  1  0.042571  0.784189  0.000000  1
  P  P20  1  0.215811  0.258382  0.000000  1
