# generated using pymatgen
data_K5Pb9
_symmetry_space_group_name_H-M   'P 1'
_cell_length_a   13.69469240
_cell_length_b   13.69469206
_cell_length_c   13.69469232
_cell_angle_alpha   29.22628156
_cell_angle_beta   29.22628697
_cell_angle_gamma   29.22628399
_symmetry_Int_Tables_number   1
_chemical_formula_structural   K5Pb9
_chemical_formula_sum   'K5 Pb9'
_cell_volume   541.74381895
_cell_formula_units_Z   1
loop_
 _symmetry_equiv_pos_site_id
 _symmetry_equiv_pos_as_xyz
  1  'x, y, z'
loop_
 _atom_site_type_symbol
 _atom_site_label
 _atom_site_symmetry_multiplicity
 _atom_site_fract_x
 _atom_site_fract_y
 _atom_site_fract_z
 _atom_site_occupancy
  K  K0  1  0.218654  0.218654  0.218654  1
  K  K1  1  0.316267  0.316267  0.316267  1
  K  K2  1  0.500000  0.500000  0.500000  1
  K  K3  1  0.683733  0.683733  0.683733  1
  K  K4  1  0.781346  0.781346  0.781346  1
  Pb  Pb5  1  0.000000  0.000000  0.000000  1
  Pb  Pb6  1  0.127081  0.127081  0.127081  1
  Pb  Pb7  1  0.726919  0.237006  0.237007  1
  Pb  Pb8  1  0.237006  0.726919  0.237007  1
  Pb  Pb9  1  0.762993  0.762993  0.273082  1
  Pb  Pb10  1  0.237007  0.237007  0.726918  1
  Pb  Pb11  1  0.762994  0.273080  0.762993  1
  Pb  Pb12  1  0.273080  0.762994  0.762993  1
  Pb  Pb13  1  0.872919  0.872919  0.872919  1
