# generated using pymatgen
data_Y2Er(MgHg)3
_symmetry_space_group_name_H-M   'P 1'
_cell_length_a   7.66750000
_cell_length_b   7.65094170
_cell_length_c   4.34752700
_cell_angle_alpha   90.00000000
_cell_angle_beta   90.00000000
_cell_angle_gamma   120.07161761
_symmetry_Int_Tables_number   1
_chemical_formula_structural   Y2Er(MgHg)3
_chemical_formula_sum   'Y2 Er1 Mg3 Hg3'
_cell_volume   220.71290569
_cell_formula_units_Z   1
loop_
 _symmetry_equiv_pos_site_id
 _symmetry_equiv_pos_as_xyz
  1  'x, y, z'
loop_
 _atom_site_type_symbol
 _atom_site_label
 _atom_site_symmetry_multiplicity
 _atom_site_fract_x
 _atom_site_fract_y
 _atom_site_fract_z
 _atom_site_occupancy
  Y  Y0  1  0.998856  0.414181  0.000000  1
  Y  Y1  1  0.584674  0.585819  0.000000  1
  Er  Er2  1  0.414152  0.000000  0.000000  1
  Mg  Mg3  1  0.753695  0.000000  0.500000  1
  Mg  Mg4  1  0.248033  0.248605  0.500000  1
  Mg  Mg5  1  0.999429  0.751396  0.500000  1
  Hg  Hg6  1  0.002933  0.000000  0.000000  1
  Hg  Hg7  1  0.663972  0.329718  0.500000  1
  Hg  Hg8  1  0.334255  0.670282  0.500000  1
