# generated using pymatgen
data_AlIrBr6
_symmetry_space_group_name_H-M   'P 1'
_cell_length_a   6.43904747
_cell_length_b   6.43904710
_cell_length_c   7.02487015
_cell_angle_alpha   81.50212623
_cell_angle_beta   81.50212971
_cell_angle_gamma   119.98268988
_symmetry_Int_Tables_number   1
_chemical_formula_structural   AlIrBr6
_chemical_formula_sum   'Al1 Ir1 Br6'
_cell_volume   241.01917024
_cell_formula_units_Z   1
loop_
 _symmetry_equiv_pos_site_id
 _symmetry_equiv_pos_as_xyz
  1  'x, y, z'
loop_
 _atom_site_type_symbol
 _atom_site_label
 _atom_site_symmetry_multiplicity
 _atom_site_fract_x
 _atom_site_fract_y
 _atom_site_fract_z
 _atom_site_occupancy
  Al  Al0  1  0.166834  0.833166  0.000000  1
  Ir  Ir1  1  0.833318  0.166682  0.000000  1
  Br  Br2  1  0.923495  0.566173  0.787895  1
  Br  Br3  1  0.433827  0.076505  0.212105  1
  Br  Br4  1  0.786936  0.789137  0.212358  1
  Br  Br5  1  0.210863  0.213064  0.787642  1
  Br  Br6  1  0.570560  0.925833  0.787807  1
  Br  Br7  1  0.074167  0.429440  0.212193  1
