# generated using pymatgen
data_Be8Fe3Cu(W6C)2
_symmetry_space_group_name_H-M   'P 1'
_cell_length_a   7.57425950
_cell_length_b   7.57425953
_cell_length_c   7.57331103
_cell_angle_alpha   59.99585562
_cell_angle_beta   59.99585198
_cell_angle_gamma   60.00000118
_symmetry_Int_Tables_number   1
_chemical_formula_structural   Be8Fe3Cu(W6C)2
_chemical_formula_sum   'Be8 Fe3 Cu1 W12 C2'
_cell_volume   307.20193132
_cell_formula_units_Z   1
loop_
 _symmetry_equiv_pos_site_id
 _symmetry_equiv_pos_as_xyz
  1  'x, y, z'
loop_
 _atom_site_type_symbol
 _atom_site_label
 _atom_site_symmetry_multiplicity
 _atom_site_fract_x
 _atom_site_fract_y
 _atom_site_fract_z
 _atom_site_occupancy
  Be  Be0  1  0.918364  0.239020  0.924254  1
  Be  Be1  1  0.331636  0.010980  0.325746  1
  Be  Be2  1  0.331636  0.331636  0.325746  1
  Be  Be3  1  0.010980  0.331636  0.325746  1
  Be  Be4  1  0.922249  0.922249  0.233255  1
  Be  Be5  1  0.239020  0.918364  0.924254  1
  Be  Be6  1  0.327751  0.327751  0.016745  1
  Be  Be7  1  0.918364  0.918364  0.924254  1
  Fe  Fe8  1  0.125000  0.625000  0.125000  1
  Fe  Fe9  1  0.125000  0.125000  0.125000  1
  Fe  Fe10  1  0.625000  0.125000  0.125000  1
  Cu  Cu11  1  0.125000  0.125000  0.625000  1
  W  W12  1  0.300272  0.697450  0.702006  1
  W  W13  1  0.300272  0.300272  0.702006  1
  W  W14  1  0.552550  0.949728  0.547994  1
  W  W15  1  0.949728  0.552550  0.547994  1
  W  W16  1  0.548209  0.951578  0.952005  1
  W  W17  1  0.701791  0.298422  0.297995  1
  W  W18  1  0.951578  0.548209  0.952005  1
  W  W19  1  0.298422  0.701791  0.297995  1
  W  W20  1  0.548209  0.548209  0.952005  1
  W  W21  1  0.697450  0.300272  0.702006  1
  W  W22  1  0.701791  0.701791  0.297995  1
  W  W23  1  0.949728  0.949728  0.547994  1
  C  C24  1  0.749363  0.749363  0.751910  1
  C  C25  1  0.500637  0.500637  0.498090  1
