# generated using pymatgen
data_Ti4AlInRh10
_symmetry_space_group_name_H-M   'P 1'
_cell_length_a   4.02228900
_cell_length_b   5.43360612
_cell_length_c   10.79677890
_cell_angle_alpha   91.16775634
_cell_angle_beta   90.00000000
_cell_angle_gamma   90.00000000
_symmetry_Int_Tables_number   1
_chemical_formula_structural   Ti4AlInRh10
_chemical_formula_sum   'Ti4 Al1 In1 Rh10'
_cell_volume   235.92036127
_cell_formula_units_Z   1
loop_
 _symmetry_equiv_pos_site_id
 _symmetry_equiv_pos_as_xyz
  1  'x, y, z'
loop_
 _atom_site_type_symbol
 _atom_site_label
 _atom_site_symmetry_multiplicity
 _atom_site_fract_x
 _atom_site_fract_y
 _atom_site_fract_z
 _atom_site_occupancy
  Ti  Ti0  1  0.500000  0.318323  0.144434  1
  Ti  Ti1  1  0.500000  0.681677  0.855566  1
  Ti  Ti2  1  0.500000  0.819126  0.363990  1
  Ti  Ti3  1  0.500000  0.180874  0.636010  1
  Al  Al4  1  0.000000  0.500000  0.500000  1
  In  In5  1  0.000000  0.000000  0.000000  1
  Rh  Rh6  1  0.000000  0.000000  0.500000  1
  Rh  Rh7  1  0.000000  0.500000  0.000000  1
  Rh  Rh8  1  0.000000  0.062706  0.253400  1
  Rh  Rh9  1  0.000000  0.937294  0.746600  1
  Rh  Rh10  1  0.000000  0.560286  0.257484  1
  Rh  Rh11  1  0.000000  0.439714  0.742516  1
  Rh  Rh12  1  0.500000  0.306172  0.391435  1
  Rh  Rh13  1  0.500000  0.693828  0.608565  1
  Rh  Rh14  1  0.500000  0.785324  0.125012  1
  Rh  Rh15  1  0.500000  0.214676  0.874988  1
