# generated using pymatgen
data_K2Sb(TeO4)3
_symmetry_space_group_name_H-M   'P 1'
_cell_length_a   7.33130486
_cell_length_b   7.33130480
_cell_length_c   7.33105141
_cell_angle_alpha   60.48958438
_cell_angle_beta   60.48958198
_cell_angle_gamma   60.48068692
_symmetry_Int_Tables_number   1
_chemical_formula_structural   K2Sb(TeO4)3
_chemical_formula_sum   'K2 Sb1 Te3 O12'
_cell_volume   281.68538430
_cell_formula_units_Z   1
loop_
 _symmetry_equiv_pos_site_id
 _symmetry_equiv_pos_as_xyz
  1  'x, y, z'
loop_
 _atom_site_type_symbol
 _atom_site_label
 _atom_site_symmetry_multiplicity
 _atom_site_fract_x
 _atom_site_fract_y
 _atom_site_fract_z
 _atom_site_occupancy
  K  K0  1  0.828808  0.893018  0.384693  1
  K  K1  1  0.106982  0.171192  0.615307  1
  Sb  Sb2  1  0.498258  0.501742  0.000000  1
  Te  Te3  1  0.999053  0.501297  0.999745  1
  Te  Te4  1  0.498703  0.000947  0.000255  1
  Te  Te5  1  0.498280  0.501720  0.500000  1
  O  O6  1  0.177740  0.179582  0.070657  1
  O  O7  1  0.574983  0.571880  0.673503  1
  O  O8  1  0.172524  0.571859  0.075783  1
  O  O9  1  0.570049  0.180060  0.678860  1
  O  O10  1  0.572546  0.174743  0.073300  1
  O  O11  1  0.177652  0.569452  0.678400  1
  O  O12  1  0.820418  0.822260  0.929343  1
  O  O13  1  0.428120  0.425017  0.326497  1
  O  O14  1  0.825257  0.427454  0.926700  1
  O  O15  1  0.430548  0.822348  0.321600  1
  O  O16  1  0.428141  0.827476  0.924217  1
  O  O17  1  0.819940  0.429951  0.321140  1
