# generated using pymatgen
data_TbDy9(AlSb2)2
_symmetry_space_group_name_H-M   'P 1'
_cell_length_a   8.89401102
_cell_length_b   8.89829309
_cell_length_c   6.40974300
_cell_angle_alpha   89.99188047
_cell_angle_beta   90.00406494
_cell_angle_gamma   120.01592373
_symmetry_Int_Tables_number   1
_chemical_formula_structural   TbDy9(AlSb2)2
_chemical_formula_sum   'Tb1 Dy9 Al2 Sb4'
_cell_volume   439.24406845
_cell_formula_units_Z   1
loop_
 _symmetry_equiv_pos_site_id
 _symmetry_equiv_pos_as_xyz
  1  'x, y, z'
loop_
 _atom_site_type_symbol
 _atom_site_label
 _atom_site_symmetry_multiplicity
 _atom_site_fract_x
 _atom_site_fract_y
 _atom_site_fract_z
 _atom_site_occupancy
  Tb  Tb0  1  0.335593  0.667797  0.000000  1
  Dy  Dy1  1  0.007937  0.765178  0.749972  1
  Dy  Dy2  1  0.007937  0.242759  0.250028  1
  Dy  Dy3  1  0.756067  0.757109  0.250013  1
  Dy  Dy4  1  0.756067  0.998957  0.749987  1
  Dy  Dy5  1  0.241429  0.232308  0.749993  1
  Dy  Dy6  1  0.241429  0.009120  0.250007  1
  Dy  Dy7  1  0.335624  0.667812  0.500000  1
  Dy  Dy8  1  0.656102  0.328051  0.000000  1
  Dy  Dy9  1  0.656057  0.328028  0.500000  1
  Al  Al10  1  0.397962  0.997272  0.750012  1
  Al  Al11  1  0.397962  0.400690  0.249988  1
  Sb  Sb12  1  0.998483  0.606678  0.250032  1
  Sb  Sb13  1  0.998483  0.391805  0.749968  1
  Sb  Sb14  1  0.606435  0.605311  0.749990  1
  Sb  Sb15  1  0.606435  0.001125  0.250010  1
