# generated using pymatgen
data_Pa3Ga3NiPt2
_symmetry_space_group_name_H-M   'P 1'
_cell_length_a   7.03190400
_cell_length_b   7.03190493
_cell_length_c   4.08166500
_cell_angle_alpha   90.00000000
_cell_angle_beta   90.00000000
_cell_angle_gamma   120.00000502
_symmetry_Int_Tables_number   1
_chemical_formula_structural   Pa3Ga3NiPt2
_chemical_formula_sum   'Pa3 Ga3 Ni1 Pt2'
_cell_volume   174.78891676
_cell_formula_units_Z   1
loop_
 _symmetry_equiv_pos_site_id
 _symmetry_equiv_pos_as_xyz
  1  'x, y, z'
loop_
 _atom_site_type_symbol
 _atom_site_label
 _atom_site_symmetry_multiplicity
 _atom_site_fract_x
 _atom_site_fract_y
 _atom_site_fract_z
 _atom_site_occupancy
  Pa  Pa0  1  0.410129  0.000000  0.500000  1
  Pa  Pa1  1  0.000000  0.410129  0.500000  1
  Pa  Pa2  1  0.589871  0.589871  0.500000  1
  Ga  Ga3  1  0.767129  0.000000  0.000000  1
  Ga  Ga4  1  0.000000  0.767129  0.000000  1
  Ga  Ga5  1  0.232871  0.232871  0.000000  1
  Ni  Ni6  1  0.000000  0.000000  0.500000  1
  Pt  Pt7  1  0.333333  0.666667  0.000000  1
  Pt  Pt8  1  0.666667  0.333333  0.000000  1
