# generated using pymatgen
data_Y17Ho3Ir11Au
_symmetry_space_group_name_H-M   'P 1'
_cell_length_a   10.99452976
_cell_length_b   10.99515923
_cell_length_c   6.37050210
_cell_angle_alpha   89.93061610
_cell_angle_beta   89.94840234
_cell_angle_gamma   89.56916466
_symmetry_Int_Tables_number   1
_chemical_formula_structural   Y17Ho3Ir11Au
_chemical_formula_sum   'Y17 Ho3 Ir11 Au1'
_cell_volume   770.08573099
_cell_formula_units_Z   1
loop_
 _symmetry_equiv_pos_site_id
 _symmetry_equiv_pos_as_xyz
  1  'x, y, z'
loop_
 _atom_site_type_symbol
 _atom_site_label
 _atom_site_symmetry_multiplicity
 _atom_site_fract_x
 _atom_site_fract_y
 _atom_site_fract_z
 _atom_site_occupancy
  Y  Y0  1  0.290269  0.088162  0.376763  1
  Y  Y1  1  0.292525  0.911159  0.875925  1
  Y  Y2  1  0.704374  0.084681  0.866460  1
  Y  Y3  1  0.705808  0.905124  0.379950  1
  Y  Y4  1  0.587711  0.790664  0.878821  1
  Y  Y5  1  0.579890  0.210216  0.378462  1
  Y  Y6  1  0.411084  0.790959  0.377442  1
  Y  Y7  1  0.410545  0.208772  0.877684  1
  Y  Y8  1  0.209345  0.412228  0.621228  1
  Y  Y9  1  0.209025  0.588813  0.122527  1
  Y  Y10  1  0.789770  0.420207  0.121416  1
  Y  Y11  1  0.791235  0.589507  0.622310  1
  Y  Y12  1  0.912025  0.709886  0.123146  1
  Y  Y13  1  0.915230  0.295755  0.633657  1
  Y  Y14  1  0.089018  0.707330  0.624141  1
  Y  Y15  1  0.094669  0.294044  0.120068  1
  Y  Y16  1  0.003537  0.996049  0.501610  1
  Ho  Ho17  1  0.004091  0.996326  0.998236  1
  Ho  Ho18  1  0.499182  0.499672  0.999071  1
  Ho  Ho19  1  0.500305  0.500781  0.500990  1
  Ir  Ir20  1  0.847120  0.848624  0.750941  1
  Ir  Ir21  1  0.151434  0.152747  0.751665  1
  Ir  Ir22  1  0.154497  0.845466  0.248482  1
  Ir  Ir23  1  0.654064  0.345964  0.749974  1
  Ir  Ir24  1  0.652460  0.651136  0.248566  1
  Ir  Ir25  1  0.348888  0.347549  0.251324  1
  Ir  Ir26  1  0.347590  0.652399  0.749987  1
  Ir  Ir27  1  0.500577  0.000179  0.125765  1
  Ir  Ir28  1  0.499711  0.000451  0.621949  1
  Ir  Ir29  1  0.999552  0.500297  0.877965  1
  Ir  Ir30  1  0.999838  0.499428  0.374253  1
  Au  Au31  1  0.844631  0.155425  0.249222  1
