# generated using pymatgen
data_Ta9V4Si
_symmetry_space_group_name_H-M   'P 1'
_cell_length_a   5.10067556
_cell_length_b   9.90667961
_cell_length_c   9.90667971
_cell_angle_alpha   86.18803858
_cell_angle_beta   74.97862807
_cell_angle_gamma   74.97864756
_symmetry_Int_Tables_number   1
_chemical_formula_structural   Ta9V4Si
_chemical_formula_sum   'Ta18 V8 Si2'
_cell_volume   466.96522315
_cell_formula_units_Z   2
loop_
 _symmetry_equiv_pos_site_id
 _symmetry_equiv_pos_as_xyz
  1  'x, y, z'
loop_
 _atom_site_type_symbol
 _atom_site_label
 _atom_site_symmetry_multiplicity
 _atom_site_fract_x
 _atom_site_fract_y
 _atom_site_fract_z
 _atom_site_occupancy
  Ta  Ta0  1  0.750000  0.500366  0.499634  1
  Ta  Ta1  1  0.250000  0.499634  0.500366  1
  Ta  Ta2  1  0.794138  0.771267  0.641140  1
  Ta  Ta3  1  0.205862  0.228733  0.358860  1
  Ta  Ta4  1  0.705862  0.358860  0.228733  1
  Ta  Ta5  1  0.294138  0.641140  0.771267  1
  Ta  Ta6  1  0.564394  0.641105  0.228767  1
  Ta  Ta7  1  0.435606  0.358895  0.771233  1
  Ta  Ta8  1  0.064394  0.228767  0.641105  1
  Ta  Ta9  1  0.935606  0.771233  0.358895  1
  Ta  Ta10  1  0.583579  0.073502  0.758694  1
  Ta  Ta11  1  0.416421  0.926498  0.241306  1
  Ta  Ta12  1  0.916421  0.241306  0.926498  1
  Ta  Ta13  1  0.083579  0.758694  0.073502  1
  Ta  Ta14  1  0.657114  0.758608  0.926425  1
  Ta  Ta15  1  0.342886  0.241392  0.073575  1
  Ta  Ta16  1  0.157114  0.926425  0.758608  1
  Ta  Ta17  1  0.842886  0.073575  0.241392  1
  V  V18  1  0.500000  0.000000  0.500000  1
  V  V19  1  0.000000  0.000000  0.500000  1
  V  V20  1  0.500000  0.500000  0.000000  1
  V  V21  1  0.000000  0.500000  0.000000  1
  V  V22  1  0.134000  0.499966  0.232092  1
  V  V23  1  0.866000  0.500034  0.767908  1
  V  V24  1  0.366000  0.767908  0.500034  1
  V  V25  1  0.634000  0.232092  0.499966  1
  Si  Si26  1  0.250000  0.000265  0.999735  1
  Si  Si27  1  0.750000  0.999735  0.000265  1
