# generated using pymatgen
data_PuHgO4
_symmetry_space_group_name_H-M   'P 1'
_cell_length_a   5.16016504
_cell_length_b   5.16016504
_cell_length_c   3.65752100
_cell_angle_alpha   90.00000000
_cell_angle_beta   90.00000000
_cell_angle_gamma   98.21677345
_symmetry_Int_Tables_number   1
_chemical_formula_structural   PuHgO4
_chemical_formula_sum   'Pu1 Hg1 O4'
_cell_volume   96.39015813
_cell_formula_units_Z   1
loop_
 _symmetry_equiv_pos_site_id
 _symmetry_equiv_pos_as_xyz
  1  'x, y, z'
loop_
 _atom_site_type_symbol
 _atom_site_label
 _atom_site_symmetry_multiplicity
 _atom_site_fract_x
 _atom_site_fract_y
 _atom_site_fract_z
 _atom_site_occupancy
  Pu  Pu0  1  0.499999  0.499999  0.499998  1
  Hg  Hg1  1  0.000000  0.000000  0.000000  1
  O  O2  1  0.302938  0.302938  0.000000  1
  O  O3  1  0.697062  0.697062  0.000000  1
  O  O4  1  0.734001  0.266001  0.499998  1
  O  O5  1  0.266001  0.734001  0.499998  1
