# generated using pymatgen
data_Er6Lu6In2FeTc2
_symmetry_space_group_name_H-M   'P 1'
_cell_length_a   8.30570964
_cell_length_b   8.29371932
_cell_length_c   8.30571040
_cell_angle_alpha   108.74265594
_cell_angle_beta   108.71748192
_cell_angle_gamma   111.02417076
_symmetry_Int_Tables_number   1
_chemical_formula_structural   Er6Lu6In2FeTc2
_chemical_formula_sum   'Er6 Lu6 In2 Fe1 Tc2'
_cell_volume   439.87226689
_cell_formula_units_Z   1
loop_
 _symmetry_equiv_pos_site_id
 _symmetry_equiv_pos_as_xyz
  1  'x, y, z'
loop_
 _atom_site_type_symbol
 _atom_site_label
 _atom_site_symmetry_multiplicity
 _atom_site_fract_x
 _atom_site_fract_y
 _atom_site_fract_z
 _atom_site_occupancy
  Er  Er0  1  0.302402  0.302899  0.609611  1
  Er  Er1  1  0.694924  0.693995  0.390438  1
  Er  Er2  1  0.693289  0.302899  0.000497  1
  Er  Er3  1  0.303557  0.693995  0.999071  1
  Er  Er4  1  0.190589  0.431900  0.241311  1
  Er  Er5  1  0.806388  0.568725  0.762337  1
  Lu  Lu6  1  0.190385  0.949799  0.759415  1
  Lu  Lu7  1  0.949969  0.188473  0.760129  1
  Lu  Lu8  1  0.806429  0.043620  0.237190  1
  Lu  Lu9  1  0.044445  0.808924  0.237078  1
  Lu  Lu10  1  0.428344  0.188473  0.238503  1
  Lu  Lu11  1  0.571846  0.808924  0.764479  1
  In  In12  1  0.997232  0.496855  0.499622  1
  In  In13  1  0.498774  0.997933  0.499158  1
  Fe  Fe14  1  0.632875  0.634414  0.001539  1
  Tc  Tc15  1  0.387751  0.387333  0.999582  1
  Tc  Tc16  1  0.000801  0.000841  0.000040  1
