# generated using pymatgen
data_Tb2Th2Pd3PtPb2
_symmetry_space_group_name_H-M   'P 1'
_cell_length_a   8.06595247
_cell_length_b   8.06493747
_cell_length_c   3.68743100
_cell_angle_alpha   90.00000000
_cell_angle_beta   90.00000000
_cell_angle_gamma   89.96086484
_symmetry_Int_Tables_number   1
_chemical_formula_structural   Tb2Th2Pd3PtPb2
_chemical_formula_sum   'Tb2 Th2 Pd3 Pt1 Pb2'
_cell_volume   239.87250152
_cell_formula_units_Z   1
loop_
 _symmetry_equiv_pos_site_id
 _symmetry_equiv_pos_as_xyz
  1  'x, y, z'
loop_
 _atom_site_type_symbol
 _atom_site_label
 _atom_site_symmetry_multiplicity
 _atom_site_fract_x
 _atom_site_fract_y
 _atom_site_fract_z
 _atom_site_occupancy
  Tb  Tb0  1  0.829551  0.672063  0.500000  1
  Tb  Tb1  1  0.326954  0.831640  0.500000  1
  Th  Th2  1  0.666580  0.168918  0.500000  1
  Th  Th3  1  0.173809  0.329272  0.500000  1
  Pd  Pd4  1  0.125911  0.620619  0.000000  1
  Pd  Pd5  1  0.627771  0.874952  0.000000  1
  Pd  Pd6  1  0.872175  0.371259  0.000000  1
  Pt  Pt7  1  0.374724  0.127072  0.000000  1
  Pb  Pb8  1  0.999074  0.988383  0.000000  1
  Pb  Pb9  1  0.503452  0.515823  0.000000  1
