# generated using pymatgen
data_DyTm9Sn8
_symmetry_space_group_name_H-M   'P 1'
_cell_length_a   7.95238000
_cell_length_b   8.07570201
_cell_length_c   15.25503702
_cell_angle_alpha   90.00101353
_cell_angle_beta   90.00000000
_cell_angle_gamma   90.00000000
_symmetry_Int_Tables_number   1
_chemical_formula_structural   DyTm9Sn8
_chemical_formula_sum   'Dy2 Tm18 Sn16'
_cell_volume   979.69451232
_cell_formula_units_Z   2
loop_
 _symmetry_equiv_pos_site_id
 _symmetry_equiv_pos_as_xyz
  1  'x, y, z'
loop_
 _atom_site_type_symbol
 _atom_site_label
 _atom_site_symmetry_multiplicity
 _atom_site_fract_x
 _atom_site_fract_y
 _atom_site_fract_z
 _atom_site_occupancy
  Dy  Dy0  1  0.521194  0.320756  0.596783  1
  Dy  Dy1  1  0.021194  0.179244  0.903217  1
  Tm  Tm2  1  0.368019  0.836986  0.877503  1
  Tm  Tm3  1  0.868019  0.663014  0.622497  1
  Tm  Tm4  1  0.632159  0.162419  0.376918  1
  Tm  Tm5  1  0.132159  0.337581  0.123082  1
  Tm  Tm6  1  0.632220  0.162652  0.123038  1
  Tm  Tm7  1  0.132220  0.337348  0.376962  1
  Tm  Tm8  1  0.368039  0.837208  0.622513  1
  Tm  Tm9  1  0.868039  0.662792  0.877487  1
  Tm  Tm10  1  0.522130  0.321187  0.902922  1
  Tm  Tm11  1  0.022130  0.178813  0.597078  1
  Tm  Tm12  1  0.478226  0.678758  0.402403  1
  Tm  Tm13  1  0.978226  0.821242  0.097597  1
  Tm  Tm14  1  0.478147  0.678604  0.097410  1
  Tm  Tm15  1  0.978147  0.821396  0.402590  1
  Tm  Tm16  1  0.198853  0.503409  0.750063  1
  Tm  Tm17  1  0.698853  0.996591  0.749937  1
  Tm  Tm18  1  0.800982  0.496849  0.250022  1
  Tm  Tm19  1  0.300982  0.003151  0.249978  1
  Sn  Sn20  1  0.293493  0.037046  0.041890  1
  Sn  Sn21  1  0.793493  0.462954  0.458110  1
  Sn  Sn22  1  0.708813  0.963375  0.541393  1
  Sn  Sn23  1  0.208813  0.536625  0.958607  1
  Sn  Sn24  1  0.706044  0.962742  0.958663  1
  Sn  Sn25  1  0.206044  0.537258  0.541337  1
  Sn  Sn26  1  0.291908  0.037507  0.458674  1
  Sn  Sn27  1  0.791908  0.462493  0.041326  1
  Sn  Sn28  1  0.565088  0.618506  0.750167  1
  Sn  Sn29  1  0.065088  0.881494  0.749833  1
  Sn  Sn30  1  0.435130  0.381208  0.249877  1
  Sn  Sn31  1  0.935130  0.118792  0.250123  1
  Sn  Sn32  1  0.331573  0.149163  0.750543  1
  Sn  Sn33  1  0.831573  0.350837  0.749457  1
  Sn  Sn34  1  0.667982  0.850568  0.249880  1
  Sn  Sn35  1  0.167982  0.649432  0.250120  1
