# generated using pymatgen
data_Np(NbB3)2
_symmetry_space_group_name_H-M   'P 1'
_cell_length_a   3.12210600
_cell_length_b   3.12210591
_cell_length_c   10.63766800
_cell_angle_alpha   90.00000000
_cell_angle_beta   90.00000000
_cell_angle_gamma   120.00000100
_symmetry_Int_Tables_number   1
_chemical_formula_structural   Np(NbB3)2
_chemical_formula_sum   'Np1 Nb2 B6'
_cell_volume   89.79917234
_cell_formula_units_Z   1
loop_
 _symmetry_equiv_pos_site_id
 _symmetry_equiv_pos_as_xyz
  1  'x, y, z'
loop_
 _atom_site_type_symbol
 _atom_site_label
 _atom_site_symmetry_multiplicity
 _atom_site_fract_x
 _atom_site_fract_y
 _atom_site_fract_z
 _atom_site_occupancy
  Np  Np0  1  0.000000  0.000000  0.000000  1
  Nb  Nb1  1  0.000000  0.000000  0.654764  1
  Nb  Nb2  1  0.000000  0.000000  0.345236  1
  B  B3  1  0.666667  0.333333  0.815001  1
  B  B4  1  0.666667  0.333333  0.500000  1
  B  B5  1  0.666667  0.333333  0.184999  1
  B  B6  1  0.333333  0.666667  0.815001  1
  B  B7  1  0.333333  0.666667  0.500000  1
  B  B8  1  0.333333  0.666667  0.184999  1
