# generated using pymatgen
data_DyY2Lu(NiAs)4
_symmetry_space_group_name_H-M   'P 1'
_cell_length_a   4.04435600
_cell_length_b   4.04435597
_cell_length_c   15.50514000
_cell_angle_alpha   90.00000000
_cell_angle_beta   90.00000000
_cell_angle_gamma   120.00000027
_symmetry_Int_Tables_number   1
_chemical_formula_structural   DyY2Lu(NiAs)4
_chemical_formula_sum   'Dy1 Y2 Lu1 Ni4 As4'
_cell_volume   219.63678235
_cell_formula_units_Z   1
loop_
 _symmetry_equiv_pos_site_id
 _symmetry_equiv_pos_as_xyz
  1  'x, y, z'
loop_
 _atom_site_type_symbol
 _atom_site_label
 _atom_site_symmetry_multiplicity
 _atom_site_fract_x
 _atom_site_fract_y
 _atom_site_fract_z
 _atom_site_occupancy
  Dy  Dy0  1  0.000000  0.000000  0.503401  1
  Y  Y1  1  0.000000  0.000000  0.250777  1
  Y  Y2  1  0.000000  0.000000  0.996206  1
  Lu  Lu3  1  0.000000  0.000000  0.749562  1
  Ni  Ni4  1  0.333333  0.666667  0.128947  1
  Ni  Ni5  1  0.666667  0.333333  0.857633  1
  Ni  Ni6  1  0.666667  0.333333  0.641394  1
  Ni  Ni7  1  0.333333  0.666667  0.372350  1
  As  As8  1  0.333333  0.666667  0.622557  1
  As  As9  1  0.666667  0.333333  0.380252  1
  As  As10  1  0.666667  0.333333  0.120576  1
  As  As11  1  0.333333  0.666667  0.876345  1
