# generated using pymatgen
data_CaLa5YOsI12
_symmetry_space_group_name_H-M   'P 1'
_cell_length_a   10.20957604
_cell_length_b   10.11321565
_cell_length_c   10.07040508
_cell_angle_alpha   107.17870480
_cell_angle_beta   107.14772728
_cell_angle_gamma   106.81610728
_symmetry_Int_Tables_number   1
_chemical_formula_structural   CaLa5YOsI12
_chemical_formula_sum   'Ca1 La5 Y1 Os1 I12'
_cell_volume   864.81060466
_cell_formula_units_Z   1
loop_
 _symmetry_equiv_pos_site_id
 _symmetry_equiv_pos_as_xyz
  1  'x, y, z'
loop_
 _atom_site_type_symbol
 _atom_site_label
 _atom_site_symmetry_multiplicity
 _atom_site_fract_x
 _atom_site_fract_y
 _atom_site_fract_z
 _atom_site_occupancy
  Ca  Ca0  1  0.501405  0.498178  0.496680  1
  La  La1  1  0.028101  0.300890  0.096863  1
  La  La2  1  0.098741  0.031054  0.303285  1
  La  La3  1  0.907594  0.971211  0.699294  1
  La  La4  1  0.969899  0.699682  0.904518  1
  La  La5  1  0.680788  0.899261  0.969033  1
  Y  Y6  1  0.303695  0.098982  0.030670  1
  Os  Os7  1  0.999709  0.000733  0.001492  1
  I  I8  1  0.678026  0.230678  0.074369  1
  I  I9  1  0.385997  0.449539  0.151779  1
  I  I10  1  0.075827  0.684084  0.233925  1
  I  I11  1  0.772337  0.925470  0.317944  1
  I  I12  1  0.460286  0.157116  0.376202  1
  I  I13  1  0.167111  0.392712  0.466238  1
  I  I14  1  0.837716  0.608473  0.535501  1
  I  I15  1  0.541108  0.838377  0.607479  1
  I  I16  1  0.239328  0.076990  0.697128  1
  I  I17  1  0.925509  0.316672  0.767466  1
  I  I18  1  0.610497  0.537056  0.838023  1
  I  I19  1  0.316329  0.782846  0.932114  1
