# generated using pymatgen
data_K6NpO6
_symmetry_space_group_name_H-M   'P 1'
_cell_length_a   6.52870829
_cell_length_b   6.52870815
_cell_length_c   6.52870748
_cell_angle_alpha   101.83960062
_cell_angle_beta   101.83960482
_cell_angle_gamma   101.83961508
_symmetry_Int_Tables_number   1
_chemical_formula_structural   K6NpO6
_chemical_formula_sum   'K6 Np1 O6'
_cell_volume   257.53121337
_cell_formula_units_Z   1
loop_
 _symmetry_equiv_pos_site_id
 _symmetry_equiv_pos_as_xyz
  1  'x, y, z'
loop_
 _atom_site_type_symbol
 _atom_site_label
 _atom_site_symmetry_multiplicity
 _atom_site_fract_x
 _atom_site_fract_y
 _atom_site_fract_z
 _atom_site_occupancy
  K  K0  1  0.277410  0.583279  0.120782  1
  K  K1  1  0.583279  0.120783  0.277410  1
  K  K2  1  0.879217  0.722590  0.416721  1
  K  K3  1  0.120782  0.277410  0.583279  1
  K  K4  1  0.416721  0.879217  0.722590  1
  K  K5  1  0.722590  0.416721  0.879217  1
  Np  Np6  1  0.000000  0.000000  0.000000  1
  O  O7  1  0.712683  0.819808  0.046656  1
  O  O8  1  0.953344  0.287317  0.180192  1
  O  O9  1  0.180191  0.953344  0.287317  1
  O  O10  1  0.819808  0.046656  0.712683  1
  O  O11  1  0.046656  0.712683  0.819808  1
  O  O12  1  0.287317  0.180192  0.953343  1
