# generated using pymatgen
data_K2Pd3RhO6
_symmetry_space_group_name_H-M   'P 1'
_cell_length_a   7.16897849
_cell_length_b   7.16897807
_cell_length_c   7.16897680
_cell_angle_alpha   51.15362567
_cell_angle_beta   51.15362816
_cell_angle_gamma   51.15363054
_symmetry_Int_Tables_number   1
_chemical_formula_structural   K2Pd3RhO6
_chemical_formula_sum   'K2 Pd3 Rh1 O6'
_cell_volume   206.21948046
_cell_formula_units_Z   1
loop_
 _symmetry_equiv_pos_site_id
 _symmetry_equiv_pos_as_xyz
  1  'x, y, z'
loop_
 _atom_site_type_symbol
 _atom_site_label
 _atom_site_symmetry_multiplicity
 _atom_site_fract_x
 _atom_site_fract_y
 _atom_site_fract_z
 _atom_site_occupancy
  K  K0  1  0.830794  0.830794  0.830794  1
  K  K1  1  0.169206  0.169206  0.169206  1
  Pd  Pd2  1  0.000000  0.500000  0.500000  1
  Pd  Pd3  1  0.500000  0.000000  0.500000  1
  Pd  Pd4  1  0.500000  0.500000  0.000000  1
  Rh  Rh5  1  0.000000  0.000000  0.000000  1
  O  O6  1  0.886804  0.390171  0.886804  1
  O  O7  1  0.886804  0.886804  0.390171  1
  O  O8  1  0.390171  0.886804  0.886804  1
  O  O9  1  0.113196  0.609829  0.113196  1
  O  O10  1  0.113196  0.113196  0.609829  1
  O  O11  1  0.609829  0.113196  0.113196  1
