# generated using pymatgen
data_Ho12Os3Pt
_symmetry_space_group_name_H-M   'P 1'
_cell_length_a   6.37638266
_cell_length_b   7.35198577
_cell_length_c   9.04756300
_cell_angle_alpha   90.00000000
_cell_angle_beta   90.00000000
_cell_angle_gamma   90.05216511
_symmetry_Int_Tables_number   1
_chemical_formula_structural   Ho12Os3Pt
_chemical_formula_sum   'Ho12 Os3 Pt1'
_cell_volume   424.14120443
_cell_formula_units_Z   1
loop_
 _symmetry_equiv_pos_site_id
 _symmetry_equiv_pos_as_xyz
  1  'x, y, z'
loop_
 _atom_site_type_symbol
 _atom_site_label
 _atom_site_symmetry_multiplicity
 _atom_site_fract_x
 _atom_site_fract_y
 _atom_site_fract_z
 _atom_site_occupancy
  Ho  Ho0  1  0.336474  0.672033  0.060124  1
  Ho  Ho1  1  0.170660  0.181118  0.440156  1
  Ho  Ho2  1  0.669041  0.324400  0.563225  1
  Ho  Ho3  1  0.826442  0.823471  0.932565  1
  Ho  Ho4  1  0.669041  0.324400  0.936775  1
  Ho  Ho5  1  0.826442  0.823471  0.567435  1
  Ho  Ho6  1  0.336474  0.672033  0.439876  1
  Ho  Ho7  1  0.170660  0.181118  0.059844  1
  Ho  Ho8  1  0.869259  0.533888  0.250000  1
  Ho  Ho9  1  0.625737  0.041011  0.250000  1
  Ho  Ho10  1  0.129605  0.460596  0.750000  1
  Ho  Ho11  1  0.368402  0.961738  0.750000  1
  Os  Os12  1  0.458334  0.383798  0.250000  1
  Os  Os13  1  0.962148  0.115132  0.750000  1
  Os  Os14  1  0.537901  0.616500  0.750000  1
  Pt  Pt15  1  0.043382  0.885292  0.250000  1
