# generated using pymatgen
data_TbCePrIn5
_symmetry_space_group_name_H-M   'P 1'
_cell_length_a   6.56764784
_cell_length_b   6.56764833
_cell_length_c   10.42572600
_cell_angle_alpha   90.00000000
_cell_angle_beta   90.00000000
_cell_angle_gamma   102.23348883
_symmetry_Int_Tables_number   1
_chemical_formula_structural   TbCePrIn5
_chemical_formula_sum   'Tb2 Ce2 Pr2 In10'
_cell_volume   439.49151246
_cell_formula_units_Z   2
loop_
 _symmetry_equiv_pos_site_id
 _symmetry_equiv_pos_as_xyz
  1  'x, y, z'
loop_
 _atom_site_type_symbol
 _atom_site_label
 _atom_site_symmetry_multiplicity
 _atom_site_fract_x
 _atom_site_fract_y
 _atom_site_fract_z
 _atom_site_occupancy
  Tb  Tb0  1  0.624535  0.624738  0.250000  1
  Tb  Tb1  1  0.375262  0.375465  0.750000  1
  Ce  Ce2  1  0.206838  0.793162  0.500000  1
  Ce  Ce3  1  0.206838  0.793162  0.000000  1
  Pr  Pr4  1  0.793503  0.206497  0.500000  1
  Pr  Pr5  1  0.793503  0.206497  0.000000  1
  In  In6  1  0.007471  0.003108  0.250000  1
  In  In7  1  0.996892  0.992529  0.750000  1
  In  In8  1  0.305874  0.306626  0.048037  1
  In  In9  1  0.693374  0.694126  0.951963  1
  In  In10  1  0.305874  0.306626  0.451963  1
  In  In11  1  0.693374  0.694126  0.548037  1
  In  In12  1  0.491324  0.062539  0.250000  1
  In  In13  1  0.937461  0.508676  0.750000  1
  In  In14  1  0.500169  0.932290  0.750000  1
  In  In15  1  0.067710  0.499831  0.250000  1
