# generated using pymatgen
data_Dy10Sn6AsH
_symmetry_space_group_name_H-M   'P 1'
_cell_length_a   9.04909200
_cell_length_b   9.04909152
_cell_length_c   6.61968200
_cell_angle_alpha   90.00000000
_cell_angle_beta   90.00000000
_cell_angle_gamma   120.00000175
_symmetry_Int_Tables_number   1
_chemical_formula_structural   Dy10Sn6AsH
_chemical_formula_sum   'Dy10 Sn6 As1 H1'
_cell_volume   469.43745242
_cell_formula_units_Z   1
loop_
 _symmetry_equiv_pos_site_id
 _symmetry_equiv_pos_as_xyz
  1  'x, y, z'
loop_
 _atom_site_type_symbol
 _atom_site_label
 _atom_site_symmetry_multiplicity
 _atom_site_fract_x
 _atom_site_fract_y
 _atom_site_fract_z
 _atom_site_occupancy
  Dy  Dy0  1  0.666667  0.333333  0.000000  1
  Dy  Dy1  1  0.333333  0.666667  0.000000  1
  Dy  Dy2  1  0.333333  0.666667  0.500000  1
  Dy  Dy3  1  0.666667  0.333333  0.500000  1
  Dy  Dy4  1  0.752913  0.752913  0.754568  1
  Dy  Dy5  1  0.247087  0.000000  0.754568  1
  Dy  Dy6  1  0.000000  0.247087  0.754568  1
  Dy  Dy7  1  0.247087  0.247087  0.245432  1
  Dy  Dy8  1  0.752913  0.000000  0.245432  1
  Dy  Dy9  1  0.000000  0.752913  0.245432  1
  Sn  Sn10  1  0.395131  0.395131  0.750028  1
  Sn  Sn11  1  0.604869  0.000000  0.750028  1
  Sn  Sn12  1  0.000000  0.604869  0.750028  1
  Sn  Sn13  1  0.604869  0.604869  0.249972  1
  Sn  Sn14  1  0.395131  0.000000  0.249972  1
  Sn  Sn15  1  0.000000  0.395131  0.249972  1
  As  As16  1  0.000000  0.000000  0.500000  1
  H  H17  1  0.000000  0.000000  0.000000  1
