# generated using pymatgen
data_Sc10CuSb6As
_symmetry_space_group_name_H-M   'P 1'
_cell_length_a   8.64693400
_cell_length_b   8.64693479
_cell_length_c   6.02691000
_cell_angle_alpha   90.00000000
_cell_angle_beta   90.00000000
_cell_angle_gamma   119.99998932
_symmetry_Int_Tables_number   1
_chemical_formula_structural   Sc10CuSb6As
_chemical_formula_sum   'Sc10 Cu1 Sb6 As1'
_cell_volume   390.25611120
_cell_formula_units_Z   1
loop_
 _symmetry_equiv_pos_site_id
 _symmetry_equiv_pos_as_xyz
  1  'x, y, z'
loop_
 _atom_site_type_symbol
 _atom_site_label
 _atom_site_symmetry_multiplicity
 _atom_site_fract_x
 _atom_site_fract_y
 _atom_site_fract_z
 _atom_site_occupancy
  Sc  Sc0  1  0.666667  0.333333  0.000000  1
  Sc  Sc1  1  0.333333  0.666667  0.000000  1
  Sc  Sc2  1  0.333333  0.666667  0.500000  1
  Sc  Sc3  1  0.666667  0.333333  0.500000  1
  Sc  Sc4  1  0.739948  0.739948  0.748460  1
  Sc  Sc5  1  0.260052  0.000000  0.748460  1
  Sc  Sc6  1  0.000000  0.260052  0.748460  1
  Sc  Sc7  1  0.260052  0.260052  0.251540  1
  Sc  Sc8  1  0.739948  0.000000  0.251540  1
  Sc  Sc9  1  0.000000  0.739948  0.251540  1
  Cu  Cu10  1  0.000000  0.000000  0.000000  1
  Sb  Sb11  1  0.388656  0.388656  0.751542  1
  Sb  Sb12  1  0.611344  0.000000  0.751542  1
  Sb  Sb13  1  0.000000  0.611344  0.751542  1
  Sb  Sb14  1  0.611344  0.611344  0.248458  1
  Sb  Sb15  1  0.388656  0.000000  0.248458  1
  Sb  Sb16  1  0.000000  0.388656  0.248458  1
  As  As17  1  0.000000  0.000000  0.500000  1
