# generated using pymatgen
data_LiTbNd5RhBr12
_symmetry_space_group_name_H-M   'P 1'
_cell_length_a   9.52275455
_cell_length_b   9.47860442
_cell_length_c   9.56540458
_cell_angle_alpha   108.04253463
_cell_angle_beta   107.73262840
_cell_angle_gamma   107.84995633
_symmetry_Int_Tables_number   1
_chemical_formula_structural   LiTbNd5RhBr12
_chemical_formula_sum   'Li1 Tb1 Nd5 Rh1 Br12'
_cell_volume   701.16953458
_cell_formula_units_Z   1
loop_
 _symmetry_equiv_pos_site_id
 _symmetry_equiv_pos_as_xyz
  1  'x, y, z'
loop_
 _atom_site_type_symbol
 _atom_site_label
 _atom_site_symmetry_multiplicity
 _atom_site_fract_x
 _atom_site_fract_y
 _atom_site_fract_z
 _atom_site_occupancy
  Li  Li0  1  0.499793  0.500116  0.499150  1
  Tb  Tb1  1  0.881876  0.962540  0.672556  1
  Nd  Nd2  1  0.319705  0.114457  0.035037  1
  Nd  Nd3  1  0.035933  0.321145  0.112694  1
  Nd  Nd4  1  0.120483  0.037935  0.335247  1
  Nd  Nd5  1  0.679923  0.885071  0.965516  1
  Nd  Nd6  1  0.962589  0.677001  0.883071  1
  Rh  Rh7  1  0.999153  0.998366  0.999397  1
  Br  Br8  1  0.686329  0.220250  0.072008  1
  Br  Br9  1  0.071446  0.685037  0.217212  1
  Br  Br10  1  0.211107  0.069412  0.686579  1
  Br  Br11  1  0.313346  0.778946  0.927105  1
  Br  Br12  1  0.925975  0.305542  0.775959  1
  Br  Br13  1  0.781694  0.928852  0.319846  1
  Br  Br14  1  0.464166  0.175613  0.383689  1
  Br  Br15  1  0.386410  0.465899  0.174975  1
  Br  Br16  1  0.174806  0.386772  0.462108  1
  Br  Br17  1  0.544969  0.830605  0.616942  1
  Br  Br18  1  0.612984  0.533380  0.823540  1
  Br  Br19  1  0.827313  0.623062  0.537368  1
