# generated using pymatgen
data_Y2Ho3Co16(TcP4)3
_symmetry_space_group_name_H-M   'P 1'
_cell_length_a   12.04024600
_cell_length_b   12.04024522
_cell_length_c   3.71572300
_cell_angle_alpha   90.00000000
_cell_angle_beta   90.00000000
_cell_angle_gamma   120.00000215
_symmetry_Int_Tables_number   1
_chemical_formula_structural   Y2Ho3Co16(TcP4)3
_chemical_formula_sum   'Y2 Ho3 Co16 Tc3 P12'
_cell_volume   466.49247802
_cell_formula_units_Z   1
loop_
 _symmetry_equiv_pos_site_id
 _symmetry_equiv_pos_as_xyz
  1  'x, y, z'
loop_
 _atom_site_type_symbol
 _atom_site_label
 _atom_site_symmetry_multiplicity
 _atom_site_fract_x
 _atom_site_fract_y
 _atom_site_fract_z
 _atom_site_occupancy
  Y  Y0  1  0.666667  0.333333  0.000000  1
  Y  Y1  1  0.333333  0.666667  0.000000  1
  Ho  Ho2  1  0.815192  0.815192  0.500000  1
  Ho  Ho3  1  0.184808  0.000000  0.500000  1
  Ho  Ho4  1  0.000000  0.184808  0.500000  1
  Co  Co5  1  0.874269  0.356712  0.500000  1
  Co  Co6  1  0.643288  0.517558  0.500000  1
  Co  Co7  1  0.482442  0.125731  0.500000  1
  Co  Co8  1  0.356712  0.874269  0.500000  1
  Co  Co9  1  0.517558  0.643288  0.500000  1
  Co  Co10  1  0.125731  0.482442  0.500000  1
  Co  Co11  1  0.803569  0.178934  0.000000  1
  Co  Co12  1  0.821066  0.624634  0.000000  1
  Co  Co13  1  0.375366  0.196431  0.000000  1
  Co  Co14  1  0.178934  0.803569  0.000000  1
  Co  Co15  1  0.624634  0.821066  0.000000  1
  Co  Co16  1  0.196431  0.375366  0.000000  1
  Co  Co17  1  0.281633  0.281633  0.500000  1
  Co  Co18  1  0.718367  0.000000  0.500000  1
  Co  Co19  1  0.000000  0.718367  0.500000  1
  Co  Co20  1  0.000000  0.000000  0.000000  1
  Tc  Tc21  1  0.445595  0.445595  0.000000  1
  Tc  Tc22  1  0.554405  0.000000  0.000000  1
  Tc  Tc23  1  0.000000  0.554405  0.000000  1
  P  P24  1  0.686218  0.164700  0.500000  1
  P  P25  1  0.835300  0.521519  0.500000  1
  P  P26  1  0.478481  0.313782  0.500000  1
  P  P27  1  0.164700  0.686218  0.500000  1
  P  P28  1  0.521519  0.835300  0.500000  1
  P  P29  1  0.313782  0.478481  0.500000  1
  P  P30  1  0.178638  0.178638  0.000000  1
  P  P31  1  0.821362  0.000000  0.000000  1
  P  P32  1  0.000000  0.821362  0.000000  1
  P  P33  1  0.637000  0.637000  0.000000  1
  P  P34  1  0.363000  0.000000  0.000000  1
  P  P35  1  0.000000  0.363000  0.000000  1
