# generated using pymatgen
data_Ba3CeSe7
_symmetry_space_group_name_H-M   'P 1'
_cell_length_a   8.44102305
_cell_length_b   8.44102360
_cell_length_c   8.44102256
_cell_angle_alpha   139.49569902
_cell_angle_beta   110.57661750
_cell_angle_gamma   83.57994101
_symmetry_Int_Tables_number   1
_chemical_formula_structural   Ba3CeSe7
_chemical_formula_sum   'Ba3 Ce1 Se7'
_cell_volume   353.56362586
_cell_formula_units_Z   1
loop_
 _symmetry_equiv_pos_site_id
 _symmetry_equiv_pos_as_xyz
  1  'x, y, z'
loop_
 _atom_site_type_symbol
 _atom_site_label
 _atom_site_symmetry_multiplicity
 _atom_site_fract_x
 _atom_site_fract_y
 _atom_site_fract_z
 _atom_site_occupancy
  Ba  Ba0  1  0.144208  0.760476  0.383731  1
  Ba  Ba1  1  0.623255  0.239524  0.383731  1
  Ba  Ba2  1  0.592121  0.500000  0.092121  1
  Ce  Ce3  1  0.000305  0.000000  0.000305  1
  Se  Se4  1  0.612613  0.904771  0.707842  1
  Se  Se5  1  0.803071  0.095229  0.707842  1
  Se  Se6  1  0.287898  0.794578  0.082475  1
  Se  Se7  1  0.287898  0.205422  0.493320  1
  Se  Se8  1  0.808658  0.769502  0.039156  1
  Se  Se9  1  0.269652  0.230498  0.039156  1
  Se  Se10  1  0.945001  0.500000  0.445001  1
