# generated using pymatgen
data_NaCa9(Tb5Pb8)2
_symmetry_space_group_name_H-M   'P 1'
_cell_length_a   7.99874800
_cell_length_b   8.54090801
_cell_length_c   16.13028600
_cell_angle_alpha   90.00000000
_cell_angle_beta   90.00000000
_cell_angle_gamma   89.91226758
_symmetry_Int_Tables_number   1
_chemical_formula_structural   NaCa9(Tb5Pb8)2
_chemical_formula_sum   'Na1 Ca9 Tb10 Pb16'
_cell_volume   1101.96453505
_cell_formula_units_Z   1
loop_
 _symmetry_equiv_pos_site_id
 _symmetry_equiv_pos_as_xyz
  1  'x, y, z'
loop_
 _atom_site_type_symbol
 _atom_site_label
 _atom_site_symmetry_multiplicity
 _atom_site_fract_x
 _atom_site_fract_y
 _atom_site_fract_z
 _atom_site_occupancy
  Na  Na0  1  0.832575  0.507837  0.750000  1
  Ca  Ca1  1  0.502400  0.682060  0.592924  1
  Ca  Ca2  1  0.998789  0.809929  0.905400  1
  Ca  Ca3  1  0.500017  0.314321  0.091124  1
  Ca  Ca4  1  0.999253  0.183332  0.411047  1
  Ca  Ca5  1  0.500017  0.314321  0.408876  1
  Ca  Ca6  1  0.999253  0.183332  0.088953  1
  Ca  Ca7  1  0.502400  0.682060  0.907076  1
  Ca  Ca8  1  0.998789  0.809929  0.594600  1
  Ca  Ca9  1  0.669572  0.011446  0.250000  1
  Tb  Tb10  1  0.672878  0.166069  0.623253  1
  Tb  Tb11  1  0.169180  0.344540  0.876735  1
  Tb  Tb12  1  0.328884  0.842355  0.120485  1
  Tb  Tb13  1  0.826605  0.663358  0.378434  1
  Tb  Tb14  1  0.328884  0.842355  0.379515  1
  Tb  Tb15  1  0.826605  0.663358  0.121566  1
  Tb  Tb16  1  0.672878  0.166069  0.876747  1
  Tb  Tb17  1  0.169180  0.344540  0.623265  1
  Tb  Tb18  1  0.336077  0.992404  0.750000  1
  Tb  Tb19  1  0.168087  0.489939  0.250000  1
  Pb  Pb20  1  0.675508  0.960794  0.460200  1
  Pb  Pb21  1  0.177793  0.537028  0.044220  1
  Pb  Pb22  1  0.319849  0.036622  0.953905  1
  Pb  Pb23  1  0.823842  0.460254  0.541284  1
  Pb  Pb24  1  0.319849  0.036622  0.546095  1
  Pb  Pb25  1  0.823842  0.460254  0.958716  1
  Pb  Pb26  1  0.675508  0.960794  0.039800  1
  Pb  Pb27  1  0.177793  0.537028  0.455780  1
  Pb  Pb28  1  0.474562  0.373641  0.750000  1
  Pb  Pb29  1  0.975537  0.122440  0.750000  1
  Pb  Pb30  1  0.525704  0.629019  0.250000  1
  Pb  Pb31  1  0.029765  0.864121  0.250000  1
  Pb  Pb32  1  0.703830  0.863732  0.750000  1
  Pb  Pb33  1  0.209377  0.639052  0.750000  1
  Pb  Pb34  1  0.287885  0.139323  0.250000  1
  Pb  Pb35  1  0.797026  0.365726  0.250000  1
