# generated using pymatgen
data_Dy3Tm5(HgIr)2
_symmetry_space_group_name_H-M   'P 1'
_cell_length_a   9.53292369
_cell_length_b   9.53292409
_cell_length_c   9.53292400
_cell_angle_alpha   60.00000030
_cell_angle_beta   59.99999893
_cell_angle_gamma   60.00000066
_symmetry_Int_Tables_number   1
_chemical_formula_structural   Dy3Tm5(HgIr)2
_chemical_formula_sum   'Dy6 Tm10 Hg4 Ir4'
_cell_volume   612.58080427
_cell_formula_units_Z   2
loop_
 _symmetry_equiv_pos_site_id
 _symmetry_equiv_pos_as_xyz
  1  'x, y, z'
loop_
 _atom_site_type_symbol
 _atom_site_label
 _atom_site_symmetry_multiplicity
 _atom_site_fract_x
 _atom_site_fract_y
 _atom_site_fract_z
 _atom_site_occupancy
  Dy  Dy0  1  0.189068  0.810932  0.810932  1
  Dy  Dy1  1  0.810932  0.189068  0.189068  1
  Dy  Dy2  1  0.810932  0.189068  0.810932  1
  Dy  Dy3  1  0.189068  0.810932  0.189068  1
  Dy  Dy4  1  0.810932  0.810932  0.189068  1
  Dy  Dy5  1  0.189068  0.189068  0.810932  1
  Tm  Tm6  1  0.600363  0.600363  0.600363  1
  Tm  Tm7  1  0.600363  0.600363  0.198912  1
  Tm  Tm8  1  0.600363  0.198912  0.600363  1
  Tm  Tm9  1  0.198912  0.600363  0.600363  1
  Tm  Tm10  1  0.061036  0.438964  0.438964  1
  Tm  Tm11  1  0.438964  0.061036  0.061036  1
  Tm  Tm12  1  0.438964  0.061036  0.438964  1
  Tm  Tm13  1  0.061036  0.438964  0.061036  1
  Tm  Tm14  1  0.438964  0.438964  0.061036  1
  Tm  Tm15  1  0.061036  0.061036  0.438964  1
  Hg  Hg16  1  0.833921  0.833921  0.833921  1
  Hg  Hg17  1  0.833921  0.833921  0.498237  1
  Hg  Hg18  1  0.833921  0.498237  0.833921  1
  Hg  Hg19  1  0.498237  0.833921  0.833921  1
  Ir  Ir20  1  0.392038  0.392038  0.392038  1
  Ir  Ir21  1  0.392038  0.392038  0.823886  1
  Ir  Ir22  1  0.392038  0.823886  0.392038  1
  Ir  Ir23  1  0.823886  0.392038  0.392038  1
