# generated using pymatgen
data_Ce6TiAl23Tc8
_symmetry_space_group_name_H-M   'P 1'
_cell_length_a   8.95652900
_cell_length_b   8.95652769
_cell_length_c   9.69742600
_cell_angle_alpha   90.00000000
_cell_angle_beta   90.00000000
_cell_angle_gamma   119.99999375
_symmetry_Int_Tables_number   1
_chemical_formula_structural   Ce6TiAl23Tc8
_chemical_formula_sum   'Ce6 Ti1 Al23 Tc8'
_cell_volume   673.69999284
_cell_formula_units_Z   1
loop_
 _symmetry_equiv_pos_site_id
 _symmetry_equiv_pos_as_xyz
  1  'x, y, z'
loop_
 _atom_site_type_symbol
 _atom_site_label
 _atom_site_symmetry_multiplicity
 _atom_site_fract_x
 _atom_site_fract_y
 _atom_site_fract_z
 _atom_site_occupancy
  Ce  Ce0  1  0.804928  0.609855  0.752745  1
  Ce  Ce1  1  0.194286  0.805714  0.248656  1
  Ce  Ce2  1  0.611427  0.805714  0.248656  1
  Ce  Ce3  1  0.390145  0.195072  0.752745  1
  Ce  Ce4  1  0.804928  0.195072  0.752745  1
  Ce  Ce5  1  0.194286  0.388573  0.248656  1
  Ti  Ti6  1  0.333333  0.666667  0.512782  1
  Al  Al7  1  0.666667  0.333333  0.998712  1
  Al  Al8  1  0.666667  0.333333  0.498089  1
  Al  Al9  1  0.333333  0.666667  0.004408  1
  Al  Al10  1  0.158714  0.317429  0.577704  1
  Al  Al11  1  0.682571  0.841286  0.577704  1
  Al  Al12  1  0.158714  0.841286  0.577704  1
  Al  Al13  1  0.838577  0.161423  0.077627  1
  Al  Al14  1  0.839415  0.160585  0.421248  1
  Al  Al15  1  0.838577  0.677154  0.077627  1
  Al  Al16  1  0.322846  0.161423  0.077627  1
  Al  Al17  1  0.678448  0.839224  0.922029  1
  Al  Al18  1  0.160776  0.321552  0.922029  1
  Al  Al19  1  0.839415  0.678830  0.421248  1
  Al  Al20  1  0.000000  0.000000  0.249853  1
  Al  Al21  1  0.000000  0.000000  0.750347  1
  Al  Al22  1  0.561985  0.123971  0.248545  1
  Al  Al23  1  0.438532  0.561468  0.750429  1
  Al  Al24  1  0.122936  0.561468  0.750429  1
  Al  Al25  1  0.876029  0.438015  0.248545  1
  Al  Al26  1  0.561985  0.438015  0.248545  1
  Al  Al27  1  0.438532  0.877064  0.750429  1
  Al  Al28  1  0.160776  0.839224  0.922029  1
  Al  Al29  1  0.321170  0.160585  0.421248  1
  Tc  Tc30  1  0.000000  0.000000  0.499584  1
  Tc  Tc31  1  0.000000  0.000000  0.000537  1
  Tc  Tc32  1  0.498218  0.996435  0.498052  1
  Tc  Tc33  1  0.499811  0.500189  0.998194  1
  Tc  Tc34  1  0.000379  0.500189  0.998194  1
  Tc  Tc35  1  0.003565  0.501782  0.498052  1
  Tc  Tc36  1  0.498218  0.501782  0.498052  1
  Tc  Tc37  1  0.499811  0.999621  0.998194  1
