# generated using pymatgen
data_Ca5Pr13(NdSn8)2
_symmetry_space_group_name_H-M   'P 1'
_cell_length_a   8.11992761
_cell_length_b   8.56094834
_cell_length_c   16.17887566
_cell_angle_alpha   90.01199586
_cell_angle_beta   90.05274112
_cell_angle_gamma   90.01009283
_symmetry_Int_Tables_number   1
_chemical_formula_structural   Ca5Pr13(NdSn8)2
_chemical_formula_sum   'Ca5 Pr13 Nd2 Sn16'
_cell_volume   1124.66238777
_cell_formula_units_Z   1
loop_
 _symmetry_equiv_pos_site_id
 _symmetry_equiv_pos_as_xyz
  1  'x, y, z'
loop_
 _atom_site_type_symbol
 _atom_site_label
 _atom_site_symmetry_multiplicity
 _atom_site_fract_x
 _atom_site_fract_y
 _atom_site_fract_z
 _atom_site_occupancy
  Ca  Ca0  1  0.669239  0.169079  0.376851  1
  Ca  Ca1  1  0.162741  0.496222  0.749953  1
  Ca  Ca2  1  0.662437  0.004886  0.749797  1
  Ca  Ca3  1  0.836407  0.502631  0.251281  1
  Ca  Ca4  1  0.337296  0.994588  0.251087  1
  Pr  Pr5  1  0.165601  0.326334  0.123921  1
  Pr  Pr6  1  0.665911  0.172600  0.124893  1
  Pr  Pr7  1  0.166343  0.326676  0.375225  1
  Pr  Pr8  1  0.334785  0.828474  0.624789  1
  Pr  Pr9  1  0.835040  0.673534  0.874726  1
  Pr  Pr10  1  0.490000  0.316455  0.904076  1
  Pr  Pr11  1  0.990712  0.186160  0.596496  1
  Pr  Pr12  1  0.510491  0.684900  0.403902  1
  Pr  Pr13  1  0.008248  0.814770  0.095782  1
  Pr  Pr14  1  0.509457  0.683394  0.095957  1
  Pr  Pr15  1  0.007697  0.815941  0.404101  1
  Pr  Pr16  1  0.492374  0.316871  0.595579  1
  Pr  Pr17  1  0.989321  0.183501  0.902783  1
  Nd  Nd18  1  0.332436  0.829039  0.875431  1
  Nd  Nd19  1  0.832686  0.671842  0.624191  1
  Sn  Sn20  1  0.325613  0.034453  0.038143  1
  Sn  Sn21  1  0.826800  0.465338  0.461444  1
  Sn  Sn22  1  0.673846  0.965126  0.538911  1
  Sn  Sn23  1  0.174615  0.536853  0.961964  1
  Sn  Sn24  1  0.673199  0.963031  0.962429  1
  Sn  Sn25  1  0.173895  0.537807  0.537492  1
  Sn  Sn26  1  0.327855  0.036726  0.462735  1
  Sn  Sn27  1  0.824924  0.462589  0.036632  1
  Sn  Sn28  1  0.530648  0.604503  0.750038  1
  Sn  Sn29  1  0.030676  0.897271  0.749490  1
  Sn  Sn30  1  0.468884  0.397587  0.249986  1
  Sn  Sn31  1  0.968110  0.103071  0.250357  1
  Sn  Sn32  1  0.291335  0.142084  0.749904  1
  Sn  Sn33  1  0.791426  0.359755  0.750147  1
  Sn  Sn34  1  0.709823  0.857410  0.249481  1
  Sn  Sn35  1  0.209132  0.638496  0.250023  1
