# generated using pymatgen
data_Ho12InFe4Ni
_symmetry_space_group_name_H-M   'P 1'
_cell_length_a   8.26272118
_cell_length_b   8.26273113
_cell_length_c   8.26272167
_cell_angle_alpha   110.43334739
_cell_angle_beta   110.89309579
_cell_angle_gamma   107.11294049
_symmetry_Int_Tables_number   1
_chemical_formula_structural   Ho12InFe4Ni
_chemical_formula_sum   'Ho12 In1 Fe4 Ni1'
_cell_volume   433.70219757
_cell_formula_units_Z   1
loop_
 _symmetry_equiv_pos_site_id
 _symmetry_equiv_pos_as_xyz
  1  'x, y, z'
loop_
 _atom_site_type_symbol
 _atom_site_label
 _atom_site_symmetry_multiplicity
 _atom_site_fract_x
 _atom_site_fract_y
 _atom_site_fract_z
 _atom_site_occupancy
  Ho  Ho0  1  0.313339  0.613901  0.300562  1
  Ho  Ho1  1  0.686661  0.386099  0.699438  1
  Ho  Ho2  1  0.313336  0.012762  0.699427  1
  Ho  Ho3  1  0.686664  0.987238  0.300573  1
  Ho  Ho4  1  0.186453  0.290197  0.476656  1
  Ho  Ho5  1  0.813547  0.709803  0.523344  1
  Ho  Ho6  1  0.186459  0.709803  0.896256  1
  Ho  Ho7  1  0.813541  0.290197  0.103744  1
  Ho  Ho8  1  0.409484  0.213246  0.196232  1
  Ho  Ho9  1  0.590516  0.786754  0.803768  1
  Ho  Ho10  1  0.017015  0.213246  0.803762  1
  Ho  Ho11  1  0.982985  0.786754  0.196238  1
  In  In12  1  0.500000  0.500000  0.000000  1
  Fe  Fe13  1  0.109494  0.609539  0.500045  1
  Fe  Fe14  1  0.890506  0.390461  0.499955  1
  Fe  Fe15  1  0.383497  0.000000  0.383497  1
  Fe  Fe16  1  0.616503  0.000000  0.616503  1
  Ni  Ni17  1  0.000000  0.000000  0.000000  1
