# generated using pymatgen
data_Er6Mn5AsO18
_symmetry_space_group_name_H-M   'P 1'
_cell_length_a   6.18235767
_cell_length_b   6.18235714
_cell_length_c   11.66736741
_cell_angle_alpha   89.56921164
_cell_angle_beta   89.56920819
_cell_angle_gamma   119.92309279
_symmetry_Int_Tables_number   1
_chemical_formula_structural   Er6Mn5AsO18
_chemical_formula_sum   'Er6 Mn5 As1 O18'
_cell_volume   386.45485950
_cell_formula_units_Z   1
loop_
 _symmetry_equiv_pos_site_id
 _symmetry_equiv_pos_as_xyz
  1  'x, y, z'
loop_
 _atom_site_type_symbol
 _atom_site_label
 _atom_site_symmetry_multiplicity
 _atom_site_fract_x
 _atom_site_fract_y
 _atom_site_fract_z
 _atom_site_occupancy
  Er  Er0  1  0.663565  0.322001  0.724905  1
  Er  Er1  1  0.000350  0.000350  0.766622  1
  Er  Er2  1  0.332866  0.669929  0.235008  1
  Er  Er3  1  0.669929  0.332866  0.235008  1
  Er  Er4  1  0.009855  0.009855  0.272699  1
  Er  Er5  1  0.322001  0.663565  0.724905  1
  Mn  Mn6  1  0.001028  0.335224  0.995488  1
  Mn  Mn7  1  0.995635  0.667428  0.497179  1
  Mn  Mn8  1  0.335224  0.001028  0.995488  1
  Mn  Mn9  1  0.667428  0.995635  0.497179  1
  Mn  Mn10  1  0.336591  0.336591  0.497832  1
  As  As11  1  0.665759  0.665759  0.998220  1
  O  O12  1  0.667419  0.330250  0.518635  1
  O  O13  1  0.629945  0.629945  0.840149  1
  O  O14  1  0.350537  0.996530  0.823179  1
  O  O15  1  0.691795  0.991199  0.660611  1
  O  O16  1  0.996530  0.350537  0.823179  1
  O  O17  1  0.330250  0.667419  0.518635  1
  O  O18  1  0.002576  0.317462  0.168974  1
  O  O19  1  0.366177  0.366177  0.334162  1
  O  O20  1  0.996530  0.642774  0.334543  1
  O  O21  1  0.310689  0.310689  0.660738  1
  O  O22  1  0.702961  0.702961  0.158835  1
  O  O23  1  0.952246  0.952246  0.971927  1
  O  O24  1  0.317462  0.002576  0.168974  1
  O  O25  1  0.379473  0.666892  0.018332  1
  O  O26  1  0.991199  0.691795  0.660611  1
  O  O27  1  0.642774  0.996530  0.334543  1
  O  O28  1  0.004312  0.004312  0.471099  1
  O  O29  1  0.666892  0.379473  0.018332  1
