# generated using pymatgen
data_Mn5Si3Mo4
_symmetry_space_group_name_H-M   'P 1'
_cell_length_a   4.70813586
_cell_length_b   4.76702942
_cell_length_c   7.80248000
_cell_angle_alpha   90.00000000
_cell_angle_beta   90.00000000
_cell_angle_gamma   119.59328730
_symmetry_Int_Tables_number   1
_chemical_formula_structural   Mn5Si3Mo4
_chemical_formula_sum   'Mn5 Si3 Mo4'
_cell_volume   152.27388827
_cell_formula_units_Z   1
loop_
 _symmetry_equiv_pos_site_id
 _symmetry_equiv_pos_as_xyz
  1  'x, y, z'
loop_
 _atom_site_type_symbol
 _atom_site_label
 _atom_site_symmetry_multiplicity
 _atom_site_fract_x
 _atom_site_fract_y
 _atom_site_fract_z
 _atom_site_occupancy
  Mn  Mn0  1  0.331215  0.156841  0.500000  1
  Mn  Mn1  1  0.169682  0.828621  0.000000  1
  Mn  Mn2  1  0.658278  0.828444  0.000000  1
  Mn  Mn3  1  0.172988  0.346664  0.000000  1
  Mn  Mn4  1  0.827180  0.156969  0.500000  1
  Si  Si5  1  0.823028  0.643963  0.500000  1
  Si  Si6  1  0.005778  0.012071  0.246353  1
  Si  Si7  1  0.005778  0.012071  0.753647  1
  Mo  Mo8  1  0.334685  0.668748  0.310911  1
  Mo  Mo9  1  0.668802  0.337979  0.183749  1
  Mo  Mo10  1  0.668802  0.337979  0.816251  1
  Mo  Mo11  1  0.334685  0.668748  0.689089  1
