# generated using pymatgen
data_Lu4HgC2I
_symmetry_space_group_name_H-M   'P 1'
_cell_length_a   3.62460400
_cell_length_b   3.62460474
_cell_length_c   14.78631600
_cell_angle_alpha   90.00000000
_cell_angle_beta   90.00000000
_cell_angle_gamma   119.99999322
_symmetry_Int_Tables_number   1
_chemical_formula_structural   Lu4HgC2I
_chemical_formula_sum   'Lu4 Hg1 C2 I1'
_cell_volume   168.23326143
_cell_formula_units_Z   1
loop_
 _symmetry_equiv_pos_site_id
 _symmetry_equiv_pos_as_xyz
  1  'x, y, z'
loop_
 _atom_site_type_symbol
 _atom_site_label
 _atom_site_symmetry_multiplicity
 _atom_site_fract_x
 _atom_site_fract_y
 _atom_site_fract_z
 _atom_site_occupancy
  Lu  Lu0  1  0.666667  0.333333  0.082380  1
  Lu  Lu1  1  0.666667  0.333333  0.417620  1
  Lu  Lu2  1  0.333333  0.666666  0.589500  1
  Lu  Lu3  1  0.333333  0.666666  0.910499  1
  Hg  Hg4  1  0.666667  0.333333  0.750000  1
  C  C5  1  0.000000  0.000000  0.008704  1
  C  C6  1  0.000000  0.000000  0.491296  1
  I  I7  1  0.333333  0.666666  0.250000  1
