# generated using pymatgen
data_Pu12Ta3Nb5(MoN4)12
_symmetry_space_group_name_H-M   'P 1'
_cell_length_a   11.07920694
_cell_length_b   11.07914546
_cell_length_c   11.07914900
_cell_angle_alpha   109.48518938
_cell_angle_beta   109.48535666
_cell_angle_gamma   109.48535241
_symmetry_Int_Tables_number   1
_chemical_formula_structural   Pu12Ta3Nb5(MoN4)12
_chemical_formula_sum   'Pu12 Ta3 Nb5 Mo12 N48'
_cell_volume   1046.34009039
_cell_formula_units_Z   1
loop_
 _symmetry_equiv_pos_site_id
 _symmetry_equiv_pos_as_xyz
  1  'x, y, z'
loop_
 _atom_site_type_symbol
 _atom_site_label
 _atom_site_symmetry_multiplicity
 _atom_site_fract_x
 _atom_site_fract_y
 _atom_site_fract_z
 _atom_site_occupancy
  Pu  Pu0  1  0.374351  0.750117  0.124364  1
  Pu  Pu1  1  0.249604  0.375390  0.125169  1
  Pu  Pu2  1  0.374965  0.124824  0.248976  1
  Pu  Pu3  1  0.875619  0.625923  0.250148  1
  Pu  Pu4  1  0.749798  0.124027  0.374243  1
  Pu  Pu5  1  0.125249  0.249400  0.375184  1
  Pu  Pu6  1  0.874844  0.750757  0.625035  1
  Pu  Pu7  1  0.249536  0.875302  0.625610  1
  Pu  Pu8  1  0.124325  0.374688  0.750444  1
  Pu  Pu9  1  0.624887  0.874424  0.750316  1
  Pu  Pu10  1  0.625718  0.249816  0.875648  1
  Pu  Pu11  1  0.750858  0.625187  0.874676  1
  Ta  Ta12  1  0.499747  0.499892  0.000011  1
  Ta  Ta13  1  0.500175  0.000131  0.499865  1
  Ta  Ta14  1  0.000262  0.499795  0.500134  1
  Nb  Nb15  1  0.001245  0.001300  0.001832  1
  Nb  Nb16  1  0.499861  0.999913  0.999380  1
  Nb  Nb17  1  0.999481  0.500053  0.999857  1
  Nb  Nb18  1  0.999773  0.001849  0.499541  1
  Nb  Nb19  1  0.497960  0.498143  0.498037  1
  Mo  Mo20  1  0.875483  0.250594  0.125899  1
  Mo  Mo21  1  0.749313  0.874178  0.123871  1
  Mo  Mo22  1  0.625552  0.375093  0.249758  1
  Mo  Mo23  1  0.125838  0.875618  0.251221  1
  Mo  Mo24  1  0.249674  0.625374  0.375196  1
  Mo  Mo25  1  0.624904  0.749950  0.374972  1
  Mo  Mo26  1  0.375640  0.250048  0.625508  1
  Mo  Mo27  1  0.749642  0.374806  0.624579  1
  Mo  Mo28  1  0.874209  0.124676  0.750092  1
  Mo  Mo29  1  0.375001  0.624316  0.749700  1
  Mo  Mo30  1  0.250494  0.125752  0.874952  1
  Mo  Mo31  1  0.124438  0.749509  0.874231  1
  N  N32  1  0.208609  0.121991  0.025187  1
  N  N33  1  0.316553  0.903380  0.025298  1
  N  N34  1  0.878009  0.403987  0.087274  1
  N  N35  1  0.706595  0.681379  0.085239  1
  N  N36  1  0.975023  0.683843  0.096900  1
  N  N37  1  0.621147  0.414961  0.096213  1
  N  N38  1  0.026005  0.209158  0.122472  1
  N  N39  1  0.596083  0.912797  0.122211  1
  N  N40  1  0.209182  0.587224  0.183705  1
  N  N41  1  0.475138  0.596300  0.181325  1
  N  N42  1  0.586963  0.183281  0.208911  1
  N  N43  1  0.122639  0.026195  0.209239  1
  N  N44  1  0.318747  0.914420  0.293499  1
  N  N45  1  0.475361  0.378701  0.291469  1
  N  N46  1  0.914518  0.293226  0.318880  1
  N  N47  1  0.903728  0.025351  0.316337  1
  N  N48  1  0.585135  0.903741  0.379248  1
  N  N49  1  0.291185  0.474823  0.378519  1
  N  N50  1  0.818575  0.524633  0.403676  1
  N  N51  1  0.086907  0.877167  0.404094  1
  N  N52  1  0.095965  0.620823  0.414719  1
  N  N53  1  0.816488  0.791043  0.413287  1
  N  N54  1  0.595824  0.181181  0.474812  1
  N  N55  1  0.378618  0.291210  0.474783  1
  N  N56  1  0.621914  0.708645  0.525225  1
  N  N57  1  0.403429  0.818492  0.524858  1
  N  N58  1  0.183748  0.208870  0.587338  1
  N  N59  1  0.903654  0.379374  0.585453  1
  N  N60  1  0.912920  0.121790  0.596499  1
  N  N61  1  0.181276  0.474628  0.596095  1
  N  N62  1  0.414511  0.096032  0.620766  1
  N  N63  1  0.708618  0.525237  0.621874  1
  N  N64  1  0.085289  0.706448  0.681005  1
  N  N65  1  0.096700  0.974824  0.683486  1
  N  N66  1  0.680797  0.085064  0.706703  1
  N  N67  1  0.525800  0.622075  0.708910  1
  N  N68  1  0.877612  0.974400  0.791341  1
  N  N69  1  0.412905  0.816008  0.790934  1
  N  N70  1  0.525087  0.403872  0.818620  1
  N  N71  1  0.791043  0.413029  0.816413  1
  N  N72  1  0.403823  0.086826  0.877606  1
  N  N73  1  0.974280  0.791380  0.877517  1
  N  N74  1  0.025622  0.316752  0.903806  1
  N  N75  1  0.379455  0.585558  0.903829  1
  N  N76  1  0.293404  0.319174  0.914474  1
  N  N77  1  0.122479  0.596444  0.913346  1
  N  N78  1  0.683519  0.096296  0.974809  1
  N  N79  1  0.790676  0.877127  0.973355  1
