# generated using pymatgen
data_Ca4UIr7
_symmetry_space_group_name_H-M   'P 1'
_cell_length_a   5.61905200
_cell_length_b   5.61905356
_cell_length_c   8.36893200
_cell_angle_alpha   90.00000000
_cell_angle_beta   90.00000000
_cell_angle_gamma   120.00000260
_symmetry_Int_Tables_number   1
_chemical_formula_structural   Ca4UIr7
_chemical_formula_sum   'Ca4 U1 Ir7'
_cell_volume   228.83733546
_cell_formula_units_Z   1
loop_
 _symmetry_equiv_pos_site_id
 _symmetry_equiv_pos_as_xyz
  1  'x, y, z'
loop_
 _atom_site_type_symbol
 _atom_site_label
 _atom_site_symmetry_multiplicity
 _atom_site_fract_x
 _atom_site_fract_y
 _atom_site_fract_z
 _atom_site_occupancy
  Ca  Ca0  1  0.333334  0.666667  0.079722  1
  Ca  Ca1  1  0.333334  0.666667  0.439950  1
  Ca  Ca2  1  0.666666  0.333334  0.560051  1
  Ca  Ca3  1  0.666666  0.333334  0.920279  1
  U  U4  1  0.000000  0.000000  0.000000  1
  Ir  Ir5  1  0.348352  0.174176  0.245149  1
  Ir  Ir6  1  0.825824  0.174176  0.245149  1
  Ir  Ir7  1  0.825824  0.651647  0.245149  1
  Ir  Ir8  1  0.000000  0.000000  0.500000  1
  Ir  Ir9  1  0.174175  0.348351  0.754851  1
  Ir  Ir10  1  0.174176  0.825824  0.754851  1
  Ir  Ir11  1  0.651647  0.825824  0.754851  1
