# generated using pymatgen
data_Zr5AlSnBi2
_symmetry_space_group_name_H-M   'P 1'
_cell_length_a   8.84858044
_cell_length_b   8.84858023
_cell_length_c   5.93800500
_cell_angle_alpha   90.00000000
_cell_angle_beta   90.00000000
_cell_angle_gamma   119.82728617
_symmetry_Int_Tables_number   1
_chemical_formula_structural   Zr5AlSnBi2
_chemical_formula_sum   'Zr10 Al2 Sn2 Bi4'
_cell_volume   403.34028039
_cell_formula_units_Z   2
loop_
 _symmetry_equiv_pos_site_id
 _symmetry_equiv_pos_as_xyz
  1  'x, y, z'
loop_
 _atom_site_type_symbol
 _atom_site_label
 _atom_site_symmetry_multiplicity
 _atom_site_fract_x
 _atom_site_fract_y
 _atom_site_fract_z
 _atom_site_occupancy
  Zr  Zr0  1  0.667410  0.330547  0.003586  1
  Zr  Zr1  1  0.330547  0.667410  0.003586  1
  Zr  Zr2  1  0.330547  0.667410  0.496414  1
  Zr  Zr3  1  0.667410  0.330547  0.496414  1
  Zr  Zr4  1  0.735243  0.735243  0.750000  1
  Zr  Zr5  1  0.265078  0.999180  0.750000  1
  Zr  Zr6  1  0.999180  0.265078  0.750000  1
  Zr  Zr7  1  0.269116  0.269116  0.250000  1
  Zr  Zr8  1  0.730630  0.005773  0.250000  1
  Zr  Zr9  1  0.005773  0.730630  0.250000  1
  Al  Al10  1  0.999947  0.999947  0.005649  1
  Al  Al11  1  0.999947  0.999947  0.494351  1
  Sn  Sn12  1  0.384898  0.000818  0.250000  1
  Sn  Sn13  1  0.000818  0.384898  0.250000  1
  Bi  Bi14  1  0.388360  0.388360  0.750000  1
  Bi  Bi15  1  0.609788  0.999040  0.750000  1
  Bi  Bi16  1  0.999040  0.609788  0.750000  1
  Bi  Bi17  1  0.616269  0.616269  0.250000  1
