# generated using pymatgen
data_TbTh3(ZnIr)4
_symmetry_space_group_name_H-M   'P 1'
_cell_length_a   4.02953200
_cell_length_b   7.20958468
_cell_length_c   8.43294720
_cell_angle_alpha   89.99428911
_cell_angle_beta   90.00000000
_cell_angle_gamma   90.00000000
_symmetry_Int_Tables_number   1
_chemical_formula_structural   TbTh3(ZnIr)4
_chemical_formula_sum   'Tb1 Th3 Zn4 Ir4'
_cell_volume   244.98767456
_cell_formula_units_Z   1
loop_
 _symmetry_equiv_pos_site_id
 _symmetry_equiv_pos_as_xyz
  1  'x, y, z'
loop_
 _atom_site_type_symbol
 _atom_site_label
 _atom_site_symmetry_multiplicity
 _atom_site_fract_x
 _atom_site_fract_y
 _atom_site_fract_z
 _atom_site_occupancy
  Tb  Tb0  1  0.750000  0.944015  0.690094  1
  Th  Th1  1  0.250000  0.551353  0.186237  1
  Th  Th2  1  0.750000  0.447011  0.807691  1
  Th  Th3  1  0.250000  0.051908  0.319694  1
  Zn  Zn4  1  0.250000  0.114668  0.934750  1
  Zn  Zn5  1  0.750000  0.877746  0.057319  1
  Zn  Zn6  1  0.250000  0.635139  0.561303  1
  Zn  Zn7  1  0.750000  0.379114  0.441351  1
  Ir  Ir8  1  0.750000  0.760861  0.369641  1
  Ir  Ir9  1  0.250000  0.245712  0.626672  1
  Ir  Ir10  1  0.750000  0.257419  0.128395  1
  Ir  Ir11  1  0.250000  0.735053  0.876855  1
