# generated using pymatgen
data_CsRb2AuO2
_symmetry_space_group_name_H-M   'P 1'
_cell_length_a   6.49794100
_cell_length_b   7.84245600
_cell_length_c   13.12010600
_cell_angle_alpha   90.00000000
_cell_angle_beta   90.00000000
_cell_angle_gamma   90.00000000
_symmetry_Int_Tables_number   1
_chemical_formula_structural   CsRb2AuO2
_chemical_formula_sum   'Cs4 Rb8 Au4 O8'
_cell_volume   668.59819269
_cell_formula_units_Z   4
loop_
 _symmetry_equiv_pos_site_id
 _symmetry_equiv_pos_as_xyz
  1  'x, y, z'
loop_
 _atom_site_type_symbol
 _atom_site_label
 _atom_site_symmetry_multiplicity
 _atom_site_fract_x
 _atom_site_fract_y
 _atom_site_fract_z
 _atom_site_occupancy
  Cs  Cs0  1  0.207127  0.750000  0.905064  1
  Cs  Cs1  1  0.792873  0.250000  0.094936  1
  Cs  Cs2  1  0.707127  0.250000  0.594936  1
  Cs  Cs3  1  0.292873  0.750000  0.405064  1
  Rb  Rb4  1  0.158950  0.996610  0.639706  1
  Rb  Rb5  1  0.658950  0.496610  0.860294  1
  Rb  Rb6  1  0.341050  0.996610  0.139706  1
  Rb  Rb7  1  0.658950  0.003390  0.860294  1
  Rb  Rb8  1  0.158950  0.503390  0.639706  1
  Rb  Rb9  1  0.341050  0.503390  0.139706  1
  Rb  Rb10  1  0.841050  0.003390  0.360294  1
  Rb  Rb11  1  0.841050  0.496610  0.360294  1
  Au  Au12  1  0.675803  0.750000  0.621912  1
  Au  Au13  1  0.175803  0.250000  0.878088  1
  Au  Au14  1  0.324197  0.250000  0.378088  1
  Au  Au15  1  0.824197  0.750000  0.121912  1
  O  O16  1  0.588229  0.750000  0.019675  1
  O  O17  1  0.088229  0.250000  0.480325  1
  O  O18  1  0.555281  0.250000  0.272515  1
  O  O19  1  0.411771  0.250000  0.980325  1
  O  O20  1  0.911771  0.750000  0.519675  1
  O  O21  1  0.444719  0.750000  0.727485  1
  O  O22  1  0.944719  0.250000  0.772515  1
  O  O23  1  0.055281  0.750000  0.227485  1
