# generated using pymatgen
data_TmTa2B2Ru5
_symmetry_space_group_name_H-M   'P 1'
_cell_length_a   9.51996546
_cell_length_b   9.51996546
_cell_length_c   3.08734300
_cell_angle_alpha   90.00000000
_cell_angle_beta   90.00000000
_cell_angle_gamma   90.45925986
_symmetry_Int_Tables_number   1
_chemical_formula_structural   TmTa2B2Ru5
_chemical_formula_sum   'Tm2 Ta4 B4 Ru10'
_cell_volume   279.79611182
_cell_formula_units_Z   2
loop_
 _symmetry_equiv_pos_site_id
 _symmetry_equiv_pos_as_xyz
  1  'x, y, z'
loop_
 _atom_site_type_symbol
 _atom_site_label
 _atom_site_symmetry_multiplicity
 _atom_site_fract_x
 _atom_site_fract_y
 _atom_site_fract_z
 _atom_site_occupancy
  Tm  Tm0  1  0.824103  0.675897  0.000000  1
  Tm  Tm1  1  0.175897  0.324103  0.000000  1
  Ta  Ta2  1  0.323489  0.823489  0.000000  1
  Ta  Ta3  1  0.676511  0.176511  0.000000  1
  Ta  Ta4  1  0.500000  0.500000  0.000000  1
  Ta  Ta5  1  0.000000  0.000000  0.000000  1
  B  B6  1  0.621014  0.878986  0.000000  1
  B  B7  1  0.378986  0.121014  0.000000  1
  B  B8  1  0.120694  0.620694  0.000000  1
  B  B9  1  0.879306  0.379306  0.000000  1
  Ru  Ru10  1  0.560156  0.722524  0.500000  1
  Ru  Ru11  1  0.439844  0.277476  0.500000  1
  Ru  Ru12  1  0.080990  0.785323  0.500000  1
  Ru  Ru13  1  0.919010  0.214677  0.500000  1
  Ru  Ru14  1  0.285323  0.580990  0.500000  1
  Ru  Ru15  1  0.714677  0.419010  0.500000  1
  Ru  Ru16  1  0.222524  0.060156  0.500000  1
  Ru  Ru17  1  0.777476  0.939844  0.500000  1
  Ru  Ru18  1  0.500000  0.000000  0.500000  1
  Ru  Ru19  1  0.000000  0.500000  0.500000  1
