# generated using pymatgen
data_NaGaGeIrPt
_symmetry_space_group_name_H-M   'P 1'
_cell_length_a   4.17650900
_cell_length_b   4.17650900
_cell_length_c   10.62599100
_cell_angle_alpha   90.00000000
_cell_angle_beta   90.00000000
_cell_angle_gamma   90.00000000
_symmetry_Int_Tables_number   1
_chemical_formula_structural   NaGaGeIrPt
_chemical_formula_sum   'Na2 Ga2 Ge2 Ir2 Pt2'
_cell_volume   185.35157765
_cell_formula_units_Z   2
loop_
 _symmetry_equiv_pos_site_id
 _symmetry_equiv_pos_as_xyz
  1  'x, y, z'
loop_
 _atom_site_type_symbol
 _atom_site_label
 _atom_site_symmetry_multiplicity
 _atom_site_fract_x
 _atom_site_fract_y
 _atom_site_fract_z
 _atom_site_occupancy
  Na  Na0  1  0.000000  0.500000  0.242127  1
  Na  Na1  1  0.500000  0.000000  0.757873  1
  Ga  Ga2  1  0.000000  0.000000  0.500000  1
  Ga  Ga3  1  0.500000  0.500000  0.500000  1
  Ge  Ge4  1  0.000000  0.500000  0.874326  1
  Ge  Ge5  1  0.500000  0.000000  0.125674  1
  Ir  Ir6  1  0.000000  0.000000  0.000000  1
  Ir  Ir7  1  0.500000  0.500000  0.000000  1
  Pt  Pt8  1  0.000000  0.500000  0.638679  1
  Pt  Pt9  1  0.500000  0.000000  0.361321  1
