# generated using pymatgen
data_Yb2SmSc5(B6Os)4
_symmetry_space_group_name_H-M   'P 1'
_cell_length_a   3.54484100
_cell_length_b   8.96487169
_cell_length_c   11.34231533
_cell_angle_alpha   90.03631568
_cell_angle_beta   90.00000000
_cell_angle_gamma   90.00000000
_symmetry_Int_Tables_number   1
_chemical_formula_structural   Yb2SmSc5(B6Os)4
_chemical_formula_sum   'Yb2 Sm1 Sc5 B24 Os4'
_cell_volume   360.44787385
_cell_formula_units_Z   1
loop_
 _symmetry_equiv_pos_site_id
 _symmetry_equiv_pos_as_xyz
  1  'x, y, z'
loop_
 _atom_site_type_symbol
 _atom_site_label
 _atom_site_symmetry_multiplicity
 _atom_site_fract_x
 _atom_site_fract_y
 _atom_site_fract_z
 _atom_site_occupancy
  Yb  Yb0  1  0.000000  0.679022  0.586608  1
  Yb  Yb1  1  0.000000  0.821366  0.085108  1
  Sm  Sm2  1  0.000000  0.321836  0.414484  1
  Sc  Sc3  1  0.000000  0.177652  0.914216  1
  Sc  Sc4  1  0.000000  0.942477  0.370334  1
  Sc  Sc5  1  0.000000  0.054954  0.630191  1
  Sc  Sc6  1  0.000000  0.444344  0.126979  1
  Sc  Sc7  1  0.000000  0.556976  0.871874  1
  B  B8  1  0.500000  0.556016  0.433078  1
  B  B9  1  0.500000  0.445905  0.570014  1
  B  B10  1  0.500000  0.054407  0.064872  1
  B  B11  1  0.500000  0.947160  0.933659  1
  B  B12  1  0.500000  0.752587  0.418254  1
  B  B13  1  0.500000  0.246663  0.584452  1
  B  B14  1  0.500000  0.251934  0.078167  1
  B  B15  1  0.500000  0.748674  0.918566  1
  B  B16  1  0.500000  0.793519  0.263867  1
  B  B17  1  0.500000  0.205171  0.738193  1
  B  B18  1  0.500000  0.293387  0.232174  1
  B  B19  1  0.500000  0.707522  0.765376  1
  B  B20  1  0.500000  0.629469  0.182081  1
  B  B21  1  0.500000  0.369482  0.818871  1
  B  B22  1  0.500000  0.128064  0.314621  1
  B  B23  1  0.500000  0.871508  0.683778  1
  B  B24  1  0.500000  0.980851  0.212075  1
  B  B25  1  0.500000  0.019874  0.788238  1
  B  B26  1  0.500000  0.482885  0.284840  1
  B  B27  1  0.500000  0.518741  0.715470  1
  B  B28  1  0.500000  0.597173  0.025802  1
  B  B29  1  0.500000  0.400402  0.972633  1
  B  B30  1  0.500000  0.095338  0.474077  1
  B  B31  1  0.500000  0.903003  0.526465  1
  Os  Os32  1  0.000000  0.640411  0.317625  1
  Os  Os33  1  0.000000  0.358131  0.684883  1
  Os  Os34  1  0.000000  0.140087  0.178590  1
  Os  Os35  1  0.000000  0.863006  0.819485  1
