# generated using pymatgen
data_LiLu9(Bi3C)2
_symmetry_space_group_name_H-M   'P 1'
_cell_length_a   8.93178600
_cell_length_b   8.93178637
_cell_length_c   6.33610000
_cell_angle_alpha   90.00000000
_cell_angle_beta   90.00000000
_cell_angle_gamma   119.99999864
_symmetry_Int_Tables_number   1
_chemical_formula_structural   LiLu9(Bi3C)2
_chemical_formula_sum   'Li1 Lu9 Bi6 C2'
_cell_volume   437.75316681
_cell_formula_units_Z   1
loop_
 _symmetry_equiv_pos_site_id
 _symmetry_equiv_pos_as_xyz
  1  'x, y, z'
loop_
 _atom_site_type_symbol
 _atom_site_label
 _atom_site_symmetry_multiplicity
 _atom_site_fract_x
 _atom_site_fract_y
 _atom_site_fract_z
 _atom_site_occupancy
  Li  Li0  1  0.666667  0.333333  0.500000  1
  Lu  Lu1  1  0.333333  0.666667  0.500000  1
  Lu  Lu2  1  0.333333  0.666667  0.000000  1
  Lu  Lu3  1  0.666667  0.333333  0.000000  1
  Lu  Lu4  1  0.793773  0.794484  0.249990  1
  Lu  Lu5  1  0.205516  0.999289  0.249990  1
  Lu  Lu6  1  0.000711  0.206227  0.249990  1
  Lu  Lu7  1  0.205516  0.206227  0.750010  1
  Lu  Lu8  1  0.793773  0.999289  0.750010  1
  Lu  Lu9  1  0.000711  0.794484  0.750010  1
  Bi  Bi10  1  0.404500  0.400787  0.253976  1
  Bi  Bi11  1  0.599213  0.003713  0.253976  1
  Bi  Bi12  1  0.996287  0.595500  0.253976  1
  Bi  Bi13  1  0.599213  0.595500  0.746024  1
  Bi  Bi14  1  0.404500  0.003713  0.746024  1
  Bi  Bi15  1  0.996287  0.400787  0.746024  1
  C  C16  1  0.000000  0.000000  0.500000  1
  C  C17  1  0.000000  0.000000  0.000000  1
