# generated using pymatgen
data_ScNi3H4
_symmetry_space_group_name_H-M   'P 1'
_cell_length_a   4.35507039
_cell_length_b   4.34635989
_cell_length_c   4.36979994
_cell_angle_alpha   116.05263831
_cell_angle_beta   63.97396892
_cell_angle_gamma   83.21833062
_symmetry_Int_Tables_number   1
_chemical_formula_structural   ScNi3H4
_chemical_formula_sum   'Sc1 Ni3 H4'
_cell_volume   61.62777167
_cell_formula_units_Z   1
loop_
 _symmetry_equiv_pos_site_id
 _symmetry_equiv_pos_as_xyz
  1  'x, y, z'
loop_
 _atom_site_type_symbol
 _atom_site_label
 _atom_site_symmetry_multiplicity
 _atom_site_fract_x
 _atom_site_fract_y
 _atom_site_fract_z
 _atom_site_occupancy
  Sc  Sc0  1  0.023807  0.798538  0.743795  1
  Ni  Ni1  1  0.273382  0.048730  0.243800  1
  Ni  Ni2  1  0.524912  0.298092  0.743656  1
  Ni  Ni3  1  0.773137  0.549286  0.244010  1
  H  H4  1  0.137944  0.683666  0.139965  1
  H  H5  1  0.514454  0.909263  0.744147  1
  H  H6  1  0.534519  0.287272  0.347270  1
  H  H7  1  0.912322  0.307739  0.743964  1
