# generated using pymatgen
data_Ba2GaSb3Pt2
_symmetry_space_group_name_H-M   'P 1'
_cell_length_a   9.83390742
_cell_length_b   9.83390647
_cell_length_c   4.83233200
_cell_angle_alpha   90.00000000
_cell_angle_beta   90.00000000
_cell_angle_gamma   151.69055276
_symmetry_Int_Tables_number   1
_chemical_formula_structural   Ba2GaSb3Pt2
_chemical_formula_sum   'Ba2 Ga1 Sb3 Pt2'
_cell_volume   221.61598021
_cell_formula_units_Z   1
loop_
 _symmetry_equiv_pos_site_id
 _symmetry_equiv_pos_as_xyz
  1  'x, y, z'
loop_
 _atom_site_type_symbol
 _atom_site_label
 _atom_site_symmetry_multiplicity
 _atom_site_fract_x
 _atom_site_fract_y
 _atom_site_fract_z
 _atom_site_occupancy
  Ba  Ba0  1  0.110086  0.889913  0.250001  1
  Ba  Ba1  1  0.890939  0.109060  0.750000  1
  Ga  Ga2  1  0.750573  0.249425  0.250001  1
  Sb  Sb3  1  0.453401  0.546598  0.250001  1
  Sb  Sb4  1  0.546709  0.453290  0.750000  1
  Sb  Sb5  1  0.249931  0.750067  0.750000  1
  Pt  Pt6  1  0.311719  0.688280  0.250001  1
  Pt  Pt7  1  0.686637  0.313362  0.750000  1
