# generated using pymatgen
data_Sm3TmMg2(Ni7B2)2
_symmetry_space_group_name_H-M   'P 1'
_cell_length_a   5.02687800
_cell_length_b   5.02687796
_cell_length_c   14.31408900
_cell_angle_alpha   90.00000000
_cell_angle_beta   90.00000000
_cell_angle_gamma   120.00000028
_symmetry_Int_Tables_number   1
_chemical_formula_structural   Sm3TmMg2(Ni7B2)2
_chemical_formula_sum   'Sm3 Tm1 Mg2 Ni14 B4'
_cell_volume   313.24996445
_cell_formula_units_Z   1
loop_
 _symmetry_equiv_pos_site_id
 _symmetry_equiv_pos_as_xyz
  1  'x, y, z'
loop_
 _atom_site_type_symbol
 _atom_site_label
 _atom_site_symmetry_multiplicity
 _atom_site_fract_x
 _atom_site_fract_y
 _atom_site_fract_z
 _atom_site_occupancy
  Sm  Sm0  1  0.666667  0.333333  0.469364  1
  Sm  Sm1  1  0.333333  0.666667  0.971716  1
  Sm  Sm2  1  0.333333  0.666667  0.744233  1
  Tm  Tm3  1  0.666667  0.333333  0.244290  1
  Mg  Mg4  1  0.333333  0.666667  0.531532  1
  Mg  Mg5  1  0.666667  0.333333  0.035038  1
  Ni  Ni6  1  0.000000  0.000000  0.001825  1
  Ni  Ni7  1  0.000000  0.000000  0.500544  1
  Ni  Ni8  1  0.164935  0.329871  0.149394  1
  Ni  Ni9  1  0.835197  0.670394  0.647456  1
  Ni  Ni10  1  0.670129  0.835065  0.149394  1
  Ni  Ni11  1  0.164935  0.835065  0.149394  1
  Ni  Ni12  1  0.835197  0.164803  0.647456  1
  Ni  Ni13  1  0.329606  0.164803  0.647456  1
  Ni  Ni14  1  0.833895  0.667790  0.852177  1
  Ni  Ni15  1  0.833895  0.166105  0.852177  1
  Ni  Ni16  1  0.332210  0.166105  0.852177  1
  Ni  Ni17  1  0.668245  0.834122  0.350036  1
  Ni  Ni18  1  0.165878  0.834122  0.350036  1
  Ni  Ni19  1  0.165878  0.331755  0.350036  1
  B  B20  1  0.333333  0.666667  0.249815  1
  B  B21  1  0.666667  0.333333  0.749697  1
  B  B22  1  0.000000  0.000000  0.252206  1
  B  B23  1  0.000000  0.000000  0.752548  1
