# generated using pymatgen
data_Ce16DyAl12
_symmetry_space_group_name_H-M   'P 1'
_cell_length_a   9.59581897
_cell_length_b   9.59581881
_cell_length_c   9.59581900
_cell_angle_alpha   109.47121892
_cell_angle_beta   109.47121859
_cell_angle_gamma   109.47122599
_symmetry_Int_Tables_number   1
_chemical_formula_structural   Ce16DyAl12
_chemical_formula_sum   'Ce16 Dy1 Al12'
_cell_volume   680.18058849
_cell_formula_units_Z   1
loop_
 _symmetry_equiv_pos_site_id
 _symmetry_equiv_pos_as_xyz
  1  'x, y, z'
loop_
 _atom_site_type_symbol
 _atom_site_label
 _atom_site_symmetry_multiplicity
 _atom_site_fract_x
 _atom_site_fract_y
 _atom_site_fract_z
 _atom_site_occupancy
  Ce  Ce0  1  0.307762  0.587155  0.000000  1
  Ce  Ce1  1  0.587155  0.307762  0.000000  1
  Ce  Ce2  1  0.374926  0.000000  0.000000  1
  Ce  Ce3  1  0.000000  0.374926  0.000000  1
  Ce  Ce4  1  0.412845  0.412845  0.720606  1
  Ce  Ce5  1  0.279394  0.692238  0.692238  1
  Ce  Ce6  1  0.692238  0.279394  0.692238  1
  Ce  Ce7  1  0.625074  0.625074  0.625074  1
  Ce  Ce8  1  0.307762  0.000000  0.587155  1
  Ce  Ce9  1  0.000000  0.307762  0.587155  1
  Ce  Ce10  1  0.720606  0.412845  0.412845  1
  Ce  Ce11  1  0.412845  0.720606  0.412845  1
  Ce  Ce12  1  0.000000  0.000000  0.374926  1
  Ce  Ce13  1  0.587155  0.000000  0.307762  1
  Ce  Ce14  1  0.000000  0.587155  0.307762  1
  Ce  Ce15  1  0.692238  0.692238  0.279394  1
  Dy  Dy16  1  0.000000  0.000000  0.000000  1
  Al  Al17  1  0.820580  0.643895  0.000000  1
  Al  Al18  1  0.643895  0.820580  0.000000  1
  Al  Al19  1  0.179420  0.179420  0.823316  1
  Al  Al20  1  0.643895  0.000000  0.820580  1
  Al  Al21  1  0.000000  0.643895  0.820580  1
  Al  Al22  1  0.000000  0.820580  0.643895  1
  Al  Al23  1  0.820580  0.000000  0.643895  1
  Al  Al24  1  0.176684  0.356105  0.356105  1
  Al  Al25  1  0.356105  0.176684  0.356105  1
  Al  Al26  1  0.179420  0.823316  0.179420  1
  Al  Al27  1  0.823316  0.179420  0.179420  1
  Al  Al28  1  0.356105  0.356105  0.176684  1
