# generated using pymatgen
data_La2Gd3YNb2O14
_symmetry_space_group_name_H-M   'P 1'
_cell_length_a   6.57933387
_cell_length_b   6.58435905
_cell_length_c   7.71487700
_cell_angle_alpha   90.00000000
_cell_angle_beta   90.00000000
_cell_angle_gamma   109.27416676
_symmetry_Int_Tables_number   1
_chemical_formula_structural   La2Gd3YNb2O14
_chemical_formula_sum   'La2 Gd3 Y1 Nb2 O14'
_cell_volume   315.48111802
_cell_formula_units_Z   1
loop_
 _symmetry_equiv_pos_site_id
 _symmetry_equiv_pos_as_xyz
  1  'x, y, z'
loop_
 _atom_site_type_symbol
 _atom_site_label
 _atom_site_symmetry_multiplicity
 _atom_site_fract_x
 _atom_site_fract_y
 _atom_site_fract_z
 _atom_site_occupancy
  La  La0  1  0.500319  0.500440  0.500569  1
  La  La1  1  0.500319  0.500440  0.999431  1
  Gd  Gd2  1  0.000605  0.533878  0.250000  1
  Gd  Gd3  1  0.466474  0.999274  0.250000  1
  Gd  Gd4  1  0.999359  0.466024  0.750000  1
  Y  Y5  1  0.533887  0.000795  0.750000  1
  Nb  Nb6  1  0.000311  0.000042  0.500553  1
  Nb  Nb7  1  0.000311  0.000042  0.999447  1
  O  O8  1  0.680629  0.932280  0.469726  1
  O  O9  1  0.931463  0.681300  0.532030  1
  O  O10  1  0.680629  0.932280  0.030274  1
  O  O11  1  0.931463  0.681300  0.967970  1
  O  O12  1  0.318050  0.066584  0.534553  1
  O  O13  1  0.068849  0.318377  0.467740  1
  O  O14  1  0.318050  0.066584  0.965447  1
  O  O15  1  0.068849  0.318377  0.032260  1
  O  O16  1  0.367154  0.639057  0.750000  1
  O  O17  1  0.634646  0.365018  0.250000  1
  O  O18  1  0.641304  0.356042  0.750000  1
  O  O19  1  0.359234  0.641298  0.250000  1
  O  O20  1  0.934493  0.063407  0.750000  1
  O  O21  1  0.063601  0.937162  0.250000  1
