# generated using pymatgen
data_Zr4NiIr3
_symmetry_space_group_name_H-M   'P 1'
_cell_length_a   6.33669503
_cell_length_b   5.33628843
_cell_length_c   4.36124000
_cell_angle_alpha   90.00000000
_cell_angle_beta   90.00000000
_cell_angle_gamma   90.59034201
_symmetry_Int_Tables_number   1
_chemical_formula_structural   Zr4NiIr3
_chemical_formula_sum   'Zr4 Ni1 Ir3'
_cell_volume   147.46502738
_cell_formula_units_Z   1
loop_
 _symmetry_equiv_pos_site_id
 _symmetry_equiv_pos_as_xyz
  1  'x, y, z'
loop_
 _atom_site_type_symbol
 _atom_site_label
 _atom_site_symmetry_multiplicity
 _atom_site_fract_x
 _atom_site_fract_y
 _atom_site_fract_z
 _atom_site_occupancy
  Zr  Zr0  1  0.094042  0.014106  0.000000  1
  Zr  Zr1  1  0.592047  0.239913  0.000000  1
  Zr  Zr2  1  0.237414  0.509003  0.499999  1
  Zr  Zr3  1  0.745005  0.743121  0.499999  1
  Ni  Ni4  1  0.872228  0.221616  0.499999  1
  Ir  Ir5  1  0.953962  0.522150  0.000000  1
  Ir  Ir6  1  0.466421  0.712350  0.000000  1
  Ir  Ir7  1  0.372215  0.037743  0.499999  1
