# generated using pymatgen
data_Ac5ZrIrO12
_symmetry_space_group_name_H-M   'P 1'
_cell_length_a   7.34398351
_cell_length_b   7.34398479
_cell_length_c   7.99806800
_cell_angle_alpha   74.24364909
_cell_angle_beta   74.24363816
_cell_angle_gamma   50.52692786
_symmetry_Int_Tables_number   1
_chemical_formula_structural   Ac5ZrIrO12
_chemical_formula_sum   'Ac5 Zr1 Ir1 O12'
_cell_volume   317.61817362
_cell_formula_units_Z   1
loop_
 _symmetry_equiv_pos_site_id
 _symmetry_equiv_pos_as_xyz
  1  'x, y, z'
loop_
 _atom_site_type_symbol
 _atom_site_label
 _atom_site_symmetry_multiplicity
 _atom_site_fract_x
 _atom_site_fract_y
 _atom_site_fract_z
 _atom_site_occupancy
  Ac  Ac0  1  0.306517  0.312322  0.356953  1
  Ac  Ac1  1  0.687678  0.693483  0.643047  1
  Ac  Ac2  1  0.682601  0.698702  0.167523  1
  Ac  Ac3  1  0.301298  0.317399  0.832477  1
  Ac  Ac4  1  0.002960  0.997040  0.500000  1
  Zr  Zr5  1  0.788181  0.211819  0.000000  1
  Ir  Ir6  1  0.251269  0.748731  0.000000  1
  O  O7  1  0.090989  0.597492  0.576931  1
  O  O8  1  0.019866  0.978613  0.185021  1
  O  O9  1  0.402508  0.909011  0.423069  1
  O  O10  1  0.494074  0.507507  0.168870  1
  O  O11  1  0.098060  0.597330  0.076774  1
  O  O12  1  0.902084  0.408604  0.419457  1
  O  O13  1  0.021387  0.980134  0.814979  1
  O  O14  1  0.591396  0.097915  0.580543  1
  O  O15  1  0.492493  0.505926  0.831130  1
  O  O16  1  0.570305  0.106336  0.077847  1
  O  O17  1  0.402670  0.901940  0.923226  1
  O  O18  1  0.893664  0.429695  0.922153  1
