# generated using pymatgen
data_Pr5YIn6O18
_symmetry_space_group_name_H-M   'P 1'
_cell_length_a   6.54878500
_cell_length_b   6.54878547
_cell_length_c   12.56188900
_cell_angle_alpha   90.00000000
_cell_angle_beta   90.00000000
_cell_angle_gamma   119.99999260
_symmetry_Int_Tables_number   1
_chemical_formula_structural   Pr5YIn6O18
_chemical_formula_sum   'Pr5 Y1 In6 O18'
_cell_volume   466.55958028
_cell_formula_units_Z   1
loop_
 _symmetry_equiv_pos_site_id
 _symmetry_equiv_pos_as_xyz
  1  'x, y, z'
loop_
 _atom_site_type_symbol
 _atom_site_label
 _atom_site_symmetry_multiplicity
 _atom_site_fract_x
 _atom_site_fract_y
 _atom_site_fract_z
 _atom_site_occupancy
  Pr  Pr0  1  0.000000  0.000000  0.271744  1
  Pr  Pr1  1  0.000000  0.000000  0.774209  1
  Pr  Pr2  1  0.333333  0.666667  0.236425  1
  Pr  Pr3  1  0.666667  0.333333  0.735125  1
  Pr  Pr4  1  0.333333  0.666667  0.734654  1
  Y  Y5  1  0.666667  0.333333  0.235511  1
  In  In6  1  0.335823  0.001755  0.003015  1
  In  In7  1  0.335763  0.333907  0.499659  1
  In  In8  1  0.998143  0.664237  0.499659  1
  In  In9  1  0.998245  0.334068  0.003015  1
  In  In10  1  0.665932  0.664177  0.003015  1
  In  In11  1  0.666093  0.001857  0.499659  1
  O  O12  1  0.319954  0.011432  0.171439  1
  O  O13  1  0.306387  0.307428  0.668117  1
  O  O14  1  0.001042  0.693613  0.668117  1
  O  O15  1  0.988568  0.308522  0.171439  1
  O  O16  1  0.691478  0.680046  0.171439  1
  O  O17  1  0.692572  0.998958  0.668117  1
  O  O18  1  0.641446  0.011482  0.332714  1
  O  O19  1  0.640477  0.640714  0.835805  1
  O  O20  1  0.000237  0.359523  0.835805  1
  O  O21  1  0.988518  0.629964  0.332714  1
  O  O22  1  0.370036  0.358554  0.332714  1
  O  O23  1  0.359286  0.999763  0.835805  1
  O  O24  1  0.000000  0.000000  0.472319  1
  O  O25  1  0.000000  0.000000  0.977728  1
  O  O26  1  0.333333  0.666667  0.028153  1
  O  O27  1  0.666667  0.333333  0.527218  1
  O  O28  1  0.333333  0.666667  0.521937  1
  O  O29  1  0.666667  0.333333  0.027130  1
