# generated using pymatgen
data_TaNiB2Mo
_symmetry_space_group_name_H-M   'P 1'
_cell_length_a   4.58139894
_cell_length_b   4.58139908
_cell_length_c   4.58139949
_cell_angle_alpha   138.68508948
_cell_angle_beta   119.34067186
_cell_angle_gamma   76.04889991
_symmetry_Int_Tables_number   1
_chemical_formula_structural   TaNiB2Mo
_chemical_formula_sum   'Ta1 Ni1 B2 Mo1'
_cell_volume   53.97781562
_cell_formula_units_Z   1
loop_
 _symmetry_equiv_pos_site_id
 _symmetry_equiv_pos_as_xyz
  1  'x, y, z'
loop_
 _atom_site_type_symbol
 _atom_site_label
 _atom_site_symmetry_multiplicity
 _atom_site_fract_x
 _atom_site_fract_y
 _atom_site_fract_z
 _atom_site_occupancy
  Ta  Ta0  1  0.704713  0.204713  0.500000  1
  Ni  Ni1  1  0.999743  0.999743  0.000000  1
  B  B2  1  0.697677  0.498054  0.199623  1
  B  B3  1  0.298430  0.498054  0.800376  1
  Mo  Mo4  1  0.299437  0.799437  0.500000  1
