# generated using pymatgen
data_YTm2Th11Os6
_symmetry_space_group_name_H-M   'P 1'
_cell_length_a   9.87359267
_cell_length_b   9.97383140
_cell_length_c   6.37401661
_cell_angle_alpha   90.12376485
_cell_angle_beta   90.01549987
_cell_angle_gamma   120.31607747
_symmetry_Int_Tables_number   1
_chemical_formula_structural   YTm2Th11Os6
_chemical_formula_sum   'Y1 Tm2 Th11 Os6'
_cell_volume   541.86043121
_cell_formula_units_Z   1
loop_
 _symmetry_equiv_pos_site_id
 _symmetry_equiv_pos_as_xyz
  1  'x, y, z'
loop_
 _atom_site_type_symbol
 _atom_site_label
 _atom_site_symmetry_multiplicity
 _atom_site_fract_x
 _atom_site_fract_y
 _atom_site_fract_z
 _atom_site_occupancy
  Y  Y0  1  0.929067  0.464222  0.798823  1
  Tm  Tm1  1  0.459788  0.536555  0.299596  1
  Tm  Tm2  1  0.074801  0.536152  0.301869  1
  Th  Th3  1  0.252748  0.128576  0.509604  1
  Th  Th4  1  0.540640  0.079857  0.796476  1
  Th  Th5  1  0.745318  0.871956  0.014424  1
  Th  Th6  1  0.667458  0.334391  0.273573  1
  Th  Th7  1  0.126640  0.869868  0.010427  1
  Th  Th8  1  0.460285  0.917180  0.295362  1
  Th  Th9  1  0.537278  0.466474  0.801282  1
  Th  Th10  1  0.874819  0.129978  0.511870  1
  Th  Th11  1  0.125272  0.255431  0.015757  1
  Th  Th12  1  0.873363  0.745869  0.509134  1
  Th  Th13  1  0.332472  0.664966  0.769152  1
  Os  Os14  1  0.812105  0.629322  0.048418  1
  Os  Os15  1  0.812970  0.182283  0.047297  1
  Os  Os16  1  0.629593  0.812703  0.545244  1
  Os  Os17  1  0.371384  0.187479  0.041928  1
  Os  Os18  1  0.186626  0.370258  0.551393  1
  Os  Os19  1  0.187375  0.816479  0.542365  1
