# generated using pymatgen
data_Dy6Zn21Ni2C
_symmetry_space_group_name_H-M   'P 1'
_cell_length_a   8.86307499
_cell_length_b   8.87783895
_cell_length_c   8.86307400
_cell_angle_alpha   59.94403660
_cell_angle_beta   59.70363254
_cell_angle_gamma   59.94407284
_symmetry_Int_Tables_number   1
_chemical_formula_structural   Dy6Zn21Ni2C
_chemical_formula_sum   'Dy6 Zn21 Ni2 C1'
_cell_volume   491.60100141
_cell_formula_units_Z   1
loop_
 _symmetry_equiv_pos_site_id
 _symmetry_equiv_pos_as_xyz
  1  'x, y, z'
loop_
 _atom_site_type_symbol
 _atom_site_label
 _atom_site_symmetry_multiplicity
 _atom_site_fract_x
 _atom_site_fract_y
 _atom_site_fract_z
 _atom_site_occupancy
  Dy  Dy0  1  0.695517  0.301587  0.304482  1
  Dy  Dy1  1  0.304483  0.698413  0.695518  1
  Dy  Dy2  1  0.302524  0.697477  0.302524  1
  Dy  Dy3  1  0.697476  0.302523  0.697476  1
  Dy  Dy4  1  0.304482  0.301587  0.695517  1
  Dy  Dy5  1  0.695518  0.698413  0.304483  1
  Zn  Zn6  1  0.117369  0.114282  0.117369  1
  Zn  Zn7  1  0.882631  0.885718  0.882631  1
  Zn  Zn8  1  0.127150  0.112546  0.647755  1
  Zn  Zn9  1  0.117371  0.650984  0.117371  1
  Zn  Zn10  1  0.872850  0.887454  0.352245  1
  Zn  Zn11  1  0.882629  0.349016  0.882629  1
  Zn  Zn12  1  0.647755  0.112546  0.127150  1
  Zn  Zn13  1  0.352245  0.887454  0.872850  1
  Zn  Zn14  1  0.500000  0.000000  0.000000  1
  Zn  Zn15  1  0.000000  0.500000  0.500000  1
  Zn  Zn16  1  0.000000  0.500000  0.000000  1
  Zn  Zn17  1  0.000000  0.000000  0.500000  1
  Zn  Zn18  1  0.500000  0.500000  0.000000  1
  Zn  Zn19  1  0.331159  0.319205  0.331160  1
  Zn  Zn20  1  0.668841  0.680795  0.668840  1
  Zn  Zn21  1  0.326775  0.327524  0.018183  1
  Zn  Zn22  1  0.331163  0.018472  0.331163  1
  Zn  Zn23  1  0.673225  0.672476  0.981817  1
  Zn  Zn24  1  0.668837  0.981528  0.668837  1
  Zn  Zn25  1  0.018183  0.327524  0.326775  1
  Zn  Zn26  1  0.981817  0.672476  0.673225  1
  Ni  Ni27  1  0.500000  0.000000  0.500000  1
  Ni  Ni28  1  0.000000  0.000000  0.000000  1
  C  C29  1  0.500000  0.500000  0.500000  1
