# generated using pymatgen
data_Zr16TaCo4Pt3
_symmetry_space_group_name_H-M   'P 1'
_cell_length_a   8.76544798
_cell_length_b   8.76544767
_cell_length_c   8.76544700
_cell_angle_alpha   59.88986865
_cell_angle_beta   59.88987736
_cell_angle_gamma   59.88987571
_symmetry_Int_Tables_number   1
_chemical_formula_structural   Zr16TaCo4Pt3
_chemical_formula_sum   'Zr16 Ta1 Co4 Pt3'
_cell_volume   475.02976213
_cell_formula_units_Z   1
loop_
 _symmetry_equiv_pos_site_id
 _symmetry_equiv_pos_as_xyz
  1  'x, y, z'
loop_
 _atom_site_type_symbol
 _atom_site_label
 _atom_site_symmetry_multiplicity
 _atom_site_fract_x
 _atom_site_fract_y
 _atom_site_fract_z
 _atom_site_occupancy
  Zr  Zr0  1  0.047521  0.650338  0.650338  1
  Zr  Zr1  1  0.650338  0.047521  0.650338  1
  Zr  Zr2  1  0.650338  0.650338  0.047521  1
  Zr  Zr3  1  0.644024  0.644024  0.644024  1
  Zr  Zr4  1  0.803520  0.803520  0.196436  1
  Zr  Zr5  1  0.193450  0.193450  0.802730  1
  Zr  Zr6  1  0.803520  0.196436  0.803520  1
  Zr  Zr7  1  0.193450  0.802730  0.193450  1
  Zr  Zr8  1  0.196436  0.803520  0.803520  1
  Zr  Zr9  1  0.802730  0.193450  0.193450  1
  Zr  Zr10  1  0.436621  0.436621  0.073761  1
  Zr  Zr11  1  0.063611  0.063611  0.436796  1
  Zr  Zr12  1  0.436621  0.073761  0.436621  1
  Zr  Zr13  1  0.063611  0.436796  0.063611  1
  Zr  Zr14  1  0.073761  0.436621  0.436621  1
  Zr  Zr15  1  0.436796  0.063611  0.063611  1
  Ta  Ta16  1  0.423183  0.423183  0.423183  1
  Co  Co17  1  0.425671  0.855421  0.855421  1
  Co  Co18  1  0.855421  0.425671  0.855421  1
  Co  Co19  1  0.855421  0.855421  0.425671  1
  Co  Co20  1  0.859975  0.859975  0.859975  1
  Pt  Pt21  1  0.757648  0.413167  0.413167  1
  Pt  Pt22  1  0.413167  0.757648  0.413167  1
  Pt  Pt23  1  0.413167  0.413167  0.757648  1
