# generated using pymatgen
data_Sr4PrNd3(BO4)4
_symmetry_space_group_name_H-M   'P 1'
_cell_length_a   3.83259400
_cell_length_b   9.99730704
_cell_length_c   11.09173315
_cell_angle_alpha   90.05227886
_cell_angle_beta   90.00000000
_cell_angle_gamma   90.00000000
_symmetry_Int_Tables_number   1
_chemical_formula_structural   Sr4PrNd3(BO4)4
_chemical_formula_sum   'Sr4 Pr1 Nd3 B4 O16'
_cell_volume   424.98644445
_cell_formula_units_Z   1
loop_
 _symmetry_equiv_pos_site_id
 _symmetry_equiv_pos_as_xyz
  1  'x, y, z'
loop_
 _atom_site_type_symbol
 _atom_site_label
 _atom_site_symmetry_multiplicity
 _atom_site_fract_x
 _atom_site_fract_y
 _atom_site_fract_z
 _atom_site_occupancy
  Sr  Sr0  1  0.250000  0.666877  0.080377  1
  Sr  Sr1  1  0.750000  0.333023  0.920324  1
  Sr  Sr2  1  0.750000  0.166194  0.419280  1
  Sr  Sr3  1  0.250000  0.833873  0.580069  1
  Pr  Pr4  1  0.250000  0.414493  0.614830  1
  Nd  Nd5  1  0.250000  0.085580  0.114552  1
  Nd  Nd6  1  0.750000  0.914241  0.885530  1
  Nd  Nd7  1  0.750000  0.586138  0.384623  1
  B  B8  1  0.250000  0.366340  0.203383  1
  B  B9  1  0.750000  0.633977  0.797144  1
  B  B10  1  0.750000  0.866615  0.296488  1
  B  B11  1  0.250000  0.132769  0.703931  1
  O  O12  1  0.250000  0.494792  0.251498  1
  O  O13  1  0.750000  0.505368  0.749314  1
  O  O14  1  0.750000  0.994839  0.248044  1
  O  O15  1  0.250000  0.004350  0.751879  1
  O  O16  1  0.250000  0.252569  0.277054  1
  O  O17  1  0.750000  0.747252  0.722979  1
  O  O18  1  0.750000  0.752811  0.222631  1
  O  O19  1  0.250000  0.246116  0.778252  1
  O  O20  1  0.250000  0.348928  0.077269  1
  O  O21  1  0.750000  0.651655  0.923148  1
  O  O22  1  0.750000  0.849629  0.422530  1
  O  O23  1  0.250000  0.150215  0.577786  1
  O  O24  1  0.250000  0.613465  0.498909  1
  O  O25  1  0.750000  0.387976  0.497908  1
  O  O26  1  0.750000  0.112040  0.000171  1
  O  O27  1  0.250000  0.887874  0.000095  1
