# generated using pymatgen
data_Be4AlCo7O16
_symmetry_space_group_name_H-M   'P 1'
_cell_length_a   4.44531645
_cell_length_b   9.54406093
_cell_length_c   5.51763000
_cell_angle_alpha   90.00000000
_cell_angle_beta   90.00000000
_cell_angle_gamma   90.05108721
_symmetry_Int_Tables_number   1
_chemical_formula_structural   Be4AlCo7O16
_chemical_formula_sum   'Be4 Al1 Co7 O16'
_cell_volume   234.09292468
_cell_formula_units_Z   1
loop_
 _symmetry_equiv_pos_site_id
 _symmetry_equiv_pos_as_xyz
  1  'x, y, z'
loop_
 _atom_site_type_symbol
 _atom_site_label
 _atom_site_symmetry_multiplicity
 _atom_site_fract_x
 _atom_site_fract_y
 _atom_site_fract_z
 _atom_site_occupancy
  Be  Be0  1  0.433018  0.091966  0.250000  1
  Be  Be1  1  0.069840  0.592864  0.250000  1
  Be  Be2  1  0.932040  0.407655  0.750001  1
  Be  Be3  1  0.564559  0.909728  0.750001  1
  Al  Al4  1  0.003619  0.730181  0.750001  1
  Co  Co5  1  0.998896  0.999938  0.999776  1
  Co  Co6  1  0.500524  0.499443  0.000813  1
  Co  Co7  1  0.000263  0.266004  0.250000  1
  Co  Co8  1  0.499577  0.767247  0.250000  1
  Co  Co9  1  0.998896  0.999938  0.500225  1
  Co  Co10  1  0.500524  0.499443  0.499188  1
  Co  Co11  1  0.499398  0.233861  0.750001  1
  O  O12  1  0.257660  0.163370  0.018524  1
  O  O13  1  0.240996  0.663977  0.016319  1
  O  O14  1  0.787473  0.092823  0.250000  1
  O  O15  1  0.232266  0.437448  0.250000  1
  O  O16  1  0.713964  0.592702  0.250000  1
  O  O17  1  0.267688  0.937360  0.250000  1
  O  O18  1  0.257660  0.163370  0.481476  1
  O  O19  1  0.240996  0.663977  0.483681  1
  O  O20  1  0.757675  0.336878  0.518357  1
  O  O21  1  0.741899  0.835926  0.519636  1
  O  O22  1  0.730986  0.063463  0.750001  1
  O  O23  1  0.287120  0.407555  0.750001  1
  O  O24  1  0.771754  0.564641  0.750001  1
  O  O25  1  0.211134  0.905439  0.750001  1
  O  O26  1  0.757675  0.336878  0.981643  1
  O  O27  1  0.741899  0.835926  0.980364  1
