# generated using pymatgen
data_HoEr7Ga12CoAu3
_symmetry_space_group_name_H-M   'P 1'
_cell_length_a   7.10301000
_cell_length_b   8.83438043
_cell_length_c   8.83438100
_cell_angle_alpha   119.99999840
_cell_angle_beta   90.00000000
_cell_angle_gamma   90.00000000
_symmetry_Int_Tables_number   1
_chemical_formula_structural   HoEr7Ga12CoAu3
_chemical_formula_sum   'Ho1 Er7 Ga12 Co1 Au3'
_cell_volume   480.09290394
_cell_formula_units_Z   1
loop_
 _symmetry_equiv_pos_site_id
 _symmetry_equiv_pos_as_xyz
  1  'x, y, z'
loop_
 _atom_site_type_symbol
 _atom_site_label
 _atom_site_symmetry_multiplicity
 _atom_site_fract_x
 _atom_site_fract_y
 _atom_site_fract_z
 _atom_site_occupancy
  Ho  Ho0  1  0.738963  0.000000  0.000000  1
  Er  Er1  1  0.250726  0.000000  0.000000  1
  Er  Er2  1  0.749398  0.485804  0.514196  1
  Er  Er3  1  0.258372  0.523062  0.476938  1
  Er  Er4  1  0.749398  0.028393  0.514196  1
  Er  Er5  1  0.258372  0.953877  0.476938  1
  Er  Er6  1  0.749398  0.485804  0.971607  1
  Er  Er7  1  0.258372  0.523062  0.046123  1
  Ga  Ga8  1  0.954851  0.837419  0.162581  1
  Ga  Ga9  1  0.048832  0.164885  0.835115  1
  Ga  Ga10  1  0.954851  0.325164  0.162581  1
  Ga  Ga11  1  0.459039  0.163186  0.836814  1
  Ga  Ga12  1  0.048832  0.670230  0.835115  1
  Ga  Ga13  1  0.541921  0.825883  0.174117  1
  Ga  Ga14  1  0.954851  0.837419  0.674836  1
  Ga  Ga15  1  0.459039  0.673626  0.836814  1
  Ga  Ga16  1  0.048832  0.164885  0.329770  1
  Ga  Ga17  1  0.541921  0.348235  0.174117  1
  Ga  Ga18  1  0.459039  0.163186  0.326374  1
  Ga  Ga19  1  0.541921  0.825883  0.651765  1
  Co  Co20  1  0.514875  0.666667  0.333333  1
  Au  Au21  1  0.954397  0.666667  0.333333  1
  Au  Au22  1  0.032263  0.333333  0.666667  1
  Au  Au23  1  0.471548  0.333333  0.666667  1
