# generated using pymatgen
data_Ho3AlGaNi6
_symmetry_space_group_name_H-M   'P 1'
_cell_length_a   7.69705911
_cell_length_b   7.69705961
_cell_length_c   7.69335001
_cell_angle_alpha   109.45839458
_cell_angle_beta   109.45840190
_cell_angle_gamma   109.51638097
_symmetry_Int_Tables_number   1
_chemical_formula_structural   Ho3AlGaNi6
_chemical_formula_sum   'Ho6 Al2 Ga2 Ni12'
_cell_volume   350.78298383
_cell_formula_units_Z   2
loop_
 _symmetry_equiv_pos_site_id
 _symmetry_equiv_pos_as_xyz
  1  'x, y, z'
loop_
 _atom_site_type_symbol
 _atom_site_label
 _atom_site_symmetry_multiplicity
 _atom_site_fract_x
 _atom_site_fract_y
 _atom_site_fract_z
 _atom_site_occupancy
  Ho  Ho0  1  0.708450  0.708450  0.000000  1
  Ho  Ho1  1  0.292353  0.002335  0.294688  1
  Ho  Ho2  1  0.002335  0.292353  0.294688  1
  Ho  Ho3  1  0.291550  0.291550  0.000000  1
  Ho  Ho4  1  0.707647  0.997665  0.705312  1
  Ho  Ho5  1  0.997665  0.707647  0.705312  1
  Al  Al6  1  0.000000  0.500000  0.000000  1
  Al  Al7  1  0.500000  0.000000  0.000000  1
  Ga  Ga8  1  0.000000  0.000000  0.500000  1
  Ga  Ga9  1  0.500000  0.500000  0.500000  1
  Ni  Ni10  1  0.337872  0.337872  0.675745  1
  Ni  Ni11  1  0.661813  0.000267  0.334085  1
  Ni  Ni12  1  0.000267  0.661813  0.334085  1
  Ni  Ni13  1  0.664478  0.335522  0.000000  1
  Ni  Ni14  1  0.333819  0.672274  0.334085  1
  Ni  Ni15  1  0.999733  0.338187  0.665915  1
  Ni  Ni16  1  0.335522  0.664478  0.000000  1
  Ni  Ni17  1  0.338187  0.999733  0.665915  1
  Ni  Ni18  1  0.672274  0.333819  0.334085  1
  Ni  Ni19  1  0.662128  0.662128  0.324255  1
  Ni  Ni20  1  0.666181  0.327726  0.665915  1
  Ni  Ni21  1  0.327726  0.666181  0.665915  1
