# generated using pymatgen
data_YAuCl6
_symmetry_space_group_name_H-M   'P 1'
_cell_length_a   8.00696379
_cell_length_b   9.93504854
_cell_length_c   14.09198367
_cell_angle_alpha   102.85716664
_cell_angle_beta   97.39408288
_cell_angle_gamma   113.06175177
_symmetry_Int_Tables_number   1
_chemical_formula_structural   YAuCl6
_chemical_formula_sum   'Y4 Au4 Cl24'
_cell_volume   976.01393375
_cell_formula_units_Z   4
loop_
 _symmetry_equiv_pos_site_id
 _symmetry_equiv_pos_as_xyz
  1  'x, y, z'
loop_
 _atom_site_type_symbol
 _atom_site_label
 _atom_site_symmetry_multiplicity
 _atom_site_fract_x
 _atom_site_fract_y
 _atom_site_fract_z
 _atom_site_occupancy
  Y  Y0  1  0.579463  0.928881  0.622938  1
  Y  Y1  1  0.420537  0.071119  0.377062  1
  Y  Y2  1  0.969886  0.314865  0.871950  1
  Y  Y3  1  0.030114  0.685135  0.128050  1
  Au  Au4  1  0.288972  0.633466  0.763339  1
  Au  Au5  1  0.711028  0.366534  0.236661  1
  Au  Au6  1  0.500000  0.500000  0.500000  1
  Au  Au7  1  0.000000  0.000000  0.000000  1
  Cl  Cl8  1  0.597111  0.734641  0.749849  1
  Cl  Cl9  1  0.402889  0.265359  0.250151  1
  Cl  Cl10  1  0.278238  0.849050  0.731341  1
  Cl  Cl11  1  0.721762  0.150950  0.268659  1
  Cl  Cl12  1  0.978627  0.534019  0.772983  1
  Cl  Cl13  1  0.021373  0.465981  0.227017  1
  Cl  Cl14  1  0.298165  0.414223  0.791333  1
  Cl  Cl15  1  0.701835  0.585777  0.208667  1
  Cl  Cl16  1  0.685874  0.369465  0.500728  1
  Cl  Cl17  1  0.314126  0.630535  0.499272  1
  Cl  Cl18  1  0.756106  0.735334  0.533224  1
  Cl  Cl19  1  0.243894  0.264666  0.466776  1
  Cl  Cl20  1  0.790809  0.105459  0.975148  1
  Cl  Cl21  1  0.209191  0.894541  0.024852  1
  Cl  Cl22  1  0.777931  0.789968  0.030653  1
  Cl  Cl23  1  0.222069  0.210032  0.969347  1
  Cl  Cl24  1  0.623380  0.194360  0.745407  1
  Cl  Cl25  1  0.376620  0.805640  0.254593  1
  Cl  Cl26  1  0.936558  0.060532  0.731495  1
  Cl  Cl27  1  0.063442  0.939468  0.268505  1
  Cl  Cl28  1  0.714890  0.046926  0.483187  1
  Cl  Cl29  1  0.285110  0.953074  0.516813  1
  Cl  Cl30  1  0.773252  0.436217  0.977540  1
  Cl  Cl31  1  0.226748  0.563783  0.022460  1
