# generated using pymatgen
data_Tb15Dy(C2Cl3)4
_symmetry_space_group_name_H-M   'P 1'
_cell_length_a   3.67141600
_cell_length_b   10.58540002
_cell_length_c   19.84345300
_cell_angle_alpha   89.96379848
_cell_angle_beta   90.00000000
_cell_angle_gamma   90.00000000
_symmetry_Int_Tables_number   1
_chemical_formula_structural   Tb15Dy(C2Cl3)4
_chemical_formula_sum   'Tb15 Dy1 C8 Cl12'
_cell_volume   771.18403608
_cell_formula_units_Z   1
loop_
 _symmetry_equiv_pos_site_id
 _symmetry_equiv_pos_as_xyz
  1  'x, y, z'
loop_
 _atom_site_type_symbol
 _atom_site_label
 _atom_site_symmetry_multiplicity
 _atom_site_fract_x
 _atom_site_fract_y
 _atom_site_fract_z
 _atom_site_occupancy
  Tb  Tb0  1  0.750000  0.136189  0.426257  1
  Tb  Tb1  1  0.750000  0.636498  0.073780  1
  Tb  Tb2  1  0.250000  0.363467  0.926104  1
  Tb  Tb3  1  0.250000  0.866540  0.744300  1
  Tb  Tb4  1  0.750000  0.133557  0.255665  1
  Tb  Tb5  1  0.750000  0.633434  0.244485  1
  Tb  Tb6  1  0.250000  0.366438  0.755470  1
  Tb  Tb7  1  0.250000  0.872197  0.165427  1
  Tb  Tb8  1  0.750000  0.127842  0.834584  1
  Tb  Tb9  1  0.750000  0.627942  0.665182  1
  Tb  Tb10  1  0.250000  0.372066  0.334778  1
  Tb  Tb11  1  0.250000  0.895659  0.333014  1
  Tb  Tb12  1  0.750000  0.104399  0.666986  1
  Tb  Tb13  1  0.750000  0.604112  0.832785  1
  Tb  Tb14  1  0.250000  0.395736  0.167205  1
  Dy  Dy15  1  0.250000  0.863741  0.574253  1
  C  C16  1  0.250000  0.616142  0.750701  1
  C  C17  1  0.750000  0.384374  0.249143  1
  C  C18  1  0.750000  0.884098  0.251085  1
  C  C19  1  0.250000  0.115416  0.748878  1
  C  C20  1  0.250000  0.633127  0.152402  1
  C  C21  1  0.750000  0.366876  0.847434  1
  C  C22  1  0.750000  0.867167  0.651984  1
  C  C23  1  0.250000  0.132827  0.347666  1
  Cl  Cl24  1  0.250000  0.617085  0.555992  1
  Cl  Cl25  1  0.750000  0.384277  0.443924  1
  Cl  Cl26  1  0.750000  0.884624  0.056282  1
  Cl  Cl27  1  0.250000  0.115240  0.943598  1
  Cl  Cl28  1  0.250000  0.622711  0.953000  1
  Cl  Cl29  1  0.750000  0.377324  0.046815  1
  Cl  Cl30  1  0.750000  0.877187  0.454035  1
  Cl  Cl31  1  0.250000  0.121648  0.546960  1
  Cl  Cl32  1  0.250000  0.635287  0.354586  1
  Cl  Cl33  1  0.750000  0.364813  0.645367  1
  Cl  Cl34  1  0.750000  0.864546  0.854282  1
  Cl  Cl35  1  0.250000  0.135412  0.145586  1
