# generated using pymatgen
data_Lu4InGeB4(IrRh4)2
_symmetry_space_group_name_H-M   'P 1'
_cell_length_a   9.33551700
_cell_length_b   9.33551700
_cell_length_c   3.24762200
_cell_angle_alpha   90.00000000
_cell_angle_beta   90.00000000
_cell_angle_gamma   90.00000000
_symmetry_Int_Tables_number   1
_chemical_formula_structural   Lu4InGeB4(IrRh4)2
_chemical_formula_sum   'Lu4 In1 Ge1 B4 Ir2 Rh8'
_cell_volume   283.03635522
_cell_formula_units_Z   1
loop_
 _symmetry_equiv_pos_site_id
 _symmetry_equiv_pos_as_xyz
  1  'x, y, z'
loop_
 _atom_site_type_symbol
 _atom_site_label
 _atom_site_symmetry_multiplicity
 _atom_site_fract_x
 _atom_site_fract_y
 _atom_site_fract_z
 _atom_site_occupancy
  Lu  Lu0  1  0.822002  0.324789  0.000000  1
  Lu  Lu1  1  0.324789  0.177998  0.000000  1
  Lu  Lu2  1  0.675211  0.822002  0.000000  1
  Lu  Lu3  1  0.177998  0.675211  0.000000  1
  In  In4  1  0.000000  0.000000  0.000000  1
  Ge  Ge5  1  0.500000  0.500000  0.000000  1
  B  B6  1  0.619489  0.121082  0.000000  1
  B  B7  1  0.121082  0.380511  0.000000  1
  B  B8  1  0.878918  0.619489  0.000000  1
  B  B9  1  0.380511  0.878918  0.000000  1
  Ir  Ir10  1  0.500000  0.000000  0.500000  1
  Ir  Ir11  1  0.000000  0.500000  0.500000  1
  Rh  Rh12  1  0.073994  0.223720  0.500000  1
  Rh  Rh13  1  0.223720  0.926006  0.500000  1
  Rh  Rh14  1  0.776280  0.073994  0.500000  1
  Rh  Rh15  1  0.926006  0.776280  0.500000  1
  Rh  Rh16  1  0.432829  0.714632  0.500000  1
  Rh  Rh17  1  0.567171  0.285368  0.500000  1
  Rh  Rh18  1  0.714632  0.567171  0.500000  1
  Rh  Rh19  1  0.285368  0.432829  0.500000  1
