# generated using pymatgen
data_TbNdDyCo8TcP6
_symmetry_space_group_name_H-M   'P 1'
_cell_length_a   3.72660100
_cell_length_b   10.57182900
_cell_length_c   12.25378500
_cell_angle_alpha   90.00000000
_cell_angle_beta   90.00000000
_cell_angle_gamma   90.00000000
_symmetry_Int_Tables_number   1
_chemical_formula_structural   TbNdDyCo8TcP6
_chemical_formula_sum   'Tb2 Nd2 Dy2 Co16 Tc2 P12'
_cell_volume   482.76222701
_cell_formula_units_Z   2
loop_
 _symmetry_equiv_pos_site_id
 _symmetry_equiv_pos_as_xyz
  1  'x, y, z'
loop_
 _atom_site_type_symbol
 _atom_site_label
 _atom_site_symmetry_multiplicity
 _atom_site_fract_x
 _atom_site_fract_y
 _atom_site_fract_z
 _atom_site_occupancy
  Tb  Tb0  1  0.000000  0.682172  0.795372  1
  Tb  Tb1  1  0.000000  0.317828  0.795372  1
  Nd  Nd2  1  0.000000  0.500000  0.524077  1
  Nd  Nd3  1  0.500000  0.000000  0.475311  1
  Dy  Dy4  1  0.500000  0.817916  0.204752  1
  Dy  Dy5  1  0.500000  0.182084  0.204752  1
  Co  Co6  1  0.500000  0.500000  0.705600  1
  Co  Co7  1  0.000000  0.000000  0.294340  1
  Co  Co8  1  0.000000  0.500000  0.987735  1
  Co  Co9  1  0.500000  0.000000  0.013097  1
  Co  Co10  1  0.500000  0.331857  0.991033  1
  Co  Co11  1  0.500000  0.668143  0.991033  1
  Co  Co12  1  0.000000  0.167728  0.009800  1
  Co  Co13  1  0.000000  0.832272  0.009800  1
  Co  Co14  1  0.500000  0.296022  0.429080  1
  Co  Co15  1  0.500000  0.703978  0.429080  1
  Co  Co16  1  0.000000  0.204010  0.570137  1
  Co  Co17  1  0.000000  0.795990  0.570137  1
  Co  Co18  1  0.500000  0.879558  0.710393  1
  Co  Co19  1  0.500000  0.120442  0.710393  1
  Co  Co20  1  0.000000  0.620493  0.289274  1
  Co  Co21  1  0.000000  0.379507  0.289274  1
  Tc  Tc22  1  0.500000  0.500000  0.154371  1
  Tc  Tc23  1  0.000000  0.000000  0.845866  1
  P  P24  1  0.500000  0.500000  0.882945  1
  P  P25  1  0.000000  0.000000  0.117848  1
  P  P26  1  0.500000  0.500000  0.344502  1
  P  P27  1  0.000000  0.000000  0.655283  1
  P  P28  1  0.500000  0.308193  0.617161  1
  P  P29  1  0.500000  0.691807  0.617161  1
  P  P30  1  0.000000  0.191645  0.382083  1
  P  P31  1  0.000000  0.808355  0.382083  1
  P  P32  1  0.500000  0.846086  0.893952  1
  P  P33  1  0.500000  0.153914  0.893952  1
  P  P34  1  0.000000  0.654443  0.106475  1
  P  P35  1  0.000000  0.345557  0.106475  1
