# generated using pymatgen
data_Dy15Er5(IrRh3)3
_symmetry_space_group_name_H-M   'P 1'
_cell_length_a   10.86631214
_cell_length_b   10.86719656
_cell_length_c   6.34563300
_cell_angle_alpha   89.97880511
_cell_angle_beta   90.00914829
_cell_angle_gamma   89.85920485
_symmetry_Int_Tables_number   1
_chemical_formula_structural   Dy15Er5(IrRh3)3
_chemical_formula_sum   'Dy15 Er5 Ir3 Rh9'
_cell_volume   749.33031509
_cell_formula_units_Z   1
loop_
 _symmetry_equiv_pos_site_id
 _symmetry_equiv_pos_as_xyz
  1  'x, y, z'
loop_
 _atom_site_type_symbol
 _atom_site_label
 _atom_site_symmetry_multiplicity
 _atom_site_fract_x
 _atom_site_fract_y
 _atom_site_fract_z
 _atom_site_occupancy
  Dy  Dy0  1  0.289556  0.090394  0.379409  1
  Dy  Dy1  1  0.290493  0.909774  0.879191  1
  Dy  Dy2  1  0.709536  0.088144  0.879520  1
  Dy  Dy3  1  0.709175  0.909969  0.379147  1
  Dy  Dy4  1  0.587263  0.788920  0.880423  1
  Dy  Dy5  1  0.586893  0.209880  0.378774  1
  Dy  Dy6  1  0.412267  0.789445  0.379975  1
  Dy  Dy7  1  0.410213  0.209737  0.880267  1
  Dy  Dy8  1  0.210893  0.412240  0.619267  1
  Dy  Dy9  1  0.210694  0.586799  0.119920  1
  Dy  Dy10  1  0.790405  0.412924  0.121044  1
  Dy  Dy11  1  0.790296  0.589393  0.619477  1
  Dy  Dy12  1  0.910622  0.709685  0.119744  1
  Dy  Dy13  1  0.912341  0.290216  0.620846  1
  Dy  Dy14  1  0.090167  0.709229  0.620197  1
  Er  Er15  1  0.089567  0.291863  0.119862  1
  Er  Er16  1  0.999527  0.999861  0.500522  1
  Er  Er17  1  0.000447  0.001212  0.001228  1
  Er  Er18  1  0.500028  0.499097  0.000151  1
  Er  Er19  1  0.500417  0.499988  0.500184  1
  Ir  Ir20  1  0.653910  0.652745  0.249841  1
  Ir  Ir21  1  0.346206  0.346141  0.249620  1
  Ir  Ir22  1  0.346404  0.653445  0.750114  1
  Rh  Rh23  1  0.848217  0.153938  0.249110  1
  Rh  Rh24  1  0.847411  0.848712  0.750549  1
  Rh  Rh25  1  0.151131  0.153122  0.751211  1
  Rh  Rh26  1  0.152362  0.847838  0.250455  1
  Rh  Rh27  1  0.653981  0.345876  0.749860  1
  Rh  Rh28  1  0.499801  0.000496  0.128441  1
  Rh  Rh29  1  0.500198  0.000924  0.628828  1
  Rh  Rh30  1  0.999569  0.498886  0.871523  1
  Rh  Rh31  1  0.000011  0.499113  0.371306  1
