# generated using pymatgen
data_Dy9Er(SiBi)4
_symmetry_space_group_name_H-M   'P 1'
_cell_length_a   8.64576219
_cell_length_b   8.64576180
_cell_length_c   7.91707600
_cell_angle_alpha   89.99974566
_cell_angle_beta   89.99975111
_cell_angle_gamma   125.61746008
_symmetry_Int_Tables_number   1
_chemical_formula_structural   Dy9Er(SiBi)4
_chemical_formula_sum   'Dy9 Er1 Si4 Bi4'
_cell_volume   481.08404371
_cell_formula_units_Z   1
loop_
 _symmetry_equiv_pos_site_id
 _symmetry_equiv_pos_as_xyz
  1  'x, y, z'
loop_
 _atom_site_type_symbol
 _atom_site_label
 _atom_site_symmetry_multiplicity
 _atom_site_fract_x
 _atom_site_fract_y
 _atom_site_fract_z
 _atom_site_occupancy
  Dy  Dy0  1  0.044031  0.288112  0.334220  1
  Dy  Dy1  1  0.955969  0.711888  0.665780  1
  Dy  Dy2  1  0.455817  0.211724  0.834337  1
  Dy  Dy3  1  0.788276  0.544183  0.165663  1
  Dy  Dy4  1  0.544183  0.788276  0.165663  1
  Dy  Dy5  1  0.211724  0.455817  0.834337  1
  Dy  Dy6  1  0.711888  0.955969  0.665780  1
  Dy  Dy7  1  0.288112  0.044031  0.334220  1
  Dy  Dy8  1  0.500000  0.500000  0.500000  1
  Er  Er9  1  0.000000  0.000000  0.000000  1
  Si  Si10  1  0.367301  0.367301  0.131361  1
  Si  Si11  1  0.632699  0.632699  0.868639  1
  Si  Si12  1  0.132448  0.132448  0.631649  1
  Si  Si13  1  0.867552  0.867552  0.368351  1
  Bi  Bi14  1  0.792362  0.207638  0.000000  1
  Bi  Bi15  1  0.207638  0.792362  0.000000  1
  Bi  Bi16  1  0.707820  0.292180  0.500000  1
  Bi  Bi17  1  0.292180  0.707820  0.500000  1
