# generated using pymatgen
data_Cs6TbSmBr12
_symmetry_space_group_name_H-M   'P 1'
_cell_length_a   10.03694017
_cell_length_b   10.04133517
_cell_length_c   8.34689000
_cell_angle_alpha   90.00000000
_cell_angle_beta   90.00000000
_cell_angle_gamma   89.92471007
_symmetry_Int_Tables_number   1
_chemical_formula_structural   Cs6TbSmBr12
_chemical_formula_sum   'Cs6 Tb1 Sm1 Br12'
_cell_volume   841.23457481
_cell_formula_units_Z   1
loop_
 _symmetry_equiv_pos_site_id
 _symmetry_equiv_pos_as_xyz
  1  'x, y, z'
loop_
 _atom_site_type_symbol
 _atom_site_label
 _atom_site_symmetry_multiplicity
 _atom_site_fract_x
 _atom_site_fract_y
 _atom_site_fract_z
 _atom_site_occupancy
  Cs  Cs0  1  0.000000  0.000000  0.500000  1
  Cs  Cs1  1  0.000000  0.000000  0.000000  1
  Cs  Cs2  1  0.234935  0.584725  0.500000  1
  Cs  Cs3  1  0.765065  0.415275  0.500000  1
  Cs  Cs4  1  0.415144  0.235343  0.000000  1
  Cs  Cs5  1  0.584856  0.764657  0.000000  1
  Tb  Tb6  1  0.000000  0.500000  0.000000  1
  Sm  Sm7  1  0.500000  0.000000  0.500000  1
  Br  Br8  1  0.694513  0.058680  0.743275  1
  Br  Br9  1  0.305487  0.941320  0.743275  1
  Br  Br10  1  0.942139  0.691705  0.240095  1
  Br  Br11  1  0.057861  0.308295  0.240095  1
  Br  Br12  1  0.305487  0.941320  0.256725  1
  Br  Br13  1  0.694513  0.058680  0.256725  1
  Br  Br14  1  0.057861  0.308295  0.759905  1
  Br  Br15  1  0.942139  0.691705  0.759905  1
  Br  Br16  1  0.571586  0.724847  0.500000  1
  Br  Br17  1  0.428414  0.275153  0.500000  1
  Br  Br18  1  0.271082  0.570446  0.000000  1
  Br  Br19  1  0.728918  0.429554  0.000000  1
