# generated using pymatgen
data_Lu4Sc6Ga7Ge
_symmetry_space_group_name_H-M   'P 1'
_cell_length_a   7.19787263
_cell_length_b   7.43667275
_cell_length_c   14.39456100
_cell_angle_alpha   90.00000000
_cell_angle_beta   90.00000000
_cell_angle_gamma   90.16332712
_symmetry_Int_Tables_number   1
_chemical_formula_structural   Lu4Sc6Ga7Ge
_chemical_formula_sum   'Lu8 Sc12 Ga14 Ge2'
_cell_volume   770.51214479
_cell_formula_units_Z   2
loop_
 _symmetry_equiv_pos_site_id
 _symmetry_equiv_pos_as_xyz
  1  'x, y, z'
loop_
 _atom_site_type_symbol
 _atom_site_label
 _atom_site_symmetry_multiplicity
 _atom_site_fract_x
 _atom_site_fract_y
 _atom_site_fract_z
 _atom_site_occupancy
  Lu  Lu0  1  0.012396  0.178734  0.095846  1
  Lu  Lu1  1  0.987604  0.821266  0.904154  1
  Lu  Lu2  1  0.488380  0.678200  0.904849  1
  Lu  Lu3  1  0.987604  0.821266  0.595846  1
  Lu  Lu4  1  0.511620  0.321800  0.095151  1
  Lu  Lu5  1  0.012396  0.178734  0.404154  1
  Lu  Lu6  1  0.511620  0.321800  0.404849  1
  Lu  Lu7  1  0.488380  0.678200  0.595151  1
  Sc  Sc8  1  0.162246  0.504297  0.750000  1
  Sc  Sc9  1  0.837754  0.495703  0.250000  1
  Sc  Sc10  1  0.337010  0.005578  0.250000  1
  Sc  Sc11  1  0.662990  0.994422  0.750000  1
  Sc  Sc12  1  0.331167  0.174371  0.622880  1
  Sc  Sc13  1  0.668833  0.825629  0.377120  1
  Sc  Sc14  1  0.170733  0.672404  0.376503  1
  Sc  Sc15  1  0.668833  0.825629  0.122880  1
  Sc  Sc16  1  0.829267  0.327596  0.623497  1
  Sc  Sc17  1  0.331167  0.174371  0.877120  1
  Sc  Sc18  1  0.829267  0.327596  0.876503  1
  Sc  Sc19  1  0.170733  0.672404  0.123497  1
  Ga  Ga20  1  0.032440  0.116975  0.750000  1
  Ga  Ga21  1  0.967560  0.883025  0.250000  1
  Ga  Ga22  1  0.469368  0.613667  0.250000  1
  Ga  Ga23  1  0.530632  0.386333  0.750000  1
  Ga  Ga24  1  0.285569  0.870225  0.750000  1
  Ga  Ga25  1  0.714431  0.129775  0.250000  1
  Ga  Ga26  1  0.160316  0.465929  0.540590  1
  Ga  Ga27  1  0.839684  0.534071  0.459410  1
  Ga  Ga28  1  0.338110  0.965307  0.459110  1
  Ga  Ga29  1  0.839684  0.534071  0.040590  1
  Ga  Ga30  1  0.661890  0.034693  0.540890  1
  Ga  Ga31  1  0.160316  0.465929  0.959410  1
  Ga  Ga32  1  0.661890  0.034693  0.959110  1
  Ga  Ga33  1  0.338110  0.965307  0.040890  1
  Ge  Ge34  1  0.213342  0.370226  0.250000  1
  Ge  Ge35  1  0.786658  0.629774  0.750000  1
