# generated using pymatgen
data_Hf3CuSi3Mo2
_symmetry_space_group_name_H-M   'P 1'
_cell_length_a   6.83256300
_cell_length_b   6.92337688
_cell_length_c   3.53962800
_cell_angle_alpha   90.00000000
_cell_angle_beta   90.00000000
_cell_angle_gamma   119.56702898
_symmetry_Int_Tables_number   1
_chemical_formula_structural   Hf3CuSi3Mo2
_chemical_formula_sum   'Hf3 Cu1 Si3 Mo2'
_cell_volume   145.63580846
_cell_formula_units_Z   1
loop_
 _symmetry_equiv_pos_site_id
 _symmetry_equiv_pos_as_xyz
  1  'x, y, z'
loop_
 _atom_site_type_symbol
 _atom_site_label
 _atom_site_symmetry_multiplicity
 _atom_site_fract_x
 _atom_site_fract_y
 _atom_site_fract_z
 _atom_site_occupancy
  Hf  Hf0  1  0.599772  0.000000  0.000000  1
  Hf  Hf1  1  0.404240  0.414186  0.000000  1
  Hf  Hf2  1  0.990054  0.585815  0.000000  1
  Cu  Cu3  1  0.252671  0.000000  0.499999  1
  Si  Si4  1  0.012168  0.000000  0.000000  1
  Si  Si5  1  0.661384  0.329508  0.499999  1
  Si  Si6  1  0.331876  0.670491  0.499999  1
  Mo  Mo7  1  0.999898  0.251962  0.499999  1
  Mo  Mo8  1  0.747936  0.748038  0.499999  1
