# generated using pymatgen
data_Ta3MnNb3Al4RhC2
_symmetry_space_group_name_H-M   'P 1'
_cell_length_a   8.26628162
_cell_length_b   8.26639870
_cell_length_c   8.29398300
_cell_angle_alpha   59.89001479
_cell_angle_beta   59.88948010
_cell_angle_gamma   59.77536033
_symmetry_Int_Tables_number   1
_chemical_formula_structural   Ta3MnNb3Al4RhC2
_chemical_formula_sum   'Ta6 Mn2 Nb6 Al8 Rh2 C4'
_cell_volume   399.40054980
_cell_formula_units_Z   2
loop_
 _symmetry_equiv_pos_site_id
 _symmetry_equiv_pos_as_xyz
  1  'x, y, z'
loop_
 _atom_site_type_symbol
 _atom_site_label
 _atom_site_symmetry_multiplicity
 _atom_site_fract_x
 _atom_site_fract_y
 _atom_site_fract_z
 _atom_site_occupancy
  Ta  Ta0  1  0.562067  0.562628  0.937989  1
  Ta  Ta1  1  0.942776  0.551857  0.563794  1
  Ta  Ta2  1  0.553148  0.941268  0.941514  1
  Ta  Ta3  1  0.946185  0.945567  0.554747  1
  Ta  Ta4  1  0.699921  0.306373  0.686885  1
  Ta  Ta5  1  0.940713  0.554209  0.940342  1
  Mn  Mn6  1  0.125158  0.124639  0.125263  1
  Mn  Mn7  1  0.117125  0.129133  0.625210  1
  Nb  Nb8  1  0.554711  0.940304  0.564907  1
  Nb  Nb9  1  0.309168  0.696629  0.685466  1
  Nb  Nb10  1  0.698035  0.307391  0.308441  1
  Nb  Nb11  1  0.306878  0.699099  0.307518  1
  Nb  Nb12  1  0.686841  0.687543  0.313156  1
  Nb  Nb13  1  0.304547  0.303864  0.696332  1
  Al  Al14  1  0.917674  0.915485  0.914842  1
  Al  Al15  1  0.004722  0.331236  0.330424  1
  Al  Al16  1  0.330133  0.005304  0.333436  1
  Al  Al17  1  0.331882  0.333701  0.997552  1
  Al  Al18  1  0.920316  0.245072  0.918427  1
  Al  Al19  1  0.915783  0.917470  0.252175  1
  Al  Al20  1  0.244783  0.921184  0.915435  1
  Al  Al21  1  0.333620  0.331715  0.337154  1
  Rh  Rh22  1  0.624783  0.127151  0.120630  1
  Rh  Rh23  1  0.125653  0.624792  0.125081  1
  C  C24  1  0.627615  0.621500  0.627307  1
  C  C25  1  0.122813  0.625593  0.625823  1
  C  C26  1  0.627178  0.123820  0.627264  1
  C  C27  1  0.625772  0.625471  0.122886  1
