# generated using pymatgen
data_Ho4ThSn3C
_symmetry_space_group_name_H-M   'P 1'
_cell_length_a   9.02162313
_cell_length_b   9.02426324
_cell_length_c   6.53584600
_cell_angle_alpha   90.00000000
_cell_angle_beta   90.00000000
_cell_angle_gamma   120.00968161
_symmetry_Int_Tables_number   1
_chemical_formula_structural   Ho4ThSn3C
_chemical_formula_sum   'Ho8 Th2 Sn6 C2'
_cell_volume   460.77244678
_cell_formula_units_Z   2
loop_
 _symmetry_equiv_pos_site_id
 _symmetry_equiv_pos_as_xyz
  1  'x, y, z'
loop_
 _atom_site_type_symbol
 _atom_site_label
 _atom_site_symmetry_multiplicity
 _atom_site_fract_x
 _atom_site_fract_y
 _atom_site_fract_z
 _atom_site_occupancy
  Ho  Ho0  1  0.667591  0.333440  0.501688  1
  Ho  Ho1  1  0.332409  0.665849  0.501688  1
  Ho  Ho2  1  0.332409  0.665849  0.998312  1
  Ho  Ho3  1  0.667591  0.333440  0.998312  1
  Ho  Ho4  1  0.000000  0.219492  0.250000  1
  Ho  Ho5  1  0.212633  0.214053  0.750000  1
  Ho  Ho6  1  0.787367  0.001420  0.750000  1
  Ho  Ho7  1  0.000000  0.786478  0.750000  1
  Th  Th8  1  0.781125  0.782686  0.250000  1
  Th  Th9  1  0.218875  0.001562  0.250000  1
  Sn  Sn10  1  0.405937  0.409191  0.250000  1
  Sn  Sn11  1  0.594063  0.003255  0.250000  1
  Sn  Sn12  1  0.000000  0.587043  0.250000  1
  Sn  Sn13  1  0.595201  0.595709  0.750000  1
  Sn  Sn14  1  0.404799  0.000507  0.750000  1
  Sn  Sn15  1  0.000000  0.404260  0.750000  1
  C  C16  1  0.000000  0.997882  0.498165  1
  C  C17  1  0.000000  0.997882  0.001835  1
