# generated using pymatgen
data_Sr9Tc4BiN14
_symmetry_space_group_name_H-M   'P 1'
_cell_length_a   6.54714716
_cell_length_b   9.17090235
_cell_length_c   9.70392394
_cell_angle_alpha   116.46560352
_cell_angle_beta   100.98796117
_cell_angle_gamma   89.49206952
_symmetry_Int_Tables_number   1
_chemical_formula_structural   Sr9Tc4BiN14
_chemical_formula_sum   'Sr9 Tc4 Bi1 N14'
_cell_volume   510.10940304
_cell_formula_units_Z   1
loop_
 _symmetry_equiv_pos_site_id
 _symmetry_equiv_pos_as_xyz
  1  'x, y, z'
loop_
 _atom_site_type_symbol
 _atom_site_label
 _atom_site_symmetry_multiplicity
 _atom_site_fract_x
 _atom_site_fract_y
 _atom_site_fract_z
 _atom_site_occupancy
  Sr  Sr0  1  0.247924  0.978885  0.549821  1
  Sr  Sr1  1  0.702301  0.419290  0.859015  1
  Sr  Sr2  1  0.294471  0.599996  0.148430  1
  Sr  Sr3  1  0.397068  0.797408  0.904866  1
  Sr  Sr4  1  0.615089  0.240131  0.109275  1
  Sr  Sr5  1  0.132657  0.411614  0.666561  1
  Sr  Sr6  1  0.871268  0.831894  0.744726  1
  Sr  Sr7  1  0.113827  0.177748  0.237455  1
  Sr  Sr8  1  0.722604  0.977796  0.416932  1
  Tc  Tc9  1  0.578126  0.347400  0.485043  1
  Tc  Tc10  1  0.405707  0.619410  0.513239  1
  Tc  Tc11  1  0.129774  0.212803  0.904828  1
  Tc  Tc12  1  0.878711  0.803922  0.076793  1
  Bi  Bi13  1  0.962860  0.605919  0.378293  1
  N  N14  1  0.563256  0.555374  0.674489  1
  N  N15  1  0.414542  0.408618  0.329634  1
  N  N16  1  0.173404  0.680099  0.625887  1
  N  N17  1  0.820849  0.264206  0.433385  1
  N  N18  1  0.418588  0.191106  0.495307  1
  N  N19  1  0.532024  0.790875  0.508185  1
  N  N20  1  0.960743  0.118557  0.706996  1
  N  N21  1  0.054729  0.903893  0.266521  1
  N  N22  1  0.240707  0.063525  0.968851  1
  N  N23  1  0.772163  0.959186  0.016530  1
  N  N24  1  0.355139  0.338174  0.908710  1
  N  N25  1  0.975075  0.340722  0.043753  1
  N  N26  1  0.019549  0.655734  0.931285  1
  N  N27  1  0.646846  0.705714  0.095189  1
