# generated using pymatgen
data_Dy7Ho4In9Co4
_symmetry_space_group_name_H-M   'P 1'
_cell_length_a   3.61160000
_cell_length_b   12.91902323
_cell_length_c   12.91902200
_cell_angle_alpha   112.20910192
_cell_angle_beta   90.00000000
_cell_angle_gamma   90.00000000
_symmetry_Int_Tables_number   1
_chemical_formula_structural   Dy7Ho4In9Co4
_chemical_formula_sum   'Dy7 Ho4 In9 Co4'
_cell_volume   558.06024661
_cell_formula_units_Z   1
loop_
 _symmetry_equiv_pos_site_id
 _symmetry_equiv_pos_as_xyz
  1  'x, y, z'
loop_
 _atom_site_type_symbol
 _atom_site_label
 _atom_site_symmetry_multiplicity
 _atom_site_fract_x
 _atom_site_fract_y
 _atom_site_fract_z
 _atom_site_occupancy
  Dy  Dy0  1  0.000000  0.159950  0.840050  1
  Dy  Dy1  1  0.000000  0.840050  0.159950  1
  Dy  Dy2  1  0.000000  0.374869  0.625131  1
  Dy  Dy3  1  0.000000  0.625131  0.374869  1
  Dy  Dy4  1  0.000000  0.685805  0.685805  1
  Dy  Dy5  1  0.000000  0.314195  0.314195  1
  Dy  Dy6  1  0.000000  0.000000  0.000000  1
  Ho  Ho7  1  0.000000  0.918089  0.580649  1
  Ho  Ho8  1  0.000000  0.081911  0.419351  1
  Ho  Ho9  1  0.000000  0.580649  0.918089  1
  Ho  Ho10  1  0.000000  0.419351  0.081911  1
  In  In11  1  0.500000  0.157558  0.631932  1
  In  In12  1  0.500000  0.842442  0.368068  1
  In  In13  1  0.500000  0.631932  0.157558  1
  In  In14  1  0.500000  0.368068  0.842442  1
  In  In15  1  0.500000  0.921156  0.778579  1
  In  In16  1  0.500000  0.078844  0.221421  1
  In  In17  1  0.500000  0.778579  0.921156  1
  In  In18  1  0.500000  0.221421  0.078844  1
  In  In19  1  0.500000  0.500000  0.500000  1
  Co  Co20  1  0.500000  0.753181  0.549201  1
  Co  Co21  1  0.500000  0.246819  0.450799  1
  Co  Co22  1  0.500000  0.549201  0.753181  1
  Co  Co23  1  0.500000  0.450799  0.246819  1
