# generated using pymatgen
data_Nd4Ga2Ni3Cl2
_symmetry_space_group_name_H-M   'P 1'
_cell_length_a   11.12972338
_cell_length_b   11.12972336
_cell_length_c   4.15196000
_cell_angle_alpha   90.00000000
_cell_angle_beta   90.00000000
_cell_angle_gamma   93.09320138
_symmetry_Int_Tables_number   1
_chemical_formula_structural   Nd4Ga2Ni3Cl2
_chemical_formula_sum   'Nd8 Ga4 Ni6 Cl4'
_cell_volume   513.55706411
_cell_formula_units_Z   2
loop_
 _symmetry_equiv_pos_site_id
 _symmetry_equiv_pos_as_xyz
  1  'x, y, z'
loop_
 _atom_site_type_symbol
 _atom_site_label
 _atom_site_symmetry_multiplicity
 _atom_site_fract_x
 _atom_site_fract_y
 _atom_site_fract_z
 _atom_site_occupancy
  Nd  Nd0  1  0.662793  0.040334  0.500000  1
  Nd  Nd1  1  0.337207  0.959666  0.500000  1
  Nd  Nd2  1  0.040334  0.662793  0.500000  1
  Nd  Nd3  1  0.959666  0.337207  0.500000  1
  Nd  Nd4  1  0.727723  0.727723  0.000000  1
  Nd  Nd5  1  0.272277  0.272277  0.000000  1
  Nd  Nd6  1  0.374943  0.625057  0.000000  1
  Nd  Nd7  1  0.625057  0.374943  0.000000  1
  Ga  Ga8  1  0.526731  0.781623  0.500000  1
  Ga  Ga9  1  0.473269  0.218377  0.500000  1
  Ga  Ga10  1  0.218377  0.473269  0.500000  1
  Ga  Ga11  1  0.781623  0.526731  0.500000  1
  Ni  Ni12  1  0.575770  0.575770  0.500000  1
  Ni  Ni13  1  0.424230  0.424230  0.500000  1
  Ni  Ni14  1  0.519199  0.895190  0.000000  1
  Ni  Ni15  1  0.480801  0.104810  0.000000  1
  Ni  Ni16  1  0.895190  0.519199  0.000000  1
  Ni  Ni17  1  0.104810  0.480801  0.000000  1
  Cl  Cl18  1  0.129567  0.129567  0.500000  1
  Cl  Cl19  1  0.870433  0.870433  0.500000  1
  Cl  Cl20  1  0.827012  0.172988  0.000000  1
  Cl  Cl21  1  0.172988  0.827012  0.000000  1
