# generated using pymatgen
data_Zr3Ti2Rh
_symmetry_space_group_name_H-M   'P 1'
_cell_length_a   8.72846798
_cell_length_b   8.72846868
_cell_length_c   8.72846900
_cell_angle_alpha   60.00000259
_cell_angle_beta   59.99999992
_cell_angle_gamma   60.00000043
_symmetry_Int_Tables_number   1
_chemical_formula_structural   Zr3Ti2Rh
_chemical_formula_sum   'Zr12 Ti8 Rh4'
_cell_volume   470.21790982
_cell_formula_units_Z   4
loop_
 _symmetry_equiv_pos_site_id
 _symmetry_equiv_pos_as_xyz
  1  'x, y, z'
loop_
 _atom_site_type_symbol
 _atom_site_label
 _atom_site_symmetry_multiplicity
 _atom_site_fract_x
 _atom_site_fract_y
 _atom_site_fract_z
 _atom_site_occupancy
  Zr  Zr0  1  0.308813  0.691187  0.308813  1
  Zr  Zr1  1  0.691187  0.308813  0.308813  1
  Zr  Zr2  1  0.691188  0.691188  0.308812  1
  Zr  Zr3  1  0.941187  0.558813  0.558813  1
  Zr  Zr4  1  0.558813  0.941187  0.558813  1
  Zr  Zr5  1  0.941188  0.941188  0.558812  1
  Zr  Zr6  1  0.691188  0.308812  0.691188  1
  Zr  Zr7  1  0.308813  0.308813  0.691187  1
  Zr  Zr8  1  0.308812  0.691188  0.691188  1
  Zr  Zr9  1  0.558813  0.558813  0.941187  1
  Zr  Zr10  1  0.941188  0.558812  0.941188  1
  Zr  Zr11  1  0.558812  0.941188  0.941188  1
  Ti  Ti12  1  0.917782  0.917782  0.246652  1
  Ti  Ti13  1  0.332218  0.332218  0.332218  1
  Ti  Ti14  1  0.003348  0.332218  0.332218  1
  Ti  Ti15  1  0.332218  0.003348  0.332218  1
  Ti  Ti16  1  0.917782  0.246652  0.917782  1
  Ti  Ti17  1  0.246652  0.917782  0.917782  1
  Ti  Ti18  1  0.917782  0.917782  0.917782  1
  Ti  Ti19  1  0.332218  0.332218  0.003348  1
  Rh  Rh20  1  0.125000  0.125000  0.125000  1
  Rh  Rh21  1  0.625000  0.125000  0.125000  1
  Rh  Rh22  1  0.125000  0.625000  0.125000  1
  Rh  Rh23  1  0.125000  0.125000  0.625000  1
