# generated using pymatgen
data_Sr5Cr2N7
_symmetry_space_group_name_H-M   'P 1'
_cell_length_a   6.34706689
_cell_length_b   8.97888301
_cell_length_c   9.08368434
_cell_angle_alpha   114.67228252
_cell_angle_beta   97.45237574
_cell_angle_gamma   90.01868226
_symmetry_Int_Tables_number   1
_chemical_formula_structural   Sr5Cr2N7
_chemical_formula_sum   'Sr10 Cr4 N14'
_cell_volume   465.59019582
_cell_formula_units_Z   2
loop_
 _symmetry_equiv_pos_site_id
 _symmetry_equiv_pos_as_xyz
  1  'x, y, z'
loop_
 _atom_site_type_symbol
 _atom_site_label
 _atom_site_symmetry_multiplicity
 _atom_site_fract_x
 _atom_site_fract_y
 _atom_site_fract_z
 _atom_site_occupancy
  Sr  Sr0  1  0.852382  0.587542  0.335000  1
  Sr  Sr1  1  0.270002  0.986526  0.574377  1
  Sr  Sr2  1  0.713119  0.414450  0.849358  1
  Sr  Sr3  1  0.286881  0.585550  0.150642  1
  Sr  Sr4  1  0.406805  0.787497  0.917566  1
  Sr  Sr5  1  0.593195  0.212503  0.082434  1
  Sr  Sr6  1  0.147618  0.412458  0.665000  1
  Sr  Sr7  1  0.889062  0.842833  0.768333  1
  Sr  Sr8  1  0.110938  0.157167  0.231667  1
  Sr  Sr9  1  0.729998  0.013474  0.425623  1
  Cr  Cr10  1  0.572789  0.364773  0.475581  1
  Cr  Cr11  1  0.427211  0.635227  0.524419  1
  Cr  Cr12  1  0.119861  0.215044  0.906391  1
  Cr  Cr13  1  0.880139  0.784956  0.093609  1
  N  N14  1  0.553613  0.555215  0.670051  1
  N  N15  1  0.446387  0.444785  0.329949  1
  N  N16  1  0.174654  0.690782  0.569534  1
  N  N17  1  0.825346  0.309218  0.430466  1
  N  N18  1  0.418373  0.204945  0.475453  1
  N  N19  1  0.581627  0.795055  0.524547  1
  N  N20  1  0.951391  0.143641  0.717747  1
  N  N21  1  0.048609  0.856359  0.282253  1
  N  N22  1  0.227729  0.052086  0.945543  1
  N  N23  1  0.772271  0.947914  0.054457  1
  N  N24  1  0.340976  0.326550  0.895510  1
  N  N25  1  0.978543  0.337719  0.066230  1
  N  N26  1  0.021457  0.662281  0.933770  1
  N  N27  1  0.659024  0.673450  0.104490  1
