# generated using pymatgen
data_ReTc2Ir2Ru3
_symmetry_space_group_name_H-M   'P 1'
_cell_length_a   5.51651533
_cell_length_b   5.50962956
_cell_length_c   4.35964700
_cell_angle_alpha   90.00000000
_cell_angle_beta   90.00000000
_cell_angle_gamma   120.16721904
_symmetry_Int_Tables_number   1
_chemical_formula_structural   ReTc2Ir2Ru3
_chemical_formula_sum   'Re1 Tc2 Ir2 Ru3'
_cell_volume   114.56050729
_cell_formula_units_Z   1
loop_
 _symmetry_equiv_pos_site_id
 _symmetry_equiv_pos_as_xyz
  1  'x, y, z'
loop_
 _atom_site_type_symbol
 _atom_site_label
 _atom_site_symmetry_multiplicity
 _atom_site_fract_x
 _atom_site_fract_y
 _atom_site_fract_z
 _atom_site_occupancy
  Re  Re0  1  0.163104  0.325163  0.250000  1
  Tc  Tc1  1  0.676041  0.837292  0.250000  1
  Tc  Tc2  1  0.836178  0.669957  0.750000  1
  Ir  Ir3  1  0.332430  0.666843  0.750000  1
  Ir  Ir4  1  0.665416  0.335177  0.250000  1
  Ru  Ru5  1  0.162073  0.838169  0.250000  1
  Ru  Ru6  1  0.330563  0.163661  0.750000  1
  Ru  Ru7  1  0.834196  0.163738  0.750000  1
