# generated using pymatgen
data_CsAgTe4
_symmetry_space_group_name_H-M   'P 1'
_cell_length_a   6.26143700
_cell_length_b   9.80505800
_cell_length_c   15.45874900
_cell_angle_alpha   90.00000000
_cell_angle_beta   90.00000000
_cell_angle_gamma   90.00000000
_symmetry_Int_Tables_number   1
_chemical_formula_structural   CsAgTe4
_chemical_formula_sum   'Cs4 Ag4 Te16'
_cell_volume   949.07061700
_cell_formula_units_Z   4
loop_
 _symmetry_equiv_pos_site_id
 _symmetry_equiv_pos_as_xyz
  1  'x, y, z'
loop_
 _atom_site_type_symbol
 _atom_site_label
 _atom_site_symmetry_multiplicity
 _atom_site_fract_x
 _atom_site_fract_y
 _atom_site_fract_z
 _atom_site_occupancy
  Cs  Cs0  1  0.170925  0.455000  0.172561  1
  Cs  Cs1  1  0.670925  0.045000  0.827439  1
  Cs  Cs2  1  0.829075  0.955000  0.327439  1
  Cs  Cs3  1  0.329075  0.545000  0.672561  1
  Ag  Ag4  1  0.965938  0.870561  0.063639  1
  Ag  Ag5  1  0.465938  0.629439  0.936361  1
  Ag  Ag6  1  0.034062  0.370561  0.436361  1
  Ag  Ag7  1  0.534062  0.129439  0.563639  1
  Te  Te8  1  0.858702  0.313900  0.601582  1
  Te  Te9  1  0.358702  0.186100  0.398418  1
  Te  Te10  1  0.141298  0.813900  0.898418  1
  Te  Te11  1  0.641298  0.686100  0.101582  1
  Te  Te12  1  0.151677  0.129005  0.671316  1
  Te  Te13  1  0.651677  0.370995  0.328684  1
  Te  Te14  1  0.848323  0.629005  0.828684  1
  Te  Te15  1  0.348323  0.870995  0.171316  1
  Te  Te16  1  0.824021  0.143276  0.086738  1
  Te  Te17  1  0.324021  0.356724  0.913262  1
  Te  Te18  1  0.175979  0.643276  0.413262  1
  Te  Te19  1  0.675979  0.856724  0.586738  1
  Te  Te20  1  0.378594  0.098738  0.055125  1
  Te  Te21  1  0.878594  0.401262  0.944875  1
  Te  Te22  1  0.621406  0.598738  0.444875  1
  Te  Te23  1  0.121406  0.901262  0.555125  1
