# generated using pymatgen
data_Ca2SnGe2Pd9
_symmetry_space_group_name_H-M   'P 1'
_cell_length_a   7.80143100
_cell_length_b   7.80143075
_cell_length_c   9.26651900
_cell_angle_alpha   90.00000000
_cell_angle_beta   90.00000000
_cell_angle_gamma   119.41642587
_symmetry_Int_Tables_number   1
_chemical_formula_structural   Ca2SnGe2Pd9
_chemical_formula_sum   'Ca4 Sn2 Ge4 Pd18'
_cell_volume   491.26940980
_cell_formula_units_Z   2
loop_
 _symmetry_equiv_pos_site_id
 _symmetry_equiv_pos_as_xyz
  1  'x, y, z'
loop_
 _atom_site_type_symbol
 _atom_site_label
 _atom_site_symmetry_multiplicity
 _atom_site_fract_x
 _atom_site_fract_y
 _atom_site_fract_z
 _atom_site_occupancy
  Ca  Ca0  1  0.329084  0.014621  0.750000  1
  Ca  Ca1  1  0.670916  0.985379  0.250000  1
  Ca  Ca2  1  0.014621  0.329084  0.750000  1
  Ca  Ca3  1  0.985379  0.670916  0.250000  1
  Sn  Sn4  1  0.000000  0.000000  0.500000  1
  Sn  Sn5  1  0.000000  0.000000  0.000000  1
  Ge  Ge6  1  0.674261  0.325739  0.000000  1
  Ge  Ge7  1  0.325739  0.674261  0.500000  1
  Ge  Ge8  1  0.325739  0.674261  0.000000  1
  Ge  Ge9  1  0.674261  0.325739  0.500000  1
  Pd  Pd10  1  0.334908  0.334908  0.963766  1
  Pd  Pd11  1  0.438798  0.651741  0.750000  1
  Pd  Pd12  1  0.561202  0.348259  0.250000  1
  Pd  Pd13  1  0.651741  0.438798  0.750000  1
  Pd  Pd14  1  0.994678  0.342904  0.079168  1
  Pd  Pd15  1  0.005322  0.657096  0.579168  1
  Pd  Pd16  1  0.342904  0.994678  0.420832  1
  Pd  Pd17  1  0.657096  0.005322  0.920832  1
  Pd  Pd18  1  0.005322  0.657096  0.920832  1
  Pd  Pd19  1  0.994678  0.342904  0.420832  1
  Pd  Pd20  1  0.657096  0.005322  0.579168  1
  Pd  Pd21  1  0.853056  0.853056  0.750000  1
  Pd  Pd22  1  0.334908  0.334908  0.536234  1
  Pd  Pd23  1  0.665092  0.665092  0.036234  1
  Pd  Pd24  1  0.342904  0.994678  0.079168  1
  Pd  Pd25  1  0.665092  0.665092  0.463766  1
  Pd  Pd26  1  0.146944  0.146944  0.250000  1
  Pd  Pd27  1  0.348259  0.561202  0.250000  1
