# generated using pymatgen
data_Ac3Cd3AgPtAu
_symmetry_space_group_name_H-M   'P 1'
_cell_length_a   8.27870500
_cell_length_b   8.27870389
_cell_length_c   4.14443100
_cell_angle_alpha   90.00000000
_cell_angle_beta   90.00000000
_cell_angle_gamma   119.99999138
_symmetry_Int_Tables_number   1
_chemical_formula_structural   Ac3Cd3AgPtAu
_chemical_formula_sum   'Ac3 Cd3 Ag1 Pt1 Au1'
_cell_volume   245.99163518
_cell_formula_units_Z   1
loop_
 _symmetry_equiv_pos_site_id
 _symmetry_equiv_pos_as_xyz
  1  'x, y, z'
loop_
 _atom_site_type_symbol
 _atom_site_label
 _atom_site_symmetry_multiplicity
 _atom_site_fract_x
 _atom_site_fract_y
 _atom_site_fract_z
 _atom_site_occupancy
  Ac  Ac0  1  0.407335  0.420271  0.000000  1
  Ac  Ac1  1  0.579729  0.987065  0.000000  1
  Ac  Ac2  1  0.012935  0.592665  0.000000  1
  Cd  Cd3  1  0.750912  0.747937  0.500000  1
  Cd  Cd4  1  0.252063  0.002975  0.500000  1
  Cd  Cd5  1  0.997025  0.249088  0.500000  1
  Ag  Ag6  1  0.000000  0.000000  0.000000  1
  Pt  Pt7  1  0.333333  0.666667  0.500000  1
  Au  Au8  1  0.666667  0.333333  0.500000  1
