# generated using pymatgen
data_Ba5Fe4TcO15
_symmetry_space_group_name_H-M   'P 1'
_cell_length_a   5.75183729
_cell_length_b   7.07160243
_cell_length_c   9.15237098
_cell_angle_alpha   105.15899573
_cell_angle_beta   71.66634299
_cell_angle_gamma   89.96361541
_symmetry_Int_Tables_number   1
_chemical_formula_structural   Ba5Fe4TcO15
_chemical_formula_sum   'Ba5 Fe4 Tc1 O15'
_cell_volume   339.67917004
_cell_formula_units_Z   1
loop_
 _symmetry_equiv_pos_site_id
 _symmetry_equiv_pos_as_xyz
  1  'x, y, z'
loop_
 _atom_site_type_symbol
 _atom_site_label
 _atom_site_symmetry_multiplicity
 _atom_site_fract_x
 _atom_site_fract_y
 _atom_site_fract_z
 _atom_site_occupancy
  Ba  Ba0  1  0.600007  0.600003  0.800006  1
  Ba  Ba1  1  0.204015  0.199844  0.592085  1
  Ba  Ba2  1  0.996019  0.000141  0.007882  1
  Ba  Ba3  1  0.397691  0.404707  0.204695  1
  Ba  Ba4  1  0.802344  0.795280  0.395290  1
  Fe  Fe5  1  0.996513  0.521858  0.007276  1
  Fe  Fe6  1  0.203429  0.678121  0.592693  1
  Fe  Fe7  1  0.392923  0.897863  0.213931  1
  Fe  Fe8  1  0.807034  0.302136  0.386116  1
  Tc  Tc9  1  0.599961  0.099980  0.800047  1
  O  O10  1  0.099982  0.600033  0.800018  1
  O  O11  1  0.100007  0.100025  0.299999  1
  O  O12  1  0.600002  0.100016  0.299999  1
  O  O13  1  0.694872  0.186480  0.610561  1
  O  O14  1  0.505200  0.013505  0.989377  1
  O  O15  1  0.906331  0.399604  0.187950  1
  O  O16  1  0.293715  0.800432  0.412083  1
  O  O17  1  0.505368  0.493505  0.500699  1
  O  O18  1  0.694610  0.706471  0.099320  1
  O  O19  1  0.994063  0.493551  0.500708  1
  O  O20  1  0.205929  0.706464  0.099341  1
  O  O21  1  0.881204  0.910563  0.709951  1
  O  O22  1  0.318819  0.289404  0.889996  1
  O  O23  1  0.409407  0.910546  0.709851  1
  O  O24  1  0.790554  0.289467  0.890130  1
