# generated using pymatgen
data_La2Tb3Er(IrO7)2
_symmetry_space_group_name_H-M   'P 1'
_cell_length_a   6.51172965
_cell_length_b   6.50690633
_cell_length_c   7.54006000
_cell_angle_alpha   90.00000000
_cell_angle_beta   90.00000000
_cell_angle_gamma   109.60372821
_symmetry_Int_Tables_number   1
_chemical_formula_structural   La2Tb3Er(IrO7)2
_chemical_formula_sum   'La2 Tb3 Er1 Ir2 O14'
_cell_volume   300.96295625
_cell_formula_units_Z   1
loop_
 _symmetry_equiv_pos_site_id
 _symmetry_equiv_pos_as_xyz
  1  'x, y, z'
loop_
 _atom_site_type_symbol
 _atom_site_label
 _atom_site_symmetry_multiplicity
 _atom_site_fract_x
 _atom_site_fract_y
 _atom_site_fract_z
 _atom_site_occupancy
  La  La0  1  0.002597  0.001290  0.498814  1
  La  La1  1  0.002597  0.001290  0.001186  1
  Tb  Tb2  1  0.516399  0.065462  0.250000  1
  Tb  Tb3  1  0.936585  0.483688  0.750000  1
  Tb  Tb4  1  0.484328  0.936147  0.750000  1
  Er  Er5  1  0.061983  0.513745  0.250000  1
  Ir  Ir6  1  0.500642  0.501331  0.499153  1
  Ir  Ir7  1  0.500642  0.501331  0.000847  1
  O  O8  1  0.441083  0.182503  0.533870  1
  O  O9  1  0.816776  0.554573  0.462868  1
  O  O10  1  0.441083  0.182503  0.966130  1
  O  O11  1  0.816776  0.554573  0.037132  1
  O  O12  1  0.560730  0.818922  0.465317  1
  O  O13  1  0.182500  0.446262  0.531783  1
  O  O14  1  0.560730  0.818922  0.034683  1
  O  O15  1  0.182500  0.446262  0.968217  1
  O  O16  1  0.160751  0.874017  0.250000  1
  O  O17  1  0.120065  0.840259  0.750000  1
  O  O18  1  0.841487  0.120010  0.750000  1
  O  O19  1  0.881888  0.162170  0.250000  1
  O  O20  1  0.401403  0.408187  0.250000  1
  O  O21  1  0.586455  0.586555  0.750000  1
