# generated using pymatgen
data_NaPr2NdB24
_symmetry_space_group_name_H-M   'P 1'
_cell_length_a   7.18629815
_cell_length_b   7.18629736
_cell_length_c   5.85761600
_cell_angle_alpha   90.00000000
_cell_angle_beta   90.00000000
_cell_angle_gamma   109.49963952
_symmetry_Int_Tables_number   1
_chemical_formula_structural   NaPr2NdB24
_chemical_formula_sum   'Na1 Pr2 Nd1 B24'
_cell_volume   285.15358273
_cell_formula_units_Z   1
loop_
 _symmetry_equiv_pos_site_id
 _symmetry_equiv_pos_as_xyz
  1  'x, y, z'
loop_
 _atom_site_type_symbol
 _atom_site_label
 _atom_site_symmetry_multiplicity
 _atom_site_fract_x
 _atom_site_fract_y
 _atom_site_fract_z
 _atom_site_occupancy
  Na  Na0  1  0.000007  0.999993  0.000000  1
  Pr  Pr1  1  0.749471  0.250529  0.500000  1
  Pr  Pr2  1  0.499979  0.500021  0.000000  1
  Nd  Nd3  1  0.250567  0.749433  0.500000  1
  B  B4  1  0.175506  0.324465  0.650295  1
  B  B5  1  0.925227  0.575099  0.149441  1
  B  B6  1  0.675535  0.824494  0.650295  1
  B  B7  1  0.424901  0.074773  0.149441  1
  B  B8  1  0.175506  0.324465  0.349705  1
  B  B9  1  0.925227  0.575099  0.850559  1
  B  B10  1  0.675535  0.824494  0.349705  1
  B  B11  1  0.424901  0.074773  0.850559  1
  B  B12  1  0.399621  0.399685  0.500000  1
  B  B13  1  0.148836  0.650574  0.000000  1
  B  B14  1  0.899594  0.899529  0.500000  1
  B  B15  1  0.650456  0.148723  0.000000  1
  B  B16  1  0.324393  0.175443  0.650286  1
  B  B17  1  0.074877  0.425006  0.149447  1
  B  B18  1  0.824557  0.675607  0.650286  1
  B  B19  1  0.574994  0.925123  0.149447  1
  B  B20  1  0.100471  0.100406  0.500000  1
  B  B21  1  0.851277  0.349544  0.000000  1
  B  B22  1  0.600315  0.600379  0.500000  1
  B  B23  1  0.349426  0.851164  0.000000  1
  B  B24  1  0.324393  0.175443  0.349714  1
  B  B25  1  0.074877  0.425006  0.850553  1
  B  B26  1  0.824557  0.675607  0.349714  1
  B  B27  1  0.574994  0.925123  0.850553  1
