# generated using pymatgen
data_CuPbIO6
_symmetry_space_group_name_H-M   'P 1'
_cell_length_a   5.22925300
_cell_length_b   5.22925280
_cell_length_c   5.42182400
_cell_angle_alpha   90.00000000
_cell_angle_beta   90.00000000
_cell_angle_gamma   119.99999493
_symmetry_Int_Tables_number   1
_chemical_formula_structural   CuPbIO6
_chemical_formula_sum   'Cu1 Pb1 I1 O6'
_cell_volume   128.39714337
_cell_formula_units_Z   1
loop_
 _symmetry_equiv_pos_site_id
 _symmetry_equiv_pos_as_xyz
  1  'x, y, z'
loop_
 _atom_site_type_symbol
 _atom_site_label
 _atom_site_symmetry_multiplicity
 _atom_site_fract_x
 _atom_site_fract_y
 _atom_site_fract_z
 _atom_site_occupancy
  Cu  Cu0  1  0.333333  0.666667  0.500000  1
  Pb  Pb1  1  0.000000  0.000000  0.000000  1
  I  I2  1  0.666667  0.333333  0.500000  1
  O  O3  1  0.384186  0.015316  0.700517  1
  O  O4  1  0.984684  0.368869  0.700517  1
  O  O5  1  0.631131  0.615814  0.700517  1
  O  O6  1  0.984684  0.615814  0.299483  1
  O  O7  1  0.631131  0.015316  0.299483  1
  O  O8  1  0.384186  0.368869  0.299483  1
