# generated using pymatgen
data_Li3Eu4(Ag2P3)2
_symmetry_space_group_name_H-M   'P 1'
_cell_length_a   8.23482155
_cell_length_b   8.23482193
_cell_length_c   11.60501162
_cell_angle_alpha   56.75716837
_cell_angle_beta   56.75716574
_cell_angle_gamma   30.51638414
_symmetry_Int_Tables_number   1
_chemical_formula_structural   Li3Eu4(Ag2P3)2
_chemical_formula_sum   'Li3 Eu4 Ag4 P6'
_cell_volume   328.82810526
_cell_formula_units_Z   1
loop_
 _symmetry_equiv_pos_site_id
 _symmetry_equiv_pos_as_xyz
  1  'x, y, z'
loop_
 _atom_site_type_symbol
 _atom_site_label
 _atom_site_symmetry_multiplicity
 _atom_site_fract_x
 _atom_site_fract_y
 _atom_site_fract_z
 _atom_site_occupancy
  Li  Li0  1  0.419149  0.419149  0.652465  1
  Li  Li1  1  0.580851  0.580851  0.347535  1
  Li  Li2  1  0.000000  0.000000  0.500000  1
  Eu  Eu3  1  0.263328  0.263328  0.336709  1
  Eu  Eu4  1  0.736672  0.736672  0.663291  1
  Eu  Eu5  1  0.433128  0.433128  0.913534  1
  Eu  Eu6  1  0.566872  0.566872  0.086466  1
  Ag  Ag7  1  0.058107  0.058107  0.673296  1
  Ag  Ag8  1  0.941893  0.941893  0.326704  1
  Ag  Ag9  1  0.237088  0.237088  0.903017  1
  Ag  Ag10  1  0.762912  0.762912  0.096983  1
  P  P11  1  0.077138  0.077138  0.891227  1
  P  P12  1  0.922862  0.922862  0.108773  1
  P  P13  1  0.148692  0.148692  0.193688  1
  P  P14  1  0.851308  0.851308  0.806312  1
  P  P15  1  0.380646  0.380646  0.472051  1
  P  P16  1  0.619354  0.619354  0.527949  1
