# generated using pymatgen
data_Tb5Ce4DyIr4
_symmetry_space_group_name_H-M   'P 1'
_cell_length_a   6.49616169
_cell_length_b   7.14865724
_cell_length_c   8.86125447
_cell_angle_alpha   95.78921724
_cell_angle_beta   111.50291465
_cell_angle_gamma   89.99999766
_symmetry_Int_Tables_number   1
_chemical_formula_structural   Tb5Ce4DyIr4
_chemical_formula_sum   'Tb5 Ce4 Dy1 Ir4'
_cell_volume   380.60833015
_cell_formula_units_Z   1
loop_
 _symmetry_equiv_pos_site_id
 _symmetry_equiv_pos_as_xyz
  1  'x, y, z'
loop_
 _atom_site_type_symbol
 _atom_site_label
 _atom_site_symmetry_multiplicity
 _atom_site_fract_x
 _atom_site_fract_y
 _atom_site_fract_z
 _atom_site_occupancy
  Tb  Tb0  1  0.210365  0.182546  0.564339  1
  Tb  Tb1  1  0.646026  0.317454  0.435661  1
  Tb  Tb2  1  0.789761  0.817309  0.435390  1
  Tb  Tb3  1  0.354372  0.682691  0.564610  1
  Tb  Tb4  1  0.423524  0.250000  0.000000  1
  Ce  Ce5  1  0.801052  0.087047  0.817102  1
  Ce  Ce6  1  0.983950  0.412953  0.182898  1
  Ce  Ce7  1  0.198677  0.912824  0.182798  1
  Ce  Ce8  1  0.015878  0.587176  0.817202  1
  Dy  Dy9  1  0.576057  0.750000  0.000000  1
  Ir  Ir10  1  0.602190  0.418437  0.774751  1
  Ir  Ir11  1  0.827439  0.081563  0.225249  1
  Ir  Ir12  1  0.398058  0.582276  0.225407  1
  Ir  Ir13  1  0.172650  0.917724  0.774593  1
