# generated using pymatgen
data_Tb4NiRu6W
_symmetry_space_group_name_H-M   'P 1'
_cell_length_a   5.25875500
_cell_length_b   5.39676368
_cell_length_c   8.94369100
_cell_angle_alpha   90.00000000
_cell_angle_beta   90.00000000
_cell_angle_gamma   122.41963559
_symmetry_Int_Tables_number   1
_chemical_formula_structural   Tb4NiRu6W
_chemical_formula_sum   'Tb4 Ni1 Ru6 W1'
_cell_volume   214.26428647
_cell_formula_units_Z   1
loop_
 _symmetry_equiv_pos_site_id
 _symmetry_equiv_pos_as_xyz
  1  'x, y, z'
loop_
 _atom_site_type_symbol
 _atom_site_label
 _atom_site_symmetry_multiplicity
 _atom_site_fract_x
 _atom_site_fract_y
 _atom_site_fract_z
 _atom_site_occupancy
  Tb  Tb0  1  0.329640  0.662420  0.430465  1
  Tb  Tb1  1  0.656779  0.327695  0.559524  1
  Tb  Tb2  1  0.656779  0.327695  0.940476  1
  Tb  Tb3  1  0.329640  0.662420  0.069535  1
  Ni  Ni4  1  0.834502  0.165352  0.250000  1
  Ru  Ru5  1  0.981764  0.989011  0.496850  1
  Ru  Ru6  1  0.981764  0.989011  0.003150  1
  Ru  Ru7  1  0.831394  0.668780  0.250000  1
  Ru  Ru8  1  0.346916  0.179975  0.250000  1
  Ru  Ru9  1  0.178828  0.828518  0.750000  1
  Ru  Ru10  1  0.185188  0.355925  0.750000  1
  W  W11  1  0.686808  0.843198  0.750000  1
