# generated using pymatgen
data_DyY5OsRh
_symmetry_space_group_name_H-M   'P 1'
_cell_length_a   6.43643782
_cell_length_b   7.35792964
_cell_length_c   9.18478226
_cell_angle_alpha   90.00313415
_cell_angle_beta   90.09651886
_cell_angle_gamma   90.52826514
_symmetry_Int_Tables_number   1
_chemical_formula_structural   DyY5OsRh
_chemical_formula_sum   'Dy2 Y10 Os2 Rh2'
_cell_volume   434.96168022
_cell_formula_units_Z   2
loop_
 _symmetry_equiv_pos_site_id
 _symmetry_equiv_pos_as_xyz
  1  'x, y, z'
loop_
 _atom_site_type_symbol
 _atom_site_label
 _atom_site_symmetry_multiplicity
 _atom_site_fract_x
 _atom_site_fract_y
 _atom_site_fract_z
 _atom_site_occupancy
  Dy  Dy0  1  0.175391  0.178791  0.066392  1
  Dy  Dy1  1  0.824609  0.821209  0.933608  1
  Y  Y2  1  0.632127  0.037294  0.249770  1
  Y  Y3  1  0.367873  0.962706  0.750230  1
  Y  Y4  1  0.126951  0.461630  0.750209  1
  Y  Y5  1  0.873049  0.538370  0.249791  1
  Y  Y6  1  0.667027  0.326694  0.938922  1
  Y  Y7  1  0.824601  0.821069  0.566106  1
  Y  Y8  1  0.332973  0.673306  0.061078  1
  Y  Y9  1  0.175399  0.178931  0.433894  1
  Y  Y10  1  0.332899  0.673081  0.438984  1
  Y  Y11  1  0.667101  0.326919  0.561016  1
  Os  Os12  1  0.465481  0.382920  0.249605  1
  Os  Os13  1  0.534519  0.617080  0.750395  1
  Rh  Rh14  1  0.955293  0.113785  0.750807  1
  Rh  Rh15  1  0.044707  0.886215  0.249193  1
