# generated using pymatgen
data_Pr4Ga4Ir2PdRh
_symmetry_space_group_name_H-M   'P 1'
_cell_length_a   4.48237600
_cell_length_b   7.13204789
_cell_length_c   7.88884606
_cell_angle_alpha   90.27800394
_cell_angle_beta   90.00000000
_cell_angle_gamma   90.00000000
_symmetry_Int_Tables_number   1
_chemical_formula_structural   Pr4Ga4Ir2PdRh
_chemical_formula_sum   'Pr4 Ga4 Ir2 Pd1 Rh1'
_cell_volume   252.19176660
_cell_formula_units_Z   1
loop_
 _symmetry_equiv_pos_site_id
 _symmetry_equiv_pos_as_xyz
  1  'x, y, z'
loop_
 _atom_site_type_symbol
 _atom_site_label
 _atom_site_symmetry_multiplicity
 _atom_site_fract_x
 _atom_site_fract_y
 _atom_site_fract_z
 _atom_site_occupancy
  Pr  Pr0  1  0.250000  0.023149  0.686424  1
  Pr  Pr1  1  0.250000  0.531588  0.810193  1
  Pr  Pr2  1  0.750000  0.975518  0.310116  1
  Pr  Pr3  1  0.750000  0.477543  0.194617  1
  Ga  Ga4  1  0.250000  0.154167  0.074941  1
  Ga  Ga5  1  0.250000  0.655405  0.428552  1
  Ga  Ga6  1  0.750000  0.838274  0.927494  1
  Ga  Ga7  1  0.750000  0.346700  0.568489  1
  Ir  Ir8  1  0.250000  0.278902  0.390958  1
  Ir  Ir9  1  0.750000  0.721272  0.609033  1
  Pd  Pd10  1  0.750000  0.216885  0.893720  1
  Rh  Rh11  1  0.250000  0.780597  0.105463  1
