# generated using pymatgen
data_Ce2CoAs4Rh3
_symmetry_space_group_name_H-M   'P 1'
_cell_length_a   4.24961200
_cell_length_b   4.24961200
_cell_length_c   9.78910800
_cell_angle_alpha   90.00000000
_cell_angle_beta   90.00000000
_cell_angle_gamma   90.00000000
_symmetry_Int_Tables_number   1
_chemical_formula_structural   Ce2CoAs4Rh3
_chemical_formula_sum   'Ce2 Co1 As4 Rh3'
_cell_volume   176.78348025
_cell_formula_units_Z   1
loop_
 _symmetry_equiv_pos_site_id
 _symmetry_equiv_pos_as_xyz
  1  'x, y, z'
loop_
 _atom_site_type_symbol
 _atom_site_label
 _atom_site_symmetry_multiplicity
 _atom_site_fract_x
 _atom_site_fract_y
 _atom_site_fract_z
 _atom_site_occupancy
  Ce  Ce0  1  0.500000  0.000000  0.744284  1
  Ce  Ce1  1  0.000000  0.500000  0.256716  1
  Co  Co2  1  0.000000  0.500000  0.615288  1
  As  As3  1  0.500000  0.500000  0.509947  1
  As  As4  1  0.500000  0.000000  0.137810  1
  As  As5  1  0.000000  0.000000  0.509947  1
  As  As6  1  0.000000  0.500000  0.850431  1
  Rh  Rh7  1  0.500000  0.000000  0.385150  1
  Rh  Rh8  1  0.000000  0.000000  0.995212  1
  Rh  Rh9  1  0.500000  0.500000  0.995212  1
