# generated using pymatgen
data_Tb4Y12Cd3AgIr3Pt
_symmetry_space_group_name_H-M   'P 1'
_cell_length_a   9.67970194
_cell_length_b   9.67970163
_cell_length_c   9.67970200
_cell_angle_alpha   60.08573932
_cell_angle_beta   60.08574037
_cell_angle_gamma   60.08574225
_symmetry_Int_Tables_number   1
_chemical_formula_structural   Tb4Y12Cd3AgIr3Pt
_chemical_formula_sum   'Tb4 Y12 Cd3 Ag1 Ir3 Pt1'
_cell_volume   642.56034184
_cell_formula_units_Z   1
loop_
 _symmetry_equiv_pos_site_id
 _symmetry_equiv_pos_as_xyz
  1  'x, y, z'
loop_
 _atom_site_type_symbol
 _atom_site_label
 _atom_site_symmetry_multiplicity
 _atom_site_fract_x
 _atom_site_fract_y
 _atom_site_fract_z
 _atom_site_occupancy
  Tb  Tb0  1  0.347604  0.347604  0.347604  1
  Tb  Tb1  1  0.352726  0.352726  0.947776  1
  Tb  Tb2  1  0.352726  0.947776  0.352726  1
  Tb  Tb3  1  0.947776  0.352726  0.352726  1
  Y  Y4  1  0.805826  0.190531  0.190531  1
  Y  Y5  1  0.187778  0.810476  0.810476  1
  Y  Y6  1  0.190531  0.805826  0.190531  1
  Y  Y7  1  0.810476  0.187778  0.810476  1
  Y  Y8  1  0.190531  0.190531  0.805826  1
  Y  Y9  1  0.810476  0.810476  0.187778  1
  Y  Y10  1  0.936990  0.562364  0.562364  1
  Y  Y11  1  0.564107  0.937194  0.937194  1
  Y  Y12  1  0.562364  0.936990  0.562364  1
  Y  Y13  1  0.937194  0.564107  0.937194  1
  Y  Y14  1  0.562364  0.562364  0.936990  1
  Y  Y15  1  0.937194  0.937194  0.564107  1
  Cd  Cd16  1  0.581118  0.581118  0.257877  1
  Cd  Cd17  1  0.581118  0.257877  0.581118  1
  Cd  Cd18  1  0.257877  0.581118  0.581118  1
  Ag  Ag19  1  0.583009  0.583009  0.583009  1
  Ir  Ir20  1  0.142017  0.142017  0.573495  1
  Ir  Ir21  1  0.142017  0.573495  0.142017  1
  Ir  Ir22  1  0.573495  0.142017  0.142017  1
  Pt  Pt23  1  0.142689  0.142689  0.142689  1
