# generated using pymatgen
data_Ho20Ir7Os4Pd
_symmetry_space_group_name_H-M   'P 1'
_cell_length_a   10.82709385
_cell_length_b   10.82709385
_cell_length_c   6.39908947
_cell_angle_alpha   90.03087535
_cell_angle_beta   90.03087535
_cell_angle_gamma   89.86552894
_symmetry_Int_Tables_number   1
_chemical_formula_structural   Ho20Ir7Os4Pd
_chemical_formula_sum   'Ho20 Ir7 Os4 Pd1'
_cell_volume   750.13712973
_cell_formula_units_Z   1
loop_
 _symmetry_equiv_pos_site_id
 _symmetry_equiv_pos_as_xyz
  1  'x, y, z'
loop_
 _atom_site_type_symbol
 _atom_site_label
 _atom_site_symmetry_multiplicity
 _atom_site_fract_x
 _atom_site_fract_y
 _atom_site_fract_z
 _atom_site_occupancy
  Ho  Ho0  1  0.293222  0.085883  0.377041  1
  Ho  Ho1  1  0.294256  0.913700  0.876466  1
  Ho  Ho2  1  0.703606  0.084602  0.870857  1
  Ho  Ho3  1  0.704386  0.909522  0.379075  1
  Ho  Ho4  1  0.586168  0.793489  0.877573  1
  Ho  Ho5  1  0.581568  0.206794  0.377655  1
  Ho  Ho6  1  0.413173  0.793563  0.377395  1
  Ho  Ho7  1  0.413451  0.206338  0.877509  1
  Ho  Ho8  1  0.206511  0.413832  0.622427  1
  Ho  Ho9  1  0.206437  0.586827  0.122605  1
  Ho  Ho10  1  0.793206  0.418432  0.122345  1
  Ho  Ho11  1  0.793662  0.586549  0.622491  1
  Ho  Ho12  1  0.914117  0.706778  0.122959  1
  Ho  Ho13  1  0.915398  0.296394  0.629143  1
  Ho  Ho14  1  0.086300  0.705744  0.623534  1
  Ho  Ho15  1  0.090478  0.295614  0.120925  1
  Ho  Ho16  1  0.001862  0.997711  0.501835  1
  Ho  Ho17  1  0.002289  0.998138  0.998165  1
  Ho  Ho18  1  0.499791  0.500029  0.999663  1
  Ho  Ho19  1  0.499971  0.500209  0.500337  1
  Ir  Ir20  1  0.848467  0.849363  0.750036  1
  Ir  Ir21  1  0.150637  0.151533  0.749964  1
  Ir  Ir22  1  0.151961  0.848039  0.250000  1
  Ir  Ir23  1  0.653063  0.346937  0.750000  1
  Ir  Ir24  1  0.652057  0.651873  0.250003  1
  Ir  Ir25  1  0.348127  0.347943  0.249997  1
  Ir  Ir26  1  0.348005  0.651995  0.750000  1
  Os  Os27  1  0.500813  0.000309  0.123382  1
  Os  Os28  1  0.500711  0.000211  0.622330  1
  Os  Os29  1  0.999789  0.499289  0.877670  1
  Os  Os30  1  0.999691  0.499187  0.376618  1
  Pd  Pd31  1  0.846827  0.153173  0.250000  1
