# generated using pymatgen
data_NdEu(SnRh)2
_symmetry_space_group_name_H-M   'P 1'
_cell_length_a   7.36946400
_cell_length_b   4.62728600
_cell_length_c   8.11882000
_cell_angle_alpha   90.00000000
_cell_angle_beta   90.00000000
_cell_angle_gamma   90.00000000
_symmetry_Int_Tables_number   1
_chemical_formula_structural   NdEu(SnRh)2
_chemical_formula_sum   'Nd2 Eu2 Sn4 Rh4'
_cell_volume   276.85677614
_cell_formula_units_Z   2
loop_
 _symmetry_equiv_pos_site_id
 _symmetry_equiv_pos_as_xyz
  1  'x, y, z'
loop_
 _atom_site_type_symbol
 _atom_site_label
 _atom_site_symmetry_multiplicity
 _atom_site_fract_x
 _atom_site_fract_y
 _atom_site_fract_z
 _atom_site_occupancy
  Nd  Nd0  1  0.532347  0.250000  0.180422  1
  Nd  Nd1  1  0.032346  0.250000  0.319579  1
  Eu  Eu2  1  0.970367  0.750000  0.682389  1
  Eu  Eu3  1  0.470366  0.750000  0.817612  1
  Sn  Sn4  1  0.846050  0.750000  0.070424  1
  Sn  Sn5  1  0.346049  0.750000  0.429576  1
  Sn  Sn6  1  0.655627  0.250000  0.570759  1
  Sn  Sn7  1  0.155626  0.250000  0.929242  1
  Rh  Rh8  1  0.218800  0.750000  0.114843  1
  Rh  Rh9  1  0.718800  0.750000  0.385157  1
  Rh  Rh10  1  0.276811  0.250000  0.606027  1
  Rh  Rh11  1  0.776811  0.250000  0.893973  1
