# generated using pymatgen
data_Nd2Ga2Co2C
_symmetry_space_group_name_H-M   'P 1'
_cell_length_a   5.88119246
_cell_length_b   5.88119254
_cell_length_c   7.13986275
_cell_angle_alpha   126.15539792
_cell_angle_beta   126.15540024
_cell_angle_gamma   40.53727428
_symmetry_Int_Tables_number   1
_chemical_formula_structural   Nd2Ga2Co2C
_chemical_formula_sum   'Nd2 Ga2 Co2 C1'
_cell_volume   124.78974312
_cell_formula_units_Z   1
loop_
 _symmetry_equiv_pos_site_id
 _symmetry_equiv_pos_as_xyz
  1  'x, y, z'
loop_
 _atom_site_type_symbol
 _atom_site_label
 _atom_site_symmetry_multiplicity
 _atom_site_fract_x
 _atom_site_fract_y
 _atom_site_fract_z
 _atom_site_occupancy
  Nd  Nd0  1  0.554123  0.554123  0.289251  1
  Nd  Nd1  1  0.445876  0.445876  0.710747  1
  Ga  Ga2  1  0.829279  0.829279  0.273694  1
  Ga  Ga3  1  0.170722  0.170722  0.726306  1
  Co  Co4  1  0.189278  0.189278  0.083645  1
  Co  Co5  1  0.810723  0.810723  0.916355  1
  C  C6  1  0.000000  0.000000  0.000000  1
