# generated using pymatgen
data_Zr9Sc2Ta9Si16
_symmetry_space_group_name_H-M   'P 1'
_cell_length_a   6.94542643
_cell_length_b   6.93836006
_cell_length_c   12.77334603
_cell_angle_alpha   90.08717840
_cell_angle_beta   89.80531457
_cell_angle_gamma   89.98089881
_symmetry_Int_Tables_number   1
_chemical_formula_structural   Zr9Sc2Ta9Si16
_chemical_formula_sum   'Zr9 Sc2 Ta9 Si16'
_cell_volume   615.54157509
_cell_formula_units_Z   1
loop_
 _symmetry_equiv_pos_site_id
 _symmetry_equiv_pos_as_xyz
  1  'x, y, z'
loop_
 _atom_site_type_symbol
 _atom_site_label
 _atom_site_symmetry_multiplicity
 _atom_site_fract_x
 _atom_site_fract_y
 _atom_site_fract_z
 _atom_site_occupancy
  Zr  Zr0  1  0.148761  0.998377  0.873832  1
  Zr  Zr1  1  0.002451  0.654009  0.032887  1
  Zr  Zr2  1  0.996191  0.344733  0.529478  1
  Zr  Zr3  1  0.657302  0.000060  0.968381  1
  Zr  Zr4  1  0.152266  0.498100  0.780930  1
  Zr  Zr5  1  0.846757  0.501942  0.281816  1
  Zr  Zr6  1  0.501335  0.159884  0.219901  1
  Zr  Zr7  1  0.501351  0.840436  0.717561  1
  Zr  Zr8  1  0.342563  0.001343  0.467901  1
  Sc  Sc9  1  0.499772  0.350210  0.622013  1
  Sc  Sc10  1  0.502059  0.650509  0.123830  1
  Ta  Ta11  1  0.348671  0.509188  0.375910  1
  Ta  Ta12  1  0.851832  0.997886  0.374533  1
  Ta  Ta13  1  0.006873  0.152295  0.126556  1
  Ta  Ta14  1  0.992613  0.848928  0.626403  1
  Ta  Ta15  1  0.651627  0.490503  0.876028  1
  Ta  Ta16  1  0.671362  0.675368  0.498909  1
  Ta  Ta17  1  0.827624  0.169472  0.750122  1
  Ta  Ta18  1  0.170769  0.832497  0.252379  1
  Ta  Ta19  1  0.329907  0.325344  0.000703  1
  Si  Si20  1  0.044508  0.703804  0.436940  1
  Si  Si21  1  0.954161  0.298833  0.936950  1
  Si  Si22  1  0.700999  0.046224  0.563537  1
  Si  Si23  1  0.204282  0.454063  0.186685  1
  Si  Si24  1  0.796273  0.545833  0.685310  1
  Si  Si25  1  0.455211  0.200070  0.813684  1
  Si  Si26  1  0.548466  0.800720  0.314298  1
  Si  Si27  1  0.301359  0.954668  0.066964  1
  Si  Si28  1  0.856142  0.788138  0.821547  1
  Si  Si29  1  0.137896  0.210209  0.323093  1
  Si  Si30  1  0.798815  0.864477  0.178682  1
  Si  Si31  1  0.289680  0.641600  0.572143  1
  Si  Si32  1  0.709643  0.358440  0.072495  1
  Si  Si33  1  0.636195  0.295053  0.425098  1
  Si  Si34  1  0.363512  0.698251  0.927182  1
  Si  Si35  1  0.200776  0.138536  0.675314  1
