# generated using pymatgen
data_Ta12Mn3Al8ZnC4
_symmetry_space_group_name_H-M   'P 1'
_cell_length_a   8.26416316
_cell_length_b   8.26416439
_cell_length_c   8.23260430
_cell_angle_alpha   59.87311397
_cell_angle_beta   59.87310768
_cell_angle_gamma   59.99999803
_symmetry_Int_Tables_number   1
_chemical_formula_structural   Ta12Mn3Al8ZnC4
_chemical_formula_sum   'Ta12 Mn3 Al8 Zn1 C4'
_cell_volume   396.81168618
_cell_formula_units_Z   1
loop_
 _symmetry_equiv_pos_site_id
 _symmetry_equiv_pos_as_xyz
  1  'x, y, z'
loop_
 _atom_site_type_symbol
 _atom_site_label
 _atom_site_symmetry_multiplicity
 _atom_site_fract_x
 _atom_site_fract_y
 _atom_site_fract_z
 _atom_site_occupancy
  Ta  Ta0  1  0.566596  0.939280  0.554844  1
  Ta  Ta1  1  0.310720  0.683404  0.695156  1
  Ta  Ta2  1  0.692719  0.306792  0.307770  1
  Ta  Ta3  1  0.306792  0.692719  0.307770  1
  Ta  Ta4  1  0.692719  0.692719  0.307770  1
  Ta  Ta5  1  0.310720  0.310720  0.695156  1
  Ta  Ta6  1  0.557281  0.557281  0.942230  1
  Ta  Ta7  1  0.939280  0.566596  0.554844  1
  Ta  Ta8  1  0.557281  0.943208  0.942230  1
  Ta  Ta9  1  0.939280  0.939280  0.554844  1
  Ta  Ta10  1  0.683404  0.310720  0.695156  1
  Ta  Ta11  1  0.943208  0.557281  0.942230  1
  Mn  Mn12  1  0.125000  0.125000  0.125000  1
  Mn  Mn13  1  0.625000  0.125000  0.125000  1
  Mn  Mn14  1  0.125000  0.625000  0.125000  1
  Al  Al15  1  0.912562  0.912562  0.924636  1
  Al  Al16  1  0.999758  0.337438  0.325364  1
  Al  Al17  1  0.337438  0.999758  0.325364  1
  Al  Al18  1  0.331004  0.331004  0.006986  1
  Al  Al19  1  0.912562  0.250242  0.924636  1
  Al  Al20  1  0.918996  0.918996  0.243014  1
  Al  Al21  1  0.250242  0.912562  0.924636  1
  Al  Al22  1  0.337438  0.337438  0.325364  1
  Zn  Zn23  1  0.125000  0.125000  0.625000  1
  C  C24  1  0.625000  0.625000  0.625000  1
  C  C25  1  0.125000  0.625000  0.625000  1
  C  C26  1  0.625000  0.125000  0.625000  1
  C  C27  1  0.625000  0.625000  0.125000  1
