# generated using pymatgen
data_Cd2CoIrO7
_symmetry_space_group_name_H-M   'P 1'
_cell_length_a   7.12223785
_cell_length_b   7.02265549
_cell_length_c   7.12223726
_cell_angle_alpha   60.46144770
_cell_angle_beta   60.77664292
_cell_angle_gamma   60.46145130
_symmetry_Int_Tables_number   1
_chemical_formula_structural   Cd2CoIrO7
_chemical_formula_sum   'Cd4 Co2 Ir2 O14'
_cell_volume   255.11341639
_cell_formula_units_Z   2
loop_
 _symmetry_equiv_pos_site_id
 _symmetry_equiv_pos_as_xyz
  1  'x, y, z'
loop_
 _atom_site_type_symbol
 _atom_site_label
 _atom_site_symmetry_multiplicity
 _atom_site_fract_x
 _atom_site_fract_y
 _atom_site_fract_z
 _atom_site_occupancy
  Cd  Cd0  1  0.125000  0.625000  0.125000  1
  Cd  Cd1  1  0.125000  0.125000  0.625000  1
  Cd  Cd2  1  0.625000  0.125000  0.125000  1
  Cd  Cd3  1  0.125000  0.125000  0.125000  1
  Co  Co4  1  0.625000  0.125000  0.625000  1
  Co  Co5  1  0.625000  0.625000  0.625000  1
  Ir  Ir6  1  0.625000  0.625000  0.125000  1
  Ir  Ir7  1  0.125000  0.625000  0.625000  1
  O  O8  1  0.700327  0.693216  0.305629  1
  O  O9  1  0.944371  0.556784  0.549673  1
  O  O10  1  0.549673  0.949172  0.944371  1
  O  O11  1  0.944371  0.949172  0.549673  1
  O  O12  1  0.951896  0.548104  0.951896  1
  O  O13  1  0.554823  0.945177  0.554823  1
  O  O14  1  0.298104  0.701896  0.298104  1
  O  O15  1  0.305629  0.693216  0.700327  1
  O  O16  1  0.700327  0.300828  0.305629  1
  O  O17  1  0.695177  0.304823  0.695177  1
  O  O18  1  0.549673  0.556784  0.944371  1
  O  O19  1  0.305629  0.300828  0.700327  1
  O  O20  1  0.252317  0.247683  0.252317  1
  O  O21  1  0.997683  0.002317  0.997683  1
