# generated using pymatgen
data_TmZrNb3Si4
_symmetry_space_group_name_H-M   'P 1'
_cell_length_a   6.95988582
_cell_length_b   6.96440724
_cell_length_c   12.87676336
_cell_angle_alpha   90.04875991
_cell_angle_beta   90.00957116
_cell_angle_gamma   90.00277721
_symmetry_Int_Tables_number   1
_chemical_formula_structural   TmZrNb3Si4
_chemical_formula_sum   'Tm4 Zr4 Nb12 Si16'
_cell_volume   624.15553118
_cell_formula_units_Z   4
loop_
 _symmetry_equiv_pos_site_id
 _symmetry_equiv_pos_as_xyz
  1  'x, y, z'
loop_
 _atom_site_type_symbol
 _atom_site_label
 _atom_site_symmetry_multiplicity
 _atom_site_fract_x
 _atom_site_fract_y
 _atom_site_fract_z
 _atom_site_occupancy
  Tm  Tm0  1  0.996878  0.339656  0.219314  1
  Tm  Tm1  1  0.003096  0.661116  0.718258  1
  Tm  Tm2  1  0.160871  0.497096  0.468361  1
  Tm  Tm3  1  0.502890  0.838856  0.030475  1
  Zr  Zr4  1  0.844970  0.496500  0.966185  1
  Zr  Zr5  1  0.503268  0.155336  0.532233  1
  Zr  Zr6  1  0.343948  0.003830  0.783058  1
  Zr  Zr7  1  0.654733  0.996544  0.282847  1
  Nb  Nb8  1  0.168643  0.171064  0.999918  1
  Nb  Nb9  1  0.827524  0.832529  0.499773  1
  Nb  Nb10  1  0.331334  0.671194  0.249873  1
  Nb  Nb11  1  0.668459  0.328614  0.749864  1
  Nb  Nb12  1  0.153386  0.996862  0.376419  1
  Nb  Nb13  1  0.846212  0.005824  0.875554  1
  Nb  Nb14  1  0.503968  0.653787  0.626505  1
  Nb  Nb15  1  0.346695  0.493788  0.873887  1
  Nb  Nb16  1  0.496188  0.348740  0.125639  1
  Nb  Nb17  1  0.651255  0.506232  0.374803  1
  Nb  Nb18  1  0.992964  0.152020  0.624702  1
  Nb  Nb19  1  0.004560  0.849178  0.124132  1
  Si  Si20  1  0.298523  0.044665  0.186546  1
  Si  Si21  1  0.700816  0.955279  0.686893  1
  Si  Si22  1  0.455072  0.798641  0.436589  1
  Si  Si23  1  0.201339  0.544597  0.062933  1
  Si  Si24  1  0.544412  0.204393  0.936504  1
  Si  Si25  1  0.794842  0.455216  0.563175  1
  Si  Si26  1  0.045004  0.295189  0.812925  1
  Si  Si27  1  0.955202  0.705595  0.313481  1
  Si  Si28  1  0.368916  0.290765  0.320338  1
  Si  Si29  1  0.633667  0.705717  0.820848  1
  Si  Si30  1  0.209163  0.869183  0.570494  1
  Si  Si31  1  0.133406  0.793960  0.928753  1
  Si  Si32  1  0.793223  0.136069  0.069314  1
  Si  Si33  1  0.861432  0.204045  0.429400  1
  Si  Si34  1  0.296100  0.361845  0.679592  1
  Si  Si35  1  0.707044  0.636071  0.180414  1
