# generated using pymatgen
data_Tb3YbCoOs7
_symmetry_space_group_name_H-M   'P 1'
_cell_length_a   5.32105245
_cell_length_b   5.32105384
_cell_length_c   8.72554223
_cell_angle_alpha   89.86228602
_cell_angle_beta   90.13771012
_cell_angle_gamma   120.48270380
_symmetry_Int_Tables_number   1
_chemical_formula_structural   Tb3YbCoOs7
_chemical_formula_sum   'Tb3 Yb1 Co1 Os7'
_cell_volume   212.90386267
_cell_formula_units_Z   1
loop_
 _symmetry_equiv_pos_site_id
 _symmetry_equiv_pos_as_xyz
  1  'x, y, z'
loop_
 _atom_site_type_symbol
 _atom_site_label
 _atom_site_symmetry_multiplicity
 _atom_site_fract_x
 _atom_site_fract_y
 _atom_site_fract_z
 _atom_site_occupancy
  Tb  Tb0  1  0.334367  0.665633  0.426924  1
  Tb  Tb1  1  0.668857  0.331143  0.563310  1
  Tb  Tb2  1  0.670079  0.329921  0.941447  1
  Yb  Yb3  1  0.334767  0.665233  0.065389  1
  Co  Co4  1  0.823607  0.176393  0.251401  1
  Os  Os5  1  0.003669  0.996331  0.496491  1
  Os  Os6  1  0.005072  0.994928  0.004914  1
  Os  Os7  1  0.824267  0.660051  0.249764  1
  Os  Os8  1  0.339949  0.175733  0.249764  1
  Os  Os9  1  0.169038  0.830962  0.750925  1
  Os  Os10  1  0.173535  0.347206  0.749837  1
  Os  Os11  1  0.652794  0.826465  0.749837  1
