# generated using pymatgen
data_LaNd5IrBr10
_symmetry_space_group_name_H-M   'P 1'
_cell_length_a   7.69526028
_cell_length_b   9.50981241
_cell_length_c   9.70127898
_cell_angle_alpha   108.81818882
_cell_angle_beta   96.89958743
_cell_angle_gamma   106.26608558
_symmetry_Int_Tables_number   1
_chemical_formula_structural   LaNd5IrBr10
_chemical_formula_sum   'La1 Nd5 Ir1 Br10'
_cell_volume   627.55106184
_cell_formula_units_Z   1
loop_
 _symmetry_equiv_pos_site_id
 _symmetry_equiv_pos_as_xyz
  1  'x, y, z'
loop_
 _atom_site_type_symbol
 _atom_site_label
 _atom_site_symmetry_multiplicity
 _atom_site_fract_x
 _atom_site_fract_y
 _atom_site_fract_z
 _atom_site_occupancy
  La  La0  1  0.970965  0.297589  0.093458  1
  Nd  Nd1  1  0.131062  0.050903  0.752429  1
  Nd  Nd2  1  0.631348  0.855038  0.812439  1
  Nd  Nd3  1  0.867823  0.949116  0.247190  1
  Nd  Nd4  1  0.029535  0.706217  0.907335  1
  Nd  Nd5  1  0.368495  0.142721  0.187176  1
  Ir  Ir6  1  0.999502  0.002983  0.000853  1
  Br  Br7  1  0.202776  0.743058  0.652840  1
  Br  Br8  1  0.646069  0.539002  0.727229  1
  Br  Br9  1  0.247060  0.081206  0.451021  1
  Br  Br10  1  0.793688  0.253993  0.350702  1
  Br  Br11  1  0.546437  0.171709  0.918802  1
  Br  Br12  1  0.752001  0.917754  0.548725  1
  Br  Br13  1  0.909092  0.630628  0.167145  1
  Br  Br14  1  0.362345  0.461495  0.275651  1
  Br  Br15  1  0.092669  0.371643  0.828347  1
  Br  Br16  1  0.449132  0.824949  0.078655  1
