# generated using pymatgen
data_Ti8Al14GePt5Rh2
_symmetry_space_group_name_H-M   'P 1'
_cell_length_a   8.69059753
_cell_length_b   8.69059876
_cell_length_c   8.69059772
_cell_angle_alpha   120.00798374
_cell_angle_beta   119.84356963
_cell_angle_gamma   90.12866152
_symmetry_Int_Tables_number   1
_chemical_formula_structural   Ti8Al14GePt5Rh2
_chemical_formula_sum   'Ti8 Al14 Ge1 Pt5 Rh2'
_cell_volume   464.64220564
_cell_formula_units_Z   1
loop_
 _symmetry_equiv_pos_site_id
 _symmetry_equiv_pos_as_xyz
  1  'x, y, z'
loop_
 _atom_site_type_symbol
 _atom_site_label
 _atom_site_symmetry_multiplicity
 _atom_site_fract_x
 _atom_site_fract_y
 _atom_site_fract_z
 _atom_site_occupancy
  Ti  Ti0  1  0.790162  0.294649  0.085302  1
  Ti  Ti1  1  0.209347  0.294649  0.504487  1
  Ti  Ti2  1  0.209577  0.709577  0.500000  1
  Ti  Ti3  1  0.209347  0.704860  0.914698  1
  Ti  Ti4  1  0.790162  0.704860  0.495513  1
  Ti  Ti5  1  0.791619  0.291619  0.500000  1
  Ti  Ti6  1  0.380523  0.119246  0.738723  1
  Ti  Ti7  1  0.380523  0.641800  0.261277  1
  Al  Al8  1  0.157501  0.339358  0.181857  1
  Al  Al9  1  0.157501  0.975644  0.818143  1
  Al  Al10  1  0.160773  0.339557  0.821216  1
  Al  Al11  1  0.518339  0.339557  0.178784  1
  Al  Al12  1  0.843796  0.662865  0.819070  1
  Al  Al13  1  0.843796  0.024726  0.180930  1
  Al  Al14  1  0.841953  0.659692  0.182261  1
  Al  Al15  1  0.477430  0.659692  0.817739  1
  Al  Al16  1  0.375305  0.116478  0.258826  1
  Al  Al17  1  0.857653  0.116478  0.741174  1
  Al  Al18  1  0.620235  0.880544  0.260310  1
  Al  Al19  1  0.620235  0.359924  0.739690  1
  Al  Al20  1  0.624865  0.881930  0.742936  1
  Al  Al21  1  0.138992  0.881930  0.257064  1
  Ge  Ge22  1  0.000581  0.500581  0.500000  1
  Pt  Pt23  1  0.997335  0.000003  0.498883  1
  Pt  Pt24  1  0.501119  0.000003  0.002668  1
  Pt  Pt25  1  0.501902  0.501902  0.000000  1
  Pt  Pt26  1  0.501119  0.498452  0.501117  1
  Pt  Pt27  1  0.997335  0.498452  0.997332  1
  Rh  Rh28  1  0.001419  0.001419  0.000000  1
  Rh  Rh29  1  0.499553  0.999553  0.500000  1
