# generated using pymatgen
data_Nd4Ho12Cd4OsPt3
_symmetry_space_group_name_H-M   'P 1'
_cell_length_a   9.74601172
_cell_length_b   9.74402194
_cell_length_c   9.74402266
_cell_angle_alpha   59.83710925
_cell_angle_beta   59.62073211
_cell_angle_gamma   59.62073028
_symmetry_Int_Tables_number   1
_chemical_formula_structural   Nd4Ho12Cd4OsPt3
_chemical_formula_sum   'Nd4 Ho12 Cd4 Os1 Pt3'
_cell_volume   649.74596804
_cell_formula_units_Z   1
loop_
 _symmetry_equiv_pos_site_id
 _symmetry_equiv_pos_as_xyz
  1  'x, y, z'
loop_
 _atom_site_type_symbol
 _atom_site_label
 _atom_site_symmetry_multiplicity
 _atom_site_fract_x
 _atom_site_fract_y
 _atom_site_fract_z
 _atom_site_occupancy
  Nd  Nd0  1  0.565022  0.935566  0.565589  1
  Nd  Nd1  1  0.938196  0.558903  0.936359  1
  Nd  Nd2  1  0.565022  0.565589  0.935566  1
  Nd  Nd3  1  0.938196  0.936359  0.558903  1
  Ho  Ho4  1  0.351869  0.351332  0.351332  1
  Ho  Ho5  1  0.347659  0.349133  0.953175  1
  Ho  Ho6  1  0.347659  0.953175  0.349133  1
  Ho  Ho7  1  0.951421  0.348284  0.348284  1
  Ho  Ho8  1  0.817093  0.186599  0.186599  1
  Ho  Ho9  1  0.187200  0.810994  0.810994  1
  Ho  Ho10  1  0.188108  0.815811  0.187873  1
  Ho  Ho11  1  0.810692  0.184979  0.810551  1
  Ho  Ho12  1  0.188108  0.187873  0.815811  1
  Ho  Ho13  1  0.810692  0.810551  0.184979  1
  Ho  Ho14  1  0.940859  0.558337  0.558337  1
  Ho  Ho15  1  0.551423  0.943979  0.943979  1
  Cd  Cd16  1  0.582514  0.577944  0.577944  1
  Cd  Cd17  1  0.578136  0.583409  0.258045  1
  Cd  Cd18  1  0.578136  0.258045  0.583409  1
  Cd  Cd19  1  0.258207  0.578890  0.578890  1
  Os  Os20  1  0.145415  0.141466  0.141466  1
  Pt  Pt21  1  0.142384  0.146130  0.573852  1
  Pt  Pt22  1  0.142384  0.573852  0.146130  1
  Pt  Pt23  1  0.573604  0.142803  0.142803  1
