# generated using pymatgen
data_TbHo5Zr4(Sn3O)2
_symmetry_space_group_name_H-M   'P 1'
_cell_length_a   8.75064929
_cell_length_b   8.75887229
_cell_length_c   6.02521500
_cell_angle_alpha   90.00000000
_cell_angle_beta   90.00000000
_cell_angle_gamma   120.03108691
_symmetry_Int_Tables_number   1
_chemical_formula_structural   TbHo5Zr4(Sn3O)2
_chemical_formula_sum   'Tb1 Ho5 Zr4 Sn6 O2'
_cell_volume   399.81172292
_cell_formula_units_Z   1
loop_
 _symmetry_equiv_pos_site_id
 _symmetry_equiv_pos_as_xyz
  1  'x, y, z'
loop_
 _atom_site_type_symbol
 _atom_site_label
 _atom_site_symmetry_multiplicity
 _atom_site_fract_x
 _atom_site_fract_y
 _atom_site_fract_z
 _atom_site_occupancy
  Tb  Tb0  1  0.000000  0.772169  0.750000  1
  Ho  Ho1  1  0.000000  0.226530  0.250000  1
  Ho  Ho2  1  0.226662  0.226692  0.750000  1
  Ho  Ho3  1  0.226757  0.000165  0.250000  1
  Ho  Ho4  1  0.773243  0.773407  0.250000  1
  Ho  Ho5  1  0.773338  0.000030  0.750000  1
  Zr  Zr6  1  0.333330  0.666603  0.999894  1
  Zr  Zr7  1  0.333330  0.666603  0.500106  1
  Zr  Zr8  1  0.666670  0.333272  0.999894  1
  Zr  Zr9  1  0.666670  0.333272  0.500106  1
  Sn  Sn10  1  0.000000  0.594677  0.250000  1
  Sn  Sn11  1  0.000000  0.404584  0.750000  1
  Sn  Sn12  1  0.405200  0.405169  0.250000  1
  Sn  Sn13  1  0.594129  0.594476  0.750000  1
  Sn  Sn14  1  0.405871  0.000347  0.750000  1
  Sn  Sn15  1  0.594800  0.999970  0.250000  1
  O  O16  1  0.000000  0.001016  0.001185  1
  O  O17  1  0.000000  0.001016  0.498815  1
