# generated using pymatgen
data_Tb9Ho3In20
_symmetry_space_group_name_H-M   'P 1'
_cell_length_a   6.56262477
_cell_length_b   10.41896100
_cell_length_c   12.25896780
_cell_angle_alpha   90.00000000
_cell_angle_beta   89.99303594
_cell_angle_gamma   90.00000000
_symmetry_Int_Tables_number   1
_chemical_formula_structural   Tb9Ho3In20
_chemical_formula_sum   'Tb9 Ho3 In20'
_cell_volume   838.21588495
_cell_formula_units_Z   1
loop_
 _symmetry_equiv_pos_site_id
 _symmetry_equiv_pos_as_xyz
  1  'x, y, z'
loop_
 _atom_site_type_symbol
 _atom_site_label
 _atom_site_symmetry_multiplicity
 _atom_site_fract_x
 _atom_site_fract_y
 _atom_site_fract_z
 _atom_site_occupancy
  Tb  Tb0  1  0.349989  0.750000  0.056123  1
  Tb  Tb1  1  0.887951  0.490413  0.142137  1
  Tb  Tb2  1  0.612546  0.010698  0.642011  1
  Tb  Tb3  1  0.110902  0.990425  0.857478  1
  Tb  Tb4  1  0.388967  0.509898  0.357635  1
  Tb  Tb5  1  0.110902  0.509575  0.857478  1
  Tb  Tb6  1  0.388967  0.990102  0.357635  1
  Tb  Tb7  1  0.887951  0.009587  0.142137  1
  Tb  Tb8  1  0.612546  0.489302  0.642011  1
  Ho  Ho9  1  0.149775  0.750000  0.555233  1
  Ho  Ho10  1  0.648665  0.250000  0.944307  1
  Ho  Ho11  1  0.851112  0.250000  0.444708  1
  In  In12  1  0.615443  0.750000  0.507550  1
  In  In13  1  0.882631  0.750000  0.005824  1
  In  In14  1  0.386348  0.250000  0.493468  1
  In  In15  1  0.112957  0.250000  0.993857  1
  In  In16  1  0.653980  0.750000  0.244068  1
  In  In17  1  0.847735  0.750000  0.743059  1
  In  In18  1  0.347573  0.250000  0.756179  1
  In  In19  1  0.152231  0.250000  0.256502  1
  In  In20  1  0.118017  0.750000  0.283273  1
  In  In21  1  0.381763  0.750000  0.781382  1
  In  In22  1  0.882793  0.250000  0.718145  1
  In  In23  1  0.618586  0.250000  0.218293  1
  In  In24  1  0.872338  0.543753  0.401791  1
  In  In25  1  0.627151  0.956403  0.901078  1
  In  In26  1  0.128772  0.043727  0.598596  1
  In  In27  1  0.371573  0.455164  0.098287  1
  In  In28  1  0.128772  0.456273  0.598596  1
  In  In29  1  0.371573  0.044836  0.098287  1
  In  In30  1  0.872338  0.956247  0.401791  1
  In  In31  1  0.627151  0.543597  0.901078  1
