# generated using pymatgen
data_Hf9Ti(Ga6Mo)2
_symmetry_space_group_name_H-M   'P 1'
_cell_length_a   5.48070122
_cell_length_b   8.50453623
_cell_length_c   9.11710700
_cell_angle_alpha   90.00000000
_cell_angle_beta   90.00000000
_cell_angle_gamma   89.97502051
_symmetry_Int_Tables_number   1
_chemical_formula_structural   Hf9Ti(Ga6Mo)2
_chemical_formula_sum   'Hf9 Ti1 Ga12 Mo2'
_cell_volume   424.95581199
_cell_formula_units_Z   1
loop_
 _symmetry_equiv_pos_site_id
 _symmetry_equiv_pos_as_xyz
  1  'x, y, z'
loop_
 _atom_site_type_symbol
 _atom_site_label
 _atom_site_symmetry_multiplicity
 _atom_site_fract_x
 _atom_site_fract_y
 _atom_site_fract_z
 _atom_site_occupancy
  Hf  Hf0  1  0.500000  0.750000  0.110861  1
  Hf  Hf1  1  0.754448  0.469300  0.622218  1
  Hf  Hf2  1  0.250887  0.528922  0.379686  1
  Hf  Hf3  1  0.749113  0.971078  0.379686  1
  Hf  Hf4  1  0.245552  0.030700  0.622218  1
  Hf  Hf5  1  0.751410  0.365659  0.181989  1
  Hf  Hf6  1  0.247093  0.633485  0.814961  1
  Hf  Hf7  1  0.752907  0.866515  0.814961  1
  Hf  Hf8  1  0.248590  0.134341  0.181989  1
  Ti  Ti9  1  0.500000  0.250000  0.891953  1
  Ga  Ga10  1  0.000000  0.750000  0.571721  1
  Ga  Ga11  1  0.500000  0.250000  0.431131  1
  Ga  Ga12  1  0.000000  0.250000  0.427857  1
  Ga  Ga13  1  0.500000  0.750000  0.567541  1
  Ga  Ga14  1  0.756748  0.047651  0.076937  1
  Ga  Ga15  1  0.243510  0.957578  0.919491  1
  Ga  Ga16  1  0.756490  0.542422  0.919491  1
  Ga  Ga17  1  0.243252  0.452349  0.076937  1
  Ga  Ga18  1  0.746745  0.135447  0.657187  1
  Ga  Ga19  1  0.241637  0.868568  0.347453  1
  Ga  Ga20  1  0.758363  0.631432  0.347453  1
  Ga  Ga21  1  0.253255  0.364553  0.657187  1
  Mo  Mo22  1  0.000000  0.750000  0.111055  1
  Mo  Mo23  1  0.000000  0.250000  0.888035  1
