# generated using pymatgen
data_Yb3Dy5(TmRu2)2
_symmetry_space_group_name_H-M   'P 1'
_cell_length_a   6.38801275
_cell_length_b   7.22421235
_cell_length_c   8.50270999
_cell_angle_alpha   96.61882456
_cell_angle_beta   112.46066020
_cell_angle_gamma   90.35783112
_symmetry_Int_Tables_number   1
_chemical_formula_structural   Yb3Dy5(TmRu2)2
_chemical_formula_sum   'Yb3 Dy5 Tm2 Ru4'
_cell_volume   359.66289623
_cell_formula_units_Z   1
loop_
 _symmetry_equiv_pos_site_id
 _symmetry_equiv_pos_as_xyz
  1  'x, y, z'
loop_
 _atom_site_type_symbol
 _atom_site_label
 _atom_site_symmetry_multiplicity
 _atom_site_fract_x
 _atom_site_fract_y
 _atom_site_fract_z
 _atom_site_occupancy
  Yb  Yb0  1  0.797658  0.082647  0.818985  1
  Yb  Yb1  1  0.977983  0.418570  0.184128  1
  Yb  Yb2  1  0.207142  0.919615  0.184220  1
  Dy  Dy3  1  0.022808  0.583468  0.817750  1
  Dy  Dy4  1  0.199873  0.185311  0.566211  1
  Dy  Dy5  1  0.638031  0.318027  0.432554  1
  Dy  Dy6  1  0.795444  0.815635  0.433469  1
  Dy  Dy7  1  0.362525  0.683916  0.567963  1
  Tm  Tm8  1  0.430380  0.250648  0.000939  1
  Tm  Tm9  1  0.574632  0.749585  0.000938  1
  Ru  Ru10  1  0.593406  0.428678  0.772539  1
  Ru  Ru11  1  0.813943  0.071826  0.228775  1
  Ru  Ru12  1  0.404214  0.570213  0.216785  1
  Ru  Ru13  1  0.181961  0.921862  0.774745  1
