# generated using pymatgen
data_MnVRh3S8
_symmetry_space_group_name_H-M   'P 1'
_cell_length_a   6.77195821
_cell_length_b   6.77195937
_cell_length_c   6.77195757
_cell_angle_alpha   63.60472791
_cell_angle_beta   63.60473671
_cell_angle_gamma   63.60472817
_symmetry_Int_Tables_number   1
_chemical_formula_structural   MnVRh3S8
_chemical_formula_sum   'Mn1 V1 Rh3 S8'
_cell_volume   237.08773895
_cell_formula_units_Z   1
loop_
 _symmetry_equiv_pos_site_id
 _symmetry_equiv_pos_as_xyz
  1  'x, y, z'
loop_
 _atom_site_type_symbol
 _atom_site_label
 _atom_site_symmetry_multiplicity
 _atom_site_fract_x
 _atom_site_fract_y
 _atom_site_fract_z
 _atom_site_occupancy
  Mn  Mn0  1  0.986148  0.986148  0.986148  1
  V  V1  1  0.406380  0.406380  0.406380  1
  Rh  Rh2  1  0.861517  0.374401  0.374401  1
  Rh  Rh3  1  0.374401  0.861517  0.374401  1
  Rh  Rh4  1  0.374401  0.374401  0.861517  1
  S  S5  1  0.129608  0.129608  0.129608  1
  S  S6  1  0.580130  0.145132  0.145132  1
  S  S7  1  0.145132  0.580130  0.145132  1
  S  S8  1  0.145132  0.145132  0.580130  1
  S  S9  1  0.614929  0.614929  0.614929  1
  S  S10  1  0.129157  0.626533  0.626533  1
  S  S11  1  0.626533  0.129157  0.626533  1
  S  S12  1  0.626533  0.626533  0.129157  1
