# generated using pymatgen
data_U8Ta9Nb2Si16Ru
_symmetry_space_group_name_H-M   'P 1'
_cell_length_a   7.00370549
_cell_length_b   7.01400283
_cell_length_c   12.95220253
_cell_angle_alpha   89.93022589
_cell_angle_beta   90.07284580
_cell_angle_gamma   90.01838804
_symmetry_Int_Tables_number   1
_chemical_formula_structural   U8Ta9Nb2Si16Ru
_chemical_formula_sum   'U8 Ta9 Nb2 Si16 Ru1'
_cell_volume   636.26310963
_cell_formula_units_Z   1
loop_
 _symmetry_equiv_pos_site_id
 _symmetry_equiv_pos_as_xyz
  1  'x, y, z'
loop_
 _atom_site_type_symbol
 _atom_site_label
 _atom_site_symmetry_multiplicity
 _atom_site_fract_x
 _atom_site_fract_y
 _atom_site_fract_z
 _atom_site_occupancy
  U  U0  1  0.996316  0.334879  0.221362  1
  U  U1  1  0.008318  0.671334  0.717230  1
  U  U2  1  0.166659  0.498115  0.468967  1
  U  U3  1  0.503542  0.831098  0.033715  1
  U  U4  1  0.829866  0.506256  0.969459  1
  U  U5  1  0.495800  0.166172  0.528913  1
  U  U6  1  0.328497  0.992859  0.779668  1
  U  U7  1  0.670342  0.004138  0.279293  1
  Ta  Ta8  1  0.167969  0.166803  0.001103  1
  Ta  Ta9  1  0.829777  0.832409  0.499888  1
  Ta  Ta10  1  0.329792  0.664927  0.249585  1
  Ta  Ta11  1  0.667847  0.331477  0.749629  1
  Ta  Ta12  1  0.843614  0.001826  0.874045  1
  Ta  Ta13  1  0.495954  0.658274  0.623526  1
  Ta  Ta14  1  0.344519  0.499346  0.876245  1
  Ta  Ta15  1  0.495741  0.338647  0.125102  1
  Ta  Ta16  1  0.658629  0.498183  0.375503  1
  Nb  Nb17  1  0.998038  0.157918  0.627297  1
  Nb  Nb18  1  0.996391  0.839665  0.122821  1
  Si  Si19  1  0.292200  0.035331  0.188618  1
  Si  Si20  1  0.701720  0.959847  0.683984  1
  Si  Si21  1  0.459678  0.796447  0.432465  1
  Si  Si22  1  0.202534  0.537619  0.065098  1
  Si  Si23  1  0.538692  0.200802  0.934663  1
  Si  Si24  1  0.794642  0.460827  0.565194  1
  Si  Si25  1  0.040305  0.299100  0.816298  1
  Si  Si26  1  0.965267  0.716486  0.316376  1
  Si  Si27  1  0.370755  0.291475  0.317049  1
  Si  Si28  1  0.629423  0.707038  0.815541  1
  Si  Si29  1  0.203290  0.872720  0.561934  1
  Si  Si30  1  0.129402  0.793351  0.933721  1
  Si  Si31  1  0.793185  0.130330  0.066801  1
  Si  Si32  1  0.880054  0.200453  0.433708  1
  Si  Si33  1  0.294143  0.369853  0.683407  1
  Si  Si34  1  0.705451  0.624653  0.184858  1
  Ru  Ru35  1  0.171648  0.009343  0.376935  1
