# generated using pymatgen
data_Y4TiNb5Si8
_symmetry_space_group_name_H-M   'P 1'
_cell_length_a   7.07736100
_cell_length_b   7.07736045
_cell_length_c   13.01728363
_cell_angle_alpha   89.99565569
_cell_angle_beta   90.00434741
_cell_angle_gamma   90.02517708
_symmetry_Int_Tables_number   1
_chemical_formula_structural   Y4TiNb5Si8
_chemical_formula_sum   'Y8 Ti2 Nb10 Si16'
_cell_volume   652.02310626
_cell_formula_units_Z   2
loop_
 _symmetry_equiv_pos_site_id
 _symmetry_equiv_pos_as_xyz
  1  'x, y, z'
loop_
 _atom_site_type_symbol
 _atom_site_label
 _atom_site_symmetry_multiplicity
 _atom_site_fract_x
 _atom_site_fract_y
 _atom_site_fract_z
 _atom_site_occupancy
  Y  Y0  1  0.998997  0.657316  0.032689  1
  Y  Y1  1  0.001412  0.341679  0.532219  1
  Y  Y2  1  0.657316  0.998997  0.967311  1
  Y  Y3  1  0.159273  0.502492  0.782507  1
  Y  Y4  1  0.841708  0.498590  0.282228  1
  Y  Y5  1  0.502492  0.159273  0.217493  1
  Y  Y6  1  0.498590  0.841708  0.717772  1
  Y  Y7  1  0.341679  0.001412  0.467781  1
  Ti  Ti8  1  0.492435  0.652825  0.123620  1
  Ti  Ti9  1  0.652825  0.492435  0.876380  1
  Nb  Nb10  1  0.346574  0.508605  0.375972  1
  Nb  Nb11  1  0.847444  0.992005  0.374388  1
  Nb  Nb12  1  0.008325  0.153121  0.126276  1
  Nb  Nb13  1  0.992005  0.847444  0.625612  1
  Nb  Nb14  1  0.508605  0.346574  0.624028  1
  Nb  Nb15  1  0.153121  0.008325  0.873724  1
  Nb  Nb16  1  0.672300  0.672300  0.500000  1
  Nb  Nb17  1  0.829044  0.170739  0.750261  1
  Nb  Nb18  1  0.170739  0.829044  0.249739  1
  Nb  Nb19  1  0.326635  0.326635  0.000000  1
  Si  Si20  1  0.046362  0.706676  0.436383  1
  Si  Si21  1  0.951958  0.293936  0.936088  1
  Si  Si22  1  0.706676  0.046362  0.563617  1
  Si  Si23  1  0.208605  0.454535  0.185696  1
  Si  Si24  1  0.792630  0.546039  0.687727  1
  Si  Si25  1  0.454535  0.208605  0.814304  1
  Si  Si26  1  0.546039  0.792630  0.312273  1
  Si  Si27  1  0.293936  0.951958  0.063912  1
  Si  Si28  1  0.793988  0.865985  0.181938  1
  Si  Si29  1  0.296101  0.632851  0.568002  1
  Si  Si30  1  0.701827  0.369093  0.066125  1
  Si  Si31  1  0.632851  0.296101  0.431998  1
  Si  Si32  1  0.369093  0.701827  0.933875  1
  Si  Si33  1  0.133132  0.204765  0.317469  1
  Si  Si34  1  0.204765  0.133132  0.682531  1
  Si  Si35  1  0.865985  0.793988  0.818062  1
