# generated using pymatgen
data_AcSe27
_symmetry_space_group_name_H-M   'P 1'
_cell_length_a   15.34326326
_cell_length_b   15.34326393
_cell_length_c   15.34326300
_cell_angle_alpha   118.38153606
_cell_angle_beta   118.38153318
_cell_angle_gamma   118.38152458
_symmetry_Int_Tables_number   1
_chemical_formula_structural   AcSe27
_chemical_formula_sum   'Ac1 Se27'
_cell_volume   1183.45415666
_cell_formula_units_Z   1
loop_
 _symmetry_equiv_pos_site_id
 _symmetry_equiv_pos_as_xyz
  1  'x, y, z'
loop_
 _atom_site_type_symbol
 _atom_site_label
 _atom_site_symmetry_multiplicity
 _atom_site_fract_x
 _atom_site_fract_y
 _atom_site_fract_z
 _atom_site_occupancy
  Ac  Ac0  1  0.388933  0.388933  0.388933  1
  Se  Se1  1  0.086321  0.631905  0.631905  1
  Se  Se2  1  0.631905  0.631905  0.086321  1
  Se  Se3  1  0.631905  0.086321  0.631905  1
  Se  Se4  1  0.309379  0.869878  0.725259  1
  Se  Se5  1  0.869878  0.725259  0.309379  1
  Se  Se6  1  0.725259  0.309379  0.869878  1
  Se  Se7  1  0.869878  0.309379  0.725259  1
  Se  Se8  1  0.309379  0.725259  0.869878  1
  Se  Se9  1  0.725259  0.869878  0.309379  1
  Se  Se10  1  0.162149  0.639294  0.430211  1
  Se  Se11  1  0.639294  0.430211  0.162149  1
  Se  Se12  1  0.430211  0.162149  0.639294  1
  Se  Se13  1  0.639294  0.162149  0.430211  1
  Se  Se14  1  0.162149  0.430211  0.639294  1
  Se  Se15  1  0.430211  0.639294  0.162149  1
  Se  Se16  1  0.408841  0.721287  0.573796  1
  Se  Se17  1  0.721287  0.573796  0.408841  1
  Se  Se18  1  0.573796  0.408841  0.721287  1
  Se  Se19  1  0.721287  0.408841  0.573796  1
  Se  Se20  1  0.408841  0.573796  0.721287  1
  Se  Se21  1  0.573796  0.721287  0.408841  1
  Se  Se22  1  0.201367  0.410539  0.410539  1
  Se  Se23  1  0.410539  0.410539  0.201367  1
  Se  Se24  1  0.410539  0.201367  0.410539  1
  Se  Se25  1  0.940262  0.832572  0.832572  1
  Se  Se26  1  0.832572  0.832572  0.940262  1
  Se  Se27  1  0.832572  0.940262  0.832572  1
