# generated using pymatgen
data_RbNd3Te4
_symmetry_space_group_name_H-M   'P 1'
_cell_length_a   4.53428000
_cell_length_b   4.53427842
_cell_length_c   16.11569000
_cell_angle_alpha   90.00000000
_cell_angle_beta   90.00000000
_cell_angle_gamma   119.99998233
_symmetry_Int_Tables_number   1
_chemical_formula_structural   RbNd3Te4
_chemical_formula_sum   'Rb1 Nd3 Te4'
_cell_volume   286.94332916
_cell_formula_units_Z   1
loop_
 _symmetry_equiv_pos_site_id
 _symmetry_equiv_pos_as_xyz
  1  'x, y, z'
loop_
 _atom_site_type_symbol
 _atom_site_label
 _atom_site_symmetry_multiplicity
 _atom_site_fract_x
 _atom_site_fract_y
 _atom_site_fract_z
 _atom_site_occupancy
  Rb  Rb0  1  0.666667  0.333333  0.750000  1
  Nd  Nd1  1  0.333333  0.666667  0.250000  1
  Nd  Nd2  1  0.000000  0.000000  0.019767  1
  Nd  Nd3  1  0.000000  0.000000  0.480233  1
  Te  Te4  1  0.333333  0.666667  0.591715  1
  Te  Te5  1  0.666667  0.333333  0.132967  1
  Te  Te6  1  0.666667  0.333333  0.367033  1
  Te  Te7  1  0.333333  0.666667  0.908285  1
