# generated using pymatgen
data_Tm3Ni8As6Rh
_symmetry_space_group_name_H-M   'P 1'
_cell_length_a   3.87164300
_cell_length_b   10.86195600
_cell_length_c   12.76468700
_cell_angle_alpha   90.00000000
_cell_angle_beta   90.00000000
_cell_angle_gamma   90.00000000
_symmetry_Int_Tables_number   1
_chemical_formula_structural   Tm3Ni8As6Rh
_chemical_formula_sum   'Tm6 Ni16 As12 Rh2'
_cell_volume   536.80124436
_cell_formula_units_Z   2
loop_
 _symmetry_equiv_pos_site_id
 _symmetry_equiv_pos_as_xyz
  1  'x, y, z'
loop_
 _atom_site_type_symbol
 _atom_site_label
 _atom_site_symmetry_multiplicity
 _atom_site_fract_x
 _atom_site_fract_y
 _atom_site_fract_z
 _atom_site_occupancy
  Tm  Tm0  1  0.000000  0.500000  0.525436  1
  Tm  Tm1  1  0.500000  0.000000  0.474564  1
  Tm  Tm2  1  0.500000  0.817876  0.208215  1
  Tm  Tm3  1  0.500000  0.182124  0.208215  1
  Tm  Tm4  1  0.000000  0.682124  0.791785  1
  Tm  Tm5  1  0.000000  0.317876  0.791785  1
  Ni  Ni6  1  0.500000  0.500000  0.698969  1
  Ni  Ni7  1  0.000000  0.000000  0.301031  1
  Ni  Ni8  1  0.000000  0.500000  0.981713  1
  Ni  Ni9  1  0.500000  0.000000  0.018287  1
  Ni  Ni10  1  0.500000  0.332359  0.994510  1
  Ni  Ni11  1  0.500000  0.667641  0.994510  1
  Ni  Ni12  1  0.000000  0.167641  0.005490  1
  Ni  Ni13  1  0.000000  0.832359  0.005490  1
  Ni  Ni14  1  0.500000  0.303213  0.427614  1
  Ni  Ni15  1  0.500000  0.696787  0.427614  1
  Ni  Ni16  1  0.000000  0.196787  0.572386  1
  Ni  Ni17  1  0.000000  0.803213  0.572386  1
  Ni  Ni18  1  0.500000  0.877171  0.707333  1
  Ni  Ni19  1  0.500000  0.122829  0.707333  1
  Ni  Ni20  1  0.000000  0.622829  0.292667  1
  Ni  Ni21  1  0.000000  0.377171  0.292667  1
  As  As22  1  0.500000  0.500000  0.875029  1
  As  As23  1  0.000000  0.000000  0.124971  1
  As  As24  1  0.500000  0.500000  0.352110  1
  As  As25  1  0.000000  0.000000  0.647890  1
  As  As26  1  0.500000  0.315269  0.613942  1
  As  As27  1  0.500000  0.684731  0.613942  1
  As  As28  1  0.000000  0.184731  0.386058  1
  As  As29  1  0.000000  0.815269  0.386058  1
  As  As30  1  0.500000  0.845569  0.890271  1
  As  As31  1  0.500000  0.154431  0.890271  1
  As  As32  1  0.000000  0.654431  0.109729  1
  As  As33  1  0.000000  0.345569  0.109729  1
  Rh  Rh34  1  0.500000  0.500000  0.159388  1
  Rh  Rh35  1  0.000000  0.000000  0.840612  1
