# generated using pymatgen
data_Sm3Y(AsPd14)2
_symmetry_space_group_name_H-M   'P 1'
_cell_length_a   8.95391500
_cell_length_b   8.95391500
_cell_length_c   7.14350500
_cell_angle_alpha   90.00000000
_cell_angle_beta   90.00000000
_cell_angle_gamma   90.00000000
_symmetry_Int_Tables_number   1
_chemical_formula_structural   Sm3Y(AsPd14)2
_chemical_formula_sum   'Sm3 Y1 As2 Pd28'
_cell_volume   572.71332487
_cell_formula_units_Z   1
loop_
 _symmetry_equiv_pos_site_id
 _symmetry_equiv_pos_as_xyz
  1  'x, y, z'
loop_
 _atom_site_type_symbol
 _atom_site_label
 _atom_site_symmetry_multiplicity
 _atom_site_fract_x
 _atom_site_fract_y
 _atom_site_fract_z
 _atom_site_occupancy
  Sm  Sm0  1  0.500000  0.000000  0.934195  1
  Sm  Sm1  1  0.000000  0.500000  0.065805  1
  Sm  Sm2  1  0.000000  0.000000  0.500000  1
  Y  Y3  1  0.500000  0.500000  0.500000  1
  As  As4  1  0.500000  0.000000  0.448043  1
  As  As5  1  0.000000  0.500000  0.551957  1
  Pd  Pd6  1  0.331378  0.830570  0.621056  1
  Pd  Pd7  1  0.331378  0.169430  0.621056  1
  Pd  Pd8  1  0.668622  0.830570  0.621056  1
  Pd  Pd9  1  0.668622  0.169430  0.621056  1
  Pd  Pd10  1  0.169430  0.668622  0.378944  1
  Pd  Pd11  1  0.169430  0.331378  0.378944  1
  Pd  Pd12  1  0.830570  0.668622  0.378944  1
  Pd  Pd13  1  0.830570  0.331378  0.378944  1
  Pd  Pd14  1  0.500000  0.764869  0.254423  1
  Pd  Pd15  1  0.500000  0.235131  0.254423  1
  Pd  Pd16  1  0.266327  0.000000  0.252534  1
  Pd  Pd17  1  0.733673  0.000000  0.252534  1
  Pd  Pd18  1  0.000000  0.733673  0.747466  1
  Pd  Pd19  1  0.000000  0.266327  0.747466  1
  Pd  Pd20  1  0.235131  0.500000  0.745577  1
  Pd  Pd21  1  0.764869  0.500000  0.745577  1
  Pd  Pd22  1  0.500000  0.349338  0.854164  1
  Pd  Pd23  1  0.500000  0.650662  0.854164  1
  Pd  Pd24  1  0.848465  0.000000  0.855396  1
  Pd  Pd25  1  0.151535  0.000000  0.855396  1
  Pd  Pd26  1  0.000000  0.151535  0.144604  1
  Pd  Pd27  1  0.000000  0.848465  0.144604  1
  Pd  Pd28  1  0.650662  0.500000  0.145836  1
  Pd  Pd29  1  0.349338  0.500000  0.145836  1
  Pd  Pd30  1  0.250393  0.749607  0.000000  1
  Pd  Pd31  1  0.250393  0.250393  0.000000  1
  Pd  Pd32  1  0.749607  0.749607  0.000000  1
  Pd  Pd33  1  0.749607  0.250393  0.000000  1
