# generated using pymatgen
data_Nd4Cd2CuAg2Ru
_symmetry_space_group_name_H-M   'P 1'
_cell_length_a   7.91628733
_cell_length_b   7.91628686
_cell_length_c   3.93848400
_cell_angle_alpha   90.00000000
_cell_angle_beta   90.00000000
_cell_angle_gamma   90.62397371
_symmetry_Int_Tables_number   1
_chemical_formula_structural   Nd4Cd2CuAg2Ru
_chemical_formula_sum   'Nd4 Cd2 Cu1 Ag2 Ru1'
_cell_volume   246.80070929
_cell_formula_units_Z   1
loop_
 _symmetry_equiv_pos_site_id
 _symmetry_equiv_pos_as_xyz
  1  'x, y, z'
loop_
 _atom_site_type_symbol
 _atom_site_label
 _atom_site_symmetry_multiplicity
 _atom_site_fract_x
 _atom_site_fract_y
 _atom_site_fract_z
 _atom_site_occupancy
  Nd  Nd0  1  0.696772  0.196772  0.000000  1
  Nd  Nd1  1  0.314449  0.814449  0.000000  1
  Nd  Nd2  1  0.153399  0.328827  0.000000  1
  Nd  Nd3  1  0.828827  0.653399  0.000000  1
  Cd  Cd4  1  0.496958  0.501129  0.500000  1
  Cd  Cd5  1  0.001129  0.996958  0.500000  1
  Cu  Cu6  1  0.120601  0.620601  0.500000  1
  Ag  Ag7  1  0.377929  0.129629  0.500000  1
  Ag  Ag8  1  0.629629  0.877929  0.500000  1
  Ru  Ru9  1  0.880309  0.380309  0.500000  1
