# generated using pymatgen
data_CaYAl20IrRu3
_symmetry_space_group_name_H-M   'P 1'
_cell_length_a   6.87352177
_cell_length_b   6.86982504
_cell_length_c   9.16949837
_cell_angle_alpha   90.14765142
_cell_angle_beta   90.02891757
_cell_angle_gamma   96.64689078
_symmetry_Int_Tables_number   1
_chemical_formula_structural   CaYAl20IrRu3
_chemical_formula_sum   'Ca1 Y1 Al20 Ir1 Ru3'
_cell_volume   430.07080314
_cell_formula_units_Z   1
loop_
 _symmetry_equiv_pos_site_id
 _symmetry_equiv_pos_as_xyz
  1  'x, y, z'
loop_
 _atom_site_type_symbol
 _atom_site_label
 _atom_site_symmetry_multiplicity
 _atom_site_fract_x
 _atom_site_fract_y
 _atom_site_fract_z
 _atom_site_occupancy
  Ca  Ca0  1  0.873456  0.125149  0.750163  1
  Y  Y1  1  0.128463  0.874111  0.249949  1
  Al  Al2  1  0.620919  0.375763  0.545636  1
  Al  Al3  1  0.378820  0.624004  0.446622  1
  Al  Al4  1  0.376913  0.623147  0.052359  1
  Al  Al5  1  0.623309  0.376089  0.954817  1
  Al  Al6  1  0.225477  0.224560  0.497985  1
  Al  Al7  1  0.772841  0.776808  0.500956  1
  Al  Al8  1  0.773274  0.775501  0.001233  1
  Al  Al9  1  0.225259  0.226072  0.000050  1
  Al  Al10  1  0.844786  0.155930  0.100456  1
  Al  Al11  1  0.159334  0.839642  0.900052  1
  Al  Al12  1  0.160381  0.842121  0.601413  1
  Al  Al13  1  0.843452  0.153931  0.397972  1
  Al  Al14  1  0.856588  0.587890  0.751642  1
  Al  Al15  1  0.141600  0.413826  0.248630  1
  Al  Al16  1  0.413802  0.143035  0.750640  1
  Al  Al17  1  0.585212  0.859359  0.249393  1
  Al  Al18  1  0.221088  0.479759  0.752533  1
  Al  Al19  1  0.778682  0.518395  0.247474  1
  Al  Al20  1  0.520103  0.779477  0.749712  1
  Al  Al21  1  0.482033  0.221355  0.250153  1
  Ir  Ir22  1  0.999120  0.501740  0.499327  1
  Ru  Ru23  1  0.999332  0.501876  0.000839  1
  Ru  Ru24  1  0.497553  0.000067  0.000855  1
  Ru  Ru25  1  0.498200  0.000393  0.499139  1
