# generated using pymatgen
data_DyY3(Lu3Sn4)2
_symmetry_space_group_name_H-M   'P 1'
_cell_length_a   7.96648000
_cell_length_b   8.09402801
_cell_length_c   15.28866301
_cell_angle_alpha   90.00491101
_cell_angle_beta   90.00000000
_cell_angle_gamma   90.00000000
_symmetry_Int_Tables_number   1
_chemical_formula_structural   DyY3(Lu3Sn4)2
_chemical_formula_sum   'Dy2 Y6 Lu12 Sn16'
_cell_volume   985.82693446
_cell_formula_units_Z   2
loop_
 _symmetry_equiv_pos_site_id
 _symmetry_equiv_pos_as_xyz
  1  'x, y, z'
loop_
 _atom_site_type_symbol
 _atom_site_label
 _atom_site_symmetry_multiplicity
 _atom_site_fract_x
 _atom_site_fract_y
 _atom_site_fract_z
 _atom_site_occupancy
  Dy  Dy0  1  0.521779  0.320711  0.596955  1
  Dy  Dy1  1  0.021779  0.179289  0.903045  1
  Y  Y2  1  0.522043  0.320985  0.903133  1
  Y  Y3  1  0.022043  0.179015  0.596867  1
  Y  Y4  1  0.478031  0.678941  0.403185  1
  Y  Y5  1  0.978031  0.821059  0.096815  1
  Y  Y6  1  0.478050  0.679083  0.096853  1
  Y  Y7  1  0.978050  0.820917  0.403147  1
  Lu  Lu8  1  0.367042  0.836810  0.876976  1
  Lu  Lu9  1  0.867042  0.663190  0.623024  1
  Lu  Lu10  1  0.632880  0.163298  0.377072  1
  Lu  Lu11  1  0.132880  0.336702  0.122928  1
  Lu  Lu12  1  0.632918  0.163218  0.122991  1
  Lu  Lu13  1  0.132918  0.336782  0.377009  1
  Lu  Lu14  1  0.367001  0.836858  0.623058  1
  Lu  Lu15  1  0.867001  0.663142  0.876942  1
  Lu  Lu16  1  0.197662  0.504760  0.750014  1
  Lu  Lu17  1  0.697662  0.995240  0.749986  1
  Lu  Lu18  1  0.802450  0.495203  0.250017  1
  Lu  Lu19  1  0.302450  0.004797  0.249983  1
  Sn  Sn20  1  0.294947  0.037745  0.041610  1
  Sn  Sn21  1  0.794947  0.462255  0.458390  1
  Sn  Sn22  1  0.705091  0.962379  0.541708  1
  Sn  Sn23  1  0.205091  0.537621  0.958292  1
  Sn  Sn24  1  0.705262  0.962408  0.958328  1
  Sn  Sn25  1  0.205262  0.537592  0.541672  1
  Sn  Sn26  1  0.294865  0.037664  0.458352  1
  Sn  Sn27  1  0.794865  0.462336  0.041648  1
  Sn  Sn28  1  0.563942  0.620975  0.750050  1
  Sn  Sn29  1  0.063942  0.879025  0.749950  1
  Sn  Sn30  1  0.436079  0.379241  0.250001  1
  Sn  Sn31  1  0.936079  0.120759  0.249999  1
  Sn  Sn32  1  0.330720  0.147612  0.750064  1
  Sn  Sn33  1  0.830720  0.352388  0.749936  1
  Sn  Sn34  1  0.669239  0.852255  0.250010  1
  Sn  Sn35  1  0.169239  0.647745  0.249990  1
