# generated using pymatgen
data_ErTm2Lu3FeBi2
_symmetry_space_group_name_H-M   'P 1'
_cell_length_a   8.18373900
_cell_length_b   8.17182711
_cell_length_c   4.12834800
_cell_angle_alpha   90.00000000
_cell_angle_beta   90.00000000
_cell_angle_gamma   120.04824345
_symmetry_Int_Tables_number   1
_chemical_formula_structural   ErTm2Lu3FeBi2
_chemical_formula_sum   'Er1 Tm2 Lu3 Fe1 Bi2'
_cell_volume   238.98274256
_cell_formula_units_Z   1
loop_
 _symmetry_equiv_pos_site_id
 _symmetry_equiv_pos_as_xyz
  1  'x, y, z'
loop_
 _atom_site_type_symbol
 _atom_site_label
 _atom_site_symmetry_multiplicity
 _atom_site_fract_x
 _atom_site_fract_y
 _atom_site_fract_z
 _atom_site_occupancy
  Er  Er0  1  0.615536  0.000000  0.000000  1
  Tm  Tm1  1  0.999668  0.616516  0.000000  1
  Tm  Tm2  1  0.383151  0.383484  0.000000  1
  Lu  Lu3  1  0.228503  0.000000  0.500000  1
  Lu  Lu4  1  0.000114  0.228037  0.500000  1
  Lu  Lu5  1  0.772077  0.771963  0.500000  1
  Fe  Fe6  1  0.001715  0.000000  0.000000  1
  Bi  Bi7  1  0.332704  0.666174  0.500000  1
  Bi  Bi8  1  0.666532  0.333826  0.500000  1
