# generated using pymatgen
data_Ho4Er16Co4Bi7Sb
_symmetry_space_group_name_H-M   'P 1'
_cell_length_a   7.92735409
_cell_length_b   8.84789897
_cell_length_c   12.31507037
_cell_angle_alpha   89.99538058
_cell_angle_beta   90.02784312
_cell_angle_gamma   89.94657788
_symmetry_Int_Tables_number   1
_chemical_formula_structural   Ho4Er16Co4Bi7Sb
_chemical_formula_sum   'Ho4 Er16 Co4 Bi7 Sb1'
_cell_volume   863.78382811
_cell_formula_units_Z   1
loop_
 _symmetry_equiv_pos_site_id
 _symmetry_equiv_pos_as_xyz
  1  'x, y, z'
loop_
 _atom_site_type_symbol
 _atom_site_label
 _atom_site_symmetry_multiplicity
 _atom_site_fract_x
 _atom_site_fract_y
 _atom_site_fract_z
 _atom_site_occupancy
  Ho  Ho0  1  0.614461  0.746883  0.309737  1
  Ho  Ho1  1  0.120622  0.252645  0.189057  1
  Ho  Ho2  1  0.383389  0.249973  0.687906  1
  Ho  Ho3  1  0.883507  0.750148  0.812112  1
  Er  Er4  1  0.155394  0.746410  0.199732  1
  Er  Er5  1  0.651697  0.252826  0.298316  1
  Er  Er6  1  0.847209  0.249972  0.801719  1
  Er  Er7  1  0.346973  0.750346  0.699749  1
  Er  Er8  1  0.447555  0.747491  0.999261  1
  Er  Er9  1  0.945848  0.249446  0.501743  1
  Er  Er10  1  0.551085  0.252309  0.004013  1
  Er  Er11  1  0.054031  0.750451  0.497481  1
  Er  Er12  1  0.825475  0.962986  0.063691  1
  Er  Er13  1  0.325325  0.037760  0.435848  1
  Er  Er14  1  0.175018  0.463048  0.938315  1
  Er  Er15  1  0.674350  0.537300  0.563290  1
  Er  Er16  1  0.175491  0.036889  0.937429  1
  Er  Er17  1  0.674578  0.962406  0.562896  1
  Er  Er18  1  0.823122  0.537664  0.064094  1
  Er  Er19  1  0.325997  0.462519  0.433812  1
  Co  Co20  1  0.434379  0.749701  0.491863  1
  Co  Co21  1  0.935817  0.250871  0.008972  1
  Co  Co22  1  0.565041  0.250088  0.506741  1
  Co  Co23  1  0.064842  0.749732  0.992888  1
  Bi  Bi24  1  0.929130  0.990994  0.325773  1
  Bi  Bi25  1  0.429328  0.008455  0.172953  1
  Bi  Bi26  1  0.070335  0.490876  0.673198  1
  Bi  Bi27  1  0.570199  0.508827  0.826865  1
  Bi  Bi28  1  0.070293  0.009204  0.673384  1
  Bi  Bi29  1  0.570058  0.991249  0.828087  1
  Bi  Bi30  1  0.929290  0.509014  0.327189  1
  Sb  Sb31  1  0.430160  0.491517  0.171887  1
