# generated using pymatgen
data_Dy5Cr(Co3P2)6
_symmetry_space_group_name_H-M   'P 1'
_cell_length_a   11.99312285
_cell_length_b   11.99312262
_cell_length_c   3.67511200
_cell_angle_alpha   90.00000000
_cell_angle_beta   90.00000000
_cell_angle_gamma   119.83222029
_symmetry_Int_Tables_number   1
_chemical_formula_structural   Dy5Cr(Co3P2)6
_chemical_formula_sum   'Dy5 Cr1 Co18 P12'
_cell_volume   458.56143868
_cell_formula_units_Z   1
loop_
 _symmetry_equiv_pos_site_id
 _symmetry_equiv_pos_as_xyz
  1  'x, y, z'
loop_
 _atom_site_type_symbol
 _atom_site_label
 _atom_site_symmetry_multiplicity
 _atom_site_fract_x
 _atom_site_fract_y
 _atom_site_fract_z
 _atom_site_occupancy
  Dy  Dy0  1  0.665677  0.333958  0.000000  1
  Dy  Dy1  1  0.333958  0.665677  0.000000  1
  Dy  Dy2  1  0.186354  0.186354  0.500000  1
  Dy  Dy3  1  0.811779  0.999086  0.500000  1
  Dy  Dy4  1  0.999086  0.811779  0.500000  1
  Cr  Cr5  1  0.556851  0.556851  0.000000  1
  Co  Co6  1  0.447529  0.999148  0.000000  1
  Co  Co7  1  0.999148  0.447529  0.000000  1
  Co  Co8  1  0.822219  0.200571  0.000000  1
  Co  Co9  1  0.801071  0.623310  0.000000  1
  Co  Co10  1  0.377773  0.177086  0.000000  1
  Co  Co11  1  0.200571  0.822219  0.000000  1
  Co  Co12  1  0.623310  0.801071  0.000000  1
  Co  Co13  1  0.177086  0.377773  0.000000  1
  Co  Co14  1  0.641573  0.124914  0.500000  1
  Co  Co15  1  0.873380  0.515821  0.500000  1
  Co  Co16  1  0.482192  0.357792  0.500000  1
  Co  Co17  1  0.124914  0.641573  0.500000  1
  Co  Co18  1  0.515821  0.873380  0.500000  1
  Co  Co19  1  0.357792  0.482192  0.500000  1
  Co  Co20  1  0.717072  0.717072  0.500000  1
  Co  Co21  1  0.285120  0.999652  0.500000  1
  Co  Co22  1  0.999652  0.285120  0.500000  1
  Co  Co23  1  0.001535  0.001535  0.000000  1
  P  P24  1  0.366274  0.366274  0.000000  1
  P  P25  1  0.632357  0.000654  0.000000  1
  P  P26  1  0.000654  0.632357  0.000000  1
  P  P27  1  0.833681  0.314183  0.500000  1
  P  P28  1  0.684078  0.520507  0.500000  1
  P  P29  1  0.479632  0.165018  0.500000  1
  P  P30  1  0.314183  0.833681  0.500000  1
  P  P31  1  0.520507  0.684078  0.500000  1
  P  P32  1  0.165018  0.479632  0.500000  1
  P  P33  1  0.820999  0.820999  0.000000  1
  P  P34  1  0.181145  0.000010  0.000000  1
  P  P35  1  0.000010  0.181145  0.000000  1
