# generated using pymatgen
data_Sc5InSb2
_symmetry_space_group_name_H-M   'P 1'
_cell_length_a   8.46169862
_cell_length_b   8.46169964
_cell_length_c   6.04720600
_cell_angle_alpha   90.00000000
_cell_angle_beta   90.00000000
_cell_angle_gamma   119.78700791
_symmetry_Int_Tables_number   1
_chemical_formula_structural   Sc5InSb2
_chemical_formula_sum   'Sc10 In2 Sb4'
_cell_volume   375.77567394
_cell_formula_units_Z   2
loop_
 _symmetry_equiv_pos_site_id
 _symmetry_equiv_pos_as_xyz
  1  'x, y, z'
loop_
 _atom_site_type_symbol
 _atom_site_label
 _atom_site_symmetry_multiplicity
 _atom_site_fract_x
 _atom_site_fract_y
 _atom_site_fract_z
 _atom_site_occupancy
  Sc  Sc0  1  0.667259  0.332345  0.999241  1
  Sc  Sc1  1  0.332345  0.667260  0.999241  1
  Sc  Sc2  1  0.763134  0.004130  0.250000  1
  Sc  Sc3  1  0.238946  0.238945  0.250000  1
  Sc  Sc4  1  0.004130  0.763135  0.250000  1
  Sc  Sc5  1  0.667259  0.332345  0.500760  1
  Sc  Sc6  1  0.332345  0.667260  0.500760  1
  Sc  Sc7  1  0.238219  0.997758  0.750000  1
  Sc  Sc8  1  0.997758  0.238219  0.750000  1
  Sc  Sc9  1  0.758177  0.758177  0.750000  1
  In  In10  1  0.393610  0.000330  0.250000  1
  In  In11  1  0.000330  0.393609  0.250000  1
  Sb  Sb12  1  0.611612  0.611612  0.250000  1
  Sb  Sb13  1  0.606680  0.998864  0.750000  1
  Sb  Sb14  1  0.389334  0.389334  0.750000  1
  Sb  Sb15  1  0.998864  0.606680  0.750000  1
