# generated using pymatgen
data_YHoCr3Co9P7
_symmetry_space_group_name_H-M   'P 1'
_cell_length_a   8.94543600
_cell_length_b   8.94543615
_cell_length_c   3.63549900
_cell_angle_alpha   90.00000000
_cell_angle_beta   90.00000000
_cell_angle_gamma   119.99999944
_symmetry_Int_Tables_number   1
_chemical_formula_structural   YHoCr3Co9P7
_chemical_formula_sum   'Y1 Ho1 Cr3 Co9 P7'
_cell_volume   251.94033175
_cell_formula_units_Z   1
loop_
 _symmetry_equiv_pos_site_id
 _symmetry_equiv_pos_as_xyz
  1  'x, y, z'
loop_
 _atom_site_type_symbol
 _atom_site_label
 _atom_site_symmetry_multiplicity
 _atom_site_fract_x
 _atom_site_fract_y
 _atom_site_fract_z
 _atom_site_occupancy
  Y  Y0  1  0.000000  0.000000  0.000000  1
  Ho  Ho1  1  0.333333  0.666667  0.500000  1
  Cr  Cr2  1  0.545654  0.116561  0.500000  1
  Cr  Cr3  1  0.570908  0.454346  0.500000  1
  Cr  Cr4  1  0.883439  0.429092  0.500000  1
  Co  Co5  1  0.294936  0.900820  0.000000  1
  Co  Co6  1  0.605885  0.705064  0.000000  1
  Co  Co7  1  0.099180  0.394115  0.000000  1
  Co  Co8  1  0.787036  0.177090  0.000000  1
  Co  Co9  1  0.390053  0.212964  0.000000  1
  Co  Co10  1  0.822910  0.609947  0.000000  1
  Co  Co11  1  0.715618  0.949041  0.500000  1
  Co  Co12  1  0.233424  0.284382  0.500000  1
  Co  Co13  1  0.050959  0.766576  0.500000  1
  P  P14  1  0.553697  0.925304  0.000000  1
  P  P15  1  0.371606  0.446303  0.000000  1
  P  P16  1  0.074696  0.628394  0.000000  1
  P  P17  1  0.957256  0.221695  0.500000  1
  P  P18  1  0.264438  0.042744  0.500000  1
  P  P19  1  0.778305  0.735562  0.500000  1
  P  P20  1  0.666667  0.333333  0.000000  1
