# generated using pymatgen
data_Na3EuTa4O12
_symmetry_space_group_name_H-M   'P 1'
_cell_length_a   7.96036800
_cell_length_b   5.58762889
_cell_length_c   5.61165986
_cell_angle_alpha   90.17907445
_cell_angle_beta   90.00000000
_cell_angle_gamma   90.00000000
_symmetry_Int_Tables_number   1
_chemical_formula_structural   Na3EuTa4O12
_chemical_formula_sum   'Na3 Eu1 Ta4 O12'
_cell_volume   249.60306687
_cell_formula_units_Z   1
loop_
 _symmetry_equiv_pos_site_id
 _symmetry_equiv_pos_as_xyz
  1  'x, y, z'
loop_
 _atom_site_type_symbol
 _atom_site_label
 _atom_site_symmetry_multiplicity
 _atom_site_fract_x
 _atom_site_fract_y
 _atom_site_fract_z
 _atom_site_occupancy
  Na  Na0  1  0.000000  0.998695  0.015229  1
  Na  Na1  1  0.500000  0.497285  0.490449  1
  Na  Na2  1  0.500000  0.002607  0.990003  1
  Eu  Eu3  1  0.000000  0.495054  0.526715  1
  Ta  Ta4  1  0.252890  0.998793  0.499151  1
  Ta  Ta5  1  0.747169  0.500997  0.001182  1
  Ta  Ta6  1  0.747110  0.998793  0.499151  1
  Ta  Ta7  1  0.252831  0.500997  0.001182  1
  O  O8  1  0.275816  0.785005  0.214579  1
  O  O9  1  0.732319  0.711839  0.710841  1
  O  O10  1  0.782157  0.219899  0.778795  1
  O  O11  1  0.228717  0.286930  0.285185  1
  O  O12  1  0.217843  0.219899  0.778795  1
  O  O13  1  0.771283  0.286930  0.285185  1
  O  O14  1  0.724184  0.785005  0.214579  1
  O  O15  1  0.267681  0.711839  0.710841  1
  O  O16  1  0.000000  0.953002  0.483512  1
  O  O17  1  0.000000  0.549128  0.999101  1
  O  O18  1  0.500000  0.046035  0.515608  1
  O  O19  1  0.500000  0.451266  0.999918  1
