# generated using pymatgen
data_Al3Cu(Pd3Pt)2
_symmetry_space_group_name_H-M   'P 1'
_cell_length_a   4.10346100
_cell_length_b   5.44130971
_cell_length_c   7.89962910
_cell_angle_alpha   90.43725863
_cell_angle_beta   90.00000000
_cell_angle_gamma   90.00000000
_symmetry_Int_Tables_number   1
_chemical_formula_structural   Al3Cu(Pd3Pt)2
_chemical_formula_sum   'Al3 Cu1 Pd6 Pt2'
_cell_volume   176.37937937
_cell_formula_units_Z   1
loop_
 _symmetry_equiv_pos_site_id
 _symmetry_equiv_pos_as_xyz
  1  'x, y, z'
loop_
 _atom_site_type_symbol
 _atom_site_label
 _atom_site_symmetry_multiplicity
 _atom_site_fract_x
 _atom_site_fract_y
 _atom_site_fract_z
 _atom_site_occupancy
  Al  Al0  1  0.250000  0.177783  0.096538  1
  Al  Al1  1  0.750000  0.317379  0.603004  1
  Al  Al2  1  0.250000  0.680815  0.402026  1
  Cu  Cu3  1  0.750000  0.818411  0.898877  1
  Pd  Pd4  1  0.750000  0.959384  0.217501  1
  Pd  Pd5  1  0.250000  0.048615  0.777676  1
  Pd  Pd6  1  0.750000  0.331899  0.933395  1
  Pd  Pd7  1  0.250000  0.660497  0.072661  1
  Pd  Pd8  1  0.750000  0.837906  0.565925  1
  Pd  Pd9  1  0.250000  0.160761  0.429379  1
  Pt  Pt10  1  0.750000  0.458863  0.283983  1
  Pt  Pt11  1  0.250000  0.547687  0.719034  1
