# generated using pymatgen
data_LaTb4Y3(CdNi)2
_symmetry_space_group_name_H-M   'P 1'
_cell_length_a   9.64395956
_cell_length_b   9.64395922
_cell_length_c   9.63806900
_cell_angle_alpha   60.02020541
_cell_angle_beta   60.02020657
_cell_angle_gamma   60.07721001
_symmetry_Int_Tables_number   1
_chemical_formula_structural   LaTb4Y3(CdNi)2
_chemical_formula_sum   'La2 Tb8 Y6 Cd4 Ni4'
_cell_volume   634.41184407
_cell_formula_units_Z   2
loop_
 _symmetry_equiv_pos_site_id
 _symmetry_equiv_pos_as_xyz
  1  'x, y, z'
loop_
 _atom_site_type_symbol
 _atom_site_label
 _atom_site_symmetry_multiplicity
 _atom_site_fract_x
 _atom_site_fract_y
 _atom_site_fract_z
 _atom_site_occupancy
  La  La0  1  0.596128  0.596128  0.600862  1
  La  La1  1  0.596128  0.596128  0.206881  1
  Tb  Tb2  1  0.599800  0.198346  0.600927  1
  Tb  Tb3  1  0.198346  0.599800  0.600927  1
  Tb  Tb4  1  0.064259  0.438855  0.436660  1
  Tb  Tb5  1  0.438855  0.064259  0.060226  1
  Tb  Tb6  1  0.438855  0.064259  0.436660  1
  Tb  Tb7  1  0.064259  0.438855  0.060226  1
  Tb  Tb8  1  0.438063  0.438063  0.061937  1
  Tb  Tb9  1  0.062115  0.062115  0.437885  1
  Y  Y10  1  0.186677  0.814841  0.814798  1
  Y  Y11  1  0.814841  0.186677  0.183684  1
  Y  Y12  1  0.814841  0.186677  0.814798  1
  Y  Y13  1  0.186677  0.814841  0.183684  1
  Y  Y14  1  0.815327  0.815327  0.184673  1
  Y  Y15  1  0.186875  0.186875  0.813125  1
  Cd  Cd16  1  0.833085  0.833085  0.827970  1
  Cd  Cd17  1  0.833085  0.833085  0.505859  1
  Cd  Cd18  1  0.834756  0.504147  0.830548  1
  Cd  Cd19  1  0.504147  0.834756  0.830548  1
  Ni  Ni20  1  0.389474  0.389474  0.397943  1
  Ni  Ni21  1  0.389474  0.389474  0.823109  1
  Ni  Ni22  1  0.387928  0.826009  0.393032  1
  Ni  Ni23  1  0.826009  0.387928  0.393032  1
