# generated using pymatgen
data_Tb6Er2Sc12Si15Sn
_symmetry_space_group_name_H-M   'P 1'
_cell_length_a   7.12852759
_cell_length_b   7.42007151
_cell_length_c   14.06750865
_cell_angle_alpha   89.95479307
_cell_angle_beta   89.60070209
_cell_angle_gamma   90.06642787
_symmetry_Int_Tables_number   1
_chemical_formula_structural   Tb6Er2Sc12Si15Sn
_chemical_formula_sum   'Tb6 Er2 Sc12 Si15 Sn1'
_cell_volume   744.07059193
_cell_formula_units_Z   1
loop_
 _symmetry_equiv_pos_site_id
 _symmetry_equiv_pos_as_xyz
  1  'x, y, z'
loop_
 _atom_site_type_symbol
 _atom_site_label
 _atom_site_symmetry_multiplicity
 _atom_site_fract_x
 _atom_site_fract_y
 _atom_site_fract_z
 _atom_site_occupancy
  Tb  Tb0  1  0.010500  0.176020  0.096484  1
  Tb  Tb1  1  0.989110  0.824827  0.904488  1
  Tb  Tb2  1  0.489740  0.675947  0.904756  1
  Tb  Tb3  1  0.989993  0.830075  0.598217  1
  Tb  Tb4  1  0.510016  0.324170  0.096446  1
  Tb  Tb5  1  0.005069  0.169740  0.399287  1
  Er  Er6  1  0.512437  0.319937  0.399388  1
  Er  Er7  1  0.502289  0.685177  0.600071  1
  Sc  Sc8  1  0.163439  0.501998  0.755021  1
  Sc  Sc9  1  0.836093  0.497815  0.249186  1
  Sc  Sc10  1  0.336426  0.002472  0.249414  1
  Sc  Sc11  1  0.665066  0.997534  0.751715  1
  Sc  Sc12  1  0.344387  0.162708  0.630923  1
  Sc  Sc13  1  0.662755  0.824598  0.372460  1
  Sc  Sc14  1  0.162586  0.683153  0.368930  1
  Sc  Sc15  1  0.666489  0.823102  0.124408  1
  Sc  Sc16  1  0.823974  0.324070  0.626742  1
  Sc  Sc17  1  0.331688  0.175792  0.875455  1
  Sc  Sc18  1  0.832221  0.323401  0.875462  1
  Sc  Sc19  1  0.167600  0.676582  0.125247  1
  Si  Si20  1  0.036161  0.118747  0.751316  1
  Si  Si21  1  0.961840  0.884962  0.246733  1
  Si  Si22  1  0.464284  0.614609  0.248765  1
  Si  Si23  1  0.534096  0.386029  0.752090  1
  Si  Si24  1  0.288299  0.870022  0.752142  1
  Si  Si25  1  0.710538  0.126708  0.247724  1
  Si  Si26  1  0.211568  0.372967  0.249407  1
  Si  Si27  1  0.789815  0.627779  0.751266  1
  Si  Si28  1  0.828874  0.538620  0.458612  1
  Si  Si29  1  0.338628  0.963885  0.460313  1
  Si  Si30  1  0.841852  0.535044  0.039382  1
  Si  Si31  1  0.661914  0.037358  0.537666  1
  Si  Si32  1  0.157105  0.464573  0.961759  1
  Si  Si33  1  0.657440  0.035589  0.961027  1
  Si  Si34  1  0.341143  0.965073  0.039681  1
  Sn  Sn35  1  0.174565  0.458916  0.538018  1
