# generated using pymatgen
data_LaY5Rh18
_symmetry_space_group_name_H-M   'P 1'
_cell_length_a   5.30536400
_cell_length_b   5.30536313
_cell_length_c   17.53007300
_cell_angle_alpha   90.00000000
_cell_angle_beta   90.00000000
_cell_angle_gamma   120.00000540
_symmetry_Int_Tables_number   1
_chemical_formula_structural   LaY5Rh18
_chemical_formula_sum   'La1 Y5 Rh18'
_cell_volume   427.31155224
_cell_formula_units_Z   1
loop_
 _symmetry_equiv_pos_site_id
 _symmetry_equiv_pos_as_xyz
  1  'x, y, z'
loop_
 _atom_site_type_symbol
 _atom_site_label
 _atom_site_symmetry_multiplicity
 _atom_site_fract_x
 _atom_site_fract_y
 _atom_site_fract_z
 _atom_site_occupancy
  La  La0  1  0.666667  0.333333  0.250000  1
  Y  Y1  1  0.333333  0.666667  0.542276  1
  Y  Y2  1  0.666667  0.333333  0.041017  1
  Y  Y3  1  0.666667  0.333333  0.458983  1
  Y  Y4  1  0.333333  0.666667  0.957724  1
  Y  Y5  1  0.333333  0.666667  0.750000  1
  Rh  Rh6  1  0.167272  0.334541  0.124540  1
  Rh  Rh7  1  0.832670  0.665340  0.626118  1
  Rh  Rh8  1  0.665459  0.832728  0.124540  1
  Rh  Rh9  1  0.167272  0.832728  0.124540  1
  Rh  Rh10  1  0.832670  0.167330  0.626118  1
  Rh  Rh11  1  0.334660  0.167330  0.626118  1
  Rh  Rh12  1  0.832670  0.665340  0.873882  1
  Rh  Rh13  1  0.832670  0.167330  0.873882  1
  Rh  Rh14  1  0.334660  0.167330  0.873882  1
  Rh  Rh15  1  0.665459  0.832728  0.375460  1
  Rh  Rh16  1  0.167272  0.832728  0.375460  1
  Rh  Rh17  1  0.167272  0.334541  0.375460  1
  Rh  Rh18  1  0.000000  0.000000  0.250000  1
  Rh  Rh19  1  0.000000  0.000000  0.750000  1
  Rh  Rh20  1  0.333333  0.666667  0.250000  1
  Rh  Rh21  1  0.666667  0.333333  0.750000  1
  Rh  Rh22  1  0.000000  0.000000  0.999476  1
  Rh  Rh23  1  0.000000  0.000000  0.500524  1
