# generated using pymatgen
data_Ho3Bi3(WO7)2
_symmetry_space_group_name_H-M   'P 1'
_cell_length_a   6.45573934
_cell_length_b   6.68856451
_cell_length_c   7.62293177
_cell_angle_alpha   106.64056870
_cell_angle_beta   89.74599123
_cell_angle_gamma   98.49762323
_symmetry_Int_Tables_number   1
_chemical_formula_structural   Ho3Bi3(WO7)2
_chemical_formula_sum   'Ho3 Bi3 W2 O14'
_cell_volume   311.65887365
_cell_formula_units_Z   1
loop_
 _symmetry_equiv_pos_site_id
 _symmetry_equiv_pos_as_xyz
  1  'x, y, z'
loop_
 _atom_site_type_symbol
 _atom_site_label
 _atom_site_symmetry_multiplicity
 _atom_site_fract_x
 _atom_site_fract_y
 _atom_site_fract_z
 _atom_site_occupancy
  Ho  Ho0  1  0.546098  0.992531  0.749752  1
  Ho  Ho1  1  0.457246  0.005356  0.253687  1
  Ho  Ho2  1  0.254272  0.535407  0.884726  1
  Bi  Bi3  1  0.744434  0.479502  0.113799  1
  Bi  Bi4  1  0.724819  0.458795  0.614799  1
  Bi  Bi5  1  0.263591  0.536530  0.386700  1
  W  W6  1  0.003893  0.007776  0.502241  1
  W  W7  1  0.005447  0.001956  0.999699  1
  O  O8  1  0.444309  0.652318  0.164122  1
  O  O9  1  0.540588  0.343201  0.826803  1
  O  O10  1  0.291913  0.924864  0.949360  1
  O  O11  1  0.712324  0.047153  0.049859  1
  O  O12  1  0.294593  0.920881  0.511661  1
  O  O13  1  0.706912  0.083330  0.490960  1
  O  O14  1  0.528945  0.356058  0.346485  1
  O  O15  1  0.454769  0.641950  0.661839  1
  O  O16  1  0.937371  0.677443  0.953563  1
  O  O17  1  0.083884  0.312059  0.034769  1
  O  O18  1  0.093179  0.307270  0.623561  1
  O  O19  1  0.904994  0.708056  0.380413  1
  O  O20  1  0.897907  0.944245  0.736537  1
  O  O21  1  0.108514  0.063321  0.264668  1
