# generated using pymatgen
data_Pr17Dy2InIr12
_symmetry_space_group_name_H-M   'P 1'
_cell_length_a   11.31298500
_cell_length_b   11.31298500
_cell_length_c   6.50740200
_cell_angle_alpha   90.00000000
_cell_angle_beta   90.00000000
_cell_angle_gamma   90.00000000
_symmetry_Int_Tables_number   1
_chemical_formula_structural   Pr17Dy2InIr12
_chemical_formula_sum   'Pr17 Dy2 In1 Ir12'
_cell_volume   832.84092729
_cell_formula_units_Z   1
loop_
 _symmetry_equiv_pos_site_id
 _symmetry_equiv_pos_as_xyz
  1  'x, y, z'
loop_
 _atom_site_type_symbol
 _atom_site_label
 _atom_site_symmetry_multiplicity
 _atom_site_fract_x
 _atom_site_fract_y
 _atom_site_fract_z
 _atom_site_occupancy
  Pr  Pr0  1  0.281185  0.085265  0.383503  1
  Pr  Pr1  1  0.290721  0.911960  0.882924  1
  Pr  Pr2  1  0.709279  0.088040  0.882924  1
  Pr  Pr3  1  0.718815  0.914735  0.383503  1
  Pr  Pr4  1  0.588159  0.788760  0.884940  1
  Pr  Pr5  1  0.587079  0.210646  0.381480  1
  Pr  Pr6  1  0.412921  0.789354  0.381480  1
  Pr  Pr7  1  0.411841  0.211240  0.884940  1
  Pr  Pr8  1  0.210646  0.412921  0.618520  1
  Pr  Pr9  1  0.211240  0.588159  0.115060  1
  Pr  Pr10  1  0.788760  0.411841  0.115060  1
  Pr  Pr11  1  0.789354  0.587079  0.618520  1
  Pr  Pr12  1  0.911960  0.709279  0.117076  1
  Pr  Pr13  1  0.914735  0.281185  0.616497  1
  Pr  Pr14  1  0.085265  0.718815  0.616497  1
  Pr  Pr15  1  0.088040  0.290721  0.117076  1
  Pr  Pr16  1  0.000000  0.000000  0.000000  1
  Dy  Dy17  1  0.500000  0.500000  0.000000  1
  Dy  Dy18  1  0.500000  0.500000  0.500000  1
  In  In19  1  0.000000  0.000000  0.500000  1
  Ir  Ir20  1  0.847006  0.155061  0.247417  1
  Ir  Ir21  1  0.844939  0.847006  0.752583  1
  Ir  Ir22  1  0.155061  0.152994  0.752583  1
  Ir  Ir23  1  0.152994  0.844939  0.247417  1
  Ir  Ir24  1  0.648495  0.352664  0.747330  1
  Ir  Ir25  1  0.647336  0.648495  0.252670  1
  Ir  Ir26  1  0.352664  0.351505  0.252670  1
  Ir  Ir27  1  0.351505  0.647336  0.747330  1
  Ir  Ir28  1  0.500000  0.000000  0.121327  1
  Ir  Ir29  1  0.500000  0.000000  0.615688  1
  Ir  Ir30  1  0.000000  0.500000  0.878673  1
  Ir  Ir31  1  0.000000  0.500000  0.384312  1
