# generated using pymatgen
data_Pr4ScMn2FeO12
_symmetry_space_group_name_H-M   'P 1'
_cell_length_a   5.56795739
_cell_length_b   5.81915102
_cell_length_c   7.85399380
_cell_angle_alpha   90.89327297
_cell_angle_beta   89.89126204
_cell_angle_gamma   90.06600010
_symmetry_Int_Tables_number   1
_chemical_formula_structural   Pr4ScMn2FeO12
_chemical_formula_sum   'Pr4 Sc1 Mn2 Fe1 O12'
_cell_volume   254.44401885
_cell_formula_units_Z   1
loop_
 _symmetry_equiv_pos_site_id
 _symmetry_equiv_pos_as_xyz
  1  'x, y, z'
loop_
 _atom_site_type_symbol
 _atom_site_label
 _atom_site_symmetry_multiplicity
 _atom_site_fract_x
 _atom_site_fract_y
 _atom_site_fract_z
 _atom_site_occupancy
  Pr  Pr0  1  0.012717  0.939739  0.745639  1
  Pr  Pr1  1  0.515043  0.557105  0.254209  1
  Pr  Pr2  1  0.484957  0.442895  0.745791  1
  Pr  Pr3  1  0.987283  0.060261  0.254361  1
  Sc  Sc4  1  0.500000  0.000000  0.000000  1
  Mn  Mn5  1  0.000000  0.500000  0.500000  1
  Mn  Mn6  1  0.500000  0.000000  0.500000  1
  Fe  Fe7  1  0.000000  0.500000  0.000000  1
  O  O8  1  0.718023  0.312039  0.451211  1
  O  O9  1  0.217601  0.188421  0.548355  1
  O  O10  1  0.800253  0.792081  0.049447  1
  O  O11  1  0.291312  0.700496  0.950550  1
  O  O12  1  0.281977  0.687961  0.548789  1
  O  O13  1  0.782399  0.811579  0.451645  1
  O  O14  1  0.199747  0.207919  0.950553  1
  O  O15  1  0.708688  0.299504  0.049450  1
  O  O16  1  0.093741  0.473885  0.252668  1
  O  O17  1  0.592659  0.026637  0.742768  1
  O  O18  1  0.407341  0.973363  0.257232  1
  O  O19  1  0.906259  0.526115  0.747332  1
