# generated using pymatgen
data_CsPaTe3
_symmetry_space_group_name_H-M   'P 1'
_cell_length_a   7.56587500
_cell_length_b   8.34540800
_cell_length_c   14.52564500
_cell_angle_alpha   90.00000000
_cell_angle_beta   90.00000000
_cell_angle_gamma   90.00000000
_symmetry_Int_Tables_number   1
_chemical_formula_structural   CsPaTe3
_chemical_formula_sum   'Cs4 Pa4 Te12'
_cell_volume   917.15378275
_cell_formula_units_Z   4
loop_
 _symmetry_equiv_pos_site_id
 _symmetry_equiv_pos_as_xyz
  1  'x, y, z'
loop_
 _atom_site_type_symbol
 _atom_site_label
 _atom_site_symmetry_multiplicity
 _atom_site_fract_x
 _atom_site_fract_y
 _atom_site_fract_z
 _atom_site_occupancy
  Cs  Cs0  1  0.751799  0.250000  0.916887  1
  Cs  Cs1  1  0.248201  0.750000  0.083113  1
  Cs  Cs2  1  0.748201  0.750000  0.416887  1
  Cs  Cs3  1  0.251799  0.250000  0.583113  1
  Pa  Pa4  1  0.488848  0.750000  0.750168  1
  Pa  Pa5  1  0.011152  0.250000  0.250168  1
  Pa  Pa6  1  0.511152  0.250000  0.249832  1
  Pa  Pa7  1  0.988848  0.750000  0.749832  1
  Te  Te8  1  0.239005  0.995643  0.831095  1
  Te  Te9  1  0.260583  0.250000  0.087178  1
  Te  Te10  1  0.260995  0.495643  0.331095  1
  Te  Te11  1  0.760995  0.495643  0.168905  1
  Te  Te12  1  0.239005  0.504357  0.831095  1
  Te  Te13  1  0.239417  0.750000  0.587178  1
  Te  Te14  1  0.739417  0.750000  0.912822  1
  Te  Te15  1  0.739005  0.995643  0.668905  1
  Te  Te16  1  0.260995  0.004357  0.331095  1
  Te  Te17  1  0.760995  0.004357  0.168905  1
  Te  Te18  1  0.760583  0.250000  0.412822  1
  Te  Te19  1  0.739005  0.504357  0.668905  1
