# generated using pymatgen
data_Ru(PtRh3)2
_symmetry_space_group_name_H-M   'P 1'
_cell_length_a   6.13382900
_cell_length_b   6.13383320
_cell_length_c   6.13382852
_cell_angle_alpha   95.64864279
_cell_angle_beta   95.76558148
_cell_angle_gamma   143.23649169
_symmetry_Int_Tables_number   1
_chemical_formula_structural   Ru(PtRh3)2
_chemical_formula_sum   'Ru1 Pt2 Rh6'
_cell_volume   131.07642245
_cell_formula_units_Z   1
loop_
 _symmetry_equiv_pos_site_id
 _symmetry_equiv_pos_as_xyz
  1  'x, y, z'
loop_
 _atom_site_type_symbol
 _atom_site_label
 _atom_site_symmetry_multiplicity
 _atom_site_fract_x
 _atom_site_fract_y
 _atom_site_fract_z
 _atom_site_occupancy
  Ru  Ru0  1  0.000000  0.000000  0.000000  1
  Pt  Pt1  1  0.669682  0.000000  0.669682  1
  Pt  Pt2  1  0.330318  0.000000  0.330318  1
  Rh  Rh3  1  0.338151  0.336598  0.674748  1
  Rh  Rh4  1  0.661849  0.663402  0.325252  1
  Rh  Rh5  1  0.661850  0.336598  0.998449  1
  Rh  Rh6  1  0.338150  0.663402  0.001551  1
  Rh  Rh7  1  0.000000  0.326788  0.326788  1
  Rh  Rh8  1  0.000000  0.673212  0.673212  1
