# generated using pymatgen
data_Er2LuZr7Pb6
_symmetry_space_group_name_H-M   'P 1'
_cell_length_a   8.79033500
_cell_length_b   8.75129063
_cell_length_c   6.02679700
_cell_angle_alpha   90.00000000
_cell_angle_beta   90.00000000
_cell_angle_gamma   120.14770092
_symmetry_Int_Tables_number   1
_chemical_formula_structural   Er2LuZr7Pb6
_chemical_formula_sum   'Er2 Lu1 Zr7 Pb6'
_cell_volume   400.90957438
_cell_formula_units_Z   1
loop_
 _symmetry_equiv_pos_site_id
 _symmetry_equiv_pos_as_xyz
  1  'x, y, z'
loop_
 _atom_site_type_symbol
 _atom_site_label
 _atom_site_symmetry_multiplicity
 _atom_site_fract_x
 _atom_site_fract_y
 _atom_site_fract_z
 _atom_site_occupancy
  Er  Er0  1  0.761758  0.758554  0.250000  1
  Er  Er1  1  0.003204  0.241446  0.250000  1
  Lu  Lu2  1  0.756223  0.000000  0.750000  1
  Zr  Zr3  1  0.330136  0.665637  0.500874  1
  Zr  Zr4  1  0.247421  0.000000  0.250000  1
  Zr  Zr5  1  0.664501  0.334363  0.500874  1
  Zr  Zr6  1  0.002031  0.756598  0.750000  1
  Zr  Zr7  1  0.330136  0.665637  0.999126  1
  Zr  Zr8  1  0.245432  0.243402  0.750000  1
  Zr  Zr9  1  0.664501  0.334363  0.999126  1
  Pb  Pb10  1  0.605858  0.605395  0.750000  1
  Pb  Pb11  1  0.389428  0.000000  0.750000  1
  Pb  Pb12  1  0.601922  0.000000  0.250000  1
  Pb  Pb13  1  0.000465  0.394605  0.750000  1
  Pb  Pb14  1  0.394867  0.392750  0.250000  1
  Pb  Pb15  1  0.002117  0.607250  0.250000  1
