# generated using pymatgen
data_SrNdCu17Si8Ni
_symmetry_space_group_name_H-M   'P 1'
_cell_length_a   8.17542416
_cell_length_b   8.17542523
_cell_length_c   8.13087838
_cell_angle_alpha   120.44296476
_cell_angle_beta   120.44297079
_cell_angle_gamma   89.55083847
_symmetry_Int_Tables_number   1
_chemical_formula_structural   SrNdCu17Si8Ni
_chemical_formula_sum   'Sr1 Nd1 Cu17 Si8 Ni1'
_cell_volume   380.61296635
_cell_formula_units_Z   1
loop_
 _symmetry_equiv_pos_site_id
 _symmetry_equiv_pos_as_xyz
  1  'x, y, z'
loop_
 _atom_site_type_symbol
 _atom_site_label
 _atom_site_symmetry_multiplicity
 _atom_site_fract_x
 _atom_site_fract_y
 _atom_site_fract_z
 _atom_site_occupancy
  Sr  Sr0  1  0.750000  0.750000  0.000000  1
  Nd  Nd1  1  0.250000  0.250000  0.000000  1
  Cu  Cu2  1  0.935323  0.203699  0.136933  1
  Cu  Cu3  1  0.202589  0.068225  0.269051  1
  Cu  Cu4  1  0.799174  0.933537  0.730949  1
  Cu  Cu5  1  0.431775  0.297411  0.730949  1
  Cu  Cu6  1  0.066767  0.798390  0.863067  1
  Cu  Cu7  1  0.807805  0.058663  0.500765  1
  Cu  Cu8  1  0.557898  0.307040  0.499235  1
  Cu  Cu9  1  0.192960  0.942102  0.500765  1
  Cu  Cu10  1  0.441337  0.692195  0.499235  1
  Cu  Cu11  1  0.944214  0.443280  0.754133  1
  Cu  Cu12  1  0.689146  0.190080  0.245867  1
  Cu  Cu13  1  0.056720  0.555786  0.245867  1
  Cu  Cu14  1  0.701610  0.433233  0.136933  1
  Cu  Cu15  1  0.566463  0.700826  0.269051  1
  Cu  Cu16  1  0.000000  0.500000  0.500000  1
  Cu  Cu17  1  0.309920  0.810854  0.754133  1
  Cu  Cu18  1  0.296301  0.564677  0.863067  1
  Si  Si19  1  0.786630  0.283960  0.841345  1
  Si  Si20  1  0.554714  0.057384  0.841345  1
  Si  Si21  1  0.057727  0.209022  0.502951  1
  Si  Si22  1  0.290978  0.442273  0.497049  1
  Si  Si23  1  0.945224  0.793928  0.502951  1
  Si  Si24  1  0.442616  0.945286  0.158655  1
  Si  Si25  1  0.216040  0.713370  0.158655  1
  Si  Si26  1  0.706072  0.554776  0.497049  1
  Ni  Ni27  1  0.500000  0.000000  0.500000  1
