# generated using pymatgen
data_La15Ho5Pb16
_symmetry_space_group_name_H-M   'P 1'
_cell_length_a   8.49399320
_cell_length_b   8.61748082
_cell_length_c   16.40214097
_cell_angle_alpha   90.06594440
_cell_angle_beta   90.59493447
_cell_angle_gamma   89.83007805
_symmetry_Int_Tables_number   1
_chemical_formula_structural   La15Ho5Pb16
_chemical_formula_sum   'La15 Ho5 Pb16'
_cell_volume   1200.51386267
_cell_formula_units_Z   1
loop_
 _symmetry_equiv_pos_site_id
 _symmetry_equiv_pos_as_xyz
  1  'x, y, z'
loop_
 _atom_site_type_symbol
 _atom_site_label
 _atom_site_symmetry_multiplicity
 _atom_site_fract_x
 _atom_site_fract_y
 _atom_site_fract_z
 _atom_site_occupancy
  La  La0  1  0.376034  0.844376  0.380467  1
  La  La1  1  0.631295  0.156752  0.884095  1
  La  La2  1  0.123818  0.345107  0.617882  1
  La  La3  1  0.127716  0.341752  0.880770  1
  La  La4  1  0.623573  0.156141  0.617479  1
  La  La5  1  0.373910  0.844149  0.117737  1
  La  La6  1  0.876315  0.655412  0.381339  1
  La  La7  1  0.028023  0.179448  0.098322  1
  La  La8  1  0.535172  0.322942  0.397691  1
  La  La9  1  0.471577  0.679725  0.901924  1
  La  La10  1  0.966386  0.821840  0.600409  1
  La  La11  1  0.973357  0.819258  0.903812  1
  La  La12  1  0.465891  0.677868  0.601033  1
  La  La13  1  0.526388  0.323587  0.098933  1
  La  La14  1  0.034039  0.177903  0.397385  1
  Ho  Ho15  1  0.868605  0.654640  0.123841  1
  Ho  Ho16  1  0.709237  0.996203  0.248369  1
  Ho  Ho17  1  0.205370  0.503629  0.248724  1
  Ho  Ho18  1  0.791815  0.497851  0.751540  1
  Ho  Ho19  1  0.293247  0.003007  0.749811  1
  Pb  Pb20  1  0.065175  0.869944  0.247763  1
  Pb  Pb21  1  0.568567  0.625123  0.247332  1
  Pb  Pb22  1  0.434143  0.373247  0.750547  1
  Pb  Pb23  1  0.932077  0.124779  0.749795  1
  Pb  Pb24  1  0.841690  0.349256  0.246928  1
  Pb  Pb25  1  0.339770  0.154379  0.248099  1
  Pb  Pb26  1  0.659274  0.847429  0.751409  1
  Pb  Pb27  1  0.160066  0.654013  0.751329  1
  Pb  Pb28  1  0.787059  0.471179  0.959348  1
  Pb  Pb29  1  0.279942  0.028506  0.547501  1
  Pb  Pb30  1  0.721445  0.957782  0.048433  1
  Pb  Pb31  1  0.221010  0.528649  0.450928  1
  Pb  Pb32  1  0.200196  0.538043  0.048061  1
  Pb  Pb33  1  0.720368  0.971656  0.450576  1
  Pb  Pb34  1  0.287915  0.032626  0.952073  1
  Pb  Pb35  1  0.779535  0.471800  0.548316  1
