# generated using pymatgen
data_CsAg2AsSe3
_symmetry_space_group_name_H-M   'P 1'
_cell_length_a   8.84707600
_cell_length_b   9.94342882
_cell_length_c   10.57620211
_cell_angle_alpha   72.10248058
_cell_angle_beta   90.00000000
_cell_angle_gamma   90.00000000
_symmetry_Int_Tables_number   1
_chemical_formula_structural   CsAg2AsSe3
_chemical_formula_sum   'Cs4 Ag8 As4 Se12'
_cell_volume   885.36759095
_cell_formula_units_Z   4
loop_
 _symmetry_equiv_pos_site_id
 _symmetry_equiv_pos_as_xyz
  1  'x, y, z'
loop_
 _atom_site_type_symbol
 _atom_site_label
 _atom_site_symmetry_multiplicity
 _atom_site_fract_x
 _atom_site_fract_y
 _atom_site_fract_z
 _atom_site_occupancy
  Cs  Cs0  1  0.936964  0.247226  0.085697  1
  Cs  Cs1  1  0.436964  0.252774  0.914303  1
  Cs  Cs2  1  0.063036  0.752774  0.914303  1
  Cs  Cs3  1  0.563036  0.747226  0.085697  1
  Ag  Ag4  1  0.757983  0.933282  0.445915  1
  Ag  Ag5  1  0.257983  0.566718  0.554085  1
  Ag  Ag6  1  0.242017  0.066718  0.554085  1
  Ag  Ag7  1  0.742017  0.433282  0.445915  1
  Ag  Ag8  1  0.972424  0.217150  0.672495  1
  Ag  Ag9  1  0.472424  0.282850  0.327505  1
  Ag  Ag10  1  0.027576  0.782850  0.327505  1
  Ag  Ag11  1  0.527576  0.717150  0.672495  1
  As  As12  1  0.141800  0.443993  0.350799  1
  As  As13  1  0.641800  0.056007  0.649201  1
  As  As14  1  0.858200  0.556007  0.649201  1
  As  As15  1  0.358200  0.943993  0.350799  1
  Se  Se16  1  0.017521  0.208303  0.432230  1
  Se  Se17  1  0.517521  0.291697  0.567770  1
  Se  Se18  1  0.982479  0.791697  0.567770  1
  Se  Se19  1  0.482479  0.708303  0.432230  1
  Se  Se20  1  0.781570  0.059254  0.842866  1
  Se  Se21  1  0.281570  0.440746  0.157134  1
  Se  Se22  1  0.218430  0.940746  0.157134  1
  Se  Se23  1  0.718430  0.559254  0.842866  1
  Se  Se24  1  0.909785  0.570968  0.252246  1
  Se  Se25  1  0.409785  0.929032  0.747754  1
  Se  Se26  1  0.090215  0.429032  0.747754  1
  Se  Se27  1  0.590215  0.070968  0.252246  1
