# generated using pymatgen
data_Nd2NiB8Ir
_symmetry_space_group_name_H-M   'P 1'
_cell_length_a   7.01718141
_cell_length_b   7.01718148
_cell_length_c   7.01718225
_cell_angle_alpha   111.44163981
_cell_angle_beta   112.95911013
_cell_angle_gamma   104.14476046
_symmetry_Int_Tables_number   1
_chemical_formula_structural   Nd2NiB8Ir
_chemical_formula_sum   'Nd4 Ni2 B16 Ir2'
_cell_volume   264.23668224
_cell_formula_units_Z   2
loop_
 _symmetry_equiv_pos_site_id
 _symmetry_equiv_pos_as_xyz
  1  'x, y, z'
loop_
 _atom_site_type_symbol
 _atom_site_label
 _atom_site_symmetry_multiplicity
 _atom_site_fract_x
 _atom_site_fract_y
 _atom_site_fract_z
 _atom_site_occupancy
  Nd  Nd0  1  0.791336  0.791336  0.000000  1
  Nd  Nd1  1  0.208664  0.208664  0.000000  1
  Nd  Nd2  1  0.750054  0.250054  0.500000  1
  Nd  Nd3  1  0.249946  0.749946  0.500000  1
  Ni  Ni4  1  0.500000  0.741145  0.241145  1
  Ni  Ni5  1  0.500000  0.258855  0.758855  1
  B  B6  1  0.274402  0.109968  0.384370  1
  B  B7  1  0.725598  0.890032  0.615630  1
  B  B8  1  0.274402  0.890032  0.164433  1
  B  B9  1  0.725598  0.109968  0.835567  1
  B  B10  1  0.111335  0.729772  0.841108  1
  B  B11  1  0.888665  0.270228  0.158892  1
  B  B12  1  0.111335  0.270228  0.381563  1
  B  B13  1  0.888665  0.729772  0.618437  1
  B  B14  1  0.114683  0.110741  0.527523  1
  B  B15  1  0.583218  0.587160  0.472477  1
  B  B16  1  0.114683  0.587160  0.003942  1
  B  B17  1  0.583218  0.110741  0.996058  1
  B  B18  1  0.885317  0.889259  0.472477  1
  B  B19  1  0.416782  0.412840  0.527523  1
  B  B20  1  0.885318  0.412840  0.996058  1
  B  B21  1  0.416782  0.889260  0.003942  1
  Ir  Ir22  1  0.275657  0.500000  0.775657  1
  Ir  Ir23  1  0.724343  0.500000  0.224343  1
