# generated using pymatgen
data_Nd10Si17
_symmetry_space_group_name_H-M   'P 1'
_cell_length_a   11.35039124
_cell_length_b   11.35039238
_cell_length_c   11.35039213
_cell_angle_alpha   144.78648387
_cell_angle_beta   135.34731867
_cell_angle_gamma   58.10332435
_symmetry_Int_Tables_number   1
_chemical_formula_structural   Nd10Si17
_chemical_formula_sum   'Nd10 Si17'
_cell_volume   587.54701978
_cell_formula_units_Z   1
loop_
 _symmetry_equiv_pos_site_id
 _symmetry_equiv_pos_as_xyz
  1  'x, y, z'
loop_
 _atom_site_type_symbol
 _atom_site_label
 _atom_site_symmetry_multiplicity
 _atom_site_fract_x
 _atom_site_fract_y
 _atom_site_fract_z
 _atom_site_occupancy
  Nd  Nd0  1  0.050706  0.564287  0.014684  1
  Nd  Nd1  1  0.351942  0.367954  0.519994  1
  Nd  Nd2  1  0.152040  0.168051  0.519994  1
  Nd  Nd3  1  0.450397  0.963978  0.014684  1
  Nd  Nd4  1  0.648058  0.168051  0.016012  1
  Nd  Nd5  1  0.949294  0.963978  0.513581  1
  Nd  Nd6  1  0.847960  0.367954  0.016012  1
  Nd  Nd7  1  0.549603  0.564287  0.513581  1
  Nd  Nd8  1  0.245530  0.762606  0.008136  1
  Nd  Nd9  1  0.754470  0.762606  0.517076  1
  Si  Si10  1  0.896998  0.505066  0.608068  1
  Si  Si11  1  0.114031  0.067900  0.953869  1
  Si  Si12  1  0.800949  0.198275  0.397326  1
  Si  Si13  1  0.300320  0.897817  0.597498  1
  Si  Si14  1  0.399907  0.501452  0.101546  1
  Si  Si15  1  0.885969  0.839838  0.953869  1
  Si  Si16  1  0.103002  0.711070  0.608068  1
  Si  Si17  1  0.199051  0.596377  0.397326  1
  Si  Si18  1  0.699680  0.297177  0.597498  1
  Si  Si19  1  0.000000  0.432409  0.432409  1
  Si  Si20  1  0.709119  0.658421  0.949302  1
  Si  Si21  1  0.600093  0.701640  0.101546  1
  Si  Si22  1  0.000000  0.086824  0.086824  1
  Si  Si23  1  0.500000  0.405981  0.905981  1
  Si  Si24  1  0.290881  0.240183  0.949302  1
  Si  Si25  1  0.588505  0.035873  0.447367  1
  Si  Si26  1  0.411495  0.858863  0.447367  1
