# generated using pymatgen
data_Tb5HoCo16(TcP6)2
_symmetry_space_group_name_H-M   'P 1'
_cell_length_a   3.71285900
_cell_length_b   10.52791301
_cell_length_c   12.24414801
_cell_angle_alpha   90.00415270
_cell_angle_beta   90.00000000
_cell_angle_gamma   90.00000000
_symmetry_Int_Tables_number   1
_chemical_formula_structural   Tb5HoCo16(TcP6)2
_chemical_formula_sum   'Tb5 Ho1 Co16 Tc2 P12'
_cell_volume   478.60729509
_cell_formula_units_Z   1
loop_
 _symmetry_equiv_pos_site_id
 _symmetry_equiv_pos_as_xyz
  1  'x, y, z'
loop_
 _atom_site_type_symbol
 _atom_site_label
 _atom_site_symmetry_multiplicity
 _atom_site_fract_x
 _atom_site_fract_y
 _atom_site_fract_z
 _atom_site_occupancy
  Tb  Tb0  1  0.000000  0.499850  0.523788  1
  Tb  Tb1  1  0.500000  0.000098  0.476074  1
  Tb  Tb2  1  0.500000  0.182417  0.205952  1
  Tb  Tb3  1  0.000000  0.682554  0.794057  1
  Tb  Tb4  1  0.000000  0.317416  0.794117  1
  Ho  Ho5  1  0.500000  0.817438  0.205911  1
  Co  Co6  1  0.500000  0.499989  0.703057  1
  Co  Co7  1  0.000000  0.999417  0.296660  1
  Co  Co8  1  0.000000  0.500248  0.987651  1
  Co  Co9  1  0.500000  0.999760  0.012798  1
  Co  Co10  1  0.500000  0.332170  0.990512  1
  Co  Co11  1  0.500000  0.668011  0.990680  1
  Co  Co12  1  0.000000  0.167586  0.009643  1
  Co  Co13  1  0.000000  0.832247  0.010064  1
  Co  Co14  1  0.500000  0.296375  0.430820  1
  Co  Co15  1  0.500000  0.703681  0.430427  1
  Co  Co16  1  0.000000  0.203571  0.569133  1
  Co  Co17  1  0.000000  0.796444  0.568960  1
  Co  Co18  1  0.500000  0.879455  0.708110  1
  Co  Co19  1  0.500000  0.120579  0.708170  1
  Co  Co20  1  0.000000  0.621110  0.291539  1
  Co  Co21  1  0.000000  0.379571  0.291885  1
  Tc  Tc22  1  0.500000  0.500147  0.156168  1
  Tc  Tc23  1  0.000000  0.999947  0.843974  1
  P  P24  1  0.500000  0.500076  0.881938  1
  P  P25  1  0.000000  0.999486  0.118453  1
  P  P26  1  0.500000  0.499938  0.348267  1
  P  P27  1  0.000000  0.999993  0.651631  1
  P  P28  1  0.500000  0.311016  0.615907  1
  P  P29  1  0.500000  0.689030  0.615856  1
  P  P30  1  0.000000  0.188842  0.384016  1
  P  P31  1  0.000000  0.811168  0.383306  1
  P  P32  1  0.500000  0.846304  0.892997  1
  P  P33  1  0.500000  0.153649  0.893202  1
  P  P34  1  0.000000  0.654205  0.107359  1
  P  P35  1  0.000000  0.346213  0.106919  1
