# generated using pymatgen
data_Tm4Sc4IrRh3
_symmetry_space_group_name_H-M   'P 1'
_cell_length_a   4.18610700
_cell_length_b   7.15569027
_cell_length_c   8.67178897
_cell_angle_alpha   90.53650133
_cell_angle_beta   90.00000000
_cell_angle_gamma   90.00000000
_symmetry_Int_Tables_number   1
_chemical_formula_structural   Tm4Sc4IrRh3
_chemical_formula_sum   'Tm4 Sc4 Ir1 Rh3'
_cell_volume   259.74758629
_cell_formula_units_Z   1
loop_
 _symmetry_equiv_pos_site_id
 _symmetry_equiv_pos_as_xyz
  1  'x, y, z'
loop_
 _atom_site_type_symbol
 _atom_site_label
 _atom_site_symmetry_multiplicity
 _atom_site_fract_x
 _atom_site_fract_y
 _atom_site_fract_z
 _atom_site_occupancy
  Tm  Tm0  1  0.250000  0.976003  0.325489  1
  Tm  Tm1  1  0.750000  0.519854  0.829122  1
  Tm  Tm2  1  0.250000  0.485744  0.171315  1
  Tm  Tm3  1  0.750000  0.019766  0.671920  1
  Sc  Sc4  1  0.750000  0.640689  0.434300  1
  Sc  Sc5  1  0.750000  0.143127  0.065568  1
  Sc  Sc6  1  0.250000  0.357351  0.564149  1
  Sc  Sc7  1  0.250000  0.858095  0.935008  1
  Ir  Ir8  1  0.750000  0.761054  0.110531  1
  Rh  Rh9  1  0.750000  0.255932  0.393968  1
  Rh  Rh10  1  0.250000  0.241538  0.890690  1
  Rh  Rh11  1  0.250000  0.740847  0.607939  1
