# generated using pymatgen
data_La7Pr9Cd4(PdRu)2
_symmetry_space_group_name_H-M   'P 1'
_cell_length_a   10.06725371
_cell_length_b   10.07820173
_cell_length_c   10.20755255
_cell_angle_alpha   59.46467624
_cell_angle_beta   59.75443064
_cell_angle_gamma   59.90607095
_symmetry_Int_Tables_number   1
_chemical_formula_structural   La7Pr9Cd4(PdRu)2
_chemical_formula_sum   'La7 Pr9 Cd4 Pd2 Ru2'
_cell_volume   727.44667899
_cell_formula_units_Z   1
loop_
 _symmetry_equiv_pos_site_id
 _symmetry_equiv_pos_as_xyz
  1  'x, y, z'
loop_
 _atom_site_type_symbol
 _atom_site_label
 _atom_site_symmetry_multiplicity
 _atom_site_fract_x
 _atom_site_fract_y
 _atom_site_fract_z
 _atom_site_occupancy
  La  La0  1  0.346148  0.344796  0.357677  1
  La  La1  1  0.346874  0.346386  0.949158  1
  La  La2  1  0.344996  0.956925  0.347967  1
  La  La3  1  0.959243  0.342705  0.350311  1
  La  La4  1  0.819617  0.189315  0.188665  1
  La  La5  1  0.186504  0.821377  0.800961  1
  La  La6  1  0.189366  0.818855  0.190159  1
  Pr  Pr7  1  0.812470  0.190478  0.803437  1
  Pr  Pr8  1  0.189904  0.191969  0.807224  1
  Pr  Pr9  1  0.802935  0.804295  0.194730  1
  Pr  Pr10  1  0.933428  0.562523  0.567769  1
  Pr  Pr11  1  0.560550  0.935522  0.936888  1
  Pr  Pr12  1  0.561230  0.934636  0.566901  1
  Pr  Pr13  1  0.934996  0.560437  0.938748  1
  Pr  Pr14  1  0.562534  0.563118  0.938100  1
  Pr  Pr15  1  0.935911  0.937304  0.563761  1
  Cd  Cd16  1  0.580935  0.578886  0.580030  1
  Cd  Cd17  1  0.580976  0.580073  0.259753  1
  Cd  Cd18  1  0.581170  0.257205  0.581724  1
  Cd  Cd19  1  0.256996  0.580300  0.581086  1
  Pd  Pd20  1  0.150199  0.575861  0.137105  1
  Pd  Pd21  1  0.574262  0.149675  0.141073  1
  Ru  Ru22  1  0.139406  0.140503  0.142895  1
  Ru  Ru23  1  0.149349  0.136853  0.573880  1
