# generated using pymatgen
data_YbDy3(ReB4)4
_symmetry_space_group_name_H-M   'P 1'
_cell_length_a   3.60789400
_cell_length_b   5.97142314
_cell_length_c   11.56310427
_cell_angle_alpha   89.97516640
_cell_angle_beta   90.00000000
_cell_angle_gamma   90.00000000
_symmetry_Int_Tables_number   1
_chemical_formula_structural   YbDy3(ReB4)4
_chemical_formula_sum   'Yb1 Dy3 Re4 B16'
_cell_volume   249.11852131
_cell_formula_units_Z   1
loop_
 _symmetry_equiv_pos_site_id
 _symmetry_equiv_pos_as_xyz
  1  'x, y, z'
loop_
 _atom_site_type_symbol
 _atom_site_label
 _atom_site_symmetry_multiplicity
 _atom_site_fract_x
 _atom_site_fract_y
 _atom_site_fract_z
 _atom_site_occupancy
  Yb  Yb0  1  0.500000  0.872858  0.350107  1
  Dy  Dy1  1  0.500000  0.372221  0.150649  1
  Dy  Dy2  1  0.500000  0.627167  0.850310  1
  Dy  Dy3  1  0.500000  0.125673  0.649575  1
  Re  Re4  1  0.500000  0.368219  0.414683  1
  Re  Re5  1  0.500000  0.630296  0.586094  1
  Re  Re6  1  0.500000  0.132612  0.912176  1
  Re  Re7  1  0.500000  0.866744  0.087218  1
  B  B8  1  0.000000  0.113613  0.047477  1
  B  B9  1  0.000000  0.886344  0.952852  1
  B  B10  1  0.000000  0.386358  0.546674  1
  B  B11  1  0.000000  0.615787  0.452162  1
  B  B12  1  0.000000  0.135936  0.467894  1
  B  B13  1  0.000000  0.863661  0.531521  1
  B  B14  1  0.000000  0.363375  0.968765  1
  B  B15  1  0.000000  0.636593  0.031300  1
  B  B16  1  0.000000  0.024782  0.192527  1
  B  B17  1  0.000000  0.975189  0.807768  1
  B  B18  1  0.000000  0.476649  0.691866  1
  B  B19  1  0.000000  0.523989  0.308354  1
  B  B20  1  0.000000  0.214256  0.315614  1
  B  B21  1  0.000000  0.786077  0.684104  1
  B  B22  1  0.000000  0.286037  0.814668  1
  B  B23  1  0.000000  0.715564  0.185644  1
