# generated using pymatgen
data_Tm4Hf5ZrSi8
_symmetry_space_group_name_H-M   'P 1'
_cell_length_a   7.25701132
_cell_length_b   7.25701166
_cell_length_c   13.32552800
_cell_angle_alpha   90.00000000
_cell_angle_beta   90.00000000
_cell_angle_gamma   89.99249164
_symmetry_Int_Tables_number   1
_chemical_formula_structural   Tm4Hf5ZrSi8
_chemical_formula_sum   'Tm8 Hf10 Zr2 Si16'
_cell_volume   701.77847593
_cell_formula_units_Z   2
loop_
 _symmetry_equiv_pos_site_id
 _symmetry_equiv_pos_as_xyz
  1  'x, y, z'
loop_
 _atom_site_type_symbol
 _atom_site_label
 _atom_site_symmetry_multiplicity
 _atom_site_fract_x
 _atom_site_fract_y
 _atom_site_fract_z
 _atom_site_occupancy
  Tm  Tm0  1  0.996486  0.344168  0.215044  1
  Tm  Tm1  1  0.003514  0.655832  0.715044  1
  Tm  Tm2  1  0.155601  0.496627  0.465034  1
  Tm  Tm3  1  0.503373  0.844399  0.034966  1
  Tm  Tm4  1  0.844399  0.503373  0.965034  1
  Tm  Tm5  1  0.496627  0.155601  0.534966  1
  Tm  Tm6  1  0.344168  0.996486  0.784956  1
  Tm  Tm7  1  0.655832  0.003514  0.284956  1
  Hf  Hf8  1  0.325449  0.674551  0.250000  1
  Hf  Hf9  1  0.674551  0.325449  0.750000  1
  Hf  Hf10  1  0.147948  0.996631  0.374660  1
  Hf  Hf11  1  0.852052  0.003369  0.874660  1
  Hf  Hf12  1  0.503131  0.648630  0.624482  1
  Hf  Hf13  1  0.351370  0.496869  0.875518  1
  Hf  Hf14  1  0.496869  0.351370  0.124482  1
  Hf  Hf15  1  0.648630  0.503131  0.375518  1
  Hf  Hf16  1  0.996631  0.147948  0.625340  1
  Hf  Hf17  1  0.003369  0.852052  0.125340  1
  Zr  Zr18  1  0.174361  0.174361  0.000000  1
  Zr  Zr19  1  0.825639  0.825639  0.500000  1
  Si  Si20  1  0.360961  0.295076  0.317888  1
  Si  Si21  1  0.639039  0.704924  0.817888  1
  Si  Si22  1  0.206379  0.861170  0.568028  1
  Si  Si23  1  0.138830  0.793621  0.931972  1
  Si  Si24  1  0.793621  0.138830  0.068028  1
  Si  Si25  1  0.861170  0.206379  0.431972  1
  Si  Si26  1  0.295076  0.360961  0.682112  1
  Si  Si27  1  0.704924  0.639039  0.182112  1
  Si  Si28  1  0.297858  0.047908  0.186550  1
  Si  Si29  1  0.702142  0.952092  0.686550  1
  Si  Si30  1  0.450322  0.796782  0.435602  1
  Si  Si31  1  0.203218  0.549678  0.064398  1
  Si  Si32  1  0.549678  0.203218  0.935602  1
  Si  Si33  1  0.796782  0.450322  0.564398  1
  Si  Si34  1  0.047908  0.297858  0.813450  1
  Si  Si35  1  0.952092  0.702142  0.313450  1
