# generated using pymatgen
data_Mn3Be8Re
_symmetry_space_group_name_H-M   'P 1'
_cell_length_a   4.22357300
_cell_length_b   4.22357231
_cell_length_c   6.87953000
_cell_angle_alpha   90.00000000
_cell_angle_beta   90.00000000
_cell_angle_gamma   119.99999760
_symmetry_Int_Tables_number   1
_chemical_formula_structural   Mn3Be8Re
_chemical_formula_sum   'Mn3 Be8 Re1'
_cell_volume   106.27946253
_cell_formula_units_Z   1
loop_
 _symmetry_equiv_pos_site_id
 _symmetry_equiv_pos_as_xyz
  1  'x, y, z'
loop_
 _atom_site_type_symbol
 _atom_site_label
 _atom_site_symmetry_multiplicity
 _atom_site_fract_x
 _atom_site_fract_y
 _atom_site_fract_z
 _atom_site_occupancy
  Mn  Mn0  1  0.666667  0.333333  0.562286  1
  Mn  Mn1  1  0.666667  0.333333  0.938683  1
  Mn  Mn2  1  0.333333  0.666667  0.436037  1
  Be  Be3  1  0.000000  0.000000  0.998647  1
  Be  Be4  1  0.000000  0.000000  0.502813  1
  Be  Be5  1  0.830148  0.660295  0.255195  1
  Be  Be6  1  0.169994  0.830006  0.745032  1
  Be  Be7  1  0.660012  0.830006  0.745032  1
  Be  Be8  1  0.339705  0.169852  0.255195  1
  Be  Be9  1  0.830148  0.169852  0.255195  1
  Be  Be10  1  0.169994  0.339988  0.745032  1
  Re  Re11  1  0.333333  0.666667  0.060850  1
