# generated using pymatgen
data_Mg2U2Cr(AsRu)6
_symmetry_space_group_name_H-M   'P 1'
_cell_length_a   7.12901156
_cell_length_b   7.09616466
_cell_length_c   7.12901034
_cell_angle_alpha   109.24702513
_cell_angle_beta   110.10576755
_cell_angle_gamma   109.24701994
_symmetry_Int_Tables_number   1
_chemical_formula_structural   Mg2U2Cr(AsRu)6
_chemical_formula_sum   'Mg2 U2 Cr1 As6 Ru6'
_cell_volume   276.97092127
_cell_formula_units_Z   1
loop_
 _symmetry_equiv_pos_site_id
 _symmetry_equiv_pos_as_xyz
  1  'x, y, z'
loop_
 _atom_site_type_symbol
 _atom_site_label
 _atom_site_symmetry_multiplicity
 _atom_site_fract_x
 _atom_site_fract_y
 _atom_site_fract_z
 _atom_site_occupancy
  Mg  Mg0  1  0.004044  0.008088  0.504044  1
  Mg  Mg1  1  0.495956  0.991912  0.995956  1
  U  U2  1  0.997339  0.500000  0.002661  1
  U  U3  1  0.502661  0.500000  0.497339  1
  Cr  Cr4  1  0.750000  0.500000  0.250000  1
  As  As5  1  0.308993  0.000000  0.308993  1
  As  As6  1  0.989085  0.302909  0.307454  1
  As  As7  1  0.004545  0.697091  0.686176  1
  As  As8  1  0.313824  0.302909  0.995455  1
  As  As9  1  0.692546  0.697091  0.010915  1
  As  As10  1  0.691007  0.000000  0.691007  1
  Ru  Ru11  1  0.503826  0.750226  0.253520  1
  Ru  Ru12  1  0.503294  0.249774  0.753600  1
  Ru  Ru13  1  0.746480  0.249774  0.496174  1
  Ru  Ru14  1  0.246400  0.750226  0.496706  1
  Ru  Ru15  1  0.250000  0.500000  0.750000  1
  Ru  Ru16  1  0.000000  0.000000  0.000000  1
