# generated using pymatgen
data_Ho16Zn3Co4Hg
_symmetry_space_group_name_H-M   'P 1'
_cell_length_a   9.31796044
_cell_length_b   9.32430689
_cell_length_c   9.31796100
_cell_angle_alpha   60.02250716
_cell_angle_beta   59.99999446
_cell_angle_gamma   60.02251105
_symmetry_Int_Tables_number   1
_chemical_formula_structural   Ho16Zn3Co4Hg
_chemical_formula_sum   'Ho16 Zn3 Co4 Hg1'
_cell_volume   572.65224523
_cell_formula_units_Z   1
loop_
 _symmetry_equiv_pos_site_id
 _symmetry_equiv_pos_as_xyz
  1  'x, y, z'
loop_
 _atom_site_type_symbol
 _atom_site_label
 _atom_site_symmetry_multiplicity
 _atom_site_fract_x
 _atom_site_fract_y
 _atom_site_fract_z
 _atom_site_occupancy
  Ho  Ho0  1  0.150516  0.548452  0.150516  1
  Ho  Ho1  1  0.689973  0.308508  0.689973  1
  Ho  Ho2  1  0.689973  0.308508  0.311545  1
  Ho  Ho3  1  0.938016  0.565302  0.558665  1
  Ho  Ho4  1  0.547223  0.150122  0.151327  1
  Ho  Ho5  1  0.151327  0.150122  0.547223  1
  Ho  Ho6  1  0.937246  0.937918  0.562418  1
  Ho  Ho7  1  0.309778  0.689853  0.309778  1
  Ho  Ho8  1  0.562418  0.937918  0.937246  1
  Ho  Ho9  1  0.562418  0.937918  0.562418  1
  Ho  Ho10  1  0.690591  0.689853  0.309778  1
  Ho  Ho11  1  0.558665  0.565302  0.938016  1
  Ho  Ho12  1  0.938016  0.565302  0.938016  1
  Ho  Ho13  1  0.309778  0.689853  0.690591  1
  Ho  Ho14  1  0.151327  0.150122  0.151327  1
  Ho  Ho15  1  0.311545  0.308508  0.689973  1
  Zn  Zn16  1  0.922209  0.918413  0.922209  1
  Zn  Zn17  1  0.922209  0.918413  0.237171  1
  Zn  Zn18  1  0.237171  0.918413  0.922209  1
  Co  Co19  1  0.358271  0.358517  0.924942  1
  Co  Co20  1  0.358727  0.923821  0.358727  1
  Co  Co21  1  0.924942  0.358517  0.358271  1
  Co  Co22  1  0.358271  0.358517  0.358271  1
  Hg  Hg23  1  0.919391  0.241827  0.919391  1
