# generated using pymatgen
data_Zr6Sc8Al8Os7
_symmetry_space_group_name_H-M   'P 1'
_cell_length_a   9.08004693
_cell_length_b   9.08004675
_cell_length_c   9.08004600
_cell_angle_alpha   59.99999545
_cell_angle_beta   59.99999610
_cell_angle_gamma   60.00000096
_symmetry_Int_Tables_number   1
_chemical_formula_structural   Zr6Sc8Al8Os7
_chemical_formula_sum   'Zr6 Sc8 Al8 Os7'
_cell_volume   529.35766277
_cell_formula_units_Z   1
loop_
 _symmetry_equiv_pos_site_id
 _symmetry_equiv_pos_as_xyz
  1  'x, y, z'
loop_
 _atom_site_type_symbol
 _atom_site_label
 _atom_site_symmetry_multiplicity
 _atom_site_fract_x
 _atom_site_fract_y
 _atom_site_fract_z
 _atom_site_occupancy
  Zr  Zr0  1  0.676141  0.676141  0.323859  1
  Zr  Zr1  1  0.323859  0.676141  0.323859  1
  Zr  Zr2  1  0.676141  0.323859  0.323859  1
  Zr  Zr3  1  0.323859  0.323859  0.676141  1
  Zr  Zr4  1  0.676141  0.323859  0.676141  1
  Zr  Zr5  1  0.323859  0.676141  0.676141  1
  Sc  Sc6  1  0.876019  0.876019  0.371943  1
  Sc  Sc7  1  0.876019  0.371943  0.876019  1
  Sc  Sc8  1  0.371943  0.876019  0.876019  1
  Sc  Sc9  1  0.876019  0.876019  0.876019  1
  Sc  Sc10  1  0.123981  0.123981  0.628057  1
  Sc  Sc11  1  0.123981  0.628057  0.123981  1
  Sc  Sc12  1  0.628057  0.123981  0.123981  1
  Sc  Sc13  1  0.123981  0.123981  0.123981  1
  Al  Al14  1  0.661603  0.661603  0.015189  1
  Al  Al15  1  0.661603  0.015189  0.661603  1
  Al  Al16  1  0.015189  0.661603  0.661603  1
  Al  Al17  1  0.661603  0.661603  0.661603  1
  Al  Al18  1  0.338397  0.338397  0.984811  1
  Al  Al19  1  0.338397  0.984811  0.338397  1
  Al  Al20  1  0.984811  0.338397  0.338397  1
  Al  Al21  1  0.338397  0.338397  0.338397  1
  Os  Os22  1  0.000000  0.000000  0.000000  1
  Os  Os23  1  0.000000  0.000000  0.500000  1
  Os  Os24  1  0.500000  0.000000  0.500000  1
  Os  Os25  1  0.000000  0.500000  0.500000  1
  Os  Os26  1  0.500000  0.500000  0.000000  1
  Os  Os27  1  0.000000  0.500000  0.000000  1
  Os  Os28  1  0.500000  0.000000  0.000000  1
