# generated using pymatgen
data_La7Re4C9
_symmetry_space_group_name_H-M   'P 1'
_cell_length_a   6.63223859
_cell_length_b   6.63223847
_cell_length_c   12.16275439
_cell_angle_alpha   70.92643000
_cell_angle_beta   70.92642961
_cell_angle_gamma   48.07986440
_symmetry_Int_Tables_number   1
_chemical_formula_structural   La7Re4C9
_chemical_formula_sum   'La7 Re4 C9'
_cell_volume   371.72325285
_cell_formula_units_Z   1
loop_
 _symmetry_equiv_pos_site_id
 _symmetry_equiv_pos_as_xyz
  1  'x, y, z'
loop_
 _atom_site_type_symbol
 _atom_site_label
 _atom_site_symmetry_multiplicity
 _atom_site_fract_x
 _atom_site_fract_y
 _atom_site_fract_z
 _atom_site_occupancy
  La  La0  1  0.371893  0.371893  0.842783  1
  La  La1  1  0.144819  0.144819  0.682532  1
  La  La2  1  0.855181  0.855181  0.317468  1
  La  La3  1  0.136902  0.136902  0.381107  1
  La  La4  1  0.863098  0.863098  0.618893  1
  La  La5  1  0.000000  0.000000  0.000000  1
  La  La6  1  0.628107  0.628107  0.157217  1
  Re  Re7  1  0.357406  0.357406  0.141186  1
  Re  Re8  1  0.567344  0.567344  0.569496  1
  Re  Re9  1  0.432656  0.432656  0.430504  1
  Re  Re10  1  0.642594  0.642594  0.858814  1
  C  C11  1  0.384101  0.384101  0.290696  1
  C  C12  1  0.922947  0.922947  0.818141  1
  C  C13  1  0.393438  0.393438  0.611580  1
  C  C14  1  0.194575  0.194575  0.143701  1
  C  C15  1  0.805425  0.805425  0.856299  1
  C  C16  1  0.500000  0.500000  0.000000  1
  C  C17  1  0.077053  0.077053  0.181859  1
  C  C18  1  0.615899  0.615899  0.709304  1
  C  C19  1  0.606562  0.606562  0.388420  1
