# generated using pymatgen
data_Er8Lu4Co4SnRu
_symmetry_space_group_name_H-M   'P 1'
_cell_length_a   8.18402738
_cell_length_b   8.18402669
_cell_length_c   8.18402750
_cell_angle_alpha   111.44749593
_cell_angle_beta   110.69097422
_cell_angle_gamma   106.32133487
_symmetry_Int_Tables_number   1
_chemical_formula_structural   Er8Lu4Co4SnRu
_chemical_formula_sum   'Er8 Lu4 Co4 Sn1 Ru1'
_cell_volume   420.99851025
_cell_formula_units_Z   1
loop_
 _symmetry_equiv_pos_site_id
 _symmetry_equiv_pos_as_xyz
  1  'x, y, z'
loop_
 _atom_site_type_symbol
 _atom_site_label
 _atom_site_symmetry_multiplicity
 _atom_site_fract_x
 _atom_site_fract_y
 _atom_site_fract_z
 _atom_site_occupancy
  Er  Er0  1  0.414736  0.219809  0.194925  1
  Er  Er1  1  0.585264  0.780191  0.805075  1
  Er  Er2  1  0.024883  0.219809  0.805075  1
  Er  Er3  1  0.975117  0.780191  0.194925  1
  Er  Er4  1  0.184011  0.282422  0.466433  1
  Er  Er5  1  0.815989  0.717578  0.533567  1
  Er  Er6  1  0.184011  0.717578  0.901589  1
  Er  Er7  1  0.815989  0.282422  0.098411  1
  Lu  Lu8  1  0.314071  0.622231  0.308160  1
  Lu  Lu9  1  0.685929  0.377769  0.691840  1
  Lu  Lu10  1  0.314071  0.005911  0.691840  1
  Lu  Lu11  1  0.685929  0.994089  0.308160  1
  Co  Co12  1  0.376112  0.000000  0.376112  1
  Co  Co13  1  0.623888  0.000000  0.623888  1
  Co  Co14  1  0.112358  0.612358  0.500000  1
  Co  Co15  1  0.887642  0.387642  0.500000  1
  Sn  Sn16  1  0.500000  0.500000  0.000000  1
  Ru  Ru17  1  0.000000  0.000000  0.000000  1
