# generated using pymatgen
data_Nd3Ag(Pd2O7)2
_symmetry_space_group_name_H-M   'P 1'
_cell_length_a   7.31323749
_cell_length_b   7.31323848
_cell_length_c   7.31323700
_cell_angle_alpha   61.39169844
_cell_angle_beta   61.39170312
_cell_angle_gamma   61.39169914
_symmetry_Int_Tables_number   1
_chemical_formula_structural   Nd3Ag(Pd2O7)2
_chemical_formula_sum   'Nd3 Ag1 Pd4 O14'
_cell_volume   285.22251586
_cell_formula_units_Z   1
loop_
 _symmetry_equiv_pos_site_id
 _symmetry_equiv_pos_as_xyz
  1  'x, y, z'
loop_
 _atom_site_type_symbol
 _atom_site_label
 _atom_site_symmetry_multiplicity
 _atom_site_fract_x
 _atom_site_fract_y
 _atom_site_fract_z
 _atom_site_occupancy
  Nd  Nd0  1  0.625000  0.625000  0.125000  1
  Nd  Nd1  1  0.625000  0.125000  0.625000  1
  Nd  Nd2  1  0.125000  0.625000  0.625000  1
  Ag  Ag3  1  0.625000  0.625000  0.625000  1
  Pd  Pd4  1  0.125000  0.125000  0.625000  1
  Pd  Pd5  1  0.125000  0.625000  0.125000  1
  Pd  Pd6  1  0.625000  0.125000  0.125000  1
  Pd  Pd7  1  0.125000  0.125000  0.125000  1
  O  O8  1  0.509418  0.509418  0.509418  1
  O  O9  1  0.740582  0.740582  0.740582  1
  O  O10  1  0.453142  0.053063  0.453142  1
  O  O11  1  0.212827  0.789820  0.212827  1
  O  O12  1  0.453142  0.453142  0.053063  1
  O  O13  1  0.053063  0.453142  0.453142  1
  O  O14  1  0.460180  0.037173  0.037173  1
  O  O15  1  0.037173  0.037173  0.460180  1
  O  O16  1  0.037173  0.460180  0.037173  1
  O  O17  1  0.789820  0.212827  0.212827  1
  O  O18  1  0.196937  0.796858  0.796858  1
  O  O19  1  0.796858  0.196937  0.796858  1
  O  O20  1  0.212827  0.212827  0.789820  1
  O  O21  1  0.796858  0.796858  0.196937  1
