# generated using pymatgen
data_Ba4TbReWO12
_symmetry_space_group_name_H-M   'P 1'
_cell_length_a   10.17255474
_cell_length_b   10.17255492
_cell_length_c   10.17255530
_cell_angle_alpha   33.91363246
_cell_angle_beta   33.91362867
_cell_angle_gamma   33.91362789
_symmetry_Int_Tables_number   1
_chemical_formula_structural   Ba4TbReWO12
_chemical_formula_sum   'Ba4 Tb1 Re1 W1 O12'
_cell_volume   292.05707566
_cell_formula_units_Z   1
loop_
 _symmetry_equiv_pos_site_id
 _symmetry_equiv_pos_as_xyz
  1  'x, y, z'
loop_
 _atom_site_type_symbol
 _atom_site_label
 _atom_site_symmetry_multiplicity
 _atom_site_fract_x
 _atom_site_fract_y
 _atom_site_fract_z
 _atom_site_occupancy
  Ba  Ba0  1  0.709239  0.709239  0.709239  1
  Ba  Ba1  1  0.286584  0.286584  0.286584  1
  Ba  Ba2  1  0.868544  0.868544  0.868544  1
  Ba  Ba3  1  0.137963  0.137963  0.137963  1
  Tb  Tb4  1  0.999948  0.999948  0.999948  1
  Re  Re5  1  0.421377  0.421377  0.421377  1
  W  W6  1  0.578114  0.578114  0.578114  1
  O  O7  1  0.385442  0.385442  0.863225  1
  O  O8  1  0.863225  0.385442  0.385442  1
  O  O9  1  0.385442  0.863225  0.385442  1
  O  O10  1  0.608364  0.608364  0.144653  1
  O  O11  1  0.144653  0.608364  0.608364  1
  O  O12  1  0.608364  0.144653  0.608364  1
  O  O13  1  0.227032  0.227032  0.681855  1
  O  O14  1  0.681855  0.227032  0.227032  1
  O  O15  1  0.227032  0.681855  0.227032  1
  O  O16  1  0.777217  0.777217  0.312387  1
  O  O17  1  0.312387  0.777217  0.777217  1
  O  O18  1  0.777217  0.312387  0.777217  1
