# generated using pymatgen
data_Tm3Lu2(GaSb)2
_symmetry_space_group_name_H-M   'P 1'
_cell_length_a   8.50996349
_cell_length_b   8.50996333
_cell_length_c   7.80295902
_cell_angle_alpha   89.99274002
_cell_angle_beta   90.00725925
_cell_angle_gamma   125.46996410
_symmetry_Int_Tables_number   1
_chemical_formula_structural   Tm3Lu2(GaSb)2
_chemical_formula_sum   'Tm6 Lu4 Ga4 Sb4'
_cell_volume   460.21741066
_cell_formula_units_Z   2
loop_
 _symmetry_equiv_pos_site_id
 _symmetry_equiv_pos_as_xyz
  1  'x, y, z'
loop_
 _atom_site_type_symbol
 _atom_site_label
 _atom_site_symmetry_multiplicity
 _atom_site_fract_x
 _atom_site_fract_y
 _atom_site_fract_z
 _atom_site_occupancy
  Tm  Tm0  1  0.202557  0.461045  0.833096  1
  Tm  Tm1  1  0.961045  0.702557  0.666904  1
  Tm  Tm2  1  0.702451  0.960925  0.667149  1
  Tm  Tm3  1  0.460925  0.202451  0.832851  1
  Tm  Tm4  1  0.797601  0.539036  0.167166  1
  Tm  Tm5  1  0.039036  0.297601  0.332834  1
  Lu  Lu6  1  0.539086  0.796945  0.166776  1
  Lu  Lu7  1  0.296945  0.039086  0.333224  1
  Lu  Lu8  1  0.499881  0.499887  0.499571  1
  Lu  Lu9  1  0.999887  0.999881  0.000429  1
  Ga  Ga10  1  0.627137  0.627420  0.873384  1
  Ga  Ga11  1  0.127420  0.127137  0.626616  1
  Ga  Ga12  1  0.872946  0.872993  0.372403  1
  Ga  Ga13  1  0.372993  0.372946  0.127597  1
  Sb  Sb14  1  0.294733  0.706356  0.499254  1
  Sb  Sb15  1  0.206356  0.794733  0.000746  1
  Sb  Sb16  1  0.705072  0.293931  0.499714  1
  Sb  Sb17  1  0.793931  0.205072  0.000286  1
