# generated using pymatgen
data_Lu9ScIr6
_symmetry_space_group_name_H-M   'P 1'
_cell_length_a   6.19836900
_cell_length_b   10.63476800
_cell_length_c   10.63476800
_cell_angle_alpha   90.00000000
_cell_angle_beta   90.00000000
_cell_angle_gamma   90.00000000
_symmetry_Int_Tables_number   1
_chemical_formula_structural   Lu9ScIr6
_chemical_formula_sum   'Lu18 Sc2 Ir12'
_cell_volume   701.02493725
_cell_formula_units_Z   2
loop_
 _symmetry_equiv_pos_site_id
 _symmetry_equiv_pos_as_xyz
  1  'x, y, z'
loop_
 _atom_site_type_symbol
 _atom_site_label
 _atom_site_symmetry_multiplicity
 _atom_site_fract_x
 _atom_site_fract_y
 _atom_site_fract_z
 _atom_site_occupancy
  Lu  Lu0  1  0.372572  0.836561  0.541835  1
  Lu  Lu1  1  0.872572  0.663439  0.541835  1
  Lu  Lu2  1  0.872572  0.836561  0.958165  1
  Lu  Lu3  1  0.372572  0.663439  0.958165  1
  Lu  Lu4  1  0.873905  0.537790  0.835195  1
  Lu  Lu5  1  0.373905  0.962210  0.835195  1
  Lu  Lu6  1  0.373905  0.537790  0.664805  1
  Lu  Lu7  1  0.873905  0.962210  0.664805  1
  Lu  Lu8  1  0.626095  0.164805  0.462211  1
  Lu  Lu9  1  0.126095  0.335195  0.462211  1
  Lu  Lu10  1  0.126095  0.164805  0.037790  1
  Lu  Lu11  1  0.626095  0.335195  0.037790  1
  Lu  Lu12  1  0.127428  0.458166  0.163439  1
  Lu  Lu13  1  0.627428  0.041835  0.163439  1
  Lu  Lu14  1  0.627428  0.458166  0.336561  1
  Lu  Lu15  1  0.127428  0.041835  0.336561  1
  Lu  Lu16  1  0.500000  0.750000  0.250000  1
  Lu  Lu17  1  0.000000  0.750000  0.250000  1
  Sc  Sc18  1  0.000000  0.250000  0.750000  1
  Sc  Sc19  1  0.500000  0.250000  0.750000  1
  Ir  Ir20  1  0.250000  0.905041  0.094959  1
  Ir  Ir21  1  0.750000  0.594959  0.094959  1
  Ir  Ir22  1  0.750000  0.905041  0.405041  1
  Ir  Ir23  1  0.250000  0.594959  0.405041  1
  Ir  Ir24  1  0.750000  0.100213  0.899787  1
  Ir  Ir25  1  0.250000  0.399787  0.899787  1
  Ir  Ir26  1  0.250000  0.100213  0.600213  1
  Ir  Ir27  1  0.750000  0.399787  0.600213  1
  Ir  Ir28  1  0.117361  0.750000  0.750000  1
  Ir  Ir29  1  0.617361  0.750000  0.750000  1
  Ir  Ir30  1  0.882639  0.250000  0.250000  1
  Ir  Ir31  1  0.382639  0.250000  0.250000  1
