# generated using pymatgen
data_Y4Be2(SiRh3)3
_symmetry_space_group_name_H-M   'P 1'
_cell_length_a   11.39264954
_cell_length_b   11.39264975
_cell_length_c   11.39264919
_cell_angle_alpha   28.11705615
_cell_angle_beta   28.11705586
_cell_angle_gamma   28.11705932
_symmetry_Int_Tables_number   1
_chemical_formula_structural   Y4Be2(SiRh3)3
_chemical_formula_sum   'Y4 Be2 Si3 Rh9'
_cell_volume   290.11649771
_cell_formula_units_Z   1
loop_
 _symmetry_equiv_pos_site_id
 _symmetry_equiv_pos_as_xyz
  1  'x, y, z'
loop_
 _atom_site_type_symbol
 _atom_site_label
 _atom_site_symmetry_multiplicity
 _atom_site_fract_x
 _atom_site_fract_y
 _atom_site_fract_z
 _atom_site_occupancy
  Y  Y0  1  0.948976  0.948976  0.948976  1
  Y  Y1  1  0.850434  0.850434  0.850434  1
  Y  Y2  1  0.148294  0.148294  0.148294  1
  Y  Y3  1  0.050110  0.050110  0.050110  1
  Be  Be4  1  0.279340  0.279340  0.279340  1
  Be  Be5  1  0.387549  0.387549  0.387549  1
  Si  Si6  1  0.501164  0.501164  0.501164  1
  Si  Si7  1  0.720461  0.720461  0.720461  1
  Si  Si8  1  0.613020  0.613020  0.613020  1
  Rh  Rh9  1  0.604913  0.604913  0.112022  1
  Rh  Rh10  1  0.898140  0.390136  0.390136  1
  Rh  Rh11  1  0.496839  0.006715  0.496839  1
  Rh  Rh12  1  0.390136  0.898140  0.390136  1
  Rh  Rh13  1  0.496839  0.496839  0.006715  1
  Rh  Rh14  1  0.112022  0.604913  0.604913  1
  Rh  Rh15  1  0.006715  0.496839  0.496839  1
  Rh  Rh16  1  0.390136  0.390136  0.898140  1
  Rh  Rh17  1  0.604913  0.112022  0.604913  1
