# generated using pymatgen
data_Tl2OF4
_symmetry_space_group_name_H-M   'P 1'
_cell_length_a   6.79899016
_cell_length_b   6.79899016
_cell_length_c   5.78613103
_cell_angle_alpha   81.57870887
_cell_angle_beta   81.57871041
_cell_angle_gamma   46.33141544
_symmetry_Int_Tables_number   1
_chemical_formula_structural   Tl2OF4
_chemical_formula_sum   'Tl4 O2 F8'
_cell_volume   191.00376384
_cell_formula_units_Z   2
loop_
 _symmetry_equiv_pos_site_id
 _symmetry_equiv_pos_as_xyz
  1  'x, y, z'
loop_
 _atom_site_type_symbol
 _atom_site_label
 _atom_site_symmetry_multiplicity
 _atom_site_fract_x
 _atom_site_fract_y
 _atom_site_fract_z
 _atom_site_occupancy
  Tl  Tl0  1  0.102842  0.678694  0.577021  1
  Tl  Tl1  1  0.678694  0.102842  0.077021  1
  Tl  Tl2  1  0.321306  0.897158  0.922979  1
  Tl  Tl3  1  0.897158  0.321306  0.422979  1
  O  O4  1  0.963639  0.036361  0.750000  1
  O  O5  1  0.036361  0.963639  0.250000  1
  F  F6  1  0.316840  0.501293  0.921955  1
  F  F7  1  0.501293  0.316840  0.421955  1
  F  F8  1  0.687213  0.871429  0.819918  1
  F  F9  1  0.871429  0.687213  0.319918  1
  F  F10  1  0.128571  0.312787  0.680082  1
  F  F11  1  0.312787  0.128571  0.180082  1
  F  F12  1  0.498707  0.683160  0.578045  1
  F  F13  1  0.683160  0.498707  0.078045  1
