# generated using pymatgen
data_Gd7Hf3(ZnSb3)2
_symmetry_space_group_name_H-M   'P 1'
_cell_length_a   9.10046900
_cell_length_b   9.10046896
_cell_length_c   6.18390900
_cell_angle_alpha   90.00000000
_cell_angle_beta   90.00000000
_cell_angle_gamma   120.00000380
_symmetry_Int_Tables_number   1
_chemical_formula_structural   Gd7Hf3(ZnSb3)2
_chemical_formula_sum   'Gd7 Hf3 Zn2 Sb6'
_cell_volume   443.52821456
_cell_formula_units_Z   1
loop_
 _symmetry_equiv_pos_site_id
 _symmetry_equiv_pos_as_xyz
  1  'x, y, z'
loop_
 _atom_site_type_symbol
 _atom_site_label
 _atom_site_symmetry_multiplicity
 _atom_site_fract_x
 _atom_site_fract_y
 _atom_site_fract_z
 _atom_site_occupancy
  Gd  Gd0  1  0.728787  0.728131  0.250028  1
  Gd  Gd1  1  0.728955  0.002363  0.750246  1
  Gd  Gd2  1  0.998635  0.271809  0.249843  1
  Gd  Gd3  1  0.000169  0.726678  0.750112  1
  Gd  Gd4  1  0.271450  0.271580  0.750572  1
  Gd  Gd5  1  0.273489  0.000860  0.249635  1
  Gd  Gd6  1  0.333072  0.666536  0.500936  1
  Hf  Hf7  1  0.666308  0.332883  0.999317  1
  Hf  Hf8  1  0.666408  0.332975  0.500609  1
  Hf  Hf9  1  0.333390  0.665531  0.999261  1
  Zn  Zn10  1  0.999127  0.000886  0.998665  1
  Zn  Zn11  1  0.999136  0.000934  0.501214  1
  Sb  Sb12  1  0.387403  0.004937  0.753690  1
  Sb  Sb13  1  0.387109  0.382535  0.246092  1
  Sb  Sb14  1  0.996207  0.612615  0.246125  1
  Sb  Sb15  1  0.996868  0.382796  0.753778  1
  Sb  Sb16  1  0.616312  0.611652  0.753714  1
  Sb  Sb17  1  0.617175  0.004299  0.246163  1
