# generated using pymatgen
data_Ho6CrCo16NiP12
_symmetry_space_group_name_H-M   'P 1'
_cell_length_a   3.68518300
_cell_length_b   10.48822600
_cell_length_c   12.16762100
_cell_angle_alpha   90.00000000
_cell_angle_beta   90.00000000
_cell_angle_gamma   90.00000000
_symmetry_Int_Tables_number   1
_chemical_formula_structural   Ho6CrCo16NiP12
_chemical_formula_sum   'Ho6 Cr1 Co16 Ni1 P12'
_cell_volume   470.29111053
_cell_formula_units_Z   1
loop_
 _symmetry_equiv_pos_site_id
 _symmetry_equiv_pos_as_xyz
  1  'x, y, z'
loop_
 _atom_site_type_symbol
 _atom_site_label
 _atom_site_symmetry_multiplicity
 _atom_site_fract_x
 _atom_site_fract_y
 _atom_site_fract_z
 _atom_site_occupancy
  Ho  Ho0  1  0.000000  0.500000  0.521697  1
  Ho  Ho1  1  0.500000  0.000000  0.477486  1
  Ho  Ho2  1  0.500000  0.817453  0.206320  1
  Ho  Ho3  1  0.500000  0.182547  0.206320  1
  Ho  Ho4  1  0.000000  0.683620  0.795983  1
  Ho  Ho5  1  0.000000  0.316380  0.795983  1
  Cr  Cr6  1  0.500000  0.500000  0.156287  1
  Co  Co7  1  0.000000  0.500000  0.987546  1
  Co  Co8  1  0.500000  0.000000  0.014545  1
  Co  Co9  1  0.500000  0.296993  0.430724  1
  Co  Co10  1  0.500000  0.703007  0.430724  1
  Co  Co11  1  0.000000  0.202758  0.568754  1
  Co  Co12  1  0.000000  0.797242  0.568754  1
  Co  Co13  1  0.500000  0.878720  0.709186  1
  Co  Co14  1  0.500000  0.121280  0.709186  1
  Co  Co15  1  0.000000  0.620516  0.290900  1
  Co  Co16  1  0.000000  0.379484  0.290900  1
  Co  Co17  1  0.500000  0.332907  0.993144  1
  Co  Co18  1  0.500000  0.667093  0.993144  1
  Co  Co19  1  0.000000  0.166945  0.006107  1
  Co  Co20  1  0.000000  0.833055  0.006107  1
  Co  Co21  1  0.000000  0.000000  0.839968  1
  Co  Co22  1  0.000000  0.000000  0.296593  1
  Ni  Ni23  1  0.500000  0.500000  0.702546  1
  P  P24  1  0.500000  0.310302  0.615678  1
  P  P25  1  0.500000  0.689698  0.615678  1
  P  P26  1  0.000000  0.188453  0.383854  1
  P  P27  1  0.000000  0.811547  0.383854  1
  P  P28  1  0.500000  0.500000  0.882666  1
  P  P29  1  0.000000  0.000000  0.117686  1
  P  P30  1  0.500000  0.848721  0.892541  1
  P  P31  1  0.500000  0.151279  0.892541  1
  P  P32  1  0.000000  0.653678  0.107385  1
  P  P33  1  0.000000  0.346322  0.107385  1
  P  P34  1  0.500000  0.500000  0.346162  1
  P  P35  1  0.000000  0.000000  0.655663  1
