# generated using pymatgen
data_Tb4Er2Al17Si7Os8
_symmetry_space_group_name_H-M   'P 1'
_cell_length_a   8.70597201
_cell_length_b   8.69546784
_cell_length_c   9.49110500
_cell_angle_alpha   90.00000000
_cell_angle_beta   90.00000000
_cell_angle_gamma   120.09740011
_symmetry_Int_Tables_number   1
_chemical_formula_structural   Tb4Er2Al17Si7Os8
_chemical_formula_sum   'Tb4 Er2 Al17 Si7 Os8'
_cell_volume   621.62796781
_cell_formula_units_Z   1
loop_
 _symmetry_equiv_pos_site_id
 _symmetry_equiv_pos_as_xyz
  1  'x, y, z'
loop_
 _atom_site_type_symbol
 _atom_site_label
 _atom_site_symmetry_multiplicity
 _atom_site_fract_x
 _atom_site_fract_y
 _atom_site_fract_z
 _atom_site_occupancy
  Tb  Tb0  1  0.192555  0.387395  0.250000  1
  Tb  Tb1  1  0.807593  0.615209  0.750000  1
  Tb  Tb2  1  0.387012  0.190854  0.750000  1
  Tb  Tb3  1  0.803336  0.191347  0.750000  1
  Er  Er4  1  0.609744  0.806746  0.250000  1
  Er  Er5  1  0.196436  0.804788  0.250000  1
  Al  Al6  1  0.164466  0.329769  0.578187  1
  Al  Al7  1  0.834260  0.671275  0.420939  1
  Al  Al8  1  0.671089  0.834832  0.577358  1
  Al  Al9  1  0.834260  0.671275  0.079061  1
  Al  Al10  1  0.329836  0.165807  0.422222  1
  Al  Al11  1  0.164466  0.329769  0.921813  1
  Al  Al12  1  0.163691  0.834234  0.576407  1
  Al  Al13  1  0.329836  0.165807  0.077778  1
  Al  Al14  1  0.835174  0.163980  0.421490  1
  Al  Al15  1  0.671089  0.834832  0.922642  1
  Al  Al16  1  0.835174  0.163980  0.078510  1
  Al  Al17  1  0.163691  0.834234  0.923593  1
  Al  Al18  1  0.126243  0.565935  0.750000  1
  Al  Al19  1  0.565107  0.435356  0.250000  1
  Al  Al20  1  0.438624  0.566740  0.750000  1
  Al  Al21  1  0.998986  0.998162  0.250000  1
  Al  Al22  1  0.000056  0.000915  0.750000  1
  Si  Si23  1  0.333736  0.665375  0.039102  1
  Si  Si24  1  0.666583  0.335891  0.961149  1
  Si  Si25  1  0.666583  0.335891  0.538851  1
  Si  Si26  1  0.333736  0.665375  0.460898  1
  Si  Si27  1  0.564568  0.123792  0.250000  1
  Si  Si28  1  0.436251  0.872753  0.750000  1
  Si  Si29  1  0.874479  0.435100  0.250000  1
  Os  Os30  1  0.500676  0.000579  0.001668  1
  Os  Os31  1  0.998858  0.499861  0.006966  1
  Os  Os32  1  0.500676  0.000579  0.498332  1
  Os  Os33  1  0.500669  0.500549  0.000793  1
  Os  Os34  1  0.998858  0.499861  0.493034  1
  Os  Os35  1  0.500669  0.500549  0.499207  1
  Os  Os36  1  0.000465  0.000304  0.000239  1
  Os  Os37  1  0.000465  0.000304  0.499761  1
