# generated using pymatgen
data_Cs2Sn(ICl)2
_symmetry_space_group_name_H-M   'P 1'
_cell_length_a   10.54020895
_cell_length_b   10.54020902
_cell_length_c   8.04593700
_cell_angle_alpha   90.00000000
_cell_angle_beta   90.00000000
_cell_angle_gamma   135.04900897
_symmetry_Int_Tables_number   1
_chemical_formula_structural   Cs2Sn(ICl)2
_chemical_formula_sum   'Cs4 Sn2 I4 Cl4'
_cell_volume   631.52169444
_cell_formula_units_Z   2
loop_
 _symmetry_equiv_pos_site_id
 _symmetry_equiv_pos_as_xyz
  1  'x, y, z'
loop_
 _atom_site_type_symbol
 _atom_site_label
 _atom_site_symmetry_multiplicity
 _atom_site_fract_x
 _atom_site_fract_y
 _atom_site_fract_z
 _atom_site_occupancy
  Cs  Cs0  1  0.129731  0.870269  0.500000  1
  Cs  Cs1  1  0.870269  0.129731  0.500000  1
  Cs  Cs2  1  0.370269  0.629731  0.000000  1
  Cs  Cs3  1  0.629731  0.370269  0.000000  1
  Sn  Sn4  1  0.500000  0.500000  0.500000  1
  Sn  Sn5  1  0.000000  0.000000  0.000000  1
  I  I6  1  0.336385  0.663615  0.500000  1
  I  I7  1  0.663615  0.336385  0.500000  1
  I  I8  1  0.163615  0.836385  0.000000  1
  I  I9  1  0.836385  0.163615  0.000000  1
  Cl  Cl10  1  0.750174  0.750174  0.749818  1
  Cl  Cl11  1  0.249826  0.249826  0.250182  1
  Cl  Cl12  1  0.749826  0.749826  0.249818  1
  Cl  Cl13  1  0.250174  0.250174  0.750182  1
