# generated using pymatgen
data_Dy5In4NiAg
_symmetry_space_group_name_H-M   'P 1'
_cell_length_a   3.59028500
_cell_length_b   8.16373000
_cell_length_c   18.30836800
_cell_angle_alpha   90.00000000
_cell_angle_beta   90.00000000
_cell_angle_gamma   90.00000000
_symmetry_Int_Tables_number   1
_chemical_formula_structural   Dy5In4NiAg
_chemical_formula_sum   'Dy10 In8 Ni2 Ag2'
_cell_volume   536.62041481
_cell_formula_units_Z   2
loop_
 _symmetry_equiv_pos_site_id
 _symmetry_equiv_pos_as_xyz
  1  'x, y, z'
loop_
 _atom_site_type_symbol
 _atom_site_label
 _atom_site_symmetry_multiplicity
 _atom_site_fract_x
 _atom_site_fract_y
 _atom_site_fract_z
 _atom_site_occupancy
  Dy  Dy0  1  0.500000  0.382952  0.586762  1
  Dy  Dy1  1  0.500000  0.877643  0.923158  1
  Dy  Dy2  1  0.500000  0.117048  0.086762  1
  Dy  Dy3  1  0.500000  0.734782  0.716066  1
  Dy  Dy4  1  0.500000  0.280040  0.776816  1
  Dy  Dy5  1  0.500000  0.497771  0.000015  1
  Dy  Dy6  1  0.500000  0.765218  0.216066  1
  Dy  Dy7  1  0.500000  0.219960  0.276816  1
  Dy  Dy8  1  0.500000  0.002229  0.500015  1
  Dy  Dy9  1  0.500000  0.622357  0.423158  1
  In  In10  1  0.000000  0.792373  0.068818  1
  In  In11  1  0.000000  0.921519  0.349944  1
  In  In12  1  0.000000  0.075641  0.649461  1
  In  In13  1  0.000000  0.578481  0.849944  1
  In  In14  1  0.000000  0.707627  0.568818  1
  In  In15  1  0.000000  0.207459  0.931702  1
  In  In16  1  0.000000  0.292541  0.431702  1
  In  In17  1  0.000000  0.424359  0.149461  1
  Ni  Ni18  1  0.000000  0.472789  0.695759  1
  Ni  Ni19  1  0.000000  0.027211  0.195759  1
  Ag  Ag20  1  0.000000  0.973133  0.801498  1
  Ag  Ag21  1  0.000000  0.526867  0.301498  1
