# generated using pymatgen
data_CsMn2CrS6
_symmetry_space_group_name_H-M   'P 1'
_cell_length_a   9.01200092
_cell_length_b   9.01200014
_cell_length_c   9.01200000
_cell_angle_alpha   37.34705124
_cell_angle_beta   37.34705769
_cell_angle_gamma   37.34705700
_symmetry_Int_Tables_number   1
_chemical_formula_structural   CsMn2CrS6
_chemical_formula_sum   'Cs1 Mn2 Cr1 S6'
_cell_volume   241.49885279
_cell_formula_units_Z   1
loop_
 _symmetry_equiv_pos_site_id
 _symmetry_equiv_pos_as_xyz
  1  'x, y, z'
loop_
 _atom_site_type_symbol
 _atom_site_label
 _atom_site_symmetry_multiplicity
 _atom_site_fract_x
 _atom_site_fract_y
 _atom_site_fract_z
 _atom_site_occupancy
  Cs  Cs0  1  0.000062  0.000062  0.000062  1
  Mn  Mn1  1  0.500412  0.500412  0.500412  1
  Mn  Mn2  1  0.833672  0.833672  0.833672  1
  Cr  Cr3  1  0.165887  0.165887  0.165887  1
  S  S4  1  0.554676  0.221538  0.882797  1
  S  S5  1  0.882797  0.554676  0.221538  1
  S  S6  1  0.221538  0.882797  0.554676  1
  S  S7  1  0.770348  0.113956  0.456655  1
  S  S8  1  0.113956  0.456655  0.770348  1
  S  S9  1  0.456655  0.770348  0.113956  1
