# generated using pymatgen
data_HoNp2(InPt)3
_symmetry_space_group_name_H-M   'P 1'
_cell_length_a   7.63799275
_cell_length_b   7.65109197
_cell_length_c   3.97064200
_cell_angle_alpha   90.00000000
_cell_angle_beta   90.00000000
_cell_angle_gamma   120.05674838
_symmetry_Int_Tables_number   1
_chemical_formula_structural   HoNp2(InPt)3
_chemical_formula_sum   'Ho1 Np2 In3 Pt3'
_cell_volume   200.83777390
_cell_formula_units_Z   1
loop_
 _symmetry_equiv_pos_site_id
 _symmetry_equiv_pos_as_xyz
  1  'x, y, z'
loop_
 _atom_site_type_symbol
 _atom_site_label
 _atom_site_symmetry_multiplicity
 _atom_site_fract_x
 _atom_site_fract_y
 _atom_site_fract_z
 _atom_site_occupancy
  Ho  Ho0  1  0.000000  0.595264  0.500000  1
  Np  Np1  1  0.586563  0.992998  0.500000  1
  Np  Np2  1  0.413437  0.406435  0.500000  1
  In  In3  1  0.749940  0.743448  0.000000  1
  In  In4  1  0.000000  0.264017  0.000000  1
  In  In5  1  0.250060  0.993508  0.000000  1
  Pt  Pt6  1  0.340941  0.668628  0.000000  1
  Pt  Pt7  1  0.659059  0.327686  0.000000  1
  Pt  Pt8  1  0.000000  0.008016  0.500000  1
