# generated using pymatgen
data_Dy11In(NiHg2)4
_symmetry_space_group_name_H-M   'P 1'
_cell_length_a   3.63038600
_cell_length_b   12.87882225
_cell_length_c   12.87882217
_cell_angle_alpha   112.22329360
_cell_angle_beta   90.00000000
_cell_angle_gamma   90.00000000
_symmetry_Int_Tables_number   1
_chemical_formula_structural   Dy11In(NiHg2)4
_chemical_formula_sum   'Dy11 In1 Ni4 Hg8'
_cell_volume   557.42095410
_cell_formula_units_Z   1
loop_
 _symmetry_equiv_pos_site_id
 _symmetry_equiv_pos_as_xyz
  1  'x, y, z'
loop_
 _atom_site_type_symbol
 _atom_site_label
 _atom_site_symmetry_multiplicity
 _atom_site_fract_x
 _atom_site_fract_y
 _atom_site_fract_z
 _atom_site_occupancy
  Dy  Dy0  1  0.000000  0.917516  0.582575  1
  Dy  Dy1  1  0.000000  0.082484  0.417425  1
  Dy  Dy2  1  0.000000  0.582575  0.917516  1
  Dy  Dy3  1  0.000000  0.417425  0.082484  1
  Dy  Dy4  1  0.000000  0.165681  0.834319  1
  Dy  Dy5  1  0.000000  0.834319  0.165681  1
  Dy  Dy6  1  0.000000  0.371644  0.628356  1
  Dy  Dy7  1  0.000000  0.628356  0.371644  1
  Dy  Dy8  1  0.000000  0.691916  0.691916  1
  Dy  Dy9  1  0.000000  0.308084  0.308084  1
  Dy  Dy10  1  0.000000  0.000000  0.000000  1
  In  In11  1  0.500000  0.500000  0.500000  1
  Ni  Ni12  1  0.500000  0.747011  0.549103  1
  Ni  Ni13  1  0.500000  0.252989  0.450897  1
  Ni  Ni14  1  0.500000  0.549103  0.747011  1
  Ni  Ni15  1  0.500000  0.450897  0.252989  1
  Hg  Hg16  1  0.500000  0.154368  0.629903  1
  Hg  Hg17  1  0.500000  0.845632  0.370097  1
  Hg  Hg18  1  0.500000  0.629903  0.154368  1
  Hg  Hg19  1  0.500000  0.370097  0.845632  1
  Hg  Hg20  1  0.500000  0.928662  0.781243  1
  Hg  Hg21  1  0.500000  0.071338  0.218757  1
  Hg  Hg22  1  0.500000  0.781243  0.928662  1
  Hg  Hg23  1  0.500000  0.218757  0.071338  1
