# generated using pymatgen
data_La12Nd4Cd4TcPt3
_symmetry_space_group_name_H-M   'P 1'
_cell_length_a   10.18630405
_cell_length_b   10.19813052
_cell_length_c   10.19812953
_cell_angle_alpha   59.46692038
_cell_angle_beta   59.53731949
_cell_angle_gamma   59.53733015
_symmetry_Int_Tables_number   1
_chemical_formula_structural   La12Nd4Cd4TcPt3
_chemical_formula_sum   'La12 Nd4 Cd4 Tc1 Pt3'
_cell_volume   740.82273610
_cell_formula_units_Z   1
loop_
 _symmetry_equiv_pos_site_id
 _symmetry_equiv_pos_as_xyz
  1  'x, y, z'
loop_
 _atom_site_type_symbol
 _atom_site_label
 _atom_site_symmetry_multiplicity
 _atom_site_fract_x
 _atom_site_fract_y
 _atom_site_fract_z
 _atom_site_occupancy
  La  La0  1  0.351632  0.350567  0.350567  1
  La  La1  1  0.345767  0.345905  0.956933  1
  La  La2  1  0.345767  0.956933  0.345905  1
  La  La3  1  0.957127  0.345292  0.345292  1
  La  La4  1  0.817156  0.189255  0.189255  1
  La  La5  1  0.192350  0.805225  0.805225  1
  La  La6  1  0.189117  0.817070  0.189200  1
  La  La7  1  0.805560  0.192231  0.805688  1
  La  La8  1  0.189117  0.189200  0.817070  1
  La  La9  1  0.805560  0.805688  0.192231  1
  La  La10  1  0.933550  0.566088  0.566088  1
  La  La11  1  0.556390  0.936755  0.936755  1
  Nd  Nd12  1  0.564516  0.936074  0.564765  1
  Nd  Nd13  1  0.937108  0.557199  0.937090  1
  Nd  Nd14  1  0.564516  0.564765  0.936074  1
  Nd  Nd15  1  0.937108  0.937090  0.557199  1
  Cd  Cd16  1  0.578961  0.579971  0.579971  1
  Cd  Cd17  1  0.581036  0.579378  0.257958  1
  Cd  Cd18  1  0.581036  0.257958  0.579378  1
  Cd  Cd19  1  0.258073  0.580767  0.580767  1
  Tc  Tc20  1  0.140963  0.141036  0.141036  1
  Pt  Pt21  1  0.145535  0.144323  0.576090  1
  Pt  Pt22  1  0.145535  0.576090  0.144323  1
  Pt  Pt23  1  0.576521  0.145141  0.145141  1
