# generated using pymatgen
data_La7Pr9AlCd3Ir4
_symmetry_space_group_name_H-M   'P 1'
_cell_length_a   10.06226454
_cell_length_b   10.06520694
_cell_length_c   10.10713278
_cell_angle_alpha   59.67651910
_cell_angle_beta   60.06357102
_cell_angle_gamma   60.26720098
_symmetry_Int_Tables_number   1
_chemical_formula_structural   La7Pr9AlCd3Ir4
_chemical_formula_sum   'La7 Pr9 Al1 Cd3 Ir4'
_cell_volume   723.82164205
_cell_formula_units_Z   1
loop_
 _symmetry_equiv_pos_site_id
 _symmetry_equiv_pos_as_xyz
  1  'x, y, z'
loop_
 _atom_site_type_symbol
 _atom_site_label
 _atom_site_symmetry_multiplicity
 _atom_site_fract_x
 _atom_site_fract_y
 _atom_site_fract_z
 _atom_site_occupancy
  La  La0  1  0.345243  0.346672  0.348901  1
  La  La1  1  0.349450  0.346885  0.957128  1
  La  La2  1  0.351536  0.955649  0.347645  1
  La  La3  1  0.957618  0.350053  0.348880  1
  La  La4  1  0.810802  0.189107  0.186865  1
  La  La5  1  0.188144  0.809608  0.807785  1
  La  La6  1  0.189168  0.810861  0.188721  1
  Pr  Pr7  1  0.804126  0.193861  0.804711  1
  Pr  Pr8  1  0.190176  0.191809  0.807648  1
  Pr  Pr9  1  0.802894  0.804878  0.193159  1
  Pr  Pr10  1  0.935861  0.563546  0.564981  1
  Pr  Pr11  1  0.562493  0.936413  0.935806  1
  Pr  Pr12  1  0.562857  0.937267  0.563198  1
  Pr  Pr13  1  0.937234  0.561436  0.937108  1
  Pr  Pr14  1  0.561958  0.561488  0.937696  1
  Pr  Pr15  1  0.937772  0.938487  0.561495  1
  Al  Al16  1  0.583017  0.579567  0.579401  1
  Cd  Cd17  1  0.580949  0.579773  0.263327  1
  Cd  Cd18  1  0.579591  0.263129  0.580748  1
  Cd  Cd19  1  0.263007  0.578514  0.580793  1
  Ir  Ir20  1  0.138741  0.139650  0.145296  1
  Ir  Ir21  1  0.144015  0.137200  0.576048  1
  Ir  Ir22  1  0.146612  0.578402  0.138439  1
  Ir  Ir23  1  0.576733  0.145744  0.144220  1
