# generated using pymatgen
data_Zr10Sn3Bi3P
_symmetry_space_group_name_H-M   'P 1'
_cell_length_a   5.88754900
_cell_length_b   8.67056221
_cell_length_c   8.67065300
_cell_angle_alpha   119.99965819
_cell_angle_beta   90.00031394
_cell_angle_gamma   89.99935810
_symmetry_Int_Tables_number   1
_chemical_formula_structural   Zr10Sn3Bi3P
_chemical_formula_sum   'Zr10 Sn3 Bi3 P1'
_cell_volume   383.32374872
_cell_formula_units_Z   1
loop_
 _symmetry_equiv_pos_site_id
 _symmetry_equiv_pos_as_xyz
  1  'x, y, z'
loop_
 _atom_site_type_symbol
 _atom_site_label
 _atom_site_symmetry_multiplicity
 _atom_site_fract_x
 _atom_site_fract_y
 _atom_site_fract_z
 _atom_site_occupancy
  Zr  Zr0  1  0.496128  0.333336  0.666668  1
  Zr  Zr1  1  0.496128  0.666668  0.333332  1
  Zr  Zr2  1  0.004487  0.666666  0.333331  1
  Zr  Zr3  1  0.004487  0.333336  0.666669  1
  Zr  Zr4  1  0.756156  0.247662  0.000000  1
  Zr  Zr5  1  0.756157  0.752337  0.752339  1
  Zr  Zr6  1  0.756157  0.999997  0.247661  1
  Zr  Zr7  1  0.244219  0.751204  0.000000  1
  Zr  Zr8  1  0.244225  0.248796  0.248797  1
  Zr  Zr9  1  0.244225  0.999999  0.751203  1
  Sn  Sn10  1  0.249122  0.390909  0.000000  1
  Sn  Sn11  1  0.249119  0.609094  0.609093  1
  Sn  Sn12  1  0.249119  0.000000  0.390907  1
  Bi  Bi13  1  0.750319  0.605556  0.000000  1
  Bi  Bi14  1  0.750318  0.394444  0.394443  1
  Bi  Bi15  1  0.750318  0.000001  0.605557  1
  P  P16  1  0.499314  0.000000  0.000000  1
