# generated using pymatgen
data_Li5Zr12MoOs6
_symmetry_space_group_name_H-M   'P 1'
_cell_length_a   4.64909500
_cell_length_b   6.63932600
_cell_length_c   14.07611801
_cell_angle_alpha   90.00000000
_cell_angle_beta   89.99617237
_cell_angle_gamma   90.00000000
_symmetry_Int_Tables_number   1
_chemical_formula_structural   Li5Zr12MoOs6
_chemical_formula_sum   'Li5 Zr12 Mo1 Os6'
_cell_volume   434.48552530
_cell_formula_units_Z   1
loop_
 _symmetry_equiv_pos_site_id
 _symmetry_equiv_pos_as_xyz
  1  'x, y, z'
loop_
 _atom_site_type_symbol
 _atom_site_label
 _atom_site_symmetry_multiplicity
 _atom_site_fract_x
 _atom_site_fract_y
 _atom_site_fract_z
 _atom_site_occupancy
  Li  Li0  1  0.499470  0.500001  0.166693  1
  Li  Li1  1  0.999451  0.000000  0.332639  1
  Li  Li2  1  0.500000  0.500001  0.500000  1
  Li  Li3  1  0.000549  0.000000  0.667361  1
  Li  Li4  1  0.500530  0.500001  0.833307  1
  Zr  Zr5  1  0.500000  0.248357  0.000000  1
  Zr  Zr6  1  0.500000  0.751642  0.000000  1
  Zr  Zr7  1  0.999671  0.247114  0.164275  1
  Zr  Zr8  1  0.999671  0.752886  0.164275  1
  Zr  Zr9  1  0.499641  0.251168  0.332948  1
  Zr  Zr10  1  0.499641  0.748831  0.332948  1
  Zr  Zr11  1  0.000000  0.250212  0.500000  1
  Zr  Zr12  1  0.000000  0.749788  0.500000  1
  Zr  Zr13  1  0.500359  0.251168  0.667052  1
  Zr  Zr14  1  0.500359  0.748831  0.667052  1
  Zr  Zr15  1  0.000329  0.247114  0.835725  1
  Zr  Zr16  1  0.000329  0.752886  0.835725  1
  Mo  Mo17  1  0.000000  0.000000  0.000000  1
  Os  Os18  1  0.000000  0.500001  0.000000  1
  Os  Os19  1  0.499722  0.000000  0.171130  1
  Os  Os20  1  0.999624  0.500001  0.336427  1
  Os  Os21  1  0.500000  0.000000  0.500000  1
  Os  Os22  1  0.000376  0.500001  0.663573  1
  Os  Os23  1  0.500278  0.000000  0.828870  1
