# generated using pymatgen
data_Gd2UTc2
_symmetry_space_group_name_H-M   'P 1'
_cell_length_a   6.01339347
_cell_length_b   6.01339395
_cell_length_c   6.01339451
_cell_angle_alpha   139.19998048
_cell_angle_beta   123.48569348
_cell_angle_gamma   72.01766703
_symmetry_Int_Tables_number   1
_chemical_formula_structural   Gd2UTc2
_chemical_formula_sum   'Gd2 U1 Tc2'
_cell_volume   116.11174637
_cell_formula_units_Z   1
loop_
 _symmetry_equiv_pos_site_id
 _symmetry_equiv_pos_as_xyz
  1  'x, y, z'
loop_
 _atom_site_type_symbol
 _atom_site_label
 _atom_site_symmetry_multiplicity
 _atom_site_fract_x
 _atom_site_fract_y
 _atom_site_fract_z
 _atom_site_occupancy
  Gd  Gd0  1  0.700415  0.200416  0.500000  1
  Gd  Gd1  1  0.299585  0.799585  0.500001  1
  U  U2  1  0.000000  0.000000  0.000000  1
  Tc  Tc3  1  0.752205  0.500000  0.252204  1
  Tc  Tc4  1  0.247795  0.500001  0.747796  1
