# generated using pymatgen
data_Yb(P3Ru)4
_symmetry_space_group_name_H-M   'P 1'
_cell_length_a   6.99348394
_cell_length_b   6.99348327
_cell_length_c   6.99348300
_cell_angle_alpha   109.47121986
_cell_angle_beta   109.47121792
_cell_angle_gamma   109.47122529
_symmetry_Int_Tables_number   1
_chemical_formula_structural   Yb(P3Ru)4
_chemical_formula_sum   'Yb1 P12 Ru4'
_cell_volume   263.30478318
_cell_formula_units_Z   1
loop_
 _symmetry_equiv_pos_site_id
 _symmetry_equiv_pos_as_xyz
  1  'x, y, z'
loop_
 _atom_site_type_symbol
 _atom_site_label
 _atom_site_symmetry_multiplicity
 _atom_site_fract_x
 _atom_site_fract_y
 _atom_site_fract_z
 _atom_site_occupancy
  Yb  Yb0  1  0.000000  0.000000  0.000000  1
  P  P1  1  0.358736  0.216227  0.857491  1
  P  P2  1  0.641264  0.783773  0.142509  1
  P  P3  1  0.641264  0.498755  0.857491  1
  P  P4  1  0.358736  0.501245  0.142509  1
  P  P5  1  0.216227  0.857491  0.358736  1
  P  P6  1  0.783773  0.142509  0.641264  1
  P  P7  1  0.498755  0.857491  0.641264  1
  P  P8  1  0.501245  0.142509  0.358736  1
  P  P9  1  0.857491  0.358736  0.216227  1
  P  P10  1  0.142509  0.641264  0.783773  1
  P  P11  1  0.857491  0.641264  0.498755  1
  P  P12  1  0.142509  0.358736  0.501245  1
  Ru  Ru13  1  0.000000  0.000000  0.500000  1
  Ru  Ru14  1  0.500000  0.000000  0.000000  1
  Ru  Ru15  1  0.000000  0.500000  0.000000  1
  Ru  Ru16  1  0.500000  0.500000  0.500000  1
