# generated using pymatgen
data_ZrTa9Si5Ge
_symmetry_space_group_name_H-M   'P 1'
_cell_length_a   7.60072732
_cell_length_b   7.64211164
_cell_length_c   7.61714884
_cell_angle_alpha   128.58147349
_cell_angle_beta   128.46146132
_cell_angle_gamma   75.79611470
_symmetry_Int_Tables_number   1
_chemical_formula_structural   ZrTa9Si5Ge
_chemical_formula_sum   'Zr1 Ta9 Si5 Ge1'
_cell_volume   263.38299380
_cell_formula_units_Z   1
loop_
 _symmetry_equiv_pos_site_id
 _symmetry_equiv_pos_as_xyz
  1  'x, y, z'
loop_
 _atom_site_type_symbol
 _atom_site_label
 _atom_site_symmetry_multiplicity
 _atom_site_fract_x
 _atom_site_fract_y
 _atom_site_fract_z
 _atom_site_occupancy
  Zr  Zr0  1  0.010656  0.183515  0.496703  1
  Ta  Ta1  1  0.517722  0.012488  0.828342  1
  Ta  Ta2  1  0.183765  0.689561  0.171362  1
  Ta  Ta3  1  0.486620  0.981566  0.169665  1
  Ta  Ta4  1  0.687031  0.522302  0.505635  1
  Ta  Ta5  1  0.982672  0.806492  0.494625  1
  Ta  Ta6  1  0.316125  0.486445  0.505045  1
  Ta  Ta7  1  0.811546  0.316957  0.829653  1
  Ta  Ta8  1  0.503145  0.502529  0.001231  1
  Ta  Ta9  1  0.000422  0.000037  0.998437  1
  Si  Si10  1  0.130869  0.632088  0.761768  1
  Si  Si11  1  0.630420  0.871108  0.499761  1
  Si  Si12  1  0.371810  0.129878  0.499843  1
  Si  Si13  1  0.869126  0.370000  0.238078  1
  Si  Si14  1  0.746868  0.745401  0.995863  1
  Ge  Ge15  1  0.251202  0.249634  0.003990  1
