# generated using pymatgen
data_Tm10Fe2Bi3Sb
_symmetry_space_group_name_H-M   'P 1'
_cell_length_a   5.99427348
_cell_length_b   8.91743169
_cell_length_c   8.89542453
_cell_angle_alpha   83.49778180
_cell_angle_beta   70.31004349
_cell_angle_gamma   70.36063905
_symmetry_Int_Tables_number   1
_chemical_formula_structural   Tm10Fe2Bi3Sb
_chemical_formula_sum   'Tm10 Fe2 Bi3 Sb1'
_cell_volume   421.64606125
_cell_formula_units_Z   1
loop_
 _symmetry_equiv_pos_site_id
 _symmetry_equiv_pos_as_xyz
  1  'x, y, z'
loop_
 _atom_site_type_symbol
 _atom_site_label
 _atom_site_symmetry_multiplicity
 _atom_site_fract_x
 _atom_site_fract_y
 _atom_site_fract_z
 _atom_site_occupancy
  Tm  Tm0  1  0.070667  0.117079  0.741589  1
  Tm  Tm1  1  0.927279  0.885723  0.259717  1
  Tm  Tm2  1  0.812246  0.256532  0.118978  1
  Tm  Tm3  1  0.431222  0.256532  0.881022  1
  Tm  Tm4  1  0.186221  0.743958  0.883598  1
  Tm  Tm5  1  0.569821  0.743958  0.116402  1
  Tm  Tm6  1  0.686996  0.885723  0.740283  1
  Tm  Tm7  1  0.312256  0.117079  0.258411  1
  Tm  Tm8  1  0.253016  0.496038  0.500000  1
  Tm  Tm9  1  0.750946  0.496038  0.500000  1
  Fe  Fe10  1  0.249866  0.000269  0.000000  1
  Fe  Fe11  1  0.749866  0.000269  0.000000  1
  Bi  Bi12  1  0.162303  0.500220  0.175175  1
  Bi  Bi13  1  0.837477  0.500220  0.824825  1
  Bi  Bi14  1  0.338518  0.822964  0.500000  1
  Sb  Sb15  1  0.661301  0.177398  0.500000  1
