# generated using pymatgen
data_Cs12TiMo3S16
_symmetry_space_group_name_H-M   'P 1'
_cell_length_a   9.98266315
_cell_length_b   10.11895723
_cell_length_c   11.78967500
_cell_angle_alpha   90.00000000
_cell_angle_beta   90.00000000
_cell_angle_gamma   89.88363577
_symmetry_Int_Tables_number   1
_chemical_formula_structural   Cs12TiMo3S16
_chemical_formula_sum   'Cs12 Ti1 Mo3 S16'
_cell_volume   1190.92144274
_cell_formula_units_Z   1
loop_
 _symmetry_equiv_pos_site_id
 _symmetry_equiv_pos_as_xyz
  1  'x, y, z'
loop_
 _atom_site_type_symbol
 _atom_site_label
 _atom_site_symmetry_multiplicity
 _atom_site_fract_x
 _atom_site_fract_y
 _atom_site_fract_z
 _atom_site_occupancy
  Cs  Cs0  1  0.542578  0.713807  0.037666  1
  Cs  Cs1  1  0.052645  0.797466  0.466122  1
  Cs  Cs2  1  0.444008  0.283907  0.545750  1
  Cs  Cs3  1  0.961464  0.201450  0.950771  1
  Cs  Cs4  1  0.444008  0.283907  0.954250  1
  Cs  Cs5  1  0.961464  0.201450  0.549229  1
  Cs  Cs6  1  0.542578  0.713807  0.462334  1
  Cs  Cs7  1  0.052645  0.797466  0.033878  1
  Cs  Cs8  1  0.350123  0.078451  0.250000  1
  Cs  Cs9  1  0.851600  0.415395  0.250000  1
  Cs  Cs10  1  0.641447  0.921594  0.750000  1
  Cs  Cs11  1  0.152543  0.588103  0.750000  1
  Ti  Ti12  1  0.224031  0.017466  0.750000  1
  Mo  Mo13  1  0.274656  0.516709  0.250000  1
  Mo  Mo14  1  0.777581  0.982528  0.250000  1
  Mo  Mo15  1  0.725843  0.482257  0.750000  1
  S  S16  1  0.290848  0.737341  0.250000  1
  S  S17  1  0.790945  0.761558  0.250000  1
  S  S18  1  0.707952  0.262446  0.750000  1
  S  S19  1  0.207490  0.243432  0.750000  1
  S  S20  1  0.480778  0.428347  0.250000  1
  S  S21  1  0.984495  0.068571  0.250000  1
  S  S22  1  0.520364  0.570493  0.750000  1
  S  S23  1  0.012971  0.930494  0.750000  1
  S  S24  1  0.166065  0.454904  0.093149  1
  S  S25  1  0.669495  0.047912  0.405631  1
  S  S26  1  0.833441  0.543560  0.592818  1
  S  S27  1  0.333468  0.954400  0.911317  1
  S  S28  1  0.833441  0.543560  0.907182  1
  S  S29  1  0.333468  0.954400  0.588683  1
  S  S30  1  0.166065  0.454904  0.406851  1
  S  S31  1  0.669495  0.047912  0.094369  1
