# generated using pymatgen
data_LaDyRe4(SiC)2
_symmetry_space_group_name_H-M   'P 1'
_cell_length_a   5.84298225
_cell_length_b   5.84298294
_cell_length_c   7.36653400
_cell_angle_alpha   90.00000000
_cell_angle_beta   90.00000000
_cell_angle_gamma   139.92938508
_symmetry_Int_Tables_number   1
_chemical_formula_structural   LaDyRe4(SiC)2
_chemical_formula_sum   'La1 Dy1 Re4 Si2 C2'
_cell_volume   161.89631765
_cell_formula_units_Z   1
loop_
 _symmetry_equiv_pos_site_id
 _symmetry_equiv_pos_as_xyz
  1  'x, y, z'
loop_
 _atom_site_type_symbol
 _atom_site_label
 _atom_site_symmetry_multiplicity
 _atom_site_fract_x
 _atom_site_fract_y
 _atom_site_fract_z
 _atom_site_occupancy
  La  La0  1  0.543148  0.456852  0.250000  1
  Dy  Dy1  1  0.457110  0.542890  0.750000  1
  Re  Re2  1  0.826746  0.173254  0.058224  1
  Re  Re3  1  0.174268  0.825732  0.935952  1
  Re  Re4  1  0.174268  0.825732  0.564048  1
  Re  Re5  1  0.826746  0.173254  0.441776  1
  Si  Si6  1  0.264787  0.735213  0.250000  1
  Si  Si7  1  0.734704  0.265296  0.750000  1
  C  C8  1  0.999112  0.000888  0.991291  1
  C  C9  1  0.999112  0.000888  0.508709  1
