# generated using pymatgen
data_Zr4Sn2PtRh9
_symmetry_space_group_name_H-M   'P 1'
_cell_length_a   5.66784687
_cell_length_b   5.66784624
_cell_length_c   8.33677300
_cell_angle_alpha   90.00000000
_cell_angle_beta   90.00000000
_cell_angle_gamma   97.37373749
_symmetry_Int_Tables_number   1
_chemical_formula_structural   Zr4Sn2PtRh9
_chemical_formula_sum   'Zr4 Sn2 Pt1 Rh9'
_cell_volume   265.59973441
_cell_formula_units_Z   1
loop_
 _symmetry_equiv_pos_site_id
 _symmetry_equiv_pos_as_xyz
  1  'x, y, z'
loop_
 _atom_site_type_symbol
 _atom_site_label
 _atom_site_symmetry_multiplicity
 _atom_site_fract_x
 _atom_site_fract_y
 _atom_site_fract_z
 _atom_site_occupancy
  Zr  Zr0  1  0.782099  0.217893  0.503047  1
  Zr  Zr1  1  0.217893  0.782099  0.996953  1
  Zr  Zr2  1  0.217893  0.782099  0.503047  1
  Zr  Zr3  1  0.782099  0.217893  0.996953  1
  Sn  Sn4  1  0.500502  0.500502  0.750000  1
  Sn  Sn5  1  0.499523  0.499523  0.250000  1
  Pt  Pt6  1  0.000098  0.000098  0.250000  1
  Rh  Rh7  1  0.728293  0.728293  0.999632  1
  Rh  Rh8  1  0.728293  0.728293  0.500368  1
  Rh  Rh9  1  0.271728  0.271728  0.999368  1
  Rh  Rh10  1  0.271728  0.271728  0.500632  1
  Rh  Rh11  1  0.499909  0.000323  0.750000  1
  Rh  Rh12  1  0.500060  0.999691  0.250000  1
  Rh  Rh13  1  0.999867  0.999867  0.750000  1
  Rh  Rh14  1  0.000323  0.499909  0.750000  1
  Rh  Rh15  1  0.999691  0.500060  0.250000  1
