# generated using pymatgen
data_Tb8TaTi4Ge16Mo7
_symmetry_space_group_name_H-M   'P 1'
_cell_length_a   6.92841759
_cell_length_b   7.10670221
_cell_length_c   13.38089025
_cell_angle_alpha   89.99983558
_cell_angle_beta   89.96063923
_cell_angle_gamma   89.98928407
_symmetry_Int_Tables_number   1
_chemical_formula_structural   Tb8TaTi4Ge16Mo7
_chemical_formula_sum   'Tb8 Ta1 Ti4 Ge16 Mo7'
_cell_volume   658.85079210
_cell_formula_units_Z   1
loop_
 _symmetry_equiv_pos_site_id
 _symmetry_equiv_pos_as_xyz
  1  'x, y, z'
loop_
 _atom_site_type_symbol
 _atom_site_label
 _atom_site_symmetry_multiplicity
 _atom_site_fract_x
 _atom_site_fract_y
 _atom_site_fract_z
 _atom_site_occupancy
  Tb  Tb0  1  0.004302  0.175100  0.405257  1
  Tb  Tb1  1  0.504036  0.325566  0.094216  1
  Tb  Tb2  1  0.495883  0.675449  0.594414  1
  Tb  Tb3  1  0.994899  0.826939  0.905610  1
  Tb  Tb4  1  0.993525  0.829246  0.593575  1
  Tb  Tb5  1  0.494678  0.671106  0.905717  1
  Tb  Tb6  1  0.506646  0.330559  0.406034  1
  Tb  Tb7  1  0.006440  0.169131  0.095344  1
  Ta  Ta8  1  0.164073  0.331034  0.872867  1
  Ti  Ti9  1  0.159337  0.333760  0.626802  1
  Ti  Ti10  1  0.662039  0.167188  0.872270  1
  Ti  Ti11  1  0.839755  0.667177  0.128246  1
  Ti  Ti12  1  0.340448  0.833731  0.372268  1
  Ge  Ge13  1  0.329116  0.044870  0.544801  1
  Ge  Ge14  1  0.825758  0.456012  0.956796  1
  Ge  Ge15  1  0.671162  0.955054  0.045579  1
  Ge  Ge16  1  0.170442  0.545019  0.454890  1
  Ge  Ge17  1  0.172865  0.543825  0.044910  1
  Ge  Ge18  1  0.672670  0.955786  0.455341  1
  Ge  Ge19  1  0.827094  0.456456  0.544027  1
  Ge  Ge20  1  0.328208  0.041035  0.957895  1
  Ge  Ge21  1  0.808597  0.365895  0.248791  1
  Ge  Ge22  1  0.309586  0.135016  0.251348  1
  Ge  Ge23  1  0.690402  0.865223  0.750924  1
  Ge  Ge24  1  0.193172  0.637745  0.748688  1
  Ge  Ge25  1  0.035961  0.870197  0.252137  1
  Ge  Ge26  1  0.535929  0.629184  0.248502  1
  Ge  Ge27  1  0.467263  0.371164  0.747761  1
  Ge  Ge28  1  0.960644  0.125966  0.748787  1
  Mo  Mo29  1  0.334314  0.834824  0.126541  1
  Mo  Mo30  1  0.832862  0.664367  0.374820  1
  Mo  Mo31  1  0.665350  0.165202  0.624406  1
  Mo  Mo32  1  0.332946  0.012679  0.750022  1
  Mo  Mo33  1  0.666607  0.987889  0.250511  1
  Mo  Mo34  1  0.166746  0.512335  0.250392  1
  Mo  Mo35  1  0.836246  0.488273  0.749512  1
