# generated using pymatgen
data_Ba12Rh3PbI8
_symmetry_space_group_name_H-M   'P 1'
_cell_length_a   16.22012373
_cell_length_b   15.47253937
_cell_length_c   8.61010735
_cell_angle_alpha   79.08722934
_cell_angle_beta   69.49801346
_cell_angle_gamma   32.30918667
_symmetry_Int_Tables_number   1
_chemical_formula_structural   Ba12Rh3PbI8
_chemical_formula_sum   'Ba12 Rh3 Pb1 I8'
_cell_volume   1056.93755091
_cell_formula_units_Z   1
loop_
 _symmetry_equiv_pos_site_id
 _symmetry_equiv_pos_as_xyz
  1  'x, y, z'
loop_
 _atom_site_type_symbol
 _atom_site_label
 _atom_site_symmetry_multiplicity
 _atom_site_fract_x
 _atom_site_fract_y
 _atom_site_fract_z
 _atom_site_occupancy
  Ba  Ba0  1  0.037361  0.444041  0.462407  1
  Ba  Ba1  1  0.801551  0.204022  0.195708  1
  Ba  Ba2  1  0.077219  0.611839  0.938572  1
  Ba  Ba3  1  0.886741  0.296149  0.659742  1
  Ba  Ba4  1  0.611839  0.077219  0.372371  1
  Ba  Ba5  1  0.141114  0.684959  0.299140  1
  Ba  Ba6  1  0.296149  0.886741  0.157367  1
  Ba  Ba7  1  0.360587  0.952078  0.598363  1
  Ba  Ba8  1  0.204022  0.801551  0.798719  1
  Ba  Ba9  1  0.444041  0.037361  0.056191  1
  Ba  Ba10  1  0.952078  0.360587  0.088973  1
  Ba  Ba11  1  0.684959  0.141114  0.874785  1
  Rh  Rh12  1  0.164684  0.164684  0.335316  1
  Rh  Rh13  1  0.084139  0.084139  0.915861  1
  Rh  Rh14  1  0.916697  0.916697  0.083303  1
  Pb  Pb15  1  0.334562  0.334562  0.165438  1
  I  I16  1  0.577907  0.577907  0.422093  1
  I  I17  1  0.670134  0.670134  0.829866  1
  I  I18  1  0.255079  0.255079  0.744921  1
  I  I19  1  0.423775  0.423775  0.576225  1
  I  I20  1  0.996843  0.996843  0.503157  1
  I  I21  1  0.744994  0.744994  0.255006  1
  I  I22  1  0.827907  0.827907  0.672093  1
  I  I23  1  0.505618  0.505618  0.994382  1
