# generated using pymatgen
data_Ti4Al2Pd3Rh7
_symmetry_space_group_name_H-M   'P 1'
_cell_length_a   4.08224800
_cell_length_b   5.39384815
_cell_length_c   10.58815571
_cell_angle_alpha   90.62212496
_cell_angle_beta   90.00000000
_cell_angle_gamma   90.00000000
_symmetry_Int_Tables_number   1
_chemical_formula_structural   Ti4Al2Pd3Rh7
_chemical_formula_sum   'Ti4 Al2 Pd3 Rh7'
_cell_volume   233.12713064
_cell_formula_units_Z   1
loop_
 _symmetry_equiv_pos_site_id
 _symmetry_equiv_pos_as_xyz
  1  'x, y, z'
loop_
 _atom_site_type_symbol
 _atom_site_label
 _atom_site_symmetry_multiplicity
 _atom_site_fract_x
 _atom_site_fract_y
 _atom_site_fract_z
 _atom_site_occupancy
  Ti  Ti0  1  0.500000  0.329718  0.133526  1
  Ti  Ti1  1  0.500000  0.660969  0.860845  1
  Ti  Ti2  1  0.500000  0.832196  0.367547  1
  Ti  Ti3  1  0.500000  0.183468  0.637564  1
  Al  Al4  1  0.000000  0.995564  0.999724  1
  Al  Al5  1  0.000000  0.500026  0.501648  1
  Pd  Pd6  1  0.000000  0.081348  0.241272  1
  Pd  Pd7  1  0.000000  0.918520  0.758771  1
  Pd  Pd8  1  0.000000  0.581720  0.258893  1
  Rh  Rh9  1  0.000000  0.001132  0.499527  1
  Rh  Rh10  1  0.000000  0.496380  0.999688  1
  Rh  Rh11  1  0.000000  0.417906  0.741147  1
  Rh  Rh12  1  0.500000  0.310659  0.388544  1
  Rh  Rh13  1  0.500000  0.694578  0.609982  1
  Rh  Rh14  1  0.500000  0.808079  0.110391  1
  Rh  Rh15  1  0.500000  0.187738  0.890930  1
