# generated using pymatgen
data_CsNa3(In2S3)2
_symmetry_space_group_name_H-M   'P 1'
_cell_length_a   7.08154574
_cell_length_b   7.08154445
_cell_length_c   8.88063900
_cell_angle_alpha   82.33122901
_cell_angle_beta   82.33123043
_cell_angle_gamma   120.08447340
_symmetry_Int_Tables_number   1
_chemical_formula_structural   CsNa3(In2S3)2
_chemical_formula_sum   'Cs1 Na3 In4 S6'
_cell_volume   371.34000701
_cell_formula_units_Z   1
loop_
 _symmetry_equiv_pos_site_id
 _symmetry_equiv_pos_as_xyz
  1  'x, y, z'
loop_
 _atom_site_type_symbol
 _atom_site_label
 _atom_site_symmetry_multiplicity
 _atom_site_fract_x
 _atom_site_fract_y
 _atom_site_fract_z
 _atom_site_occupancy
  Cs  Cs0  1  0.500000  0.500000  0.500000  1
  Na  Na1  1  0.661409  0.338591  0.000000  1
  Na  Na2  1  0.338591  0.661409  0.000000  1
  Na  Na3  1  0.000000  0.000000  0.000000  1
  In  In4  1  0.887650  0.220471  0.336006  1
  In  In5  1  0.779529  0.112350  0.663994  1
  In  In6  1  0.220471  0.887650  0.336006  1
  In  In7  1  0.112350  0.779529  0.663994  1
  S  S8  1  0.402799  0.044701  0.793912  1
  S  S9  1  0.044701  0.402799  0.793912  1
  S  S10  1  0.955299  0.597201  0.206088  1
  S  S11  1  0.758719  0.758719  0.796816  1
  S  S12  1  0.597201  0.955299  0.206088  1
  S  S13  1  0.241281  0.241281  0.203184  1
