# generated using pymatgen
data_TbSm2Tm(Ir2O7)2
_symmetry_space_group_name_H-M   'P 1'
_cell_length_a   7.32825895
_cell_length_b   7.27694493
_cell_length_c   7.28951433
_cell_angle_alpha   59.61442169
_cell_angle_beta   59.82401601
_cell_angle_gamma   59.76646558
_symmetry_Int_Tables_number   1
_chemical_formula_structural   TbSm2Tm(Ir2O7)2
_chemical_formula_sum   'Tb1 Sm2 Tm1 Ir4 O14'
_cell_volume   273.21749259
_cell_formula_units_Z   1
loop_
 _symmetry_equiv_pos_site_id
 _symmetry_equiv_pos_as_xyz
  1  'x, y, z'
loop_
 _atom_site_type_symbol
 _atom_site_label
 _atom_site_symmetry_multiplicity
 _atom_site_fract_x
 _atom_site_fract_y
 _atom_site_fract_z
 _atom_site_occupancy
  Tb  Tb0  1  0.125000  0.125000  0.625000  1
  Sm  Sm1  1  0.625000  0.125000  0.125000  1
  Sm  Sm2  1  0.125000  0.125000  0.125000  1
  Tm  Tm3  1  0.125000  0.625000  0.125000  1
  Ir  Ir4  1  0.125000  0.625000  0.625000  1
  Ir  Ir5  1  0.625000  0.125000  0.625000  1
  Ir  Ir6  1  0.625000  0.625000  0.125000  1
  Ir  Ir7  1  0.625000  0.625000  0.625000  1
  O  O8  1  0.720579  0.701949  0.289068  1
  O  O9  1  0.288337  0.289188  0.705443  1
  O  O10  1  0.717033  0.289188  0.705443  1
  O  O11  1  0.288404  0.701949  0.289068  1
  O  O12  1  0.289699  0.707014  0.713588  1
  O  O13  1  0.712081  0.288087  0.287751  1
  O  O14  1  0.529421  0.548051  0.960932  1
  O  O15  1  0.961663  0.960812  0.544557  1
  O  O16  1  0.532967  0.960812  0.544557  1
  O  O17  1  0.961596  0.548051  0.960932  1
  O  O18  1  0.960301  0.542986  0.536412  1
  O  O19  1  0.537919  0.961913  0.962249  1
  O  O20  1  0.245682  0.258174  0.250460  1
  O  O21  1  0.004318  0.991826  0.999540  1
