# generated using pymatgen
data_BaUF7
_symmetry_space_group_name_H-M   'P 1'
_cell_length_a   10.00425800
_cell_length_b   5.97565697
_cell_length_c   10.42139981
_cell_angle_alpha   87.52909150
_cell_angle_beta   90.00000000
_cell_angle_gamma   90.00000000
_symmetry_Int_Tables_number   1
_chemical_formula_structural   BaUF7
_chemical_formula_sum   'Ba4 U4 F28'
_cell_volume   622.43301822
_cell_formula_units_Z   4
loop_
 _symmetry_equiv_pos_site_id
 _symmetry_equiv_pos_as_xyz
  1  'x, y, z'
loop_
 _atom_site_type_symbol
 _atom_site_label
 _atom_site_symmetry_multiplicity
 _atom_site_fract_x
 _atom_site_fract_y
 _atom_site_fract_z
 _atom_site_occupancy
  Ba  Ba0  1  0.312136  0.280866  0.511513  1
  Ba  Ba1  1  0.812136  0.719134  0.988487  1
  Ba  Ba2  1  0.687864  0.719134  0.488487  1
  Ba  Ba3  1  0.187864  0.280866  0.011513  1
  U  U4  1  0.611492  0.220884  0.212078  1
  U  U5  1  0.388508  0.779116  0.787922  1
  U  U6  1  0.888508  0.220884  0.712078  1
  U  U7  1  0.111492  0.779116  0.287922  1
  F  F8  1  0.408041  0.078464  0.885603  1
  F  F9  1  0.054193  0.347945  0.612361  1
  F  F10  1  0.721647  0.536844  0.232747  1
  F  F11  1  0.278353  0.463156  0.767253  1
  F  F12  1  0.491588  0.993012  0.642631  1
  F  F13  1  0.771214  0.281958  0.541384  1
  F  F14  1  0.771989  0.054524  0.303024  1
  F  F15  1  0.991588  0.006988  0.857369  1
  F  F16  1  0.445807  0.347945  0.112361  1
  F  F17  1  0.221647  0.463156  0.267253  1
  F  F18  1  0.091959  0.078464  0.385603  1
  F  F19  1  0.591959  0.921536  0.114397  1
  F  F20  1  0.271989  0.945476  0.196976  1
  F  F21  1  0.026734  0.574789  0.125941  1
  F  F22  1  0.508412  0.006988  0.357369  1
  F  F23  1  0.008412  0.993012  0.142631  1
  F  F24  1  0.228011  0.945476  0.696976  1
  F  F25  1  0.908041  0.921536  0.614397  1
  F  F26  1  0.526734  0.425211  0.374059  1
  F  F27  1  0.945807  0.652055  0.387639  1
  F  F28  1  0.973266  0.425211  0.874059  1
  F  F29  1  0.728011  0.054524  0.803024  1
  F  F30  1  0.473266  0.574789  0.625941  1
  F  F31  1  0.271214  0.718042  0.958616  1
  F  F32  1  0.228786  0.718042  0.458616  1
  F  F33  1  0.728786  0.281958  0.041384  1
  F  F34  1  0.554193  0.652055  0.887639  1
  F  F35  1  0.778353  0.536844  0.732747  1
