# generated using pymatgen
data_Nd5InBi2Br
_symmetry_space_group_name_H-M   'P 1'
_cell_length_a   9.66893800
_cell_length_b   9.57984788
_cell_length_c   6.75214600
_cell_angle_alpha   90.00000000
_cell_angle_beta   90.00000000
_cell_angle_gamma   120.30811972
_symmetry_Int_Tables_number   1
_chemical_formula_structural   Nd5InBi2Br
_chemical_formula_sum   'Nd10 In2 Bi4 Br2'
_cell_volume   539.94938197
_cell_formula_units_Z   2
loop_
 _symmetry_equiv_pos_site_id
 _symmetry_equiv_pos_as_xyz
  1  'x, y, z'
loop_
 _atom_site_type_symbol
 _atom_site_label
 _atom_site_symmetry_multiplicity
 _atom_site_fract_x
 _atom_site_fract_y
 _atom_site_fract_z
 _atom_site_occupancy
  Nd  Nd0  1  0.728210  0.000000  0.750000  1
  Nd  Nd1  1  0.997300  0.265946  0.250000  1
  Nd  Nd2  1  0.731354  0.734054  0.250000  1
  Nd  Nd3  1  0.335789  0.671579  0.500000  1
  Nd  Nd4  1  0.335789  0.671579  0.000000  1
  Nd  Nd5  1  0.664211  0.328421  0.500000  1
  Nd  Nd6  1  0.664211  0.328421  0.000000  1
  Nd  Nd7  1  0.271790  0.000000  0.250000  1
  Nd  Nd8  1  0.268646  0.265946  0.750000  1
  Nd  Nd9  1  0.002700  0.734054  0.750000  1
  In  In10  1  0.389430  0.000000  0.750000  1
  In  In11  1  0.610570  0.000000  0.250000  1
  Bi  Bi12  1  0.998974  0.614858  0.250000  1
  Bi  Bi13  1  0.615883  0.614858  0.750000  1
  Bi  Bi14  1  0.001026  0.385142  0.750000  1
  Bi  Bi15  1  0.384117  0.385142  0.250000  1
  Br  Br16  1  0.000000  0.000000  0.500000  1
  Br  Br17  1  0.000000  0.000000  0.000000  1
