# generated using pymatgen
data_Yb3Sc5(Si4Ru3)4
_symmetry_space_group_name_H-M   'P 1'
_cell_length_a   10.00976905
_cell_length_b   10.00788248
_cell_length_c   13.59016453
_cell_angle_alpha   53.20293330
_cell_angle_beta   53.27396782
_cell_angle_gamma   31.06515883
_symmetry_Int_Tables_number   1
_chemical_formula_structural   Yb3Sc5(Si4Ru3)4
_chemical_formula_sum   'Yb3 Sc5 Si16 Ru12'
_cell_volume   550.53571038
_cell_formula_units_Z   1
loop_
 _symmetry_equiv_pos_site_id
 _symmetry_equiv_pos_as_xyz
  1  'x, y, z'
loop_
 _atom_site_type_symbol
 _atom_site_label
 _atom_site_symmetry_multiplicity
 _atom_site_fract_x
 _atom_site_fract_y
 _atom_site_fract_z
 _atom_site_occupancy
  Yb  Yb0  1  0.444688  0.692586  0.859624  1
  Yb  Yb1  1  0.695421  0.443034  0.360026  1
  Yb  Yb2  1  0.555287  0.305804  0.140945  1
  Sc  Sc3  1  0.038470  0.289120  0.639766  1
  Sc  Sc4  1  0.709327  0.962784  0.860166  1
  Sc  Sc5  1  0.960960  0.712210  0.361116  1
  Sc  Sc6  1  0.287136  0.039618  0.139785  1
  Sc  Sc7  1  0.293464  0.557919  0.647322  1
  Si  Si8  1  0.989578  0.242683  0.889771  1
  Si  Si9  1  0.753158  0.019843  0.607792  1
  Si  Si10  1  0.012228  0.757409  0.106951  1
  Si  Si11  1  0.248526  0.980636  0.394825  1
  Si  Si12  1  0.140784  0.384837  0.900791  1
  Si  Si13  1  0.611169  0.864447  0.597463  1
  Si  Si14  1  0.863545  0.612077  0.095971  1
  Si  Si15  1  0.389175  0.134895  0.404123  1
  Si  Si16  1  0.080670  0.575108  0.568628  1
  Si  Si17  1  0.424896  0.920291  0.933442  1
  Si  Si18  1  0.923588  0.424793  0.431231  1
  Si  Si19  1  0.575520  0.078399  0.066850  1
  Si  Si20  1  0.621241  0.378458  0.747903  1
  Si  Si21  1  0.374289  0.626140  0.249731  1
  Si  Si22  1  0.129896  0.869182  0.748756  1
  Si  Si23  1  0.873359  0.127255  0.250227  1
  Ru  Ru24  1  0.901573  0.135254  0.589038  1
  Ru  Ru25  1  0.865804  0.096813  0.909077  1
  Ru  Ru26  1  0.101514  0.860092  0.413925  1
  Ru  Ru27  1  0.132845  0.904405  0.088352  1
  Ru  Ru28  1  0.836635  0.648492  0.782883  1
  Ru  Ru29  1  0.356412  0.165961  0.717575  1
  Ru  Ru30  1  0.162280  0.354148  0.216775  1
  Ru  Ru31  1  0.646357  0.839095  0.281489  1
  Ru  Ru32  1  0.252277  0.499542  0.931953  1
  Ru  Ru33  1  0.497135  0.747426  0.564909  1
  Ru  Ru34  1  0.748873  0.498654  0.066404  1
  Ru  Ru35  1  0.501919  0.250589  0.434413  1
