# generated using pymatgen
data_CaNb6(Sn2Sb)2
_symmetry_space_group_name_H-M   'P 1'
_cell_length_a   5.82516400
_cell_length_b   5.82516486
_cell_length_c   9.58094700
_cell_angle_alpha   90.00000000
_cell_angle_beta   90.00000000
_cell_angle_gamma   119.99999511
_symmetry_Int_Tables_number   1
_chemical_formula_structural   CaNb6(Sn2Sb)2
_chemical_formula_sum   'Ca1 Nb6 Sn4 Sb2'
_cell_volume   281.54995925
_cell_formula_units_Z   1
loop_
 _symmetry_equiv_pos_site_id
 _symmetry_equiv_pos_as_xyz
  1  'x, y, z'
loop_
 _atom_site_type_symbol
 _atom_site_label
 _atom_site_symmetry_multiplicity
 _atom_site_fract_x
 _atom_site_fract_y
 _atom_site_fract_z
 _atom_site_occupancy
  Ca  Ca0  1  0.000000  0.000000  0.000000  1
  Nb  Nb1  1  0.000000  0.500000  0.749065  1
  Nb  Nb2  1  0.500000  0.500000  0.749065  1
  Nb  Nb3  1  0.500000  0.000000  0.749065  1
  Nb  Nb4  1  0.000000  0.500000  0.250935  1
  Nb  Nb5  1  0.500000  0.500000  0.250935  1
  Nb  Nb6  1  0.500000  0.000000  0.250935  1
  Sn  Sn7  1  0.666667  0.333333  0.500000  1
  Sn  Sn8  1  0.333333  0.666667  0.500000  1
  Sn  Sn9  1  0.666667  0.333333  0.000000  1
  Sn  Sn10  1  0.333333  0.666667  0.000000  1
  Sb  Sb11  1  0.000000  0.000000  0.667091  1
  Sb  Sb12  1  0.000000  0.000000  0.332909  1
