# generated using pymatgen
data_Yb12Ga12Re3Sb5O48
_symmetry_space_group_name_H-M   'P 1'
_cell_length_a   10.87660243
_cell_length_b   10.87660351
_cell_length_c   10.87660345
_cell_angle_alpha   109.45480825
_cell_angle_beta   109.45481213
_cell_angle_gamma   109.45480486
_symmetry_Int_Tables_number   1
_chemical_formula_structural   Yb12Ga12Re3Sb5O48
_chemical_formula_sum   'Yb12 Ga12 Re3 Sb5 O48'
_cell_volume   991.10934900
_cell_formula_units_Z   1
loop_
 _symmetry_equiv_pos_site_id
 _symmetry_equiv_pos_as_xyz
  1  'x, y, z'
loop_
 _atom_site_type_symbol
 _atom_site_label
 _atom_site_symmetry_multiplicity
 _atom_site_fract_x
 _atom_site_fract_y
 _atom_site_fract_z
 _atom_site_occupancy
  Yb  Yb0  1  0.244854  0.375837  0.122118  1
  Yb  Yb1  1  0.371851  0.749889  0.121689  1
  Yb  Yb2  1  0.375837  0.122118  0.244854  1
  Yb  Yb3  1  0.878309  0.628149  0.250111  1
  Yb  Yb4  1  0.122118  0.244854  0.375837  1
  Yb  Yb5  1  0.749889  0.121689  0.371851  1
  Yb  Yb6  1  0.250111  0.878309  0.628149  1
  Yb  Yb7  1  0.877882  0.755146  0.624163  1
  Yb  Yb8  1  0.121689  0.371851  0.749889  1
  Yb  Yb9  1  0.624163  0.877882  0.755146  1
  Yb  Yb10  1  0.628149  0.250111  0.878309  1
  Yb  Yb11  1  0.755146  0.624163  0.877882  1
  Ga  Ga12  1  0.749259  0.875970  0.125731  1
  Ga  Ga13  1  0.874269  0.250742  0.124030  1
  Ga  Ga14  1  0.625235  0.373150  0.249222  1
  Ga  Ga15  1  0.124030  0.874269  0.250742  1
  Ga  Ga16  1  0.626850  0.750778  0.374765  1
  Ga  Ga17  1  0.249222  0.625235  0.373150  1
  Ga  Ga18  1  0.750778  0.374765  0.626850  1
  Ga  Ga19  1  0.373150  0.249222  0.625235  1
  Ga  Ga20  1  0.875970  0.125731  0.749259  1
  Ga  Ga21  1  0.374765  0.626850  0.750778  1
  Ga  Ga22  1  0.250742  0.124030  0.874269  1
  Ga  Ga23  1  0.125731  0.749259  0.875970  1
  Re  Re24  1  0.499999  0.000000  0.000000  1
  Re  Re25  1  0.000000  0.499999  0.000000  1
  Re  Re26  1  0.000000  0.000000  0.499999  1
  Sb  Sb27  1  0.000000  0.000000  0.000000  1
  Sb  Sb28  1  0.500000  0.500000  0.000000  1
  Sb  Sb29  1  0.500000  0.000000  0.500000  1
  Sb  Sb30  1  0.000000  0.500000  0.500000  1
  Sb  Sb31  1  0.499999  0.499999  0.499999  1
  O  O32  1  0.319365  0.904822  0.025515  1
  O  O33  1  0.203298  0.122560  0.025200  1
  O  O34  1  0.702088  0.677299  0.080841  1
  O  O35  1  0.879208  0.405825  0.085686  1
  O  O36  1  0.974485  0.680635  0.095178  1
  O  O37  1  0.621718  0.419715  0.097047  1
  O  O38  1  0.594175  0.914314  0.120792  1
  O  O39  1  0.025200  0.203298  0.122560  1
  O  O40  1  0.475265  0.596803  0.177558  1
  O  O41  1  0.205992  0.585000  0.179869  1
  O  O42  1  0.122560  0.025200  0.203298  1
  O  O43  1  0.585000  0.179869  0.205992  1
  O  O44  1  0.475115  0.379523  0.295826  1
  O  O45  1  0.322701  0.919158  0.297912  1
  O  O46  1  0.904822  0.025515  0.319365  1
  O  O47  1  0.919158  0.297912  0.322701  1
  O  O48  1  0.295826  0.475115  0.379523  1
  O  O49  1  0.580285  0.902953  0.378281  1
  O  O50  1  0.822441  0.524734  0.403195  1
  O  O51  1  0.085686  0.879208  0.405825  1
  O  O52  1  0.820131  0.794008  0.415000  1
  O  O53  1  0.097047  0.621718  0.419715  1
  O  O54  1  0.596803  0.177558  0.475265  1
  O  O55  1  0.379523  0.295826  0.475115  1
  O  O56  1  0.620477  0.704174  0.524885  1
  O  O57  1  0.403195  0.822441  0.524734  1
  O  O58  1  0.902953  0.378281  0.580285  1
  O  O59  1  0.179869  0.205992  0.585000  1
  O  O60  1  0.914314  0.120792  0.594175  1
  O  O61  1  0.177558  0.475265  0.596803  1
  O  O62  1  0.419715  0.097047  0.621718  1
  O  O63  1  0.704174  0.524885  0.620477  1
  O  O64  1  0.080841  0.702088  0.677299  1
  O  O65  1  0.095178  0.974485  0.680635  1
  O  O66  1  0.677299  0.080841  0.702088  1
  O  O67  1  0.524885  0.620477  0.704174  1
  O  O68  1  0.415000  0.820131  0.794008  1
  O  O69  1  0.877439  0.974799  0.796700  1
  O  O70  1  0.794008  0.415000  0.820131  1
  O  O71  1  0.524734  0.403195  0.822441  1
  O  O72  1  0.974799  0.796700  0.877439  1
  O  O73  1  0.405825  0.085686  0.879208  1
  O  O74  1  0.378281  0.580285  0.902953  1
  O  O75  1  0.025515  0.319365  0.904822  1
  O  O76  1  0.120792  0.594175  0.914314  1
  O  O77  1  0.297912  0.322701  0.919158  1
  O  O78  1  0.680635  0.095178  0.974485  1
  O  O79  1  0.796700  0.877439  0.974799  1
