# generated using pymatgen
data_Zr6Zn17Ni6S
_symmetry_space_group_name_H-M   'P 1'
_cell_length_a   8.60581494
_cell_length_b   8.60558993
_cell_length_c   8.60713121
_cell_angle_alpha   60.00180531
_cell_angle_beta   60.02460488
_cell_angle_gamma   60.02534289
_symmetry_Int_Tables_number   1
_chemical_formula_structural   Zr6Zn17Ni6S
_chemical_formula_sum   'Zr6 Zn17 Ni6 S1'
_cell_volume   450.90581866
_cell_formula_units_Z   1
loop_
 _symmetry_equiv_pos_site_id
 _symmetry_equiv_pos_as_xyz
  1  'x, y, z'
loop_
 _atom_site_type_symbol
 _atom_site_label
 _atom_site_symmetry_multiplicity
 _atom_site_fract_x
 _atom_site_fract_y
 _atom_site_fract_z
 _atom_site_occupancy
  Zr  Zr0  1  0.709865  0.290136  0.290146  1
  Zr  Zr1  1  0.290135  0.709863  0.709854  1
  Zr  Zr2  1  0.290151  0.709847  0.290162  1
  Zr  Zr3  1  0.709850  0.290153  0.709837  1
  Zr  Zr4  1  0.290097  0.290100  0.709899  1
  Zr  Zr5  1  0.709903  0.709901  0.290100  1
  Zn  Zn6  1  0.124227  0.124213  0.124290  1
  Zn  Zn7  1  0.875773  0.875788  0.875709  1
  Zn  Zn8  1  0.124245  0.124269  0.627213  1
  Zn  Zn9  1  0.124294  0.627226  0.124278  1
  Zn  Zn10  1  0.875755  0.875729  0.372790  1
  Zn  Zn11  1  0.875707  0.372773  0.875722  1
  Zn  Zn12  1  0.627212  0.124299  0.124253  1
  Zn  Zn13  1  0.372786  0.875702  0.875746  1
  Zn  Zn14  1  0.334371  0.334395  0.334438  1
  Zn  Zn15  1  0.665630  0.665604  0.665561  1
  Zn  Zn16  1  0.334342  0.334397  0.996831  1
  Zn  Zn17  1  0.334386  0.996813  0.334410  1
  Zn  Zn18  1  0.665658  0.665603  0.003168  1
  Zn  Zn19  1  0.665614  0.003188  0.665590  1
  Zn  Zn20  1  0.996841  0.334405  0.334372  1
  Zn  Zn21  1  0.003159  0.665595  0.665628  1
  Zn  Zn22  1  0.999998  0.000000  0.000003  1
  Ni  Ni23  1  0.500000  0.000000  0.000000  1
  Ni  Ni24  1  0.000001  0.500000  0.500000  1
  Ni  Ni25  1  0.000000  0.500001  0.000000  1
  Ni  Ni26  1  0.500000  0.000000  0.500000  1
  Ni  Ni27  1  0.000000  0.000001  0.500000  1
  Ni  Ni28  1  0.500000  0.500000  0.999999  1
  S  S29  1  0.500001  0.500000  0.500000  1
