# generated using pymatgen
data_Ho5Tm11(AgRh)4
_symmetry_space_group_name_H-M   'P 1'
_cell_length_a   9.38619484
_cell_length_b   9.39086721
_cell_length_c   9.39086650
_cell_angle_alpha   60.52361077
_cell_angle_beta   60.45517306
_cell_angle_gamma   60.45512640
_symmetry_Int_Tables_number   1
_chemical_formula_structural   Ho5Tm11(AgRh)4
_chemical_formula_sum   'Ho5 Tm11 Ag4 Rh4'
_cell_volume   591.63289965
_cell_formula_units_Z   1
loop_
 _symmetry_equiv_pos_site_id
 _symmetry_equiv_pos_as_xyz
  1  'x, y, z'
loop_
 _atom_site_type_symbol
 _atom_site_label
 _atom_site_symmetry_multiplicity
 _atom_site_fract_x
 _atom_site_fract_y
 _atom_site_fract_z
 _atom_site_occupancy
  Ho  Ho0  1  0.065400  0.065430  0.434136  1
  Ho  Ho1  1  0.435124  0.065953  0.435268  1
  Ho  Ho2  1  0.065399  0.434138  0.065431  1
  Ho  Ho3  1  0.059852  0.646424  0.646426  1
  Ho  Ho4  1  0.435122  0.435270  0.065953  1
  Tm  Tm5  1  0.646912  0.059518  0.646119  1
  Tm  Tm6  1  0.187535  0.814676  0.186963  1
  Tm  Tm7  1  0.187535  0.186964  0.814675  1
  Tm  Tm8  1  0.813726  0.813746  0.187088  1
  Tm  Tm9  1  0.435940  0.063638  0.063635  1
  Tm  Tm10  1  0.814537  0.187247  0.187249  1
  Tm  Tm11  1  0.064723  0.436062  0.436063  1
  Tm  Tm12  1  0.813728  0.187085  0.813746  1
  Tm  Tm13  1  0.186328  0.814657  0.814657  1
  Tm  Tm14  1  0.646910  0.646119  0.059518  1
  Tm  Tm15  1  0.645650  0.646182  0.646182  1
  Ag  Ag16  1  0.417479  0.416752  0.416754  1
  Ag  Ag17  1  0.745367  0.417574  0.417575  1
  Ag  Ag18  1  0.418234  0.746787  0.415210  1
  Ag  Ag19  1  0.418235  0.415211  0.746786  1
  Rh  Rh20  1  0.854948  0.855560  0.431018  1
  Rh  Rh21  1  0.854366  0.858162  0.858174  1
  Rh  Rh22  1  0.431998  0.855826  0.855811  1
  Rh  Rh23  1  0.854949  0.431017  0.855564  1
