# generated using pymatgen
data_La3Pr13Mg3TlIr4
_symmetry_space_group_name_H-M   'P 1'
_cell_length_a   10.09288088
_cell_length_b   10.12375781
_cell_length_c   10.12375700
_cell_angle_alpha   60.00000592
_cell_angle_beta   59.89875413
_cell_angle_gamma   59.89874527
_symmetry_Int_Tables_number   1
_chemical_formula_structural   La3Pr13Mg3TlIr4
_chemical_formula_sum   'La3 Pr13 Mg3 Tl1 Ir4'
_cell_volume   730.32688290
_cell_formula_units_Z   1
loop_
 _symmetry_equiv_pos_site_id
 _symmetry_equiv_pos_as_xyz
  1  'x, y, z'
loop_
 _atom_site_type_symbol
 _atom_site_label
 _atom_site_symmetry_multiplicity
 _atom_site_fract_x
 _atom_site_fract_y
 _atom_site_fract_z
 _atom_site_occupancy
  La  La0  1  0.344259  0.346087  0.346087  1
  La  La1  1  0.344259  0.346087  0.963566  1
  La  La2  1  0.344259  0.963566  0.346087  1
  Pr  Pr3  1  0.961305  0.346231  0.346231  1
  Pr  Pr4  1  0.813176  0.187557  0.187557  1
  Pr  Pr5  1  0.190509  0.810293  0.810293  1
  Pr  Pr6  1  0.190509  0.810293  0.188906  1
  Pr  Pr7  1  0.813176  0.187557  0.811708  1
  Pr  Pr8  1  0.190509  0.188906  0.810293  1
  Pr  Pr9  1  0.813176  0.811708  0.187557  1
  Pr  Pr10  1  0.937826  0.561851  0.561851  1
  Pr  Pr11  1  0.562217  0.937221  0.937221  1
  Pr  Pr12  1  0.562217  0.937221  0.563342  1
  Pr  Pr13  1  0.937826  0.561851  0.938472  1
  Pr  Pr14  1  0.562217  0.563342  0.937221  1
  Pr  Pr15  1  0.937826  0.938472  0.561851  1
  Mg  Mg16  1  0.577386  0.577976  0.577976  1
  Mg  Mg17  1  0.577386  0.577976  0.266661  1
  Mg  Mg18  1  0.577386  0.266661  0.577976  1
  Tl  Tl19  1  0.259312  0.580229  0.580229  1
  Ir  Ir20  1  0.142904  0.141251  0.141251  1
  Ir  Ir21  1  0.142904  0.141251  0.574595  1
  Ir  Ir22  1  0.142904  0.574595  0.141251  1
  Ir  Ir23  1  0.574551  0.141816  0.141816  1
