# generated using pymatgen
data_NaY6Sn23Rh6
_symmetry_space_group_name_H-M   'P 1'
_cell_length_a   9.88721100
_cell_length_b   9.88721270
_cell_length_c   10.09675900
_cell_angle_alpha   90.00000000
_cell_angle_beta   90.00000000
_cell_angle_gamma   120.00000434
_symmetry_Int_Tables_number   1
_chemical_formula_structural   NaY6Sn23Rh6
_chemical_formula_sum   'Na1 Y6 Sn23 Rh6'
_cell_volume   854.79167250
_cell_formula_units_Z   1
loop_
 _symmetry_equiv_pos_site_id
 _symmetry_equiv_pos_as_xyz
  1  'x, y, z'
loop_
 _atom_site_type_symbol
 _atom_site_label
 _atom_site_symmetry_multiplicity
 _atom_site_fract_x
 _atom_site_fract_y
 _atom_site_fract_z
 _atom_site_occupancy
  Na  Na0  1  0.000000  0.000000  0.000000  1
  Y  Y1  1  0.041789  0.520895  0.307060  1
  Y  Y2  1  0.479105  0.958211  0.307060  1
  Y  Y3  1  0.479105  0.520895  0.307060  1
  Y  Y4  1  0.958211  0.479105  0.692940  1
  Y  Y5  1  0.520895  0.041789  0.692940  1
  Y  Y6  1  0.520895  0.479105  0.692940  1
  Sn  Sn7  1  0.000000  0.000000  0.500000  1
  Sn  Sn8  1  0.117310  0.882690  0.277233  1
  Sn  Sn9  1  0.765380  0.882690  0.277233  1
  Sn  Sn10  1  0.117310  0.234620  0.277233  1
  Sn  Sn11  1  0.882690  0.117310  0.722767  1
  Sn  Sn12  1  0.234620  0.117310  0.722767  1
  Sn  Sn13  1  0.882690  0.765380  0.722767  1
  Sn  Sn14  1  0.348831  0.000000  0.000000  1
  Sn  Sn15  1  0.651169  0.651169  0.000000  1
  Sn  Sn16  1  0.000000  0.348831  0.000000  1
  Sn  Sn17  1  0.348831  0.348831  0.000000  1
  Sn  Sn18  1  0.000000  0.651169  0.000000  1
  Sn  Sn19  1  0.651169  0.000000  0.000000  1
  Sn  Sn20  1  0.779008  0.558016  0.458228  1
  Sn  Sn21  1  0.779008  0.220992  0.458228  1
  Sn  Sn22  1  0.441984  0.220992  0.458228  1
  Sn  Sn23  1  0.220992  0.441984  0.541772  1
  Sn  Sn24  1  0.220992  0.779008  0.541772  1
  Sn  Sn25  1  0.558016  0.779008  0.541772  1
  Sn  Sn26  1  0.666667  0.333333  0.183889  1
  Sn  Sn27  1  0.333333  0.666667  0.816111  1
  Sn  Sn28  1  0.666667  0.333333  0.883858  1
  Sn  Sn29  1  0.333333  0.666667  0.116142  1
  Rh  Rh30  1  0.171277  0.828723  0.797775  1
  Rh  Rh31  1  0.657445  0.828723  0.797775  1
  Rh  Rh32  1  0.171277  0.342555  0.797775  1
  Rh  Rh33  1  0.828723  0.171277  0.202225  1
  Rh  Rh34  1  0.342555  0.171277  0.202225  1
  Rh  Rh35  1  0.828723  0.657445  0.202225  1
