# generated using pymatgen
data_Tb3Y(Ga5Ni3)2
_symmetry_space_group_name_H-M   'P 1'
_cell_length_a   8.33998468
_cell_length_b   8.33962450
_cell_length_c   8.33962460
_cell_angle_alpha   141.12841939
_cell_angle_beta   107.81103587
_cell_angle_gamma   85.15601957
_symmetry_Int_Tables_number   1
_chemical_formula_structural   Tb3Y(Ga5Ni3)2
_chemical_formula_sum   'Tb3 Y1 Ga10 Ni6'
_cell_volume   334.90964007
_cell_formula_units_Z   1
loop_
 _symmetry_equiv_pos_site_id
 _symmetry_equiv_pos_as_xyz
  1  'x, y, z'
loop_
 _atom_site_type_symbol
 _atom_site_label
 _atom_site_symmetry_multiplicity
 _atom_site_fract_x
 _atom_site_fract_y
 _atom_site_fract_z
 _atom_site_occupancy
  Tb  Tb0  1  0.366153  0.641849  0.724302  1
  Tb  Tb1  1  0.633871  0.358153  0.275718  1
  Tb  Tb2  1  0.082413  0.858115  0.224297  1
  Y  Y3  1  0.917463  0.141846  0.775617  1
  Ga  Ga4  1  0.000010  0.750026  0.749998  1
  Ga  Ga5  1  0.000010  0.250011  0.249984  1
  Ga  Ga6  1  0.710865  0.460843  0.750011  1
  Ga  Ga7  1  0.289117  0.039120  0.749961  1
  Ga  Ga8  1  0.289117  0.539156  0.249998  1
  Ga  Ga9  1  0.710865  0.960855  0.250022  1
  Ga  Ga10  1  0.239461  0.410522  0.828941  1
  Ga  Ga11  1  0.760655  0.589531  0.171122  1
  Ga  Ga12  1  0.581565  0.910490  0.671074  1
  Ga  Ga13  1  0.418424  0.089499  0.328925  1
  Ni  Ni14  1  0.049934  0.644223  0.405711  1
  Ni  Ni15  1  0.238540  0.144214  0.094326  1
  Ni  Ni16  1  0.499999  0.750003  0.250011  1
  Ni  Ni17  1  0.499999  0.249988  0.749996  1
  Ni  Ni18  1  0.950085  0.355797  0.594289  1
  Ni  Ni19  1  0.761454  0.855757  0.905696  1
