# generated using pymatgen
data_LaSn6Ir3Ru
_symmetry_space_group_name_H-M   'P 1'
_cell_length_a   7.05618315
_cell_length_b   7.05618257
_cell_length_c   6.94816316
_cell_angle_alpha   119.39781093
_cell_angle_beta   119.39781221
_cell_angle_gamma   91.93878896
_symmetry_Int_Tables_number   1
_chemical_formula_structural   LaSn6Ir3Ru
_chemical_formula_sum   'La1 Sn6 Ir3 Ru1'
_cell_volume   244.77899764
_cell_formula_units_Z   1
loop_
 _symmetry_equiv_pos_site_id
 _symmetry_equiv_pos_as_xyz
  1  'x, y, z'
loop_
 _atom_site_type_symbol
 _atom_site_label
 _atom_site_symmetry_multiplicity
 _atom_site_fract_x
 _atom_site_fract_y
 _atom_site_fract_z
 _atom_site_occupancy
  La  La0  1  0.000192  0.000192  0.999706  1
  Sn  Sn1  1  0.472417  0.130969  0.005070  1
  Sn  Sn2  1  0.130969  0.472417  0.005070  1
  Sn  Sn3  1  0.870197  0.870197  0.342050  1
  Sn  Sn4  1  0.530562  0.530562  0.656788  1
  Sn  Sn5  1  0.995542  0.500176  0.501036  1
  Sn  Sn6  1  0.500176  0.995542  0.501036  1
  Ir  Ir7  1  0.395717  0.763650  0.998225  1
  Ir  Ir8  1  0.763650  0.395717  0.998225  1
  Ir  Ir9  1  0.244607  0.244607  0.644576  1
  Ru  Ru10  1  0.595971  0.595971  0.348218  1
