# generated using pymatgen
data_Pu2Br5
_symmetry_space_group_name_H-M   'P 1'
_cell_length_a   4.16048000
_cell_length_b   8.68727029
_cell_length_c   13.80781371
_cell_angle_alpha   86.78533926
_cell_angle_beta   90.00000000
_cell_angle_gamma   90.00000000
_symmetry_Int_Tables_number   1
_chemical_formula_structural   Pu2Br5
_chemical_formula_sum   'Pu4 Br10'
_cell_volume   498.27347512
_cell_formula_units_Z   2
loop_
 _symmetry_equiv_pos_site_id
 _symmetry_equiv_pos_as_xyz
  1  'x, y, z'
loop_
 _atom_site_type_symbol
 _atom_site_label
 _atom_site_symmetry_multiplicity
 _atom_site_fract_x
 _atom_site_fract_y
 _atom_site_fract_z
 _atom_site_occupancy
  Pu  Pu0  1  0.250000  0.913605  0.141894  1
  Pu  Pu1  1  0.750000  0.086395  0.858106  1
  Pu  Pu2  1  0.250000  0.428226  0.651214  1
  Pu  Pu3  1  0.750000  0.571774  0.348786  1
  Br  Br4  1  0.250000  0.376189  0.278286  1
  Br  Br5  1  0.750000  0.623811  0.721714  1
  Br  Br6  1  0.250000  0.854716  0.928443  1
  Br  Br7  1  0.750000  0.145284  0.071557  1
  Br  Br8  1  0.750000  0.318381  0.516833  1
  Br  Br9  1  0.250000  0.681619  0.483167  1
  Br  Br10  1  0.750000  0.926600  0.305240  1
  Br  Br11  1  0.250000  0.073400  0.694760  1
  Br  Br12  1  0.750000  0.662294  0.127766  1
  Br  Br13  1  0.250000  0.337706  0.872234  1
