# generated using pymatgen
data_TbHo(Sc4Bi3)2
_symmetry_space_group_name_H-M   'P 1'
_cell_length_a   7.89973700
_cell_length_b   9.06782100
_cell_length_c   11.57607000
_cell_angle_alpha   90.00000000
_cell_angle_beta   90.00000000
_cell_angle_gamma   90.00000000
_symmetry_Int_Tables_number   1
_chemical_formula_structural   TbHo(Sc4Bi3)2
_chemical_formula_sum   'Tb2 Ho2 Sc16 Bi12'
_cell_volume   829.23326504
_cell_formula_units_Z   2
loop_
 _symmetry_equiv_pos_site_id
 _symmetry_equiv_pos_as_xyz
  1  'x, y, z'
loop_
 _atom_site_type_symbol
 _atom_site_label
 _atom_site_symmetry_multiplicity
 _atom_site_fract_x
 _atom_site_fract_y
 _atom_site_fract_z
 _atom_site_occupancy
  Tb  Tb0  1  0.684171  0.750000  0.780981  1
  Tb  Tb1  1  0.184171  0.750000  0.719019  1
  Ho  Ho2  1  0.315651  0.250000  0.218728  1
  Ho  Ho3  1  0.815651  0.250000  0.281272  1
  Sc  Sc4  1  0.348459  0.750000  0.220584  1
  Sc  Sc5  1  0.848459  0.750000  0.279416  1
  Sc  Sc6  1  0.651546  0.250000  0.779435  1
  Sc  Sc7  1  0.151546  0.250000  0.720565  1
  Sc  Sc8  1  0.693265  0.567225  0.062395  1
  Sc  Sc9  1  0.193265  0.932775  0.437605  1
  Sc  Sc10  1  0.306799  0.067194  0.937710  1
  Sc  Sc11  1  0.806799  0.432806  0.562290  1
  Sc  Sc12  1  0.306799  0.432806  0.937710  1
  Sc  Sc13  1  0.806799  0.067194  0.562290  1
  Sc  Sc14  1  0.693265  0.932775  0.062395  1
  Sc  Sc15  1  0.193265  0.567225  0.437605  1
  Sc  Sc16  1  0.481589  0.250000  0.488434  1
  Sc  Sc17  1  0.981589  0.250000  0.011566  1
  Sc  Sc18  1  0.518457  0.750000  0.511348  1
  Sc  Sc19  1  0.018457  0.750000  0.988652  1
  Bi  Bi20  1  0.402379  0.750000  0.967482  1
  Bi  Bi21  1  0.902379  0.750000  0.532518  1
  Bi  Bi22  1  0.597333  0.250000  0.033113  1
  Bi  Bi23  1  0.097333  0.250000  0.466887  1
  Bi  Bi24  1  0.564042  0.989969  0.328471  1
  Bi  Bi25  1  0.064042  0.510031  0.171529  1
  Bi  Bi26  1  0.436100  0.489249  0.671311  1
  Bi  Bi27  1  0.936100  0.010751  0.828689  1
  Bi  Bi28  1  0.436100  0.010751  0.671311  1
  Bi  Bi29  1  0.936100  0.489249  0.828689  1
  Bi  Bi30  1  0.564042  0.510031  0.328471  1
  Bi  Bi31  1  0.064042  0.989969  0.171529  1
