# generated using pymatgen
data_ErThGaRu2
_symmetry_space_group_name_H-M   'P 1'
_cell_length_a   5.57544980
_cell_length_b   5.57545012
_cell_length_c   5.57545020
_cell_angle_alpha   137.35749334
_cell_angle_beta   114.56582050
_cell_angle_gamma   81.29581420
_symmetry_Int_Tables_number   1
_chemical_formula_structural   ErThGaRu2
_chemical_formula_sum   'Er1 Th1 Ga1 Ru2'
_cell_volume   103.36988367
_cell_formula_units_Z   1
loop_
 _symmetry_equiv_pos_site_id
 _symmetry_equiv_pos_as_xyz
  1  'x, y, z'
loop_
 _atom_site_type_symbol
 _atom_site_label
 _atom_site_symmetry_multiplicity
 _atom_site_fract_x
 _atom_site_fract_y
 _atom_site_fract_z
 _atom_site_occupancy
  Er  Er0  1  0.295347  0.795347  0.500000  1
  Th  Th1  1  0.700832  0.200832  0.500000  1
  Ga  Ga2  1  0.005694  0.005694  0.000000  1
  Ru  Ru3  1  0.260187  0.499063  0.761124  1
  Ru  Ru4  1  0.737938  0.499063  0.238876  1
