# generated using pymatgen
data_Tb2SmGa4Pd7
_symmetry_space_group_name_H-M   'P 1'
_cell_length_a   8.12590231
_cell_length_b   8.12590247
_cell_length_c   9.68930417
_cell_angle_alpha   56.30816296
_cell_angle_beta   56.30816184
_cell_angle_gamma   29.49129014
_symmetry_Int_Tables_number   1
_chemical_formula_structural   Tb2SmGa4Pd7
_chemical_formula_sum   'Tb2 Sm1 Ga4 Pd7'
_cell_volume   257.99248410
_cell_formula_units_Z   1
loop_
 _symmetry_equiv_pos_site_id
 _symmetry_equiv_pos_as_xyz
  1  'x, y, z'
loop_
 _atom_site_type_symbol
 _atom_site_label
 _atom_site_symmetry_multiplicity
 _atom_site_fract_x
 _atom_site_fract_y
 _atom_site_fract_z
 _atom_site_occupancy
  Tb  Tb0  1  0.672431  0.672431  0.333478  1
  Tb  Tb1  1  0.327569  0.327569  0.666522  1
  Sm  Sm2  1  0.000000  0.000000  0.000000  1
  Ga  Ga3  1  0.336835  0.336835  0.269612  1
  Ga  Ga4  1  0.663165  0.663165  0.730388  1
  Ga  Ga5  1  0.886902  0.886902  0.834176  1
  Ga  Ga6  1  0.113098  0.113098  0.165824  1
  Pd  Pd7  1  0.308657  0.308657  0.036102  1
  Pd  Pd8  1  0.691343  0.691343  0.963898  1
  Pd  Pd9  1  0.507071  0.507071  0.711227  1
  Pd  Pd10  1  0.836244  0.836244  0.426537  1
  Pd  Pd11  1  0.492929  0.492929  0.288773  1
  Pd  Pd12  1  0.163756  0.163756  0.573463  1
  Pd  Pd13  1  0.000000  0.000000  0.500000  1
