# generated using pymatgen
data_Zr4Al3TcN
_symmetry_space_group_name_H-M   'P 1'
_cell_length_a   8.06653400
_cell_length_b   8.06653542
_cell_length_c   5.49465100
_cell_angle_alpha   90.00000000
_cell_angle_beta   90.00000000
_cell_angle_gamma   119.99999419
_symmetry_Int_Tables_number   1
_chemical_formula_structural   Zr4Al3TcN
_chemical_formula_sum   'Zr8 Al6 Tc2 N2'
_cell_volume   309.63124823
_cell_formula_units_Z   2
loop_
 _symmetry_equiv_pos_site_id
 _symmetry_equiv_pos_as_xyz
  1  'x, y, z'
loop_
 _atom_site_type_symbol
 _atom_site_label
 _atom_site_symmetry_multiplicity
 _atom_site_fract_x
 _atom_site_fract_y
 _atom_site_fract_z
 _atom_site_occupancy
  Zr  Zr0  1  0.227668  0.000000  0.251939  1
  Zr  Zr1  1  0.772332  0.000000  0.748061  1
  Zr  Zr2  1  0.000000  0.227668  0.251939  1
  Zr  Zr3  1  0.000000  0.772332  0.748061  1
  Zr  Zr4  1  0.772332  0.772332  0.251939  1
  Zr  Zr5  1  0.227668  0.227668  0.748061  1
  Zr  Zr6  1  0.666667  0.333333  0.500000  1
  Zr  Zr7  1  0.333333  0.666667  0.500000  1
  Al  Al8  1  0.585853  0.000000  0.217684  1
  Al  Al9  1  0.414147  0.000000  0.782316  1
  Al  Al10  1  0.000000  0.585853  0.217684  1
  Al  Al11  1  0.000000  0.414147  0.782316  1
  Al  Al12  1  0.414147  0.414147  0.217684  1
  Al  Al13  1  0.585853  0.585853  0.782316  1
  Tc  Tc14  1  0.333333  0.666667  0.000000  1
  Tc  Tc15  1  0.666667  0.333333  0.000000  1
  N  N16  1  0.000000  0.000000  0.000000  1
  N  N17  1  0.000000  0.000000  0.500000  1
