# generated using pymatgen
data_ScIr3O8
_symmetry_space_group_name_H-M   'P 1'
_cell_length_a   4.64057625
_cell_length_b   5.60079010
_cell_length_c   5.60088536
_cell_angle_alpha   110.64665827
_cell_angle_beta   89.90012079
_cell_angle_gamma   90.12085996
_symmetry_Int_Tables_number   1
_chemical_formula_structural   ScIr3O8
_chemical_formula_sum   'Sc1 Ir3 O8'
_cell_volume   136.22193760
_cell_formula_units_Z   1
loop_
 _symmetry_equiv_pos_site_id
 _symmetry_equiv_pos_as_xyz
  1  'x, y, z'
loop_
 _atom_site_type_symbol
 _atom_site_label
 _atom_site_symmetry_multiplicity
 _atom_site_fract_x
 _atom_site_fract_y
 _atom_site_fract_z
 _atom_site_occupancy
  Sc  Sc0  1  0.500018  0.749968  0.250007  1
  Ir  Ir1  1  0.999993  0.250059  0.250021  1
  Ir  Ir2  1  0.999976  0.749974  0.749989  1
  Ir  Ir3  1  0.500000  0.250047  0.750022  1
  O  O4  1  0.170929  0.902926  0.096998  1
  O  O5  1  0.303471  0.388540  0.091590  1
  O  O6  1  0.829068  0.597079  0.403033  1
  O  O7  1  0.696544  0.111443  0.408374  1
  O  O8  1  0.303229  0.908231  0.611642  1
  O  O9  1  0.197097  0.405970  0.594399  1
  O  O10  1  0.696782  0.591737  0.888342  1
  O  O11  1  0.802890  0.094019  0.905582  1
