# generated using pymatgen
data_Hf20C17O
_symmetry_space_group_name_H-M   'P 1'
_cell_length_a   8.68485441
_cell_length_b   8.68709845
_cell_length_c   10.88275571
_cell_angle_alpha   63.00049249
_cell_angle_beta   63.03329882
_cell_angle_gamma   44.52515944
_symmetry_Int_Tables_number   1
_chemical_formula_structural   Hf20C17O
_chemical_formula_sum   'Hf20 C17 O1'
_cell_volume   501.80300509
_cell_formula_units_Z   1
loop_
 _symmetry_equiv_pos_site_id
 _symmetry_equiv_pos_as_xyz
  1  'x, y, z'
loop_
 _atom_site_type_symbol
 _atom_site_label
 _atom_site_symmetry_multiplicity
 _atom_site_fract_x
 _atom_site_fract_y
 _atom_site_fract_z
 _atom_site_occupancy
  Hf  Hf0  1  0.227895  0.481425  0.942147  1
  Hf  Hf1  1  0.721469  0.967828  0.955717  1
  Hf  Hf2  1  0.564519  0.330501  0.648520  1
  Hf  Hf3  1  0.435537  0.669201  0.350924  1
  Hf  Hf4  1  0.281946  0.028275  0.041301  1
  Hf  Hf5  1  0.081812  0.813886  0.645228  1
  Hf  Hf6  1  0.123565  0.373091  0.750138  1
  Hf  Hf7  1  0.915219  0.181940  0.359579  1
  Hf  Hf8  1  0.968030  0.720260  0.456973  1
  Hf  Hf9  1  0.769270  0.526042  0.049906  1
  Hf  Hf10  1  0.627295  0.876988  0.748536  1
  Hf  Hf11  1  0.815279  0.082382  0.144822  1
  Hf  Hf12  1  0.476837  0.224401  0.448105  1
  Hf  Hf13  1  0.670472  0.435356  0.850629  1
  Hf  Hf14  1  0.521424  0.776413  0.553791  1
  Hf  Hf15  1  0.329373  0.563994  0.149045  1
  Hf  Hf16  1  0.378915  0.119001  0.252904  1
  Hf  Hf17  1  0.185367  0.919814  0.854092  1
  Hf  Hf18  1  0.031830  0.278791  0.544355  1
  Hf  Hf19  1  0.871988  0.634117  0.252031  1
  C  C20  1  0.925707  0.675970  0.851701  1
  C  C21  1  0.574750  0.827005  0.148076  1
  C  C22  1  0.776885  0.026399  0.549498  1
  C  C23  1  0.422772  0.173618  0.853889  1
  C  C24  1  0.627992  0.374600  0.249230  1
  C  C25  1  0.275094  0.527623  0.550620  1
  C  C26  1  0.473309  0.725576  0.950820  1
  C  C27  1  0.322862  0.074393  0.650342  1
  C  C28  1  0.173213  0.424425  0.350820  1
  C  C29  1  0.975163  0.223554  0.951750  1
  C  C30  1  0.826342  0.575410  0.647911  1
  C  C31  1  0.025960  0.773436  0.051104  1
  C  C32  1  0.676946  0.924365  0.348430  1
  C  C33  1  0.726425  0.471437  0.447553  1
  C  C34  1  0.525163  0.275877  0.051371  1
  C  C35  1  0.374917  0.623850  0.750726  1
  C  C36  1  0.222728  0.976906  0.447441  1
  O  O37  1  0.075728  0.321851  0.149974  1
