# generated using pymatgen
data_Nd2ZnGa8Cu17
_symmetry_space_group_name_H-M   'P 1'
_cell_length_a   8.36131405
_cell_length_b   8.36471528
_cell_length_c   8.35619530
_cell_angle_alpha   120.34799003
_cell_angle_beta   120.97970104
_cell_angle_gamma   88.95029259
_symmetry_Int_Tables_number   1
_chemical_formula_structural   Nd2ZnGa8Cu17
_chemical_formula_sum   'Nd2 Zn1 Ga8 Cu17'
_cell_volume   408.66980277
_cell_formula_units_Z   1
loop_
 _symmetry_equiv_pos_site_id
 _symmetry_equiv_pos_as_xyz
  1  'x, y, z'
loop_
 _atom_site_type_symbol
 _atom_site_label
 _atom_site_symmetry_multiplicity
 _atom_site_fract_x
 _atom_site_fract_y
 _atom_site_fract_z
 _atom_site_occupancy
  Nd  Nd0  1  0.747505  0.746801  0.997950  1
  Nd  Nd1  1  0.251238  0.250433  0.998132  1
  Zn  Zn2  1  0.196908  0.060008  0.256847  1
  Ga  Ga3  1  0.802573  0.303018  0.860988  1
  Ga  Ga4  1  0.448407  0.938938  0.136905  1
  Ga  Ga5  1  0.696847  0.558143  0.500141  1
  Ga  Ga6  1  0.056472  0.199966  0.507315  1
  Ga  Ga7  1  0.198050  0.688502  0.136983  1
  Ga  Ga8  1  0.558039  0.058454  0.861091  1
  Ga  Ga9  1  0.941902  0.803258  0.500094  1
  Ga  Ga10  1  0.307204  0.450696  0.507028  1
  Cu  Cu11  1  0.798675  0.937869  0.736516  1
  Cu  Cu12  1  0.297790  0.562081  0.859888  1
  Cu  Cu13  1  0.702180  0.438424  0.140586  1
  Cu  Cu14  1  0.437239  0.297968  0.735218  1
  Cu  Cu15  1  0.562701  0.702678  0.265414  1
  Cu  Cu16  1  0.936970  0.204445  0.141167  1
  Cu  Cu17  1  0.062828  0.794854  0.857772  1
  Cu  Cu18  1  0.500242  0.999477  0.499727  1
  Cu  Cu19  1  0.000060  0.499471  0.499510  1
  Cu  Cu20  1  0.294895  0.796032  0.732968  1
  Cu  Cu21  1  0.061031  0.562709  0.267384  1
  Cu  Cu22  1  0.204468  0.938179  0.499441  1
  Cu  Cu23  1  0.438461  0.706206  0.500550  1
  Cu  Cu24  1  0.704686  0.206318  0.267386  1
  Cu  Cu25  1  0.936956  0.438064  0.732999  1
  Cu  Cu26  1  0.561337  0.294971  0.499450  1
  Cu  Cu27  1  0.794338  0.062039  0.500560  1
