# generated using pymatgen
data_Mg4Ga6TcMo
_symmetry_space_group_name_H-M   'P 1'
_cell_length_a   5.23179906
_cell_length_b   5.23179879
_cell_length_c   8.65613600
_cell_angle_alpha   90.00000000
_cell_angle_beta   90.00000000
_cell_angle_gamma   116.93154020
_symmetry_Int_Tables_number   1
_chemical_formula_structural   Mg4Ga6TcMo
_chemical_formula_sum   'Mg4 Ga6 Tc1 Mo1'
_cell_volume   211.23751729
_cell_formula_units_Z   1
loop_
 _symmetry_equiv_pos_site_id
 _symmetry_equiv_pos_as_xyz
  1  'x, y, z'
loop_
 _atom_site_type_symbol
 _atom_site_label
 _atom_site_symmetry_multiplicity
 _atom_site_fract_x
 _atom_site_fract_y
 _atom_site_fract_z
 _atom_site_occupancy
  Mg  Mg0  1  0.675463  0.324537  0.067347  1
  Mg  Mg1  1  0.324255  0.675745  0.932957  1
  Mg  Mg2  1  0.324255  0.675745  0.567043  1
  Mg  Mg3  1  0.675463  0.324537  0.432653  1
  Ga  Ga4  1  0.829635  0.643233  0.750000  1
  Ga  Ga5  1  0.171949  0.359101  0.250000  1
  Ga  Ga6  1  0.356767  0.170365  0.750000  1
  Ga  Ga7  1  0.640899  0.828051  0.250000  1
  Ga  Ga8  1  0.001447  0.998553  0.498850  1
  Ga  Ga9  1  0.001447  0.998553  0.001150  1
  Tc  Tc10  1  0.154667  0.845333  0.250000  1
  Mo  Mo11  1  0.843755  0.156245  0.750000  1
