# generated using pymatgen
data_Tb3CI3
_symmetry_space_group_name_H-M   'P 1'
_cell_length_a   3.92238300
_cell_length_b   8.77816753
_cell_length_c   11.91523024
_cell_angle_alpha   92.29008499
_cell_angle_beta   90.00000000
_cell_angle_gamma   90.00000000
_symmetry_Int_Tables_number   1
_chemical_formula_structural   Tb3CI3
_chemical_formula_sum   'Tb6 C2 I6'
_cell_volume   409.92962291
_cell_formula_units_Z   2
loop_
 _symmetry_equiv_pos_site_id
 _symmetry_equiv_pos_as_xyz
  1  'x, y, z'
loop_
 _atom_site_type_symbol
 _atom_site_label
 _atom_site_symmetry_multiplicity
 _atom_site_fract_x
 _atom_site_fract_y
 _atom_site_fract_z
 _atom_site_occupancy
  Tb  Tb0  1  0.250000  0.918601  0.600217  1
  Tb  Tb1  1  0.750000  0.081399  0.399783  1
  Tb  Tb2  1  0.250000  0.886685  0.185610  1
  Tb  Tb3  1  0.750000  0.113315  0.814390  1
  Tb  Tb4  1  0.250000  0.291758  0.615882  1
  Tb  Tb5  1  0.750000  0.708242  0.384118  1
  C  C6  1  0.250000  0.883914  0.386736  1
  C  C7  1  0.750000  0.116086  0.613264  1
  I  I8  1  0.250000  0.859400  0.873563  1
  I  I9  1  0.750000  0.140600  0.126437  1
  I  I10  1  0.250000  0.375797  0.872173  1
  I  I11  1  0.750000  0.624203  0.127827  1
  I  I12  1  0.250000  0.381781  0.367843  1
  I  I13  1  0.750000  0.618219  0.632157  1
