# generated using pymatgen
data_YEr7Ti3Si16W9
_symmetry_space_group_name_H-M   'P 1'
_cell_length_a   6.88815058
_cell_length_b   6.88801957
_cell_length_c   12.77089823
_cell_angle_alpha   89.97927629
_cell_angle_beta   90.01438905
_cell_angle_gamma   89.84560876
_symmetry_Int_Tables_number   1
_chemical_formula_structural   YEr7Ti3Si16W9
_chemical_formula_sum   'Y1 Er7 Ti3 Si16 W9'
_cell_volume   605.92215166
_cell_formula_units_Z   1
loop_
 _symmetry_equiv_pos_site_id
 _symmetry_equiv_pos_as_xyz
  1  'x, y, z'
loop_
 _atom_site_type_symbol
 _atom_site_label
 _atom_site_symmetry_multiplicity
 _atom_site_fract_x
 _atom_site_fract_y
 _atom_site_fract_z
 _atom_site_occupancy
  Y  Y0  1  0.339308  0.002088  0.468691  1
  Er  Er1  1  0.497151  0.838373  0.719464  1
  Er  Er2  1  0.499410  0.161636  0.217521  1
  Er  Er3  1  0.838322  0.497001  0.280656  1
  Er  Er4  1  0.161514  0.499309  0.782405  1
  Er  Er5  1  0.659860  0.999340  0.968902  1
  Er  Er6  1  0.001630  0.339648  0.531322  1
  Er  Er7  1  0.999277  0.659807  0.030996  1
  Ti  Ti8  1  0.170385  0.831507  0.248399  1
  Ti  Ti9  1  0.831587  0.170473  0.751457  1
  Ti  Ti10  1  0.669290  0.668819  0.500049  1
  Si  Si11  1  0.200339  0.130338  0.682947  1
  Si  Si12  1  0.372244  0.698735  0.932876  1
  Si  Si13  1  0.630237  0.299161  0.432893  1
  Si  Si14  1  0.698741  0.372265  0.067113  1
  Si  Si15  1  0.298649  0.629087  0.567267  1
  Si  Si16  1  0.796805  0.870822  0.183353  1
  Si  Si17  1  0.129656  0.201001  0.316922  1
  Si  Si18  1  0.870856  0.796803  0.816638  1
  Si  Si19  1  0.289737  0.962816  0.062402  1
  Si  Si20  1  0.540251  0.791950  0.313608  1
  Si  Si21  1  0.459246  0.208610  0.814274  1
  Si  Si22  1  0.792408  0.539828  0.686046  1
  Si  Si23  1  0.208602  0.459249  0.185716  1
  Si  Si24  1  0.709609  0.041074  0.564266  1
  Si  Si25  1  0.962791  0.289746  0.937609  1
  Si  Si26  1  0.040531  0.708464  0.435920  1
  W  W27  1  0.331585  0.331553  0.999995  1
  W  W28  1  0.157472  0.002001  0.873264  1
  W  W29  1  0.495183  0.664658  0.124798  1
  W  W30  1  0.505523  0.341236  0.624985  1
  W  W31  1  0.664707  0.495210  0.875129  1
  W  W32  1  0.340859  0.505343  0.375207  1
  W  W33  1  0.840197  0.994420  0.374077  1
  W  W34  1  0.001898  0.157520  0.126719  1
  W  W35  1  0.994142  0.840109  0.626112  1
