# generated using pymatgen
data_Tm3Sc3B4(Ir4Rh)2
_symmetry_space_group_name_H-M   'P 1'
_cell_length_a   3.14694900
_cell_length_b   9.67576672
_cell_length_c   9.67576658
_cell_angle_alpha   89.57571469
_cell_angle_beta   90.00000000
_cell_angle_gamma   90.00000000
_symmetry_Int_Tables_number   1
_chemical_formula_structural   Tm3Sc3B4(Ir4Rh)2
_chemical_formula_sum   'Tm3 Sc3 B4 Ir8 Rh2'
_cell_volume   294.61073588
_cell_formula_units_Z   1
loop_
 _symmetry_equiv_pos_site_id
 _symmetry_equiv_pos_as_xyz
  1  'x, y, z'
loop_
 _atom_site_type_symbol
 _atom_site_label
 _atom_site_symmetry_multiplicity
 _atom_site_fract_x
 _atom_site_fract_y
 _atom_site_fract_z
 _atom_site_occupancy
  Tm  Tm0  1  0.000000  0.175540  0.676883  1
  Tm  Tm1  1  0.000000  0.823117  0.324460  1
  Tm  Tm2  1  0.000000  0.325040  0.174960  1
  Sc  Sc3  1  0.000000  0.676049  0.823951  1
  Sc  Sc4  1  0.000000  0.000914  0.000085  1
  Sc  Sc5  1  0.000000  0.499915  0.499086  1
  B  B6  1  0.000000  0.622266  0.117017  1
  B  B7  1  0.000000  0.382983  0.877734  1
  B  B8  1  0.000000  0.876701  0.623299  1
  B  B9  1  0.000000  0.119000  0.381000  1
  Ir  Ir10  1  0.500000  0.068735  0.225234  1
  Ir  Ir11  1  0.500000  0.925058  0.778815  1
  Ir  Ir12  1  0.500000  0.776031  0.064603  1
  Ir  Ir13  1  0.500000  0.435397  0.723969  1
  Ir  Ir14  1  0.500000  0.226745  0.930800  1
  Ir  Ir15  1  0.500000  0.569200  0.273255  1
  Ir  Ir16  1  0.500000  0.721185  0.574942  1
  Ir  Ir17  1  0.500000  0.274766  0.431265  1
  Rh  Rh18  1  0.500000  0.997693  0.502307  1
  Rh  Rh19  1  0.500000  0.503665  0.996335  1
