# generated using pymatgen
data_Y3Er7Al3Ru
_symmetry_space_group_name_H-M   'P 1'
_cell_length_a   9.48105800
_cell_length_b   9.48105929
_cell_length_c   9.55697500
_cell_angle_alpha   90.00000000
_cell_angle_beta   90.00000000
_cell_angle_gamma   120.00000246
_symmetry_Int_Tables_number   1
_chemical_formula_structural   Y3Er7Al3Ru
_chemical_formula_sum   'Y6 Er14 Al6 Ru2'
_cell_volume   743.98595481
_cell_formula_units_Z   2
loop_
 _symmetry_equiv_pos_site_id
 _symmetry_equiv_pos_as_xyz
  1  'x, y, z'
loop_
 _atom_site_type_symbol
 _atom_site_label
 _atom_site_symmetry_multiplicity
 _atom_site_fract_x
 _atom_site_fract_y
 _atom_site_fract_z
 _atom_site_occupancy
  Y  Y0  1  0.539565  0.460435  0.250000  1
  Y  Y1  1  0.539565  0.079131  0.250000  1
  Y  Y2  1  0.920869  0.460435  0.250000  1
  Y  Y3  1  0.460435  0.539565  0.750000  1
  Y  Y4  1  0.460435  0.920869  0.750000  1
  Y  Y5  1  0.079131  0.539565  0.750000  1
  Er  Er6  1  0.000000  0.000000  0.500000  1
  Er  Er7  1  0.000000  0.000000  0.000000  1
  Er  Er8  1  0.207105  0.792895  0.439692  1
  Er  Er9  1  0.207105  0.414211  0.439692  1
  Er  Er10  1  0.585789  0.792895  0.439692  1
  Er  Er11  1  0.792895  0.207105  0.560308  1
  Er  Er12  1  0.792895  0.585789  0.560308  1
  Er  Er13  1  0.414211  0.207105  0.560308  1
  Er  Er14  1  0.792895  0.207105  0.939692  1
  Er  Er15  1  0.792895  0.585789  0.939692  1
  Er  Er16  1  0.414211  0.207105  0.939692  1
  Er  Er17  1  0.207105  0.792895  0.060308  1
  Er  Er18  1  0.207105  0.414211  0.060308  1
  Er  Er19  1  0.585789  0.792895  0.060308  1
  Al  Al20  1  0.889078  0.110922  0.250000  1
  Al  Al21  1  0.889078  0.778157  0.250000  1
  Al  Al22  1  0.221843  0.110922  0.250000  1
  Al  Al23  1  0.110922  0.889078  0.750000  1
  Al  Al24  1  0.110922  0.221843  0.750000  1
  Al  Al25  1  0.778157  0.889078  0.750000  1
  Ru  Ru26  1  0.333333  0.666667  0.250000  1
  Ru  Ru27  1  0.666667  0.333333  0.750000  1
