# generated using pymatgen
data_Ta3Cr3GaP2
_symmetry_space_group_name_H-M   'P 1'
_cell_length_a   6.62495404
_cell_length_b   3.27728100
_cell_length_c   6.62469403
_cell_angle_alpha   90.00000000
_cell_angle_beta   120.00360660
_cell_angle_gamma   90.00000000
_symmetry_Int_Tables_number   1
_chemical_formula_structural   Ta3Cr3GaP2
_chemical_formula_sum   'Ta3 Cr3 Ga1 P2'
_cell_volume   124.55960484
_cell_formula_units_Z   1
loop_
 _symmetry_equiv_pos_site_id
 _symmetry_equiv_pos_as_xyz
  1  'x, y, z'
loop_
 _atom_site_type_symbol
 _atom_site_label
 _atom_site_symmetry_multiplicity
 _atom_site_fract_x
 _atom_site_fract_y
 _atom_site_fract_z
 _atom_site_occupancy
  Ta  Ta0  1  0.391806  0.500000  0.985329  1
  Ta  Ta1  1  0.014688  0.500000  0.406476  1
  Ta  Ta2  1  0.593491  0.500000  0.608129  1
  Cr  Cr3  1  0.746266  0.000000  0.989792  1
  Cr  Cr4  1  0.243534  0.000000  0.253693  1
  Cr  Cr5  1  0.010268  0.000000  0.756553  1
  Ga  Ga6  1  0.666611  0.000000  0.333301  1
  P  P7  1  0.000057  0.500000  0.000013  1
  P  P8  1  0.333313  0.000000  0.666648  1
