# generated using pymatgen
data_LaTbNd2(MoO4)6
_symmetry_space_group_name_H-M   'P 1'
_cell_length_a   7.62996312
_cell_length_b   7.62996082
_cell_length_c   10.94478726
_cell_angle_alpha   90.16730300
_cell_angle_beta   89.83277192
_cell_angle_gamma   89.99437772
_symmetry_Int_Tables_number   1
_chemical_formula_structural   LaTbNd2(MoO4)6
_chemical_formula_sum   'La1 Tb1 Nd2 Mo6 O24'
_cell_volume   637.15980030
_cell_formula_units_Z   1
loop_
 _symmetry_equiv_pos_site_id
 _symmetry_equiv_pos_as_xyz
  1  'x, y, z'
loop_
 _atom_site_type_symbol
 _atom_site_label
 _atom_site_symmetry_multiplicity
 _atom_site_fract_x
 _atom_site_fract_y
 _atom_site_fract_z
 _atom_site_occupancy
  La  La0  1  0.685862  0.814141  0.740491  1
  Tb  Tb1  1  0.307608  0.192390  0.734884  1
  Nd  Nd2  1  0.189515  0.689129  0.261889  1
  Nd  Nd3  1  0.810875  0.310485  0.261888  1
  Mo  Mo4  1  0.209709  0.706944  0.645224  1
  Mo  Mo5  1  0.793051  0.290291  0.645219  1
  Mo  Mo6  1  0.708459  0.791541  0.352520  1
  Mo  Mo7  1  0.290854  0.209147  0.360521  1
  Mo  Mo8  1  0.007265  0.006025  0.998608  1
  Mo  Mo9  1  0.493974  0.492736  0.998608  1
  O  O10  1  0.197687  0.696580  0.482756  1
  O  O11  1  0.803417  0.302316  0.482752  1
  O  O12  1  0.696285  0.803718  0.514810  1
  O  O13  1  0.301193  0.198806  0.523265  1
  O  O14  1  0.620863  0.135341  0.691189  1
  O  O15  1  0.364658  0.879135  0.691193  1
  O  O16  1  0.127861  0.372141  0.313879  1
  O  O17  1  0.872204  0.627797  0.305888  1
  O  O18  1  0.774260  0.999179  0.293933  1
  O  O19  1  0.226591  0.000381  0.302369  1
  O  O20  1  0.499619  0.273410  0.302369  1
  O  O21  1  0.500819  0.725740  0.293931  1
  O  O22  1  0.001764  0.220011  0.701502  1
  O  O23  1  0.000680  0.766083  0.704343  1
  O  O24  1  0.733916  0.499320  0.704340  1
  O  O25  1  0.279989  0.498231  0.701507  1
  O  O26  1  0.816013  0.960796  0.909189  1
  O  O27  1  0.186965  0.053358  0.898100  1
  O  O28  1  0.446642  0.313035  0.898100  1
  O  O29  1  0.539204  0.683990  0.909189  1
  O  O30  1  0.965797  0.190500  0.096053  1
  O  O31  1  0.056427  0.819525  0.091720  1
  O  O32  1  0.680476  0.443575  0.091719  1
  O  O33  1  0.309498  0.534203  0.096053  1
