# generated using pymatgen
data_NpAsPdN
_symmetry_space_group_name_H-M   'P 1'
_cell_length_a   3.99030500
_cell_length_b   3.99030500
_cell_length_c   8.26738600
_cell_angle_alpha   90.00000000
_cell_angle_beta   90.00000000
_cell_angle_gamma   90.00000000
_symmetry_Int_Tables_number   1
_chemical_formula_structural   NpAsPdN
_chemical_formula_sum   'Np2 As2 Pd2 N2'
_cell_volume   131.63773462
_cell_formula_units_Z   2
loop_
 _symmetry_equiv_pos_site_id
 _symmetry_equiv_pos_as_xyz
  1  'x, y, z'
loop_
 _atom_site_type_symbol
 _atom_site_label
 _atom_site_symmetry_multiplicity
 _atom_site_fract_x
 _atom_site_fract_y
 _atom_site_fract_z
 _atom_site_occupancy
  Np  Np0  1  0.250002  0.250002  0.130015  1
  Np  Np1  1  0.750003  0.750003  0.869985  1
  As  As2  1  0.750003  0.750003  0.312868  1
  As  As3  1  0.250002  0.250002  0.687132  1
  Pd  Pd4  1  0.750003  0.250002  0.500000  1
  Pd  Pd5  1  0.250002  0.750003  0.500000  1
  N  N6  1  0.750003  0.250002  0.000000  1
  N  N7  1  0.250002  0.750003  0.000000  1
