# generated using pymatgen
data_Co7Ni(SnAs)4
_symmetry_space_group_name_H-M   'P 1'
_cell_length_a   12.72484194
_cell_length_b   3.72629000
_cell_length_c   5.19439868
_cell_angle_alpha   90.00000000
_cell_angle_beta   89.93910939
_cell_angle_gamma   90.00000000
_symmetry_Int_Tables_number   1
_chemical_formula_structural   Co7Ni(SnAs)4
_chemical_formula_sum   'Co7 Ni1 Sn4 As4'
_cell_volume   246.29981267
_cell_formula_units_Z   1
loop_
 _symmetry_equiv_pos_site_id
 _symmetry_equiv_pos_as_xyz
  1  'x, y, z'
loop_
 _atom_site_type_symbol
 _atom_site_label
 _atom_site_symmetry_multiplicity
 _atom_site_fract_x
 _atom_site_fract_y
 _atom_site_fract_z
 _atom_site_occupancy
  Co  Co0  1  0.607014  0.750000  0.995725  1
  Co  Co1  1  0.896087  0.249999  0.005184  1
  Co  Co2  1  0.396473  0.249999  0.494651  1
  Co  Co3  1  0.101310  0.750000  0.504402  1
  Co  Co4  1  0.897408  0.249999  0.495797  1
  Co  Co5  1  0.605027  0.750000  0.506692  1
  Co  Co6  1  0.104596  0.750000  0.994662  1
  Ni  Ni7  1  0.391045  0.249999  0.002133  1
  Sn  Sn8  1  0.207762  0.249999  0.253974  1
  Sn  Sn9  1  0.711652  0.249999  0.253869  1
  Sn  Sn10  1  0.286948  0.750000  0.739861  1
  Sn  Sn11  1  0.790824  0.750000  0.749480  1
  As  As12  1  0.454215  0.750000  0.251641  1
  As  As13  1  0.950309  0.750000  0.247273  1
  As  As14  1  0.048924  0.249999  0.751337  1
  As  As15  1  0.550410  0.249999  0.753321  1
