# generated using pymatgen
data_CoCuMo12(Pt3N2)2
_symmetry_space_group_name_H-M   'P 1'
_cell_length_a   6.85307455
_cell_length_b   6.83826810
_cell_length_c   6.84702268
_cell_angle_alpha   90.13623361
_cell_angle_beta   90.19459136
_cell_angle_gamma   89.81081607
_symmetry_Int_Tables_number   1
_chemical_formula_structural   CoCuMo12(Pt3N2)2
_chemical_formula_sum   'Co1 Cu1 Mo12 Pt6 N4'
_cell_volume   320.86862839
_cell_formula_units_Z   1
loop_
 _symmetry_equiv_pos_site_id
 _symmetry_equiv_pos_as_xyz
  1  'x, y, z'
loop_
 _atom_site_type_symbol
 _atom_site_label
 _atom_site_symmetry_multiplicity
 _atom_site_fract_x
 _atom_site_fract_y
 _atom_site_fract_z
 _atom_site_occupancy
  Co  Co0  1  0.194300  0.187921  0.192072  1
  Cu  Cu1  1  0.307684  0.813747  0.690319  1
  Mo  Mo2  1  0.623595  0.699321  0.955294  1
  Mo  Mo3  1  0.453108  0.879699  0.298849  1
  Mo  Mo4  1  0.701658  0.951896  0.621271  1
  Mo  Mo5  1  0.540404  0.371621  0.198841  1
  Mo  Mo6  1  0.374008  0.199090  0.540504  1
  Mo  Mo7  1  0.195968  0.535394  0.370828  1
  Mo  Mo8  1  0.878050  0.299457  0.452431  1
  Mo  Mo9  1  0.046609  0.123148  0.806708  1
  Mo  Mo10  1  0.301003  0.454893  0.874611  1
  Mo  Mo11  1  0.125130  0.803152  0.049095  1
  Mo  Mo12  1  0.804601  0.049713  0.123528  1
  Mo  Mo13  1  0.952333  0.624737  0.702480  1
  Pt  Pt14  1  0.429235  0.058023  0.939894  1
  Pt  Pt15  1  0.812100  0.690458  0.310964  1
  Pt  Pt16  1  0.687961  0.310593  0.809223  1
  Pt  Pt17  1  0.548598  0.569668  0.561513  1
  Pt  Pt18  1  0.071885  0.945353  0.439348  1
  Pt  Pt19  1  0.951968  0.432167  0.061929  1
  N  N20  1  0.374280  0.625495  0.125364  1
  N  N21  1  0.873408  0.874471  0.875012  1
  N  N22  1  0.124518  0.373981  0.626434  1
  N  N23  1  0.627594  0.126001  0.373490  1
