# generated using pymatgen
data_Dy3Th5(HgPt2)4
_symmetry_space_group_name_H-M   'P 1'
_cell_length_a   7.89315100
_cell_length_b   7.89315188
_cell_length_c   7.54501700
_cell_angle_alpha   90.00000000
_cell_angle_beta   90.00000000
_cell_angle_gamma   90.59309361
_symmetry_Int_Tables_number   1
_chemical_formula_structural   Dy3Th5(HgPt2)4
_chemical_formula_sum   'Dy3 Th5 Hg4 Pt8'
_cell_volume   470.04325515
_cell_formula_units_Z   1
loop_
 _symmetry_equiv_pos_site_id
 _symmetry_equiv_pos_as_xyz
  1  'x, y, z'
loop_
 _atom_site_type_symbol
 _atom_site_label
 _atom_site_symmetry_multiplicity
 _atom_site_fract_x
 _atom_site_fract_y
 _atom_site_fract_z
 _atom_site_occupancy
  Dy  Dy0  1  0.670299  0.670299  0.500000  1
  Dy  Dy1  1  0.829882  0.167518  0.000000  1
  Dy  Dy2  1  0.167518  0.829882  0.000000  1
  Th  Th3  1  0.676410  0.676410  0.000000  1
  Th  Th4  1  0.330435  0.330435  0.500000  1
  Th  Th5  1  0.824912  0.172512  0.500000  1
  Th  Th6  1  0.327184  0.327184  0.000000  1
  Th  Th7  1  0.172512  0.824912  0.500000  1
  Hg  Hg8  1  0.501557  0.997403  0.751850  1
  Hg  Hg9  1  0.501557  0.997403  0.248150  1
  Hg  Hg10  1  0.997403  0.501557  0.751850  1
  Hg  Hg11  1  0.997403  0.501557  0.248150  1
  Pt  Pt12  1  0.873285  0.873285  0.745016  1
  Pt  Pt13  1  0.128928  0.128928  0.749228  1
  Pt  Pt14  1  0.627834  0.371417  0.753768  1
  Pt  Pt15  1  0.627834  0.371417  0.246232  1
  Pt  Pt16  1  0.371417  0.627834  0.246232  1
  Pt  Pt17  1  0.128928  0.128928  0.250772  1
  Pt  Pt18  1  0.873285  0.873285  0.254984  1
  Pt  Pt19  1  0.371417  0.627834  0.753768  1
