# generated using pymatgen
data_SrV3F10
_symmetry_space_group_name_H-M   'P 1'
_cell_length_a   10.61917324
_cell_length_b   9.17136808
_cell_length_c   7.67324550
_cell_angle_alpha   77.59908024
_cell_angle_beta   57.51275036
_cell_angle_gamma   44.88817961
_symmetry_Int_Tables_number   1
_chemical_formula_structural   SrV3F10
_chemical_formula_sum   'Sr2 V6 F20'
_cell_volume   427.26716394
_cell_formula_units_Z   2
loop_
 _symmetry_equiv_pos_site_id
 _symmetry_equiv_pos_as_xyz
  1  'x, y, z'
loop_
 _atom_site_type_symbol
 _atom_site_label
 _atom_site_symmetry_multiplicity
 _atom_site_fract_x
 _atom_site_fract_y
 _atom_site_fract_z
 _atom_site_occupancy
  Sr  Sr0  1  0.005214  0.994786  0.994786  1
  Sr  Sr1  1  0.255214  0.244786  0.244786  1
  V  V2  1  0.505045  0.494955  0.494955  1
  V  V3  1  0.755045  0.744955  0.744955  1
  V  V4  1  0.262961  0.249747  0.736808  1
  V  V5  1  0.750484  0.736808  0.249747  1
  V  V6  1  0.513192  0.499516  0.987039  1
  V  V7  1  0.000253  0.987039  0.499516  1
  F  F8  1  0.152316  0.129227  0.844320  1
  F  F9  1  0.874138  0.844320  0.129227  1
  F  F10  1  0.405680  0.375862  0.097684  1
  F  F11  1  0.120773  0.097684  0.375862  1
  F  F12  1  0.805685  0.200113  0.785759  1
  F  F13  1  0.208444  0.785759  0.200113  1
  F  F14  1  0.464241  0.041556  0.444315  1
  F  F15  1  0.049887  0.444315  0.041556  1
  F  F16  1  0.856503  0.635059  0.439147  1
  F  F17  1  0.069291  0.439147  0.635059  1
  F  F18  1  0.810853  0.180709  0.393497  1
  F  F19  1  0.614941  0.393497  0.180709  1
  F  F20  1  0.629466  0.624124  0.370294  1
  F  F21  1  0.376116  0.370294  0.624124  1
  F  F22  1  0.879706  0.873884  0.620534  1
  F  F23  1  0.625876  0.620534  0.873884  1
  F  F24  1  0.449939  0.057939  0.844916  1
  F  F25  1  0.647207  0.844916  0.057939  1
  F  F26  1  0.405084  0.602793  0.800061  1
  F  F27  1  0.192061  0.800061  0.602793  1
