# generated using pymatgen
data_Dy8Sc9Cd2Si16Mo
_symmetry_space_group_name_H-M   'P 1'
_cell_length_a   6.97361197
_cell_length_b   7.39808054
_cell_length_c   13.92976700
_cell_angle_alpha   90.00000000
_cell_angle_beta   90.00000000
_cell_angle_gamma   89.57719312
_symmetry_Int_Tables_number   1
_chemical_formula_structural   Dy8Sc9Cd2Si16Mo
_chemical_formula_sum   'Dy8 Sc9 Cd2 Si16 Mo1'
_cell_volume   718.63582010
_cell_formula_units_Z   1
loop_
 _symmetry_equiv_pos_site_id
 _symmetry_equiv_pos_as_xyz
  1  'x, y, z'
loop_
 _atom_site_type_symbol
 _atom_site_label
 _atom_site_symmetry_multiplicity
 _atom_site_fract_x
 _atom_site_fract_y
 _atom_site_fract_z
 _atom_site_occupancy
  Dy  Dy0  1  0.012492  0.176824  0.098853  1
  Dy  Dy1  1  0.989221  0.819922  0.903533  1
  Dy  Dy2  1  0.484309  0.675709  0.905813  1
  Dy  Dy3  1  0.989221  0.819922  0.596467  1
  Dy  Dy4  1  0.511867  0.320180  0.099085  1
  Dy  Dy5  1  0.012492  0.176824  0.401147  1
  Dy  Dy6  1  0.511867  0.320180  0.400915  1
  Dy  Dy7  1  0.484309  0.675709  0.594187  1
  Sc  Sc8  1  0.655734  0.997849  0.750000  1
  Sc  Sc9  1  0.324026  0.179725  0.623331  1
  Sc  Sc10  1  0.675240  0.823618  0.372418  1
  Sc  Sc11  1  0.169997  0.679751  0.373006  1
  Sc  Sc12  1  0.675240  0.823618  0.127582  1
  Sc  Sc13  1  0.831120  0.324502  0.625251  1
  Sc  Sc14  1  0.324026  0.179725  0.876669  1
  Sc  Sc15  1  0.831120  0.324502  0.874749  1
  Sc  Sc16  1  0.169997  0.679751  0.126994  1
  Cd  Cd17  1  0.153823  0.506547  0.750000  1
  Cd  Cd18  1  0.845724  0.490960  0.250000  1
  Si  Si19  1  0.025918  0.099011  0.750000  1
  Si  Si20  1  0.982324  0.909804  0.250000  1
  Si  Si21  1  0.460717  0.623023  0.250000  1
  Si  Si22  1  0.535255  0.383307  0.750000  1
  Si  Si23  1  0.289037  0.885999  0.750000  1
  Si  Si24  1  0.705166  0.113531  0.250000  1
  Si  Si25  1  0.230617  0.364053  0.250000  1
  Si  Si26  1  0.768914  0.631623  0.750000  1
  Si  Si27  1  0.157333  0.459003  0.529548  1
  Si  Si28  1  0.839136  0.539240  0.466610  1
  Si  Si29  1  0.346813  0.967396  0.452489  1
  Si  Si30  1  0.839136  0.539240  0.033390  1
  Si  Si31  1  0.658211  0.033479  0.537341  1
  Si  Si32  1  0.157333  0.459003  0.970452  1
  Si  Si33  1  0.658211  0.033479  0.962659  1
  Si  Si34  1  0.346813  0.967396  0.047511  1
  Mo  Mo35  1  0.347240  0.995592  0.250000  1
