# generated using pymatgen
data_YAg(PSe3)2
_symmetry_space_group_name_H-M   'P 1'
_cell_length_a   15.59801774
_cell_length_b   15.59801755
_cell_length_c   15.59801818
_cell_angle_alpha   24.72560608
_cell_angle_beta   24.72560546
_cell_angle_gamma   24.72560723
_symmetry_Int_Tables_number   1
_chemical_formula_structural   YAg(PSe3)2
_chemical_formula_sum   'Y2 Ag2 P4 Se12'
_cell_volume   583.90526073
_cell_formula_units_Z   2
loop_
 _symmetry_equiv_pos_site_id
 _symmetry_equiv_pos_as_xyz
  1  'x, y, z'
loop_
 _atom_site_type_symbol
 _atom_site_label
 _atom_site_symmetry_multiplicity
 _atom_site_fract_x
 _atom_site_fract_y
 _atom_site_fract_z
 _atom_site_occupancy
  Y  Y0  1  0.086243  0.086243  0.086243  1
  Y  Y1  1  0.913757  0.913757  0.913757  1
  Ag  Ag2  1  0.592188  0.592188  0.592188  1
  Ag  Ag3  1  0.407812  0.407812  0.407812  1
  P  P4  1  0.725271  0.725271  0.725271  1
  P  P5  1  0.775428  0.775428  0.775428  1
  P  P6  1  0.224572  0.224572  0.224572  1
  P  P7  1  0.274729  0.274729  0.274729  1
  Se  Se8  1  0.481252  0.772999  0.114035  1
  Se  Se9  1  0.010555  0.738614  0.380710  1
  Se  Se10  1  0.619290  0.989445  0.261386  1
  Se  Se11  1  0.738614  0.380710  0.010555  1
  Se  Se12  1  0.772999  0.114035  0.481252  1
  Se  Se13  1  0.380710  0.010555  0.738614  1
  Se  Se14  1  0.261386  0.619290  0.989445  1
  Se  Se15  1  0.114035  0.481252  0.772999  1
  Se  Se16  1  0.989445  0.261386  0.619290  1
  Se  Se17  1  0.885965  0.518748  0.227001  1
  Se  Se18  1  0.227001  0.885965  0.518748  1
  Se  Se19  1  0.518748  0.227001  0.885965  1
