# generated using pymatgen
data_Th8BeAl8Ru7
_symmetry_space_group_name_H-M   'P 1'
_cell_length_a   4.21655800
_cell_length_b   7.23089367
_cell_length_c   16.05166289
_cell_angle_alpha   90.22153868
_cell_angle_beta   90.00000000
_cell_angle_gamma   90.00000000
_symmetry_Int_Tables_number   1
_chemical_formula_structural   Th8BeAl8Ru7
_chemical_formula_sum   'Th8 Be1 Al8 Ru7'
_cell_volume   489.40323700
_cell_formula_units_Z   1
loop_
 _symmetry_equiv_pos_site_id
 _symmetry_equiv_pos_as_xyz
  1  'x, y, z'
loop_
 _atom_site_type_symbol
 _atom_site_label
 _atom_site_symmetry_multiplicity
 _atom_site_fract_x
 _atom_site_fract_y
 _atom_site_fract_z
 _atom_site_occupancy
  Th  Th0  1  0.750000  0.960749  0.217628  1
  Th  Th1  1  0.250000  0.165696  0.561556  1
  Th  Th2  1  0.750000  0.834723  0.438839  1
  Th  Th3  1  0.750000  0.458345  0.281550  1
  Th  Th4  1  0.750000  0.333801  0.060601  1
  Th  Th5  1  0.250000  0.662670  0.938399  1
  Th  Th6  1  0.250000  0.046094  0.779556  1
  Th  Th7  1  0.250000  0.539609  0.719863  1
  Be  Be8  1  0.750000  0.754439  0.814212  1
  Al  Al9  1  0.750000  0.505518  0.564684  1
  Al  Al10  1  0.750000  0.362322  0.850318  1
  Al  Al11  1  0.750000  0.998572  0.934754  1
  Al  Al12  1  0.750000  0.861901  0.650903  1
  Al  Al13  1  0.250000  0.499178  0.438661  1
  Al  Al14  1  0.250000  0.996144  0.060453  1
  Al  Al15  1  0.250000  0.635653  0.148963  1
  Al  Al16  1  0.250000  0.136932  0.351374  1
  Ru  Ru17  1  0.250000  0.238353  0.934032  1
  Ru  Ru18  1  0.750000  0.262813  0.436660  1
  Ru  Ru19  1  0.250000  0.757288  0.315913  1
  Ru  Ru20  1  0.750000  0.759771  0.064679  1
  Ru  Ru21  1  0.750000  0.243180  0.683210  1
  Ru  Ru22  1  0.250000  0.251515  0.183642  1
  Ru  Ru23  1  0.250000  0.734734  0.569554  1
