# generated using pymatgen
data_La6HoRhO12
_symmetry_space_group_name_H-M   'P 1'
_cell_length_a   6.89990502
_cell_length_b   6.89990601
_cell_length_c   6.89990500
_cell_angle_alpha   97.05918621
_cell_angle_beta   97.05917885
_cell_angle_gamma   97.05919019
_symmetry_Int_Tables_number   1
_chemical_formula_structural   La6HoRhO12
_chemical_formula_sum   'La6 Ho1 Rh1 O12'
_cell_volume   320.34265760
_cell_formula_units_Z   1
loop_
 _symmetry_equiv_pos_site_id
 _symmetry_equiv_pos_as_xyz
  1  'x, y, z'
loop_
 _atom_site_type_symbol
 _atom_site_label
 _atom_site_symmetry_multiplicity
 _atom_site_fract_x
 _atom_site_fract_y
 _atom_site_fract_z
 _atom_site_occupancy
  La  La0  1  0.724082  0.898478  0.413111  1
  La  La1  1  0.413111  0.724082  0.898478  1
  La  La2  1  0.101522  0.586889  0.275918  1
  La  La3  1  0.898478  0.413111  0.724082  1
  La  La4  1  0.586889  0.275918  0.101522  1
  La  La5  1  0.275918  0.101522  0.586889  1
  Ho  Ho6  1  0.000000  0.000000  0.000000  1
  Rh  Rh7  1  0.500000  0.500000  0.500000  1
  O  O8  1  0.061620  0.926613  0.313000  1
  O  O9  1  0.687000  0.938380  0.073387  1
  O  O10  1  0.437908  0.791409  0.569708  1
  O  O11  1  0.073387  0.687000  0.938380  1
  O  O12  1  0.791409  0.569708  0.437908  1
  O  O13  1  0.430292  0.562092  0.208591  1
  O  O14  1  0.569708  0.437908  0.791409  1
  O  O15  1  0.208591  0.430292  0.562092  1
  O  O16  1  0.926613  0.313000  0.061620  1
  O  O17  1  0.562092  0.208591  0.430292  1
  O  O18  1  0.313000  0.061620  0.926613  1
  O  O19  1  0.938380  0.073387  0.687000  1
