# generated using pymatgen
data_Ho2LuGa5Ni
_symmetry_space_group_name_H-M   'P 1'
_cell_length_a   6.83467609
_cell_length_b   6.89434892
_cell_length_c   4.19985800
_cell_angle_alpha   90.00000000
_cell_angle_beta   90.00000000
_cell_angle_gamma   120.28924852
_symmetry_Int_Tables_number   1
_chemical_formula_structural   Ho2LuGa5Ni
_chemical_formula_sum   'Ho2 Lu1 Ga5 Ni1'
_cell_volume   170.88471606
_cell_formula_units_Z   1
loop_
 _symmetry_equiv_pos_site_id
 _symmetry_equiv_pos_as_xyz
  1  'x, y, z'
loop_
 _atom_site_type_symbol
 _atom_site_label
 _atom_site_symmetry_multiplicity
 _atom_site_fract_x
 _atom_site_fract_y
 _atom_site_fract_z
 _atom_site_occupancy
  Ho  Ho0  1  0.594440  0.000830  0.500000  1
  Ho  Ho1  1  0.405560  0.406390  0.500000  1
  Lu  Lu2  1  0.000000  0.597856  0.500000  1
  Ga  Ga3  1  0.235862  0.999277  0.000000  1
  Ga  Ga4  1  0.000000  0.235839  0.000000  1
  Ga  Ga5  1  0.669954  0.335268  0.000000  1
  Ga  Ga6  1  0.330046  0.665315  0.000000  1
  Ga  Ga7  1  0.764138  0.763416  0.000000  1
  Ni  Ni8  1  0.000000  0.995809  0.500000  1
