# generated using pymatgen
data_Sr3NpN4
_symmetry_space_group_name_H-M   'P 1'
_cell_length_a   7.25033157
_cell_length_b   9.68516720
_cell_length_c   6.42145916
_cell_angle_alpha   29.03451729
_cell_angle_beta   55.62971157
_cell_angle_gamma   41.53060750
_symmetry_Int_Tables_number   1
_chemical_formula_structural   Sr3NpN4
_chemical_formula_sum   'Sr3 Np1 N4'
_cell_volume   139.31160701
_cell_formula_units_Z   1
loop_
 _symmetry_equiv_pos_site_id
 _symmetry_equiv_pos_as_xyz
  1  'x, y, z'
loop_
 _atom_site_type_symbol
 _atom_site_label
 _atom_site_symmetry_multiplicity
 _atom_site_fract_x
 _atom_site_fract_y
 _atom_site_fract_z
 _atom_site_occupancy
  Sr  Sr0  1  0.250000  0.500000  0.000000  1
  Sr  Sr1  1  0.750000  0.500000  0.000000  1
  Sr  Sr2  1  0.500000  0.000000  0.000000  1
  Np  Np3  1  0.000000  0.000000  0.000000  1
  N  N4  1  0.500000  0.500000  0.500000  1
  N  N5  1  0.185577  0.000000  0.628846  1
  N  N6  1  0.000000  0.500000  0.500000  1
  N  N7  1  0.814423  0.000000  0.371154  1
