# generated using pymatgen
data_Nd8Hg2PdRu
_symmetry_space_group_name_H-M   'P 1'
_cell_length_a   9.94099161
_cell_length_b   9.94099107
_cell_length_c   10.00407900
_cell_angle_alpha   59.78984170
_cell_angle_beta   59.78984352
_cell_angle_gamma   59.80752201
_symmetry_Int_Tables_number   1
_chemical_formula_structural   Nd8Hg2PdRu
_chemical_formula_sum   'Nd16 Hg4 Pd2 Ru2'
_cell_volume   695.82964753
_cell_formula_units_Z   2
loop_
 _symmetry_equiv_pos_site_id
 _symmetry_equiv_pos_as_xyz
  1  'x, y, z'
loop_
 _atom_site_type_symbol
 _atom_site_label
 _atom_site_symmetry_multiplicity
 _atom_site_fract_x
 _atom_site_fract_y
 _atom_site_fract_z
 _atom_site_occupancy
  Nd  Nd0  1  0.349635  0.349635  0.358044  1
  Nd  Nd1  1  0.349635  0.349635  0.942685  1
  Nd  Nd2  1  0.344663  0.951088  0.352124  1
  Nd  Nd3  1  0.951088  0.344663  0.352124  1
  Nd  Nd4  1  0.815757  0.189138  0.192049  1
  Nd  Nd5  1  0.189138  0.815757  0.803056  1
  Nd  Nd6  1  0.189138  0.815757  0.192049  1
  Nd  Nd7  1  0.815757  0.189138  0.803056  1
  Nd  Nd8  1  0.189472  0.189472  0.810528  1
  Nd  Nd9  1  0.805983  0.805983  0.194017  1
  Nd  Nd10  1  0.937315  0.558623  0.565299  1
  Nd  Nd11  1  0.558623  0.937315  0.938763  1
  Nd  Nd12  1  0.558623  0.937315  0.565299  1
  Nd  Nd13  1  0.937315  0.558623  0.938763  1
  Nd  Nd14  1  0.562344  0.562344  0.937656  1
  Nd  Nd15  1  0.937987  0.937987  0.562013  1
  Hg  Hg16  1  0.584167  0.584167  0.583331  1
  Hg  Hg17  1  0.584167  0.584167  0.248336  1
  Hg  Hg18  1  0.585645  0.246256  0.584050  1
  Hg  Hg19  1  0.246256  0.585645  0.584050  1
  Pd  Pd20  1  0.147533  0.571153  0.140657  1
  Pd  Pd21  1  0.571153  0.147533  0.140657  1
  Ru  Ru22  1  0.144303  0.144303  0.136518  1
  Ru  Ru23  1  0.144303  0.144303  0.574877  1
