# generated using pymatgen
data_Sc4CdGa2Os
_symmetry_space_group_name_H-M   'P 1'
_cell_length_a   6.85626900
_cell_length_b   6.56247500
_cell_length_c   6.85952100
_cell_angle_alpha   90.00000000
_cell_angle_beta   89.99978278
_cell_angle_gamma   90.00000000
_symmetry_Int_Tables_number   1
_chemical_formula_structural   Sc4CdGa2Os
_chemical_formula_sum   'Sc8 Cd2 Ga4 Os2'
_cell_volume   308.63793202
_cell_formula_units_Z   2
loop_
 _symmetry_equiv_pos_site_id
 _symmetry_equiv_pos_as_xyz
  1  'x, y, z'
loop_
 _atom_site_type_symbol
 _atom_site_label
 _atom_site_symmetry_multiplicity
 _atom_site_fract_x
 _atom_site_fract_y
 _atom_site_fract_z
 _atom_site_occupancy
  Sc  Sc0  1  0.767826  0.500600  0.267853  1
  Sc  Sc1  1  0.767826  0.999400  0.267853  1
  Sc  Sc2  1  0.232172  0.000602  0.267856  1
  Sc  Sc3  1  0.232172  0.499398  0.267856  1
  Sc  Sc4  1  0.767828  0.500601  0.732144  1
  Sc  Sc5  1  0.767828  0.999399  0.732144  1
  Sc  Sc6  1  0.232172  0.000601  0.732146  1
  Sc  Sc7  1  0.232172  0.499399  0.732146  1
  Cd  Cd8  1  0.500695  0.250000  0.000000  1
  Cd  Cd9  1  0.499306  0.750000  0.000000  1
  Ga  Ga10  1  0.999057  0.250000  0.999999  1
  Ga  Ga11  1  0.000942  0.750000  0.000001  1
  Ga  Ga12  1  0.498840  0.750000  0.499998  1
  Ga  Ga13  1  0.501160  0.250000  0.500001  1
  Os  Os14  1  0.999337  0.250000  0.500001  1
  Os  Os15  1  0.000664  0.750000  0.499999  1
