# generated using pymatgen
data_Rb6LuSe4Br
_symmetry_space_group_name_H-M   'P 1'
_cell_length_a   11.28655300
_cell_length_b   11.28655408
_cell_length_c   8.41048400
_cell_angle_alpha   90.00000000
_cell_angle_beta   90.00000000
_cell_angle_gamma   120.00000563
_symmetry_Int_Tables_number   1
_chemical_formula_structural   Rb6LuSe4Br
_chemical_formula_sum   'Rb12 Lu2 Se8 Br2'
_cell_volume   927.84255684
_cell_formula_units_Z   2
loop_
 _symmetry_equiv_pos_site_id
 _symmetry_equiv_pos_as_xyz
  1  'x, y, z'
loop_
 _atom_site_type_symbol
 _atom_site_label
 _atom_site_symmetry_multiplicity
 _atom_site_fract_x
 _atom_site_fract_y
 _atom_site_fract_z
 _atom_site_occupancy
  Rb  Rb0  1  0.134126  0.865874  0.511891  1
  Rb  Rb1  1  0.731747  0.865874  0.511891  1
  Rb  Rb2  1  0.940982  0.470491  0.320596  1
  Rb  Rb3  1  0.529509  0.470491  0.320596  1
  Rb  Rb4  1  0.865874  0.731747  0.011891  1
  Rb  Rb5  1  0.268253  0.134126  0.011891  1
  Rb  Rb6  1  0.529509  0.059018  0.320596  1
  Rb  Rb7  1  0.134126  0.268253  0.511891  1
  Rb  Rb8  1  0.865874  0.134126  0.011891  1
  Rb  Rb9  1  0.059018  0.529509  0.820596  1
  Rb  Rb10  1  0.470491  0.940982  0.820596  1
  Rb  Rb11  1  0.470491  0.529509  0.820596  1
  Lu  Lu12  1  0.666667  0.333333  0.714699  1
  Lu  Lu13  1  0.333333  0.666667  0.214699  1
  Se  Se14  1  0.409854  0.204928  0.606860  1
  Se  Se15  1  0.590146  0.795072  0.106860  1
  Se  Se16  1  0.666667  0.333333  0.036519  1
  Se  Se17  1  0.795072  0.590146  0.606860  1
  Se  Se18  1  0.204928  0.409854  0.106860  1
  Se  Se19  1  0.333333  0.666667  0.536519  1
  Se  Se20  1  0.204928  0.795072  0.106860  1
  Se  Se21  1  0.795072  0.204928  0.606860  1
  Br  Br22  1  0.000000  0.000000  0.271344  1
  Br  Br23  1  0.000000  0.000000  0.771344  1
