# generated using pymatgen
data_Hf9BeRe3Mo
_symmetry_space_group_name_H-M   'P 1'
_cell_length_a   8.57492600
_cell_length_b   8.57492622
_cell_length_c   8.50598000
_cell_angle_alpha   90.00000000
_cell_angle_beta   90.00000000
_cell_angle_gamma   119.99999917
_symmetry_Int_Tables_number   1
_chemical_formula_structural   Hf9BeRe3Mo
_chemical_formula_sum   'Hf18 Be2 Re6 Mo2'
_cell_volume   541.64628047
_cell_formula_units_Z   2
loop_
 _symmetry_equiv_pos_site_id
 _symmetry_equiv_pos_as_xyz
  1  'x, y, z'
loop_
 _atom_site_type_symbol
 _atom_site_label
 _atom_site_symmetry_multiplicity
 _atom_site_fract_x
 _atom_site_fract_y
 _atom_site_fract_z
 _atom_site_occupancy
  Hf  Hf0  1  0.198911  0.801089  0.446832  1
  Hf  Hf1  1  0.198911  0.397823  0.446832  1
  Hf  Hf2  1  0.602177  0.801089  0.446832  1
  Hf  Hf3  1  0.801089  0.198911  0.553168  1
  Hf  Hf4  1  0.801089  0.602177  0.553168  1
  Hf  Hf5  1  0.397823  0.198911  0.553168  1
  Hf  Hf6  1  0.801089  0.198911  0.946832  1
  Hf  Hf7  1  0.801089  0.602177  0.946832  1
  Hf  Hf8  1  0.397823  0.198911  0.946832  1
  Hf  Hf9  1  0.198911  0.801089  0.053168  1
  Hf  Hf10  1  0.198911  0.397823  0.053168  1
  Hf  Hf11  1  0.602177  0.801089  0.053168  1
  Hf  Hf12  1  0.539474  0.460526  0.250000  1
  Hf  Hf13  1  0.539474  0.078947  0.250000  1
  Hf  Hf14  1  0.921053  0.460526  0.250000  1
  Hf  Hf15  1  0.460526  0.539474  0.750000  1
  Hf  Hf16  1  0.460526  0.921053  0.750000  1
  Hf  Hf17  1  0.078947  0.539474  0.750000  1
  Be  Be18  1  0.333333  0.666667  0.250000  1
  Be  Be19  1  0.666667  0.333333  0.750000  1
  Re  Re20  1  0.888360  0.111640  0.250000  1
  Re  Re21  1  0.888360  0.776719  0.250000  1
  Re  Re22  1  0.223281  0.111640  0.250000  1
  Re  Re23  1  0.111640  0.888360  0.750000  1
  Re  Re24  1  0.111640  0.223281  0.750000  1
  Re  Re25  1  0.776719  0.888360  0.750000  1
  Mo  Mo26  1  0.000000  0.000000  0.500000  1
  Mo  Mo27  1  0.000000  0.000000  0.000000  1
