# generated using pymatgen
data_Sb4IrRh3Se4
_symmetry_space_group_name_H-M   'P 1'
_cell_length_a   6.26774654
_cell_length_b   6.26774654
_cell_length_c   6.26774654
_cell_angle_alpha   90.05680939
_cell_angle_beta   90.05680939
_cell_angle_gamma   89.94319061
_symmetry_Int_Tables_number   1
_chemical_formula_structural   Sb4IrRh3Se4
_chemical_formula_sum   'Sb4 Ir1 Rh3 Se4'
_cell_volume   246.22584547
_cell_formula_units_Z   1
loop_
 _symmetry_equiv_pos_site_id
 _symmetry_equiv_pos_as_xyz
  1  'x, y, z'
loop_
 _atom_site_type_symbol
 _atom_site_label
 _atom_site_symmetry_multiplicity
 _atom_site_fract_x
 _atom_site_fract_y
 _atom_site_fract_z
 _atom_site_occupancy
  Sb  Sb0  1  0.876182  0.376182  0.123818  1
  Sb  Sb1  1  0.375200  0.124808  0.876753  1
  Sb  Sb2  1  0.123247  0.875200  0.375192  1
  Sb  Sb3  1  0.624808  0.623247  0.624800  1
  Ir  Ir4  1  0.504341  0.004341  0.495659  1
  Rh  Rh5  1  0.005244  0.494478  0.504544  1
  Rh  Rh6  1  0.495456  0.505244  0.005522  1
  Rh  Rh7  1  0.994478  0.995456  0.994756  1
  Se  Se8  1  0.121800  0.621800  0.878200  1
  Se  Se9  1  0.621844  0.880334  0.122934  1
  Se  Se10  1  0.877066  0.121844  0.619666  1
  Se  Se11  1  0.380334  0.377066  0.378156  1
