# generated using pymatgen
data_Sr20Si11Pd
_symmetry_space_group_name_H-M   'P 1'
_cell_length_a   8.11516800
_cell_length_b   8.11516800
_cell_length_c   15.75353900
_cell_angle_alpha   90.00000000
_cell_angle_beta   90.00000000
_cell_angle_gamma   90.00000000
_symmetry_Int_Tables_number   1
_chemical_formula_structural   Sr20Si11Pd
_chemical_formula_sum   'Sr20 Si11 Pd1'
_cell_volume   1037.46430299
_cell_formula_units_Z   1
loop_
 _symmetry_equiv_pos_site_id
 _symmetry_equiv_pos_as_xyz
  1  'x, y, z'
loop_
 _atom_site_type_symbol
 _atom_site_label
 _atom_site_symmetry_multiplicity
 _atom_site_fract_x
 _atom_site_fract_y
 _atom_site_fract_z
 _atom_site_occupancy
  Sr  Sr0  1  0.314954  0.672424  0.108663  1
  Sr  Sr1  1  0.172424  0.185046  0.108663  1
  Sr  Sr2  1  0.500000  0.000000  0.733190  1
  Sr  Sr3  1  0.329511  0.688775  0.390674  1
  Sr  Sr4  1  0.668483  0.688821  0.891271  1
  Sr  Sr5  1  0.188775  0.170489  0.390674  1
  Sr  Sr6  1  0.670489  0.311225  0.390674  1
  Sr  Sr7  1  0.171574  0.811331  0.609463  1
  Sr  Sr8  1  0.331517  0.311179  0.891271  1
  Sr  Sr9  1  0.188821  0.831517  0.891271  1
  Sr  Sr10  1  0.500000  0.000000  0.233308  1
  Sr  Sr11  1  0.828426  0.188669  0.609463  1
  Sr  Sr12  1  0.311331  0.328426  0.609463  1
  Sr  Sr13  1  0.811225  0.829511  0.390674  1
  Sr  Sr14  1  0.811179  0.168483  0.891271  1
  Sr  Sr15  1  0.827576  0.814954  0.108663  1
  Sr  Sr16  1  0.000000  0.500000  0.270248  1
  Sr  Sr17  1  0.000000  0.500000  0.764227  1
  Sr  Sr18  1  0.685046  0.327576  0.108663  1
  Sr  Sr19  1  0.688669  0.671574  0.609463  1
  Si  Si20  1  0.106751  0.108583  0.751279  1
  Si  Si21  1  0.391417  0.606751  0.751279  1
  Si  Si22  1  0.608584  0.606692  0.248852  1
  Si  Si23  1  0.500000  0.000000  0.006452  1
  Si  Si24  1  0.106692  0.891416  0.248852  1
  Si  Si25  1  0.608583  0.393249  0.751279  1
  Si  Si26  1  0.893249  0.891417  0.751279  1
  Si  Si27  1  0.391416  0.393308  0.248852  1
  Si  Si28  1  0.893308  0.108584  0.248852  1
  Si  Si29  1  0.500000  0.000000  0.506200  1
  Si  Si30  1  0.000000  0.500000  0.493981  1
  Pd  Pd31  1  0.000000  0.500000  0.991588  1
