# generated using pymatgen
data_Y6Tm9Lu5Pt16
_symmetry_space_group_name_H-M   'P 1'
_cell_length_a   7.42576171
_cell_length_b   7.50936173
_cell_length_c   14.59098300
_cell_angle_alpha   90.09364244
_cell_angle_beta   89.97952163
_cell_angle_gamma   90.06848358
_symmetry_Int_Tables_number   1
_chemical_formula_structural   Y6Tm9Lu5Pt16
_chemical_formula_sum   'Y6 Tm9 Lu5 Pt16'
_cell_volume   813.63133752
_cell_formula_units_Z   1
loop_
 _symmetry_equiv_pos_site_id
 _symmetry_equiv_pos_as_xyz
  1  'x, y, z'
loop_
 _atom_site_type_symbol
 _atom_site_label
 _atom_site_symmetry_multiplicity
 _atom_site_fract_x
 _atom_site_fract_y
 _atom_site_fract_z
 _atom_site_occupancy
  Y  Y0  1  0.501004  0.321497  0.593440  1
  Y  Y1  1  0.001010  0.178796  0.906268  1
  Y  Y2  1  0.999986  0.176043  0.592994  1
  Y  Y3  1  0.500382  0.323126  0.906652  1
  Y  Y4  1  0.499458  0.679063  0.407392  1
  Y  Y5  1  0.999298  0.821141  0.093357  1
  Tm  Tm6  1  0.155738  0.667122  0.877190  1
  Tm  Tm7  1  0.843156  0.331964  0.377453  1
  Tm  Tm8  1  0.343736  0.167869  0.122864  1
  Tm  Tm9  1  0.343458  0.167218  0.377692  1
  Tm  Tm10  1  0.843329  0.332432  0.122539  1
  Tm  Tm11  1  0.155058  0.668410  0.621763  1
  Tm  Tm12  1  0.655184  0.831667  0.877813  1
  Tm  Tm13  1  0.998342  0.820232  0.405886  1
  Tm  Tm14  1  0.498583  0.679853  0.094120  1
  Lu  Lu15  1  0.681374  0.989681  0.250098  1
  Lu  Lu16  1  0.181410  0.510010  0.250420  1
  Lu  Lu17  1  0.818709  0.490129  0.749337  1
  Lu  Lu18  1  0.319048  0.009901  0.749824  1
  Lu  Lu19  1  0.655859  0.832922  0.622905  1
  Pt  Pt20  1  0.818760  0.643454  0.251189  1
  Pt  Pt21  1  0.319167  0.856268  0.249232  1
  Pt  Pt22  1  0.682608  0.141971  0.749615  1
  Pt  Pt23  1  0.182975  0.358205  0.749471  1
  Pt  Pt24  1  0.545727  0.385840  0.249649  1
  Pt  Pt25  1  0.045894  0.114187  0.250829  1
  Pt  Pt26  1  0.953466  0.883163  0.749570  1
  Pt  Pt27  1  0.454291  0.617344  0.749329  1
  Pt  Pt28  1  0.817448  0.537127  0.541335  1
  Pt  Pt29  1  0.318590  0.964381  0.958335  1
  Pt  Pt30  1  0.685217  0.030918  0.457787  1
  Pt  Pt31  1  0.184911  0.468733  0.043345  1
  Pt  Pt32  1  0.179514  0.468482  0.456555  1
  Pt  Pt33  1  0.679849  0.030968  0.043568  1
  Pt  Pt34  1  0.319369  0.965173  0.541857  1
  Pt  Pt35  1  0.818092  0.534712  0.958330  1
