# generated using pymatgen
data_Ba2Li4CaBi4
_symmetry_space_group_name_H-M   'P 1'
_cell_length_a   9.41829197
_cell_length_b   9.41829157
_cell_length_c   9.41829265
_cell_angle_alpha   148.26353934
_cell_angle_beta   133.30130754
_cell_angle_gamma   57.56710349
_symmetry_Int_Tables_number   1
_chemical_formula_structural   Ba2Li4CaBi4
_chemical_formula_sum   'Ba2 Li4 Ca1 Bi4'
_cell_volume   317.39836146
_cell_formula_units_Z   1
loop_
 _symmetry_equiv_pos_site_id
 _symmetry_equiv_pos_as_xyz
  1  'x, y, z'
loop_
 _atom_site_type_symbol
 _atom_site_label
 _atom_site_symmetry_multiplicity
 _atom_site_fract_x
 _atom_site_fract_y
 _atom_site_fract_z
 _atom_site_occupancy
  Ba  Ba0  1  0.630734  0.130734  0.500000  1
  Ba  Ba1  1  0.369266  0.869266  0.500000  1
  Li  Li2  1  0.981879  0.674079  0.307800  1
  Li  Li3  1  0.018121  0.325921  0.692200  1
  Li  Li4  1  0.633721  0.325921  0.307800  1
  Li  Li5  1  0.366279  0.674079  0.692200  1
  Ca  Ca6  1  0.000000  0.000000  0.000000  1
  Bi  Bi7  1  0.792856  0.792856  0.000000  1
  Bi  Bi8  1  0.207144  0.207144  0.000000  1
  Bi  Bi9  1  0.710463  0.500000  0.210463  1
  Bi  Bi10  1  0.289537  0.500000  0.789537  1
