# generated using pymatgen
data_TbSmEr4(SbO7)2
_symmetry_space_group_name_H-M   'P 1'
_cell_length_a   6.45446182
_cell_length_b   6.45446230
_cell_length_c   7.52458718
_cell_angle_alpha   89.99718604
_cell_angle_beta   90.00281500
_cell_angle_gamma   109.26586426
_symmetry_Int_Tables_number   1
_chemical_formula_structural   TbSmEr4(SbO7)2
_chemical_formula_sum   'Tb1 Sm1 Er4 Sb2 O14'
_cell_volume   295.91959064
_cell_formula_units_Z   1
loop_
 _symmetry_equiv_pos_site_id
 _symmetry_equiv_pos_as_xyz
  1  'x, y, z'
loop_
 _atom_site_type_symbol
 _atom_site_label
 _atom_site_symmetry_multiplicity
 _atom_site_fract_x
 _atom_site_fract_y
 _atom_site_fract_z
 _atom_site_occupancy
  Tb  Tb0  1  0.500000  0.500000  0.000000  1
  Sm  Sm1  1  0.500000  0.500000  0.500000  1
  Er  Er2  1  0.531161  0.000606  0.751024  1
  Er  Er3  1  0.000606  0.531161  0.248976  1
  Er  Er4  1  0.468839  0.999394  0.248976  1
  Er  Er5  1  0.999394  0.468839  0.751024  1
  Sb  Sb6  1  0.000000  0.000000  0.500000  1
  Sb  Sb7  1  0.000000  0.000000  0.000000  1
  O  O8  1  0.676725  0.929370  0.469645  1
  O  O9  1  0.929370  0.676725  0.530355  1
  O  O10  1  0.677014  0.927708  0.030067  1
  O  O11  1  0.927708  0.677014  0.969933  1
  O  O12  1  0.323275  0.070630  0.530355  1
  O  O13  1  0.070630  0.323275  0.469645  1
  O  O14  1  0.322986  0.072292  0.969933  1
  O  O15  1  0.072292  0.322986  0.030067  1
  O  O16  1  0.928770  0.071230  0.749828  1
  O  O17  1  0.071230  0.928770  0.250172  1
  O  O18  1  0.365856  0.634144  0.753612  1
  O  O19  1  0.634144  0.365856  0.246388  1
  O  O20  1  0.640763  0.359237  0.752727  1
  O  O21  1  0.359237  0.640763  0.247273  1
