# generated using pymatgen
data_TbZrMn3Co9P7
_symmetry_space_group_name_H-M   'P 1'
_cell_length_a   9.04986700
_cell_length_b   9.04986526
_cell_length_c   3.58051400
_cell_angle_alpha   90.00000000
_cell_angle_beta   90.00000000
_cell_angle_gamma   120.00000271
_symmetry_Int_Tables_number   1
_chemical_formula_structural   TbZrMn3Co9P7
_chemical_formula_sum   'Tb1 Zr1 Mn3 Co9 P7'
_cell_volume   253.95706884
_cell_formula_units_Z   1
loop_
 _symmetry_equiv_pos_site_id
 _symmetry_equiv_pos_as_xyz
  1  'x, y, z'
loop_
 _atom_site_type_symbol
 _atom_site_label
 _atom_site_symmetry_multiplicity
 _atom_site_fract_x
 _atom_site_fract_y
 _atom_site_fract_z
 _atom_site_occupancy
  Tb  Tb0  1  0.333333  0.666667  0.500000  1
  Zr  Zr1  1  0.666667  0.333333  0.000000  1
  Mn  Mn2  1  0.099657  0.878021  0.500000  1
  Mn  Mn3  1  0.778364  0.900343  0.500000  1
  Mn  Mn4  1  0.121979  0.221636  0.500000  1
  Co  Co5  1  0.057633  0.627359  0.000000  1
  Co  Co6  1  0.569726  0.942367  0.000000  1
  Co  Co7  1  0.372641  0.430274  0.000000  1
  Co  Co8  1  0.277689  0.118074  0.000000  1
  Co  Co9  1  0.840385  0.722311  0.000000  1
  Co  Co10  1  0.881926  0.159615  0.000000  1
  Co  Co11  1  0.440571  0.055382  0.500000  1
  Co  Co12  1  0.614811  0.559429  0.500000  1
  Co  Co13  1  0.944618  0.385189  0.500000  1
  P  P14  1  0.299063  0.887830  0.000000  1
  P  P15  1  0.588767  0.700937  0.000000  1
  P  P16  1  0.112170  0.411233  0.000000  1
  P  P17  1  0.410547  0.289576  0.500000  1
  P  P18  1  0.879029  0.589453  0.500000  1
  P  P19  1  0.710424  0.120971  0.500000  1
  P  P20  1  0.000000  0.000000  0.000000  1
