# generated using pymatgen
data_Sr8Al3Si12Pd
_symmetry_space_group_name_H-M   'P 1'
_cell_length_a   8.36044900
_cell_length_b   8.36045029
_cell_length_c   9.44688400
_cell_angle_alpha   90.00000000
_cell_angle_beta   90.00000000
_cell_angle_gamma   119.99999094
_symmetry_Int_Tables_number   1
_chemical_formula_structural   Sr8Al3Si12Pd
_chemical_formula_sum   'Sr8 Al3 Si12 Pd1'
_cell_volume   571.84525910
_cell_formula_units_Z   1
loop_
 _symmetry_equiv_pos_site_id
 _symmetry_equiv_pos_as_xyz
  1  'x, y, z'
loop_
 _atom_site_type_symbol
 _atom_site_label
 _atom_site_symmetry_multiplicity
 _atom_site_fract_x
 _atom_site_fract_y
 _atom_site_fract_z
 _atom_site_occupancy
  Sr  Sr0  1  0.500703  0.499297  0.746686  1
  Sr  Sr1  1  0.501914  0.498086  0.253328  1
  Sr  Sr2  1  0.998594  0.499297  0.746686  1
  Sr  Sr3  1  0.996174  0.498086  0.253328  1
  Sr  Sr4  1  0.500703  0.001406  0.746686  1
  Sr  Sr5  1  0.501914  0.003826  0.253328  1
  Sr  Sr6  1  0.000000  0.000000  0.748179  1
  Sr  Sr7  1  0.000000  0.000000  0.251958  1
  Al  Al8  1  0.666667  0.333333  0.997280  1
  Al  Al9  1  0.333333  0.666667  0.002999  1
  Al  Al10  1  0.333333  0.666667  0.497332  1
  Si  Si11  1  0.835930  0.164070  0.000016  1
  Si  Si12  1  0.163534  0.836466  0.999826  1
  Si  Si13  1  0.328140  0.164070  0.000016  1
  Si  Si14  1  0.158566  0.841434  0.500070  1
  Si  Si15  1  0.672931  0.836466  0.999826  1
  Si  Si16  1  0.830708  0.169292  0.500231  1
  Si  Si17  1  0.835930  0.671860  0.000016  1
  Si  Si18  1  0.682869  0.841434  0.500070  1
  Si  Si19  1  0.163534  0.327069  0.999826  1
  Si  Si20  1  0.338584  0.169292  0.500231  1
  Si  Si21  1  0.158566  0.317131  0.500070  1
  Si  Si22  1  0.830708  0.661416  0.500231  1
  Pd  Pd23  1  0.666667  0.333333  0.501777  1
