# generated using pymatgen
data_Nd8Ho2Ir3Os
_symmetry_space_group_name_H-M   'P 1'
_cell_length_a   6.65923624
_cell_length_b   7.28428451
_cell_length_c   8.81383403
_cell_angle_alpha   96.44093684
_cell_angle_beta   111.70147510
_cell_angle_gamma   90.10997535
_symmetry_Int_Tables_number   1
_chemical_formula_structural   Nd8Ho2Ir3Os
_chemical_formula_sum   'Nd8 Ho2 Ir3 Os1'
_cell_volume   394.29305040
_cell_formula_units_Z   1
loop_
 _symmetry_equiv_pos_site_id
 _symmetry_equiv_pos_as_xyz
  1  'x, y, z'
loop_
 _atom_site_type_symbol
 _atom_site_label
 _atom_site_symmetry_multiplicity
 _atom_site_fract_x
 _atom_site_fract_y
 _atom_site_fract_z
 _atom_site_occupancy
  Nd  Nd0  1  0.973914  0.920976  0.182725  1
  Nd  Nd1  1  0.793879  0.577566  0.820730  1
  Nd  Nd2  1  0.024923  0.077264  0.819047  1
  Nd  Nd3  1  0.205984  0.423613  0.183353  1
  Nd  Nd4  1  0.650765  0.812863  0.431689  1
  Nd  Nd5  1  0.211648  0.686831  0.564378  1
  Nd  Nd6  1  0.351516  0.186830  0.566784  1
  Nd  Nd7  1  0.784297  0.313904  0.431229  1
  Ho  Ho8  1  0.438827  0.749694  0.001192  1
  Ho  Ho9  1  0.563393  0.251152  0.000746  1
  Ir  Ir10  1  0.600576  0.930627  0.787856  1
  Ir  Ir11  1  0.187178  0.428596  0.787697  1
  Ir  Ir12  1  0.397884  0.070145  0.210511  1
  Os  Os13  1  0.815217  0.569941  0.212063  1
