# generated using pymatgen
data_Na7Rh5O12
_symmetry_space_group_name_H-M   'P 1'
_cell_length_a   5.56327994
_cell_length_b   6.35579711
_cell_length_c   8.36572190
_cell_angle_alpha   79.02314092
_cell_angle_beta   77.70845010
_cell_angle_gamma   73.16969009
_symmetry_Int_Tables_number   1
_chemical_formula_structural   Na7Rh5O12
_chemical_formula_sum   'Na7 Rh5 O12'
_cell_volume   274.00855923
_cell_formula_units_Z   1
loop_
 _symmetry_equiv_pos_site_id
 _symmetry_equiv_pos_as_xyz
  1  'x, y, z'
loop_
 _atom_site_type_symbol
 _atom_site_label
 _atom_site_symmetry_multiplicity
 _atom_site_fract_x
 _atom_site_fract_y
 _atom_site_fract_z
 _atom_site_occupancy
  Na  Na0  1  0.486631  0.172148  0.833935  1
  Na  Na1  1  0.500000  0.000000  0.500000  1
  Na  Na2  1  0.513369  0.827852  0.166065  1
  Na  Na3  1  0.500740  0.665048  0.835862  1
  Na  Na4  1  0.500000  0.500000  0.500000  1
  Na  Na5  1  0.499260  0.334952  0.164138  1
  Na  Na6  1  0.000000  0.500000  0.000000  1
  Rh  Rh7  1  0.000000  0.000000  0.000000  1
  Rh  Rh8  1  0.999640  0.167301  0.332710  1
  Rh  Rh9  1  0.000360  0.832699  0.667290  1
  Rh  Rh10  1  0.000201  0.665520  0.331674  1
  Rh  Rh11  1  0.999799  0.334480  0.668326  1
  O  O12  1  0.792495  0.304168  0.900765  1
  O  O13  1  0.804200  0.155916  0.579136  1
  O  O14  1  0.800720  0.989306  0.244239  1
  O  O15  1  0.794473  0.851119  0.899134  1
  O  O16  1  0.802812  0.654944  0.578352  1
  O  O17  1  0.793104  0.483891  0.267104  1
  O  O18  1  0.199280  0.010694  0.755761  1
  O  O19  1  0.195800  0.844084  0.420864  1
  O  O20  1  0.207505  0.695832  0.099235  1
  O  O21  1  0.206896  0.516109  0.732896  1
  O  O22  1  0.197188  0.345056  0.421648  1
  O  O23  1  0.205527  0.148881  0.100866  1
