# generated using pymatgen
data_Er12Tc3Ni
_symmetry_space_group_name_H-M   'P 1'
_cell_length_a   6.21297722
_cell_length_b   7.28599891
_cell_length_c   9.08388200
_cell_angle_alpha   90.00000000
_cell_angle_beta   90.00000000
_cell_angle_gamma   90.17211326
_symmetry_Int_Tables_number   1
_chemical_formula_structural   Er12Tc3Ni
_chemical_formula_sum   'Er12 Tc3 Ni1'
_cell_volume   411.20500103
_cell_formula_units_Z   1
loop_
 _symmetry_equiv_pos_site_id
 _symmetry_equiv_pos_as_xyz
  1  'x, y, z'
loop_
 _atom_site_type_symbol
 _atom_site_label
 _atom_site_symmetry_multiplicity
 _atom_site_fract_x
 _atom_site_fract_y
 _atom_site_fract_z
 _atom_site_occupancy
  Er  Er0  1  0.329281  0.677595  0.066430  1
  Er  Er1  1  0.163214  0.176727  0.437455  1
  Er  Er2  1  0.665971  0.322947  0.562511  1
  Er  Er3  1  0.834826  0.823438  0.938649  1
  Er  Er4  1  0.665971  0.322947  0.937489  1
  Er  Er5  1  0.834826  0.823438  0.561351  1
  Er  Er6  1  0.329281  0.677595  0.433570  1
  Er  Er7  1  0.163214  0.176727  0.062545  1
  Er  Er8  1  0.872140  0.540346  0.250000  1
  Er  Er9  1  0.623288  0.039764  0.250000  1
  Er  Er10  1  0.139903  0.457986  0.750000  1
  Er  Er11  1  0.373795  0.957966  0.750000  1
  Tc  Tc12  1  0.037431  0.885331  0.250000  1
  Tc  Tc13  1  0.461124  0.387728  0.250000  1
  Tc  Tc14  1  0.961447  0.113588  0.750000  1
  Ni  Ni15  1  0.544288  0.615877  0.750000  1
