# generated using pymatgen
data_Y5Co19Si11P
_symmetry_space_group_name_H-M   'P 1'
_cell_length_a   12.14283004
_cell_length_b   12.17537121
_cell_length_c   3.72883300
_cell_angle_alpha   90.00000000
_cell_angle_beta   90.00000000
_cell_angle_gamma   120.08867506
_symmetry_Int_Tables_number   1
_chemical_formula_structural   Y5Co19Si11P
_chemical_formula_sum   'Y5 Co19 Si11 P1'
_cell_volume   476.99841438
_cell_formula_units_Z   1
loop_
 _symmetry_equiv_pos_site_id
 _symmetry_equiv_pos_as_xyz
  1  'x, y, z'
loop_
 _atom_site_type_symbol
 _atom_site_label
 _atom_site_symmetry_multiplicity
 _atom_site_fract_x
 _atom_site_fract_y
 _atom_site_fract_z
 _atom_site_occupancy
  Y  Y0  1  0.667243  0.333393  0.000000  1
  Y  Y1  1  0.332757  0.666151  0.000000  1
  Y  Y2  1  0.185132  0.186117  0.500000  1
  Y  Y3  1  0.814868  0.000985  0.500000  1
  Y  Y4  1  0.000000  0.813895  0.500000  1
  Co  Co5  1  0.558824  0.559213  0.000000  1
  Co  Co6  1  0.441176  0.000389  0.000000  1
  Co  Co7  1  0.000000  0.441184  0.000000  1
  Co  Co8  1  0.823530  0.197884  0.000000  1
  Co  Co9  1  0.802169  0.621871  0.000000  1
  Co  Co10  1  0.378109  0.180346  0.000000  1
  Co  Co11  1  0.197831  0.819701  0.000000  1
  Co  Co12  1  0.621891  0.802236  0.000000  1
  Co  Co13  1  0.176470  0.374355  0.000000  1
  Co  Co14  1  0.644540  0.123370  0.500000  1
  Co  Co15  1  0.877336  0.520170  0.500000  1
  Co  Co16  1  0.479230  0.356855  0.500000  1
  Co  Co17  1  0.122664  0.642836  0.500000  1
  Co  Co18  1  0.520770  0.877625  0.500000  1
  Co  Co19  1  0.355460  0.478830  0.500000  1
  Co  Co20  1  0.717900  0.717866  0.500000  1
  Co  Co21  1  0.282100  0.999965  0.500000  1
  Co  Co22  1  0.000000  0.278751  0.500000  1
  Co  Co23  1  0.000000  0.004763  0.000000  1
  Si  Si24  1  0.371620  0.371906  0.000000  1
  Si  Si25  1  0.628380  0.000287  0.000000  1
  Si  Si26  1  0.000000  0.628084  0.000000  1
  Si  Si27  1  0.840311  0.317981  0.500000  1
  Si  Si28  1  0.682683  0.522055  0.500000  1
  Si  Si29  1  0.478423  0.161000  0.500000  1
  Si  Si30  1  0.317317  0.839373  0.500000  1
  Si  Si31  1  0.521577  0.682578  0.500000  1
  Si  Si32  1  0.159689  0.477670  0.500000  1
  Si  Si33  1  0.816145  0.816004  0.000000  1
  Si  Si34  1  0.183855  0.999859  0.000000  1
  P  P35  1  0.000000  0.184457  0.000000  1
