# generated using pymatgen
data_Tm3Nb3(Si2Ru5)2
_symmetry_space_group_name_H-M   'P 1'
_cell_length_a   9.92988734
_cell_length_b   9.92988654
_cell_length_c   3.23811100
_cell_angle_alpha   90.00000000
_cell_angle_beta   90.00000000
_cell_angle_gamma   89.98996589
_symmetry_Int_Tables_number   1
_chemical_formula_structural   Tm3Nb3(Si2Ru5)2
_chemical_formula_sum   'Tm3 Nb3 Si4 Ru10'
_cell_volume   319.28633585
_cell_formula_units_Z   1
loop_
 _symmetry_equiv_pos_site_id
 _symmetry_equiv_pos_as_xyz
  1  'x, y, z'
loop_
 _atom_site_type_symbol
 _atom_site_label
 _atom_site_symmetry_multiplicity
 _atom_site_fract_x
 _atom_site_fract_y
 _atom_site_fract_z
 _atom_site_occupancy
  Tm  Tm0  1  0.172282  0.827718  0.000000  1
  Tm  Tm1  1  0.326740  0.327475  0.000000  1
  Tm  Tm2  1  0.672525  0.673260  0.000000  1
  Nb  Nb3  1  0.499097  0.999130  0.000000  1
  Nb  Nb4  1  0.000870  0.500903  0.000000  1
  Nb  Nb5  1  0.826589  0.173411  0.000000  1
  Si  Si6  1  0.628303  0.371697  0.000000  1
  Si  Si7  1  0.374383  0.625617  0.000000  1
  Si  Si8  1  0.124462  0.126578  0.000000  1
  Si  Si9  1  0.873422  0.875538  0.000000  1
  Ru  Ru10  1  0.502037  0.497963  0.500000  1
  Ru  Ru11  1  0.991882  0.008118  0.500000  1
  Ru  Ru12  1  0.580076  0.204999  0.500000  1
  Ru  Ru13  1  0.433610  0.791805  0.500000  1
  Ru  Ru14  1  0.058371  0.288812  0.500000  1
  Ru  Ru15  1  0.930060  0.709097  0.500000  1
  Ru  Ru16  1  0.290903  0.069940  0.500000  1
  Ru  Ru17  1  0.711188  0.941629  0.500000  1
  Ru  Ru18  1  0.208195  0.566390  0.500000  1
  Ru  Ru19  1  0.795001  0.419924  0.500000  1
