# generated using pymatgen
data_PrPa3(CdPt2)2
_symmetry_space_group_name_H-M   'P 1'
_cell_length_a   7.89490881
_cell_length_b   7.89490822
_cell_length_c   3.67872900
_cell_angle_alpha   90.00000000
_cell_angle_beta   90.00000000
_cell_angle_gamma   91.68972534
_symmetry_Int_Tables_number   1
_chemical_formula_structural   PrPa3(CdPt2)2
_chemical_formula_sum   'Pr1 Pa3 Cd2 Pt4'
_cell_volume   229.19393016
_cell_formula_units_Z   1
loop_
 _symmetry_equiv_pos_site_id
 _symmetry_equiv_pos_as_xyz
  1  'x, y, z'
loop_
 _atom_site_type_symbol
 _atom_site_label
 _atom_site_symmetry_multiplicity
 _atom_site_fract_x
 _atom_site_fract_y
 _atom_site_fract_z
 _atom_site_occupancy
  Pr  Pr0  1  0.826545  0.673455  0.500000  1
  Pa  Pa1  1  0.669536  0.171614  0.500000  1
  Pa  Pa2  1  0.328386  0.830464  0.500000  1
  Pa  Pa3  1  0.169970  0.330030  0.500000  1
  Cd  Cd4  1  0.001062  0.995799  0.000000  1
  Cd  Cd5  1  0.504201  0.498938  0.000000  1
  Pt  Pt6  1  0.149145  0.622829  0.000000  1
  Pt  Pt7  1  0.877171  0.350855  0.000000  1
  Pt  Pt8  1  0.613348  0.886652  0.000000  1
  Pt  Pt9  1  0.360635  0.139365  0.000000  1
