# generated using pymatgen
data_La2TbSn3Hg2
_symmetry_space_group_name_H-M   'P 1'
_cell_length_a   6.62485603
_cell_length_b   6.62485655
_cell_length_c   10.45128700
_cell_angle_alpha   90.00000000
_cell_angle_beta   90.00000000
_cell_angle_gamma   102.88500651
_symmetry_Int_Tables_number   1
_chemical_formula_structural   La2TbSn3Hg2
_chemical_formula_sum   'La4 Tb2 Sn6 Hg4'
_cell_volume   447.14352061
_cell_formula_units_Z   2
loop_
 _symmetry_equiv_pos_site_id
 _symmetry_equiv_pos_as_xyz
  1  'x, y, z'
loop_
 _atom_site_type_symbol
 _atom_site_label
 _atom_site_symmetry_multiplicity
 _atom_site_fract_x
 _atom_site_fract_y
 _atom_site_fract_z
 _atom_site_occupancy
  La  La0  1  0.204865  0.795135  0.500000  1
  La  La1  1  0.204865  0.795135  0.000000  1
  La  La2  1  0.795135  0.204865  0.500000  1
  La  La3  1  0.795135  0.204865  0.000000  1
  Tb  Tb4  1  0.631924  0.631924  0.250000  1
  Tb  Tb5  1  0.368076  0.368076  0.750000  1
  Sn  Sn6  1  0.016879  0.016879  0.250000  1
  Sn  Sn7  1  0.983121  0.983121  0.750000  1
  Sn  Sn8  1  0.490488  0.066081  0.250000  1
  Sn  Sn9  1  0.933919  0.509512  0.750000  1
  Sn  Sn10  1  0.509512  0.933919  0.750000  1
  Sn  Sn11  1  0.066081  0.490488  0.250000  1
  Hg  Hg12  1  0.316249  0.316249  0.042985  1
  Hg  Hg13  1  0.683751  0.683751  0.957015  1
  Hg  Hg14  1  0.316249  0.316249  0.457015  1
  Hg  Hg15  1  0.683751  0.683751  0.542985  1
