# generated using pymatgen
data_La4Sn8Ir3Pt
_symmetry_space_group_name_H-M   'P 1'
_cell_length_a   9.00694181
_cell_length_b   9.00694169
_cell_length_c   9.69247941
_cell_angle_alpha   89.78402332
_cell_angle_beta   90.21597768
_cell_angle_gamma   149.65667247
_symmetry_Int_Tables_number   1
_chemical_formula_structural   La4Sn8Ir3Pt
_chemical_formula_sum   'La4 Sn8 Ir3 Pt1'
_cell_volume   397.22151481
_cell_formula_units_Z   1
loop_
 _symmetry_equiv_pos_site_id
 _symmetry_equiv_pos_as_xyz
  1  'x, y, z'
loop_
 _atom_site_type_symbol
 _atom_site_label
 _atom_site_symmetry_multiplicity
 _atom_site_fract_x
 _atom_site_fract_y
 _atom_site_fract_z
 _atom_site_occupancy
  La  La0  1  0.502949  0.497051  0.500205  1
  La  La1  1  0.499887  0.500113  0.001220  1
  La  La2  1  0.294627  0.705373  0.249757  1
  La  La3  1  0.703703  0.296297  0.750060  1
  Sn  Sn4  1  0.911840  0.088160  0.752563  1
  Sn  Sn5  1  0.925788  0.074212  0.246727  1
  Sn  Sn6  1  0.089074  0.910926  0.250128  1
  Sn  Sn7  1  0.075348  0.924652  0.749987  1
  Sn  Sn8  1  0.696709  0.303291  0.408238  1
  Sn  Sn9  1  0.300687  0.699313  0.592481  1
  Sn  Sn10  1  0.301371  0.698629  0.911378  1
  Sn  Sn11  1  0.697866  0.302134  0.088793  1
  Ir  Ir12  1  0.147015  0.852985  0.505436  1
  Ir  Ir13  1  0.852063  0.147937  0.004249  1
  Ir  Ir14  1  0.147080  0.852920  0.995191  1
  Pt  Pt15  1  0.853994  0.146006  0.493584  1
