# generated using pymatgen
data_Lu8Ga3Fe
_symmetry_space_group_name_H-M   'P 1'
_cell_length_a   9.77395900
_cell_length_b   9.77395893
_cell_length_c   6.77605100
_cell_angle_alpha   90.00000000
_cell_angle_beta   90.00000000
_cell_angle_gamma   119.99999684
_symmetry_Int_Tables_number   1
_chemical_formula_structural   Lu8Ga3Fe
_chemical_formula_sum   'Lu16 Ga6 Fe2'
_cell_volume   560.59385690
_cell_formula_units_Z   2
loop_
 _symmetry_equiv_pos_site_id
 _symmetry_equiv_pos_as_xyz
  1  'x, y, z'
loop_
 _atom_site_type_symbol
 _atom_site_label
 _atom_site_symmetry_multiplicity
 _atom_site_fract_x
 _atom_site_fract_y
 _atom_site_fract_z
 _atom_site_occupancy
  Lu  Lu0  1  0.534623  0.069246  0.527469  1
  Lu  Lu1  1  0.930754  0.465377  0.527469  1
  Lu  Lu2  1  0.534623  0.465377  0.527469  1
  Lu  Lu3  1  0.465377  0.930754  0.027469  1
  Lu  Lu4  1  0.069246  0.534623  0.027469  1
  Lu  Lu5  1  0.465377  0.534623  0.027469  1
  Lu  Lu6  1  0.174403  0.348807  0.725918  1
  Lu  Lu7  1  0.651193  0.825597  0.725918  1
  Lu  Lu8  1  0.174403  0.825597  0.725918  1
  Lu  Lu9  1  0.825597  0.651193  0.225918  1
  Lu  Lu10  1  0.348807  0.174403  0.225918  1
  Lu  Lu11  1  0.825597  0.174403  0.225918  1
  Lu  Lu12  1  0.666667  0.333333  0.902548  1
  Lu  Lu13  1  0.333333  0.666667  0.402548  1
  Lu  Lu14  1  0.000000  0.000000  0.503728  1
  Lu  Lu15  1  0.000000  0.000000  0.003728  1
  Ga  Ga16  1  0.836514  0.673028  0.773187  1
  Ga  Ga17  1  0.326972  0.163486  0.773187  1
  Ga  Ga18  1  0.836514  0.163486  0.773187  1
  Ga  Ga19  1  0.163486  0.326972  0.273187  1
  Ga  Ga20  1  0.673028  0.836514  0.273187  1
  Ga  Ga21  1  0.163486  0.836514  0.273187  1
  Fe  Fe22  1  0.666667  0.333333  0.291840  1
  Fe  Fe23  1  0.333333  0.666667  0.791840  1
