# generated using pymatgen
data_Lu2Ga2NiIr
_symmetry_space_group_name_H-M   'P 1'
_cell_length_a   4.24457600
_cell_length_b   6.65608600
_cell_length_c   7.57517700
_cell_angle_alpha   90.00000000
_cell_angle_beta   90.00000000
_cell_angle_gamma   90.00000000
_symmetry_Int_Tables_number   1
_chemical_formula_structural   Lu2Ga2NiIr
_chemical_formula_sum   'Lu4 Ga4 Ni2 Ir2'
_cell_volume   214.01589204
_cell_formula_units_Z   2
loop_
 _symmetry_equiv_pos_site_id
 _symmetry_equiv_pos_as_xyz
  1  'x, y, z'
loop_
 _atom_site_type_symbol
 _atom_site_label
 _atom_site_symmetry_multiplicity
 _atom_site_fract_x
 _atom_site_fract_y
 _atom_site_fract_z
 _atom_site_occupancy
  Lu  Lu0  1  0.250000  0.023483  0.814954  1
  Lu  Lu1  1  0.250000  0.523483  0.685046  1
  Lu  Lu2  1  0.750000  0.977849  0.185513  1
  Lu  Lu3  1  0.750000  0.477849  0.314487  1
  Ga  Ga4  1  0.250000  0.159721  0.444139  1
  Ga  Ga5  1  0.250000  0.659721  0.055861  1
  Ga  Ga6  1  0.750000  0.847510  0.575606  1
  Ga  Ga7  1  0.750000  0.347510  0.924394  1
  Ni  Ni8  1  0.750000  0.224836  0.616790  1
  Ni  Ni9  1  0.750000  0.724836  0.883210  1
  Ir  Ir10  1  0.250000  0.766601  0.385495  1
  Ir  Ir11  1  0.250000  0.266601  0.114505  1
