# generated using pymatgen
data_Sm6ErBI12
_symmetry_space_group_name_H-M   'P 1'
_cell_length_a   9.77075499
_cell_length_b   9.77619775
_cell_length_c   9.79551226
_cell_angle_alpha   107.61654860
_cell_angle_beta   107.86171040
_cell_angle_gamma   107.79431228
_symmetry_Int_Tables_number   1
_chemical_formula_structural   Sm6ErBI12
_chemical_formula_sum   'Sm6 Er1 B1 I12'
_cell_volume   762.56128105
_cell_formula_units_Z   1
loop_
 _symmetry_equiv_pos_site_id
 _symmetry_equiv_pos_as_xyz
  1  'x, y, z'
loop_
 _atom_site_type_symbol
 _atom_site_label
 _atom_site_symmetry_multiplicity
 _atom_site_fract_x
 _atom_site_fract_y
 _atom_site_fract_z
 _atom_site_occupancy
  Sm  Sm0  1  0.891404  0.958348  0.701236  1
  Sm  Sm1  1  0.701344  0.891988  0.958377  1
  Sm  Sm2  1  0.958233  0.702240  0.892595  1
  Sm  Sm3  1  0.095767  0.025283  0.294474  1
  Sm  Sm4  1  0.294938  0.096282  0.026983  1
  Sm  Sm5  1  0.528152  0.528848  0.528744  1
  Er  Er6  1  0.026943  0.286259  0.093531  1
  B  B7  1  0.006929  0.008946  0.007228  1
  I  I8  1  0.855641  0.608750  0.524088  1
  I  I9  1  0.523241  0.856134  0.608121  1
  I  I10  1  0.607316  0.524081  0.856224  1
  I  I11  1  0.158773  0.388638  0.458363  1
  I  I12  1  0.468500  0.163867  0.390063  1
  I  I13  1  0.381780  0.465870  0.161506  1
  I  I14  1  0.926743  0.311669  0.780116  1
  I  I15  1  0.769860  0.923632  0.310896  1
  I  I16  1  0.310939  0.771550  0.922566  1
  I  I17  1  0.075951  0.682558  0.221152  1
  I  I18  1  0.222842  0.078894  0.685512  1
  I  I19  1  0.694704  0.226164  0.078224  1
