# generated using pymatgen
data_Ti12Al5Si3(PtC)4
_symmetry_space_group_name_H-M   'P 1'
_cell_length_a   8.18286196
_cell_length_b   8.17848387
_cell_length_c   8.18286123
_cell_angle_alpha   59.99968137
_cell_angle_beta   60.02517672
_cell_angle_gamma   59.99967467
_symmetry_Int_Tables_number   1
_chemical_formula_structural   Ti12Al5Si3(PtC)4
_chemical_formula_sum   'Ti12 Al5 Si3 Pt4 C4'
_cell_volume   387.30104338
_cell_formula_units_Z   1
loop_
 _symmetry_equiv_pos_site_id
 _symmetry_equiv_pos_as_xyz
  1  'x, y, z'
loop_
 _atom_site_type_symbol
 _atom_site_label
 _atom_site_symmetry_multiplicity
 _atom_site_fract_x
 _atom_site_fract_y
 _atom_site_fract_z
 _atom_site_occupancy
  Ti  Ti0  1  0.935231  0.936104  0.563797  1
  Ti  Ti1  1  0.689306  0.314811  0.314453  1
  Ti  Ti2  1  0.314496  0.681879  0.688595  1
  Ti  Ti3  1  0.688595  0.681879  0.314496  1
  Ti  Ti4  1  0.685784  0.314170  0.685784  1
  Ti  Ti5  1  0.315508  0.685072  0.315508  1
  Ti  Ti6  1  0.564452  0.935836  0.564452  1
  Ti  Ti7  1  0.563797  0.936104  0.935231  1
  Ti  Ti8  1  0.936227  0.560518  0.567052  1
  Ti  Ti9  1  0.936159  0.559993  0.936159  1
  Ti  Ti10  1  0.314453  0.314811  0.689306  1
  Ti  Ti11  1  0.567052  0.560518  0.936227  1
  Al  Al12  1  0.336766  0.334700  0.336766  1
  Al  Al13  1  0.254411  0.913943  0.915718  1
  Al  Al14  1  0.915007  0.913137  0.915007  1
  Al  Al15  1  0.915718  0.913943  0.254411  1
  Al  Al16  1  0.336019  0.994237  0.336019  1
  Si  Si17  1  0.913419  0.259308  0.913419  1
  Si  Si18  1  0.340113  0.336524  0.987232  1
  Si  Si19  1  0.987232  0.336524  0.340113  1
  Pt  Pt20  1  0.125256  0.617183  0.125256  1
  Pt  Pt21  1  0.119289  0.130954  0.624568  1
  Pt  Pt22  1  0.624568  0.130954  0.119289  1
  Pt  Pt23  1  0.122801  0.134131  0.122801  1
  C  C24  1  0.624697  0.125035  0.624697  1
  C  C25  1  0.624367  0.625886  0.124644  1
  C  C26  1  0.124644  0.625886  0.624367  1
  C  C27  1  0.624633  0.625963  0.624633  1
