# generated using pymatgen
data_Nd5Hf3(P3Ir4)4
_symmetry_space_group_name_H-M   'P 1'
_cell_length_a   12.94065500
_cell_length_b   12.94065391
_cell_length_c   4.02568000
_cell_angle_alpha   90.00000000
_cell_angle_beta   90.00000000
_cell_angle_gamma   120.00000023
_symmetry_Int_Tables_number   1
_chemical_formula_structural   Nd5Hf3(P3Ir4)4
_chemical_formula_sum   'Nd5 Hf3 P12 Ir16'
_cell_volume   583.82456181
_cell_formula_units_Z   1
loop_
 _symmetry_equiv_pos_site_id
 _symmetry_equiv_pos_as_xyz
  1  'x, y, z'
loop_
 _atom_site_type_symbol
 _atom_site_label
 _atom_site_symmetry_multiplicity
 _atom_site_fract_x
 _atom_site_fract_y
 _atom_site_fract_z
 _atom_site_occupancy
  Nd  Nd0  1  0.333333  0.666667  0.000000  1
  Nd  Nd1  1  0.666667  0.333333  0.000000  1
  Nd  Nd2  1  0.814044  0.000000  0.500000  1
  Nd  Nd3  1  0.000000  0.814044  0.500000  1
  Nd  Nd4  1  0.185956  0.185956  0.500000  1
  Hf  Hf5  1  0.448001  0.000000  0.000000  1
  Hf  Hf6  1  0.000000  0.448001  0.000000  1
  Hf  Hf7  1  0.551999  0.551999  0.000000  1
  P  P8  1  0.176995  0.000000  0.000000  1
  P  P9  1  0.000000  0.176995  0.000000  1
  P  P10  1  0.823005  0.823005  0.000000  1
  P  P11  1  0.168330  0.481695  0.500000  1
  P  P12  1  0.518305  0.686634  0.500000  1
  P  P13  1  0.313366  0.831670  0.500000  1
  P  P14  1  0.686634  0.518305  0.500000  1
  P  P15  1  0.831670  0.313366  0.500000  1
  P  P16  1  0.481695  0.168330  0.500000  1
  P  P17  1  0.646650  0.000000  0.000000  1
  P  P18  1  0.000000  0.646650  0.000000  1
  P  P19  1  0.353350  0.353350  0.000000  1
  Ir  Ir20  1  0.357882  0.490431  0.500000  1
  Ir  Ir21  1  0.509569  0.867451  0.500000  1
  Ir  Ir22  1  0.132549  0.642118  0.500000  1
  Ir  Ir23  1  0.867451  0.509569  0.500000  1
  Ir  Ir24  1  0.642118  0.132549  0.500000  1
  Ir  Ir25  1  0.490431  0.357882  0.500000  1
  Ir  Ir26  1  0.177303  0.373893  0.000000  1
  Ir  Ir27  1  0.626107  0.803411  0.000000  1
  Ir  Ir28  1  0.196589  0.822697  0.000000  1
  Ir  Ir29  1  0.803411  0.626107  0.000000  1
  Ir  Ir30  1  0.822697  0.196589  0.000000  1
  Ir  Ir31  1  0.373893  0.177303  0.000000  1
  Ir  Ir32  1  0.283358  0.000000  0.500000  1
  Ir  Ir33  1  0.000000  0.283358  0.500000  1
  Ir  Ir34  1  0.716642  0.716642  0.500000  1
  Ir  Ir35  1  0.000000  0.000000  0.000000  1
