# generated using pymatgen
data_La10Nd6Cd4IrPt3
_symmetry_space_group_name_H-M   'P 1'
_cell_length_a   10.16528914
_cell_length_b   10.14343473
_cell_length_c   10.14343400
_cell_angle_alpha   60.00000237
_cell_angle_beta   60.07109521
_cell_angle_gamma   60.07110532
_symmetry_Int_Tables_number   1
_chemical_formula_structural   La10Nd6Cd4IrPt3
_chemical_formula_sum   'La10 Nd6 Cd4 Ir1 Pt3'
_cell_volume   740.35614472
_cell_formula_units_Z   1
loop_
 _symmetry_equiv_pos_site_id
 _symmetry_equiv_pos_as_xyz
  1  'x, y, z'
loop_
 _atom_site_type_symbol
 _atom_site_label
 _atom_site_symmetry_multiplicity
 _atom_site_fract_x
 _atom_site_fract_y
 _atom_site_fract_z
 _atom_site_occupancy
  La  La0  1  0.350576  0.346059  0.346059  1
  La  La1  1  0.350576  0.346059  0.957307  1
  La  La2  1  0.350576  0.957307  0.346059  1
  La  La3  1  0.949581  0.350140  0.350140  1
  La  La4  1  0.804394  0.191693  0.191693  1
  La  La5  1  0.194850  0.806474  0.806474  1
  La  La6  1  0.194850  0.806474  0.192202  1
  La  La7  1  0.804394  0.191693  0.812221  1
  La  La8  1  0.194850  0.192202  0.806474  1
  La  La9  1  0.804394  0.812221  0.191693  1
  Nd  Nd10  1  0.935259  0.566388  0.566388  1
  Nd  Nd11  1  0.568146  0.933749  0.933749  1
  Nd  Nd12  1  0.568146  0.933749  0.564357  1
  Nd  Nd13  1  0.935259  0.566388  0.931966  1
  Nd  Nd14  1  0.568146  0.564357  0.933749  1
  Nd  Nd15  1  0.935259  0.931966  0.566388  1
  Cd  Cd16  1  0.579528  0.580702  0.580702  1
  Cd  Cd17  1  0.579528  0.580702  0.259068  1
  Cd  Cd18  1  0.579528  0.259068  0.580702  1
  Cd  Cd19  1  0.260138  0.579953  0.579953  1
  Ir  Ir20  1  0.574763  0.141746  0.141746  1
  Pt  Pt21  1  0.139089  0.143008  0.143008  1
  Pt  Pt22  1  0.139089  0.143008  0.574893  1
  Pt  Pt23  1  0.139089  0.574893  0.143008  1
