# generated using pymatgen
data_NaMn7FeO16
_symmetry_space_group_name_H-M   'P 1'
_cell_length_a   5.86112265
_cell_length_b   7.13544031
_cell_length_c   7.25021600
_cell_angle_alpha   88.56716716
_cell_angle_beta   78.36138066
_cell_angle_gamma   78.06300496
_symmetry_Int_Tables_number   1
_chemical_formula_structural   NaMn7FeO16
_chemical_formula_sum   'Na1 Mn7 Fe1 O16'
_cell_volume   290.51572350
_cell_formula_units_Z   1
loop_
 _symmetry_equiv_pos_site_id
 _symmetry_equiv_pos_as_xyz
  1  'x, y, z'
loop_
 _atom_site_type_symbol
 _atom_site_label
 _atom_site_symmetry_multiplicity
 _atom_site_fract_x
 _atom_site_fract_y
 _atom_site_fract_z
 _atom_site_occupancy
  Na  Na0  1  0.990911  0.965397  0.992534  1
  Mn  Mn1  1  0.082091  0.509841  0.180509  1
  Mn  Mn2  1  0.171390  0.819323  0.518954  1
  Mn  Mn3  1  0.669152  0.820929  0.522987  1
  Mn  Mn4  1  0.337227  0.184915  0.480052  1
  Mn  Mn5  1  0.839806  0.184301  0.484135  1
  Mn  Mn6  1  0.429004  0.487214  0.818320  1
  Mn  Mn7  1  0.927787  0.490391  0.818696  1
  Fe  Fe8  1  0.579769  0.516598  0.184954  1
  O  O9  1  0.844854  0.645964  0.046810  1
  O  O10  1  0.318783  0.643622  0.046634  1
  O  O11  1  0.982172  0.705584  0.382101  1
  O  O12  1  0.482903  0.707590  0.390408  1
  O  O13  1  0.857130  0.957577  0.645974  1
  O  O14  1  0.352202  0.959272  0.644402  1
  O  O15  1  0.335075  0.370105  0.289511  1
  O  O16  1  0.846854  0.366294  0.287609  1
  O  O17  1  0.169063  0.631693  0.714229  1
  O  O18  1  0.667247  0.632317  0.716843  1
  O  O19  1  0.152385  0.043519  0.359989  1
  O  O20  1  0.656555  0.043924  0.360871  1
  O  O21  1  0.027534  0.297344  0.618167  1
  O  O22  1  0.525488  0.301532  0.612748  1
  O  O23  1  0.177769  0.356548  0.945759  1
  O  O24  1  0.683947  0.358202  0.936800  1
