# generated using pymatgen
data_YTmFe6(SiB)2
_symmetry_space_group_name_H-M   'P 1'
_cell_length_a   5.12938500
_cell_length_b   5.13151383
_cell_length_c   6.63591600
_cell_angle_alpha   90.00000000
_cell_angle_beta   90.00000000
_cell_angle_gamma   119.98627121
_symmetry_Int_Tables_number   1
_chemical_formula_structural   YTmFe6(SiB)2
_chemical_formula_sum   'Y1 Tm1 Fe6 Si2 B2'
_cell_volume   151.28726683
_cell_formula_units_Z   1
loop_
 _symmetry_equiv_pos_site_id
 _symmetry_equiv_pos_as_xyz
  1  'x, y, z'
loop_
 _atom_site_type_symbol
 _atom_site_label
 _atom_site_symmetry_multiplicity
 _atom_site_fract_x
 _atom_site_fract_y
 _atom_site_fract_z
 _atom_site_occupancy
  Y  Y0  1  0.999982  0.000000  0.000000  1
  Tm  Tm1  1  0.999984  0.000000  0.500000  1
  Fe  Fe2  1  0.499983  0.000000  0.283453  1
  Fe  Fe3  1  0.499983  0.499999  0.283437  1
  Fe  Fe4  1  0.999984  0.500001  0.283437  1
  Fe  Fe5  1  0.499983  0.000000  0.716547  1
  Fe  Fe6  1  0.499983  0.499999  0.716563  1
  Fe  Fe7  1  0.999984  0.500001  0.716563  1
  Si  Si8  1  0.333226  0.666486  0.000000  1
  Si  Si9  1  0.666739  0.333514  0.000000  1
  B  B10  1  0.333274  0.666578  0.500000  1
  B  B11  1  0.666695  0.333422  0.500000  1
