# generated using pymatgen
data_Ca6SbOsO12
_symmetry_space_group_name_H-M   'P 1'
_cell_length_a   5.89534219
_cell_length_b   5.61696372
_cell_length_c   9.84155174
_cell_angle_alpha   55.27696224
_cell_angle_beta   90.03372540
_cell_angle_gamma   90.04078226
_symmetry_Int_Tables_number   1
_chemical_formula_structural   Ca6SbOsO12
_chemical_formula_sum   'Ca6 Sb1 Os1 O12'
_cell_volume   267.85579277
_cell_formula_units_Z   1
loop_
 _symmetry_equiv_pos_site_id
 _symmetry_equiv_pos_as_xyz
  1  'x, y, z'
loop_
 _atom_site_type_symbol
 _atom_site_label
 _atom_site_symmetry_multiplicity
 _atom_site_fract_x
 _atom_site_fract_y
 _atom_site_fract_z
 _atom_site_occupancy
  Ca  Ca0  1  0.054889  0.720022  0.765648  1
  Ca  Ca1  1  0.945111  0.279978  0.234352  1
  Ca  Ca2  1  0.562114  0.268512  0.754440  1
  Ca  Ca3  1  0.437886  0.731488  0.245560  1
  Ca  Ca4  1  0.500000  0.500000  0.000000  1
  Ca  Ca5  1  0.000000  0.500000  0.500000  1
  Sb  Sb6  1  0.000000  0.000000  0.000000  1
  Os  Os7  1  0.500000  0.000000  0.500000  1
  O  O8  1  0.450044  0.895534  0.718264  1
  O  O9  1  0.549956  0.104466  0.281736  1
  O  O10  1  0.939907  0.109980  0.768014  1
  O  O11  1  0.060093  0.890020  0.231986  1
  O  O12  1  0.770962  0.764425  0.571134  1
  O  O13  1  0.229038  0.235575  0.428866  1
  O  O14  1  0.281396  0.252533  0.923833  1
  O  O15  1  0.718604  0.747467  0.076167  1
  O  O16  1  0.326572  0.669339  0.552354  1
  O  O17  1  0.673428  0.330661  0.447646  1
  O  O18  1  0.815687  0.342618  0.946228  1
  O  O19  1  0.184313  0.657382  0.053772  1
