# generated using pymatgen
data_Sc2Ga10Re2Os
_symmetry_space_group_name_H-M   'P 1'
_cell_length_a   9.12949700
_cell_length_b   9.12949700
_cell_length_c   5.93285900
_cell_angle_alpha   90.00000000
_cell_angle_beta   90.00000000
_cell_angle_gamma   90.00000000
_symmetry_Int_Tables_number   1
_chemical_formula_structural   Sc2Ga10Re2Os
_chemical_formula_sum   'Sc4 Ga20 Re4 Os2'
_cell_volume   494.49024387
_cell_formula_units_Z   2
loop_
 _symmetry_equiv_pos_site_id
 _symmetry_equiv_pos_as_xyz
  1  'x, y, z'
loop_
 _atom_site_type_symbol
 _atom_site_label
 _atom_site_symmetry_multiplicity
 _atom_site_fract_x
 _atom_site_fract_y
 _atom_site_fract_z
 _atom_site_occupancy
  Sc  Sc0  1  0.682016  0.182016  0.000000  1
  Sc  Sc1  1  0.317984  0.817984  0.000000  1
  Sc  Sc2  1  0.817984  0.682016  0.000000  1
  Sc  Sc3  1  0.182016  0.317984  0.000000  1
  Ga  Ga4  1  0.938615  0.208047  0.282911  1
  Ga  Ga5  1  0.708047  0.438615  0.282911  1
  Ga  Ga6  1  0.500000  0.000000  0.267044  1
  Ga  Ga7  1  0.561385  0.708047  0.717089  1
  Ga  Ga8  1  0.291953  0.561385  0.717089  1
  Ga  Ga9  1  0.791953  0.938615  0.282911  1
  Ga  Ga10  1  0.938615  0.208047  0.717089  1
  Ga  Ga11  1  0.291953  0.561385  0.282911  1
  Ga  Ga12  1  0.061385  0.791953  0.282911  1
  Ga  Ga13  1  0.708047  0.438615  0.717089  1
  Ga  Ga14  1  0.438615  0.291953  0.717089  1
  Ga  Ga15  1  0.061385  0.791953  0.717089  1
  Ga  Ga16  1  0.208047  0.061385  0.717089  1
  Ga  Ga17  1  0.791953  0.938615  0.717089  1
  Ga  Ga18  1  0.208047  0.061385  0.282911  1
  Ga  Ga19  1  0.000000  0.500000  0.732956  1
  Ga  Ga20  1  0.000000  0.500000  0.267044  1
  Ga  Ga21  1  0.561385  0.708047  0.282911  1
  Ga  Ga22  1  0.438615  0.291953  0.282911  1
  Ga  Ga23  1  0.500000  0.000000  0.732956  1
  Re  Re24  1  0.678224  0.178224  0.500000  1
  Re  Re25  1  0.821776  0.678224  0.500000  1
  Re  Re26  1  0.178224  0.321776  0.500000  1
  Re  Re27  1  0.321776  0.821776  0.500000  1
  Os  Os28  1  0.000000  0.000000  0.000000  1
  Os  Os29  1  0.500000  0.500000  0.000000  1
