# generated using pymatgen
data_Sr4GePd7
_symmetry_space_group_name_H-M   'P 1'
_cell_length_a   9.31557507
_cell_length_b   9.31557530
_cell_length_c   9.31557500
_cell_angle_alpha   35.61702163
_cell_angle_beta   35.61701973
_cell_angle_gamma   35.61701397
_symmetry_Int_Tables_number   1
_chemical_formula_structural   Sr4GePd7
_chemical_formula_sum   'Sr4 Ge1 Pd7'
_cell_volume   245.06068954
_cell_formula_units_Z   1
loop_
 _symmetry_equiv_pos_site_id
 _symmetry_equiv_pos_as_xyz
  1  'x, y, z'
loop_
 _atom_site_type_symbol
 _atom_site_label
 _atom_site_symmetry_multiplicity
 _atom_site_fract_x
 _atom_site_fract_y
 _atom_site_fract_z
 _atom_site_occupancy
  Sr  Sr0  1  0.565829  0.565829  0.565829  1
  Sr  Sr1  1  0.439190  0.439190  0.439190  1
  Sr  Sr2  1  0.934468  0.934468  0.934468  1
  Sr  Sr3  1  0.060989  0.060989  0.060989  1
  Ge  Ge4  1  0.749826  0.749826  0.749826  1
  Pd  Pd5  1  0.249901  0.249901  0.249901  1
  Pd  Pd6  1  0.008567  0.502130  0.502130  1
  Pd  Pd7  1  0.491770  0.997600  0.997600  1
  Pd  Pd8  1  0.502130  0.008567  0.502130  1
  Pd  Pd9  1  0.997600  0.491770  0.997600  1
  Pd  Pd10  1  0.502130  0.502130  0.008567  1
  Pd  Pd11  1  0.997600  0.997600  0.491770  1
