# generated using pymatgen
data_Tb13Ho4Th3Sn16
_symmetry_space_group_name_H-M   'P 1'
_cell_length_a   8.10038215
_cell_length_b   8.22359988
_cell_length_c   15.54790633
_cell_angle_alpha   90.05376316
_cell_angle_beta   90.15905591
_cell_angle_gamma   89.91667282
_symmetry_Int_Tables_number   1
_chemical_formula_structural   Tb13Ho4Th3Sn16
_chemical_formula_sum   'Tb13 Ho4 Th3 Sn16'
_cell_volume   1035.70738451
_cell_formula_units_Z   1
loop_
 _symmetry_equiv_pos_site_id
 _symmetry_equiv_pos_as_xyz
  1  'x, y, z'
loop_
 _atom_site_type_symbol
 _atom_site_label
 _atom_site_symmetry_multiplicity
 _atom_site_fract_x
 _atom_site_fract_y
 _atom_site_fract_z
 _atom_site_occupancy
  Tb  Tb0  1  0.366794  0.835016  0.878265  1
  Tb  Tb1  1  0.865993  0.664964  0.622760  1
  Tb  Tb2  1  0.634040  0.163640  0.376664  1
  Tb  Tb3  1  0.132924  0.336485  0.122490  1
  Tb  Tb4  1  0.632950  0.162195  0.122719  1
  Tb  Tb5  1  0.134308  0.337961  0.377112  1
  Tb  Tb6  1  0.366315  0.837848  0.622942  1
  Tb  Tb7  1  0.868027  0.662017  0.877646  1
  Tb  Tb8  1  0.527115  0.322779  0.900389  1
  Tb  Tb9  1  0.026038  0.177014  0.599837  1
  Tb  Tb10  1  0.475862  0.677610  0.400996  1
  Tb  Tb11  1  0.975140  0.821697  0.100295  1
  Tb  Tb12  1  0.478260  0.677246  0.097302  1
  Ho  Ho13  1  0.196679  0.500897  0.750443  1
  Ho  Ho14  1  0.696092  0.998938  0.750017  1
  Ho  Ho15  1  0.802757  0.499977  0.249295  1
  Ho  Ho16  1  0.303004  0.002224  0.248841  1
  Th  Th17  1  0.981732  0.819484  0.402392  1
  Th  Th18  1  0.517761  0.320826  0.596204  1
  Th  Th19  1  0.018438  0.179288  0.904548  1
  Sn  Sn20  1  0.291716  0.032409  0.043108  1
  Sn  Sn21  1  0.792255  0.466251  0.456967  1
  Sn  Sn22  1  0.709169  0.967474  0.542582  1
  Sn  Sn23  1  0.211568  0.532846  0.957440  1
  Sn  Sn24  1  0.704824  0.960318  0.958835  1
  Sn  Sn25  1  0.203388  0.541161  0.540702  1
  Sn  Sn26  1  0.295904  0.039867  0.459086  1
  Sn  Sn27  1  0.792243  0.462658  0.041501  1
  Sn  Sn28  1  0.562845  0.621663  0.749223  1
  Sn  Sn29  1  0.063438  0.879333  0.751344  1
  Sn  Sn30  1  0.436807  0.379953  0.249717  1
  Sn  Sn31  1  0.936177  0.121100  0.250954  1
  Sn  Sn32  1  0.328783  0.145819  0.752151  1
  Sn  Sn33  1  0.829473  0.354408  0.747889  1
  Sn  Sn34  1  0.667647  0.851478  0.249615  1
  Sn  Sn35  1  0.173533  0.645156  0.247730  1
