# generated using pymatgen
data_Y2Al2Co5NiB2
_symmetry_space_group_name_H-M   'P 1'
_cell_length_a   5.15547926
_cell_length_b   5.15547911
_cell_length_c   6.65640700
_cell_angle_alpha   90.00000000
_cell_angle_beta   90.00000000
_cell_angle_gamma   119.61393696
_symmetry_Int_Tables_number   1
_chemical_formula_structural   Y2Al2Co5NiB2
_chemical_formula_sum   'Y2 Al2 Co5 Ni1 B2'
_cell_volume   153.81014046
_cell_formula_units_Z   1
loop_
 _symmetry_equiv_pos_site_id
 _symmetry_equiv_pos_as_xyz
  1  'x, y, z'
loop_
 _atom_site_type_symbol
 _atom_site_label
 _atom_site_symmetry_multiplicity
 _atom_site_fract_x
 _atom_site_fract_y
 _atom_site_fract_z
 _atom_site_occupancy
  Y  Y0  1  0.000000  0.000000  0.500047  1
  Y  Y1  1  0.000000  0.000000  0.004557  1
  Al  Al2  1  0.331851  0.668149  0.000414  1
  Al  Al3  1  0.668149  0.331851  0.000414  1
  Co  Co4  1  0.500000  0.000000  0.294309  1
  Co  Co5  1  0.500000  0.500000  0.294808  1
  Co  Co6  1  0.000000  0.500000  0.294309  1
  Co  Co7  1  0.500000  0.000000  0.704844  1
  Co  Co8  1  0.000000  0.500000  0.704844  1
  Ni  Ni9  1  0.500000  0.500000  0.705262  1
  B  B10  1  0.670176  0.329824  0.498096  1
  B  B11  1  0.329824  0.670176  0.498096  1
