# generated using pymatgen
data_Ti7Nb5(BRu)12
_symmetry_space_group_name_H-M   'P 1'
_cell_length_a   3.09141900
_cell_length_b   8.94932382
_cell_length_c   15.45410684
_cell_angle_alpha   89.99432350
_cell_angle_beta   90.00000000
_cell_angle_gamma   90.00000000
_symmetry_Int_Tables_number   1
_chemical_formula_structural   Ti7Nb5(BRu)12
_chemical_formula_sum   'Ti7 Nb5 B12 Ru12'
_cell_volume   427.55501279
_cell_formula_units_Z   1
loop_
 _symmetry_equiv_pos_site_id
 _symmetry_equiv_pos_as_xyz
  1  'x, y, z'
loop_
 _atom_site_type_symbol
 _atom_site_label
 _atom_site_symmetry_multiplicity
 _atom_site_fract_x
 _atom_site_fract_y
 _atom_site_fract_z
 _atom_site_occupancy
  Ti  Ti0  1  0.000000  0.800802  0.495608  1
  Ti  Ti1  1  0.000000  0.199042  0.505777  1
  Ti  Ti2  1  0.000000  0.302206  0.005079  1
  Ti  Ti3  1  0.000000  0.696196  0.993197  1
  Ti  Ti4  1  0.000000  0.512959  0.595668  1
  Ti  Ti5  1  0.000000  0.486763  0.405322  1
  Ti  Ti6  1  0.000000  0.013472  0.903092  1
  Nb  Nb7  1  0.000000  0.984864  0.093980  1
  Nb  Nb8  1  0.000000  0.685568  0.205569  1
  Nb  Nb9  1  0.000000  0.315292  0.794866  1
  Nb  Nb10  1  0.000000  0.186086  0.297060  1
  Nb  Nb11  1  0.000000  0.815163  0.703834  1
  B  B12  1  0.500000  0.602961  0.496839  1
  B  B13  1  0.500000  0.396959  0.503801  1
  B  B14  1  0.500000  0.104781  0.000848  1
  B  B15  1  0.500000  0.894067  0.994116  1
  B  B16  1  0.000000  0.609733  0.833330  1
  B  B17  1  0.000000  0.393799  0.166695  1
  B  B18  1  0.000000  0.110179  0.665409  1
  B  B19  1  0.000000  0.889230  0.337270  1
  B  B20  1  0.500000  0.711151  0.598328  1
  B  B21  1  0.500000  0.288924  0.402576  1
  B  B22  1  0.500000  0.211689  0.901117  1
  B  B23  1  0.500000  0.783324  0.096856  1
  Ru  Ru24  1  0.500000  0.717969  0.360441  1
  Ru  Ru25  1  0.500000  0.282057  0.640197  1
  Ru  Ru26  1  0.500000  0.221283  0.141324  1
  Ru  Ru27  1  0.500000  0.781625  0.858873  1
  Ru  Ru28  1  0.500000  0.520066  0.093932  1
  Ru  Ru29  1  0.500000  0.479941  0.905704  1
  Ru  Ru30  1  0.500000  0.019998  0.407188  1
  Ru  Ru31  1  0.500000  0.980381  0.593715  1
  Ru  Ru32  1  0.500000  0.565893  0.731781  1
  Ru  Ru33  1  0.500000  0.435112  0.268342  1
  Ru  Ru34  1  0.500000  0.066326  0.767341  1
  Ru  Ru35  1  0.500000  0.934141  0.234925  1
