# generated using pymatgen
data_Lu12Al(TcPb)2
_symmetry_space_group_name_H-M   'P 1'
_cell_length_a   8.37096137
_cell_length_b   8.37128410
_cell_length_c   8.37096279
_cell_angle_alpha   109.92476617
_cell_angle_beta   109.89866110
_cell_angle_gamma   108.59224327
_symmetry_Int_Tables_number   1
_chemical_formula_structural   Lu12Al(TcPb)2
_chemical_formula_sum   'Lu12 Al1 Tc2 Pb2'
_cell_volume   451.49482797
_cell_formula_units_Z   1
loop_
 _symmetry_equiv_pos_site_id
 _symmetry_equiv_pos_as_xyz
  1  'x, y, z'
loop_
 _atom_site_type_symbol
 _atom_site_label
 _atom_site_symmetry_multiplicity
 _atom_site_fract_x
 _atom_site_fract_y
 _atom_site_fract_z
 _atom_site_occupancy
  Lu  Lu0  1  0.319283  0.319369  0.638650  1
  Lu  Lu1  1  0.680717  0.680631  0.361350  1
  Lu  Lu2  1  0.319282  0.680631  0.999915  1
  Lu  Lu3  1  0.680718  0.319369  0.000085  1
  Lu  Lu4  1  0.443364  0.196346  0.247045  1
  Lu  Lu5  1  0.556636  0.803654  0.752955  1
  Lu  Lu6  1  0.949301  0.196346  0.752982  1
  Lu  Lu7  1  0.196360  0.949377  0.753018  1
  Lu  Lu8  1  0.050699  0.803654  0.247018  1
  Lu  Lu9  1  0.803640  0.050623  0.246982  1
  Lu  Lu10  1  0.196359  0.443334  0.246975  1
  Lu  Lu11  1  0.803641  0.556666  0.753025  1
  Al  Al12  1  0.000000  0.000000  0.000000  1
  Tc  Tc13  1  0.338514  0.338518  0.000005  1
  Tc  Tc14  1  0.661486  0.661482  0.999995  1
  Pb  Pb15  1  0.500000  0.000000  0.500000  1
  Pb  Pb16  1  0.000000  0.500000  0.500000  1
