# generated using pymatgen
data_BaNb8AlS16
_symmetry_space_group_name_H-M   'P 1'
_cell_length_a   6.69869800
_cell_length_b   6.69865979
_cell_length_c   13.86698600
_cell_angle_alpha   90.00165934
_cell_angle_beta   89.99924731
_cell_angle_gamma   119.99961588
_symmetry_Int_Tables_number   1
_chemical_formula_structural   BaNb8AlS16
_chemical_formula_sum   'Ba1 Nb8 Al1 S16'
_cell_volume   538.88079943
_cell_formula_units_Z   1
loop_
 _symmetry_equiv_pos_site_id
 _symmetry_equiv_pos_as_xyz
  1  'x, y, z'
loop_
 _atom_site_type_symbol
 _atom_site_label
 _atom_site_symmetry_multiplicity
 _atom_site_fract_x
 _atom_site_fract_y
 _atom_site_fract_z
 _atom_site_occupancy
  Ba  Ba0  1  0.000000  0.000000  0.500000  1
  Nb  Nb1  1  0.999995  0.000008  0.216371  1
  Nb  Nb2  1  0.000005  0.999992  0.783629  1
  Nb  Nb3  1  0.504533  0.009077  0.213233  1
  Nb  Nb4  1  0.990928  0.495471  0.213234  1
  Nb  Nb5  1  0.504533  0.495470  0.213233  1
  Nb  Nb6  1  0.495467  0.990923  0.786767  1
  Nb  Nb7  1  0.009072  0.504529  0.786766  1
  Nb  Nb8  1  0.495467  0.504530  0.786767  1
  Al  Al9  1  0.000000  0.000000  0.000000  1
  S  S10  1  0.333333  0.666669  0.900033  1
  S  S11  1  0.666667  0.333331  0.099967  1
  S  S12  1  0.666665  0.333344  0.329326  1
  S  S13  1  0.333335  0.666656  0.670674  1
  S  S14  1  0.169364  0.830647  0.326389  1
  S  S15  1  0.169362  0.338739  0.326392  1
  S  S16  1  0.661270  0.830648  0.326390  1
  S  S17  1  0.830636  0.169353  0.673611  1
  S  S18  1  0.830638  0.661261  0.673608  1
  S  S19  1  0.338730  0.169352  0.673610  1
  S  S20  1  0.832533  0.167469  0.898686  1
  S  S21  1  0.832526  0.665048  0.898687  1
  S  S22  1  0.334956  0.167478  0.898690  1
  S  S23  1  0.167467  0.832531  0.101314  1
  S  S24  1  0.167474  0.334952  0.101313  1
  S  S25  1  0.665044  0.832522  0.101310  1
