# generated using pymatgen
data_Dy5AlSnBi
_symmetry_space_group_name_H-M   'P 1'
_cell_length_a   8.96798484
_cell_length_b   8.92940315
_cell_length_c   6.55719900
_cell_angle_alpha   90.00000000
_cell_angle_beta   90.00000000
_cell_angle_gamma   119.85778716
_symmetry_Int_Tables_number   1
_chemical_formula_structural   Dy5AlSnBi
_chemical_formula_sum   'Dy10 Al2 Sn2 Bi2'
_cell_volume   455.39354227
_cell_formula_units_Z   2
loop_
 _symmetry_equiv_pos_site_id
 _symmetry_equiv_pos_as_xyz
  1  'x, y, z'
loop_
 _atom_site_type_symbol
 _atom_site_label
 _atom_site_symmetry_multiplicity
 _atom_site_fract_x
 _atom_site_fract_y
 _atom_site_fract_z
 _atom_site_occupancy
  Dy  Dy0  1  0.994106  0.755609  0.750000  1
  Dy  Dy1  1  0.994106  0.238497  0.250000  1
  Dy  Dy2  1  0.769591  0.761303  0.250000  1
  Dy  Dy3  1  0.769591  0.008289  0.750000  1
  Dy  Dy4  1  0.230658  0.245423  0.750000  1
  Dy  Dy5  1  0.230658  0.985233  0.250000  1
  Dy  Dy6  1  0.320145  0.660072  0.500000  1
  Dy  Dy7  1  0.686486  0.343243  0.000000  1
  Dy  Dy8  1  0.686486  0.343243  0.500000  1
  Dy  Dy9  1  0.320145  0.660072  0.000000  1
  Al  Al10  1  0.001691  0.599572  0.250000  1
  Al  Al11  1  0.001691  0.402119  0.750000  1
  Sn  Sn12  1  0.603179  0.607442  0.750000  1
  Sn  Sn13  1  0.603179  0.995736  0.250000  1
  Bi  Bi14  1  0.394145  0.005955  0.750000  1
  Bi  Bi15  1  0.394145  0.388190  0.250000  1
