# generated using pymatgen
data_Y2Ga9Ir2Rh
_symmetry_space_group_name_H-M   'P 1'
_cell_length_a   7.58643632
_cell_length_b   7.58643795
_cell_length_c   9.53305200
_cell_angle_alpha   90.00000000
_cell_angle_beta   90.00000000
_cell_angle_gamma   119.78701302
_symmetry_Int_Tables_number   1
_chemical_formula_structural   Y2Ga9Ir2Rh
_chemical_formula_sum   'Y4 Ga18 Ir4 Rh2'
_cell_volume   476.17479911
_cell_formula_units_Z   2
loop_
 _symmetry_equiv_pos_site_id
 _symmetry_equiv_pos_as_xyz
  1  'x, y, z'
loop_
 _atom_site_type_symbol
 _atom_site_label
 _atom_site_symmetry_multiplicity
 _atom_site_fract_x
 _atom_site_fract_y
 _atom_site_fract_z
 _atom_site_occupancy
  Y  Y0  1  0.997368  0.667826  0.250000  1
  Y  Y1  1  0.002632  0.332174  0.750000  1
  Y  Y2  1  0.667826  0.997368  0.250000  1
  Y  Y3  1  0.332174  0.002632  0.750000  1
  Ga  Ga4  1  0.125085  0.125085  0.250000  1
  Ga  Ga5  1  0.874915  0.874915  0.750000  1
  Ga  Ga6  1  0.000035  0.333353  0.079937  1
  Ga  Ga7  1  0.999965  0.666647  0.920063  1
  Ga  Ga8  1  0.999965  0.666647  0.579937  1
  Ga  Ga9  1  0.333353  0.000035  0.420063  1
  Ga  Ga10  1  0.000035  0.333353  0.420063  1
  Ga  Ga11  1  0.666647  0.999965  0.579937  1
  Ga  Ga12  1  0.666647  0.999965  0.920063  1
  Ga  Ga13  1  0.333353  0.000035  0.079937  1
  Ga  Ga14  1  0.332068  0.332068  0.563994  1
  Ga  Ga15  1  0.667932  0.667932  0.436006  1
  Ga  Ga16  1  0.667932  0.667932  0.063994  1
  Ga  Ga17  1  0.332068  0.332068  0.936006  1
  Ga  Ga18  1  0.338258  0.545962  0.250000  1
  Ga  Ga19  1  0.661742  0.454038  0.750000  1
  Ga  Ga20  1  0.545962  0.338258  0.250000  1
  Ga  Ga21  1  0.454038  0.661742  0.750000  1
  Ir  Ir22  1  0.672150  0.327850  0.000000  1
  Ir  Ir23  1  0.327850  0.672150  0.000000  1
  Ir  Ir24  1  0.327850  0.672150  0.500000  1
  Ir  Ir25  1  0.672150  0.327850  0.500000  1
  Rh  Rh26  1  0.000000  0.000000  0.000000  1
  Rh  Rh27  1  0.000000  0.000000  0.500000  1
