# generated using pymatgen
data_YbTm3Al15(SiRh2)3
_symmetry_space_group_name_H-M   'P 1'
_cell_length_a   7.51150469
_cell_length_b   7.49924353
_cell_length_c   9.31760917
_cell_angle_alpha   89.99235220
_cell_angle_beta   89.90525501
_cell_angle_gamma   119.55739678
_symmetry_Int_Tables_number   1
_chemical_formula_structural   YbTm3Al15(SiRh2)3
_chemical_formula_sum   'Yb1 Tm3 Al15 Si3 Rh6'
_cell_volume   456.56054694
_cell_formula_units_Z   1
loop_
 _symmetry_equiv_pos_site_id
 _symmetry_equiv_pos_as_xyz
  1  'x, y, z'
loop_
 _atom_site_type_symbol
 _atom_site_label
 _atom_site_symmetry_multiplicity
 _atom_site_fract_x
 _atom_site_fract_y
 _atom_site_fract_z
 _atom_site_occupancy
  Yb  Yb0  1  0.993563  0.669964  0.247737  1
  Tm  Tm1  1  0.004986  0.323350  0.754380  1
  Tm  Tm2  1  0.682785  0.002414  0.246901  1
  Tm  Tm3  1  0.322381  0.004589  0.750044  1
  Al  Al4  1  0.997989  0.667558  0.920914  1
  Al  Al5  1  0.998912  0.663432  0.576917  1
  Al  Al6  1  0.336410  0.999215  0.423099  1
  Al  Al7  1  0.002539  0.337450  0.428079  1
  Al  Al8  1  0.662869  0.999483  0.577745  1
  Al  Al9  1  0.658939  0.994602  0.920005  1
  Al  Al10  1  0.335437  0.999416  0.076718  1
  Al  Al11  1  0.335597  0.334865  0.557642  1
  Al  Al12  1  0.665755  0.666165  0.443629  1
  Al  Al13  1  0.664767  0.665574  0.057150  1
  Al  Al14  1  0.337915  0.334889  0.943288  1
  Al  Al15  1  0.335909  0.549948  0.249979  1
  Al  Al16  1  0.664487  0.447847  0.750379  1
  Al  Al17  1  0.546903  0.335177  0.250231  1
  Al  Al18  1  0.448126  0.662162  0.749413  1
  Si  Si19  1  0.132433  0.129794  0.250445  1
  Si  Si20  1  0.871567  0.872904  0.749594  1
  Si  Si21  1  0.001933  0.338239  0.073950  1
  Rh  Rh22  1  0.678818  0.327427  0.001413  1
  Rh  Rh23  1  0.320871  0.664771  0.999289  1
  Rh  Rh24  1  0.328296  0.671747  0.500378  1
  Rh  Rh25  1  0.671953  0.327538  0.499585  1
  Rh  Rh26  1  0.998493  0.008305  0.001342  1
  Rh  Rh27  1  0.999365  0.001173  0.499757  1
