# generated using pymatgen
data_DyHoCo3
_symmetry_space_group_name_H-M   'P 1'
_cell_length_a   5.36402401
_cell_length_b   5.36402391
_cell_length_c   6.95454200
_cell_angle_alpha   90.00006293
_cell_angle_beta   89.99993500
_cell_angle_gamma   120.37622433
_symmetry_Int_Tables_number   1
_chemical_formula_structural   DyHoCo3
_chemical_formula_sum   'Dy2 Ho2 Co6'
_cell_volume   172.63212693
_cell_formula_units_Z   2
loop_
 _symmetry_equiv_pos_site_id
 _symmetry_equiv_pos_as_xyz
  1  'x, y, z'
loop_
 _atom_site_type_symbol
 _atom_site_label
 _atom_site_symmetry_multiplicity
 _atom_site_fract_x
 _atom_site_fract_y
 _atom_site_fract_z
 _atom_site_occupancy
  Dy  Dy0  1  0.337047  0.662952  0.597607  1
  Dy  Dy1  1  0.837047  0.162952  0.902392  1
  Ho  Ho2  1  0.162939  0.837060  0.097652  1
  Ho  Ho3  1  0.662938  0.337061  0.402347  1
  Co  Co4  1  0.500010  0.499990  0.000037  1
  Co  Co5  1  0.164120  0.335883  0.250001  1
  Co  Co6  1  0.664118  0.835881  0.250001  1
  Co  Co7  1  0.000010  0.999990  0.499963  1
  Co  Co8  1  0.335886  0.164116  0.750001  1
  Co  Co9  1  0.835885  0.664115  0.750001  1
