# generated using pymatgen
data_Nd4Er16(Bi3Sb)3
_symmetry_space_group_name_H-M   'P 1'
_cell_length_a   8.14511237
_cell_length_b   9.42111500
_cell_length_c   11.91784200
_cell_angle_alpha   90.00000000
_cell_angle_beta   90.01736084
_cell_angle_gamma   90.00000000
_symmetry_Int_Tables_number   1
_chemical_formula_structural   Nd4Er16(Bi3Sb)3
_chemical_formula_sum   'Nd4 Er16 Bi9 Sb3'
_cell_volume   914.52796276
_cell_formula_units_Z   1
loop_
 _symmetry_equiv_pos_site_id
 _symmetry_equiv_pos_as_xyz
  1  'x, y, z'
loop_
 _atom_site_type_symbol
 _atom_site_label
 _atom_site_symmetry_multiplicity
 _atom_site_fract_x
 _atom_site_fract_y
 _atom_site_fract_z
 _atom_site_occupancy
  Nd  Nd0  1  0.319665  0.250000  0.217646  1
  Nd  Nd1  1  0.814542  0.250000  0.278308  1
  Nd  Nd2  1  0.681519  0.750000  0.780831  1
  Nd  Nd3  1  0.181834  0.750000  0.719222  1
  Er  Er4  1  0.352462  0.750000  0.214951  1
  Er  Er5  1  0.852798  0.750000  0.284511  1
  Er  Er6  1  0.647444  0.250000  0.784709  1
  Er  Er7  1  0.148298  0.250000  0.718359  1
  Er  Er8  1  0.688135  0.563510  0.058734  1
  Er  Er9  1  0.189287  0.933172  0.440936  1
  Er  Er10  1  0.311993  0.063204  0.941363  1
  Er  Er11  1  0.809325  0.438994  0.560211  1
  Er  Er12  1  0.311993  0.436796  0.941363  1
  Er  Er13  1  0.809325  0.061006  0.560211  1
  Er  Er14  1  0.688135  0.936490  0.058734  1
  Er  Er15  1  0.189287  0.566828  0.440936  1
  Er  Er16  1  0.477310  0.250000  0.488417  1
  Er  Er17  1  0.974290  0.250000  0.011464  1
  Er  Er18  1  0.526779  0.750000  0.512070  1
  Er  Er19  1  0.026136  0.750000  0.988392  1
  Bi  Bi20  1  0.095805  0.250000  0.461862  1
  Bi  Bi21  1  0.565135  0.990981  0.327612  1
  Bi  Bi22  1  0.065458  0.508363  0.172285  1
  Bi  Bi23  1  0.434293  0.491302  0.672540  1
  Bi  Bi24  1  0.934441  0.008301  0.827879  1
  Bi  Bi25  1  0.434293  0.008698  0.672540  1
  Bi  Bi26  1  0.934441  0.491699  0.827879  1
  Bi  Bi27  1  0.565135  0.509019  0.327612  1
  Bi  Bi28  1  0.065458  0.991637  0.172285  1
  Sb  Sb29  1  0.403938  0.750000  0.962941  1
  Sb  Sb30  1  0.904462  0.750000  0.536864  1
  Sb  Sb31  1  0.596584  0.250000  0.036329  1
