# generated using pymatgen
data_Ho3ErPu6(SiB4)4
_symmetry_space_group_name_H-M   'P 1'
_cell_length_a   7.20583200
_cell_length_b   7.20630933
_cell_length_c   8.07371900
_cell_angle_alpha   90.00000000
_cell_angle_beta   90.00000000
_cell_angle_gamma   89.93168697
_symmetry_Int_Tables_number   1
_chemical_formula_structural   Ho3ErPu6(SiB4)4
_chemical_formula_sum   'Ho3 Er1 Pu6 Si4 B16'
_cell_volume   419.24737714
_cell_formula_units_Z   1
loop_
 _symmetry_equiv_pos_site_id
 _symmetry_equiv_pos_as_xyz
  1  'x, y, z'
loop_
 _atom_site_type_symbol
 _atom_site_label
 _atom_site_symmetry_multiplicity
 _atom_site_fract_x
 _atom_site_fract_y
 _atom_site_fract_z
 _atom_site_occupancy
  Ho  Ho0  1  0.181606  0.318308  0.778231  1
  Ho  Ho1  1  0.181606  0.318308  0.221769  1
  Ho  Ho2  1  0.501713  0.500651  0.500000  1
  Er  Er3  1  0.999457  0.998362  0.500000  1
  Pu  Pu4  1  0.683149  0.182854  0.229398  1
  Pu  Pu5  1  0.317063  0.816938  0.770618  1
  Pu  Pu6  1  0.317063  0.816938  0.229382  1
  Pu  Pu7  1  0.816525  0.683556  0.229310  1
  Pu  Pu8  1  0.816525  0.683556  0.770690  1
  Pu  Pu9  1  0.683149  0.182854  0.770602  1
  Si  Si10  1  0.116389  0.614335  0.500000  1
  Si  Si11  1  0.886478  0.382794  0.500000  1
  Si  Si12  1  0.381999  0.117111  0.500000  1
  Si  Si13  1  0.613586  0.887283  0.500000  1
  B  B14  1  0.173421  0.038320  0.000000  1
  B  B15  1  0.826326  0.959779  0.000000  1
  B  B16  1  0.958707  0.172173  0.000000  1
  B  B17  1  0.327790  0.541371  0.000000  1
  B  B18  1  0.040004  0.825707  0.000000  1
  B  B19  1  0.674279  0.460035  0.000000  1
  B  B20  1  0.540197  0.673732  0.000000  1
  B  B21  1  0.461603  0.326589  0.000000  1
  B  B22  1  0.090302  0.589123  0.000000  1
  B  B23  1  0.910877  0.409712  0.000000  1
  B  B24  1  0.409720  0.090202  0.000000  1
  B  B25  1  0.588988  0.910942  0.000000  1
  B  B26  1  0.999666  0.998874  0.161772  1
  B  B27  1  0.999666  0.998874  0.838228  1
  B  B28  1  0.501071  0.500361  0.838499  1
  B  B29  1  0.501071  0.500361  0.161501  1
