# generated using pymatgen
data_Sr4Fe3Pd2RuN6
_symmetry_space_group_name_H-M   'P 1'
_cell_length_a   6.55643594
_cell_length_b   6.58514956
_cell_length_c   6.64680125
_cell_angle_alpha   89.37119375
_cell_angle_beta   90.01485386
_cell_angle_gamma   116.73020779
_symmetry_Int_Tables_number   1
_chemical_formula_structural   Sr4Fe3Pd2RuN6
_chemical_formula_sum   'Sr4 Fe3 Pd2 Ru1 N6'
_cell_volume   256.28952221
_cell_formula_units_Z   1
loop_
 _symmetry_equiv_pos_site_id
 _symmetry_equiv_pos_as_xyz
  1  'x, y, z'
loop_
 _atom_site_type_symbol
 _atom_site_label
 _atom_site_symmetry_multiplicity
 _atom_site_fract_x
 _atom_site_fract_y
 _atom_site_fract_z
 _atom_site_occupancy
  Sr  Sr0  1  0.827695  0.673425  0.894050  1
  Sr  Sr1  1  0.323698  0.172598  0.603882  1
  Sr  Sr2  1  0.166051  0.324448  0.101224  1
  Sr  Sr3  1  0.677595  0.833302  0.399680  1
  Fe  Fe4  1  0.435006  0.829669  0.892106  1
  Fe  Fe5  1  0.839787  0.445414  0.402953  1
  Fe  Fe6  1  0.167553  0.564747  0.605661  1
  Pd  Pd7  1  0.814181  0.186423  0.747723  1
  Pd  Pd8  1  0.181201  0.815433  0.250326  1
  Ru  Ru9  1  0.564751  0.169275  0.104501  1
  N  N10  1  0.412360  0.585885  0.750956  1
  N  N11  1  0.594967  0.422118  0.263190  1
  N  N12  1  0.003243  0.720766  0.525051  1
  N  N13  1  0.718255  0.985391  0.012324  1
  N  N14  1  0.003917  0.288359  0.476631  1
  N  N15  1  0.269742  0.982746  0.969741  1
