# generated using pymatgen
data_Lu7(ScSn2)5
_symmetry_space_group_name_H-M   'P 1'
_cell_length_a   6.21455260
_cell_length_b   9.11209213
_cell_length_c   11.19354092
_cell_angle_alpha   114.09244851
_cell_angle_beta   106.11674707
_cell_angle_gamma   90.00000395
_symmetry_Int_Tables_number   1
_chemical_formula_structural   Lu7(ScSn2)5
_chemical_formula_sum   'Lu7 Sc5 Sn10'
_cell_volume   551.24417033
_cell_formula_units_Z   1
loop_
 _symmetry_equiv_pos_site_id
 _symmetry_equiv_pos_as_xyz
  1  'x, y, z'
loop_
 _atom_site_type_symbol
 _atom_site_label
 _atom_site_symmetry_multiplicity
 _atom_site_fract_x
 _atom_site_fract_y
 _atom_site_fract_z
 _atom_site_occupancy
  Lu  Lu0  1  0.561468  0.321729  0.122936  1
  Lu  Lu1  1  0.938451  0.198759  0.876901  1
  Lu  Lu2  1  0.061601  0.800694  0.123202  1
  Lu  Lu3  1  0.141445  0.256438  0.282892  1
  Lu  Lu4  1  0.858837  0.743521  0.717674  1
  Lu  Lu5  1  0.641288  0.026124  0.282577  1
  Lu  Lu6  1  0.359042  0.974532  0.718084  1
  Sc  Sc7  1  0.556771  0.306805  0.613046  1
  Sc  Sc8  1  0.443267  0.693446  0.386736  1
  Sc  Sc9  1  0.943468  0.693446  0.386736  1
  Sc  Sc10  1  0.056275  0.306805  0.613046  1
  Sc  Sc11  1  0.438638  0.678403  0.877276  1
  Sn  Sn12  1  0.292131  0.594447  0.584261  1
  Sn  Sn13  1  0.710254  0.407439  0.420508  1
  Sn  Sn14  1  0.789723  0.987042  0.579445  1
  Sn  Sn15  1  0.210266  0.012831  0.420532  1
  Sn  Sn16  1  0.251592  0.996836  0.998496  1
  Sn  Sn17  1  0.746904  0.996836  0.998496  1
  Sn  Sn18  1  0.073788  0.480406  0.147576  1
  Sn  Sn19  1  0.926487  0.519739  0.852973  1
  Sn  Sn20  1  0.571591  0.666229  0.143183  1
  Sn  Sn21  1  0.426713  0.337490  0.853427  1
