# generated using pymatgen
data_LaZn9CuPt
_symmetry_space_group_name_H-M   'P 1'
_cell_length_a   8.28925213
_cell_length_b   8.27153904
_cell_length_c   8.31674642
_cell_angle_alpha   99.73630050
_cell_angle_beta   99.83897866
_cell_angle_gamma   131.18661287
_symmetry_Int_Tables_number   1
_chemical_formula_structural   LaZn9CuPt
_chemical_formula_sum   'La2 Zn18 Cu2 Pt2'
_cell_volume   391.14274660
_cell_formula_units_Z   2
loop_
 _symmetry_equiv_pos_site_id
 _symmetry_equiv_pos_as_xyz
  1  'x, y, z'
loop_
 _atom_site_type_symbol
 _atom_site_label
 _atom_site_symmetry_multiplicity
 _atom_site_fract_x
 _atom_site_fract_y
 _atom_site_fract_z
 _atom_site_occupancy
  La  La0  1  0.248972  0.748972  0.497943  1
  La  La1  1  0.001028  0.001028  0.002057  1
  Zn  Zn2  1  0.899078  0.571129  0.087396  1
  Zn  Zn3  1  0.432625  0.514205  0.324840  1
  Zn  Zn4  1  0.488874  0.573764  0.669931  1
  Zn  Zn5  1  0.430690  0.104518  0.922502  1
  Zn  Zn6  1  0.761126  0.176236  0.830069  1
  Zn  Zn7  1  0.491811  0.817984  0.922502  1
  Zn  Zn8  1  0.501740  0.501740  0.003479  1
  Zn  Zn9  1  0.758189  0.932016  0.577498  1
  Zn  Zn10  1  0.748260  0.248260  0.496521  1
  Zn  Zn11  1  0.068943  0.653833  0.830069  1
  Zn  Zn12  1  0.350922  0.178871  0.412604  1
  Zn  Zn13  1  0.819310  0.645482  0.577498  1
  Zn  Zn14  1  0.892215  0.810635  0.324840  1
  Zn  Zn15  1  0.181057  0.096167  0.669931  1
  Zn  Zn16  1  0.061682  0.233733  0.412604  1
  Zn  Zn17  1  0.357785  0.939365  0.175160  1
  Zn  Zn18  1  0.817375  0.235795  0.175160  1
  Zn  Zn19  1  0.188318  0.516267  0.087396  1
  Cu  Cu20  1  0.625000  0.875000  0.250000  1
  Cu  Cu21  1  0.625000  0.375000  0.250000  1
  Pt  Pt22  1  0.125000  0.375000  0.750000  1
  Pt  Pt23  1  0.625000  0.375000  0.750000  1
