# generated using pymatgen
data_CeDy2Ho2Ir3
_symmetry_space_group_name_H-M   'P 1'
_cell_length_a   10.96761800
_cell_length_b   10.93709000
_cell_length_c   6.31744800
_cell_angle_alpha   90.00000000
_cell_angle_beta   90.00000000
_cell_angle_gamma   90.00000000
_symmetry_Int_Tables_number   1
_chemical_formula_structural   CeDy2Ho2Ir3
_chemical_formula_sum   'Ce4 Dy8 Ho8 Ir12'
_cell_volume   757.80205280
_cell_formula_units_Z   4
loop_
 _symmetry_equiv_pos_site_id
 _symmetry_equiv_pos_as_xyz
  1  'x, y, z'
loop_
 _atom_site_type_symbol
 _atom_site_label
 _atom_site_symmetry_multiplicity
 _atom_site_fract_x
 _atom_site_fract_y
 _atom_site_fract_z
 _atom_site_occupancy
  Ce  Ce0  1  0.293224  0.092476  0.381252  1
  Ce  Ce1  1  0.293224  0.907524  0.881252  1
  Ce  Ce2  1  0.706776  0.092476  0.881252  1
  Ce  Ce3  1  0.706776  0.907524  0.381252  1
  Dy  Dy4  1  0.589013  0.786015  0.878777  1
  Dy  Dy5  1  0.589013  0.213985  0.378777  1
  Dy  Dy6  1  0.410987  0.786015  0.378777  1
  Dy  Dy7  1  0.410987  0.213985  0.878777  1
  Dy  Dy8  1  0.207110  0.413127  0.621513  1
  Dy  Dy9  1  0.207110  0.586873  0.121513  1
  Dy  Dy10  1  0.792890  0.413127  0.121513  1
  Dy  Dy11  1  0.792890  0.586873  0.621513  1
  Ho  Ho12  1  0.912962  0.708257  0.117457  1
  Ho  Ho13  1  0.912962  0.291743  0.617457  1
  Ho  Ho14  1  0.087038  0.708257  0.617457  1
  Ho  Ho15  1  0.087038  0.291743  0.117457  1
  Ho  Ho16  1  0.000000  0.000000  0.496686  1
  Ho  Ho17  1  0.000000  0.000000  0.996686  1
  Ho  Ho18  1  0.500000  0.500000  0.010676  1
  Ho  Ho19  1  0.500000  0.500000  0.510676  1
  Ir  Ir20  1  0.844546  0.153309  0.243782  1
  Ir  Ir21  1  0.844546  0.846691  0.743782  1
  Ir  Ir22  1  0.155454  0.153309  0.743782  1
  Ir  Ir23  1  0.155454  0.846691  0.243782  1
  Ir  Ir24  1  0.653468  0.346452  0.755860  1
  Ir  Ir25  1  0.653468  0.653548  0.255860  1
  Ir  Ir26  1  0.346532  0.346452  0.255860  1
  Ir  Ir27  1  0.346532  0.653548  0.755860  1
  Ir  Ir28  1  0.500000  0.000000  0.119465  1
  Ir  Ir29  1  0.500000  0.000000  0.619465  1
  Ir  Ir30  1  0.000000  0.500000  0.875893  1
  Ir  Ir31  1  0.000000  0.500000  0.375893  1
