# generated using pymatgen
data_LiDy2Si3Ag
_symmetry_space_group_name_H-M   'P 1'
_cell_length_a   9.27076457
_cell_length_b   9.27076507
_cell_length_c   6.77739090
_cell_angle_alpha   89.75918661
_cell_angle_beta   90.24081511
_cell_angle_gamma   153.38714987
_symmetry_Int_Tables_number   1
_chemical_formula_structural   LiDy2Si3Ag
_chemical_formula_sum   'Li2 Dy4 Si6 Ag2'
_cell_volume   260.93268042
_cell_formula_units_Z   2
loop_
 _symmetry_equiv_pos_site_id
 _symmetry_equiv_pos_as_xyz
  1  'x, y, z'
loop_
 _atom_site_type_symbol
 _atom_site_label
 _atom_site_symmetry_multiplicity
 _atom_site_fract_x
 _atom_site_fract_y
 _atom_site_fract_z
 _atom_site_occupancy
  Li  Li0  1  0.188674  0.811326  0.057166  1
  Li  Li1  1  0.811326  0.188674  0.942834  1
  Dy  Dy2  1  0.552011  0.447989  0.250449  1
  Dy  Dy3  1  0.447989  0.552011  0.749551  1
  Dy  Dy4  1  0.346326  0.653674  0.241032  1
  Dy  Dy5  1  0.653674  0.346326  0.758968  1
  Si  Si6  1  0.940654  0.059346  0.070297  1
  Si  Si7  1  0.059346  0.940654  0.929703  1
  Si  Si8  1  0.058051  0.941949  0.578614  1
  Si  Si9  1  0.941949  0.058051  0.421386  1
  Si  Si10  1  0.721086  0.278914  0.237422  1
  Si  Si11  1  0.278914  0.721086  0.762578  1
  Ag  Ag12  1  0.813164  0.186836  0.565566  1
  Ag  Ag13  1  0.186836  0.813164  0.434434  1
