# generated using pymatgen
data_LiSc(U3Sb5)2
_symmetry_space_group_name_H-M   'P 1'
_cell_length_a   9.22197400
_cell_length_b   9.22197421
_cell_length_c   6.15211100
_cell_angle_alpha   90.00000000
_cell_angle_beta   90.00000000
_cell_angle_gamma   119.99999925
_symmetry_Int_Tables_number   1
_chemical_formula_structural   LiSc(U3Sb5)2
_chemical_formula_sum   'Li1 Sc1 U6 Sb10'
_cell_volume   453.10890185
_cell_formula_units_Z   1
loop_
 _symmetry_equiv_pos_site_id
 _symmetry_equiv_pos_as_xyz
  1  'x, y, z'
loop_
 _atom_site_type_symbol
 _atom_site_label
 _atom_site_symmetry_multiplicity
 _atom_site_fract_x
 _atom_site_fract_y
 _atom_site_fract_z
 _atom_site_occupancy
  Li  Li0  1  0.000000  0.000000  0.000000  1
  Sc  Sc1  1  0.000000  0.000000  0.500000  1
  U  U2  1  0.387143  0.000000  0.749263  1
  U  U3  1  0.387143  0.387143  0.250737  1
  U  U4  1  0.000000  0.612857  0.250737  1
  U  U5  1  0.000000  0.387143  0.749263  1
  U  U6  1  0.612857  0.612857  0.749263  1
  U  U7  1  0.612857  0.000000  0.250737  1
  Sb  Sb8  1  0.666667  0.333333  0.500000  1
  Sb  Sb9  1  0.333333  0.666667  0.000000  1
  Sb  Sb10  1  0.734259  0.000000  0.752808  1
  Sb  Sb11  1  0.734259  0.734259  0.247192  1
  Sb  Sb12  1  0.333333  0.666667  0.500000  1
  Sb  Sb13  1  0.666667  0.333333  0.000000  1
  Sb  Sb14  1  0.265741  0.000000  0.247192  1
  Sb  Sb15  1  0.265741  0.265741  0.752808  1
  Sb  Sb16  1  0.000000  0.734259  0.752808  1
  Sb  Sb17  1  0.000000  0.265741  0.247192  1
