# generated using pymatgen
data_Pr18Eu2Si15Ru
_symmetry_space_group_name_H-M   'P 1'
_cell_length_a   7.93280112
_cell_length_b   7.92409407
_cell_length_c   15.22343300
_cell_angle_alpha   90.15527685
_cell_angle_beta   89.76783477
_cell_angle_gamma   90.16338838
_symmetry_Int_Tables_number   1
_chemical_formula_structural   Pr18Eu2Si15Ru
_chemical_formula_sum   'Pr18 Eu2 Si15 Ru1'
_cell_volume   956.93376112
_cell_formula_units_Z   1
loop_
 _symmetry_equiv_pos_site_id
 _symmetry_equiv_pos_as_xyz
  1  'x, y, z'
loop_
 _atom_site_type_symbol
 _atom_site_label
 _atom_site_symmetry_multiplicity
 _atom_site_fract_x
 _atom_site_fract_y
 _atom_site_fract_z
 _atom_site_occupancy
  Pr  Pr0  1  0.824374  0.188818  0.747316  1
  Pr  Pr1  1  0.693983  0.689431  0.502112  1
  Pr  Pr2  1  0.374451  0.011560  0.449190  1
  Pr  Pr3  1  0.486874  0.878124  0.698487  1
  Pr  Pr4  1  0.510953  0.124283  0.198868  1
  Pr  Pr5  1  0.873714  0.489251  0.299566  1
  Pr  Pr6  1  0.127791  0.505442  0.799055  1
  Pr  Pr7  1  0.626096  0.989944  0.948922  1
  Pr  Pr8  1  0.006934  0.377683  0.550145  1
  Pr  Pr9  1  0.989374  0.623666  0.050892  1
  Pr  Pr10  1  0.132488  0.985458  0.873744  1
  Pr  Pr11  1  0.515089  0.627663  0.126119  1
  Pr  Pr12  1  0.470888  0.360734  0.629342  1
  Pr  Pr13  1  0.627776  0.513093  0.874858  1
  Pr  Pr14  1  0.375038  0.483572  0.373991  1
  Pr  Pr15  1  0.873822  0.018858  0.376517  1
  Pr  Pr16  1  0.985977  0.126224  0.123952  1
  Pr  Pr17  1  0.027346  0.881356  0.626804  1
  Eu  Eu18  1  0.308663  0.307819  0.998752  1
  Eu  Eu19  1  0.190552  0.809440  0.250621  1
  Si  Si20  1  0.333927  0.697563  0.949785  1
  Si  Si21  1  0.664498  0.301343  0.451045  1
  Si  Si22  1  0.701799  0.334047  0.051531  1
  Si  Si23  1  0.304982  0.669811  0.547390  1
  Si  Si24  1  0.800364  0.835446  0.200378  1
  Si  Si25  1  0.165812  0.201820  0.298732  1
  Si  Si26  1  0.832908  0.800625  0.800811  1
  Si  Si27  1  0.287477  0.918010  0.058038  1
  Si  Si28  1  0.581624  0.787105  0.310020  1
  Si  Si29  1  0.422858  0.206733  0.811278  1
  Si  Si30  1  0.780257  0.581687  0.691721  1
  Si  Si31  1  0.212001  0.421007  0.190644  1
  Si  Si32  1  0.702645  0.074357  0.558713  1
  Si  Si33  1  0.918598  0.286449  0.941285  1
  Si  Si34  1  0.079051  0.715365  0.441850  1
  Ru  Ru35  1  0.189016  0.176212  0.697531  1
