# generated using pymatgen
data_Th10InSn3Bi4
_symmetry_space_group_name_H-M   'P 1'
_cell_length_a   9.73080148
_cell_length_b   9.74085381
_cell_length_c   6.62066900
_cell_angle_alpha   89.99098876
_cell_angle_beta   90.01804698
_cell_angle_gamma   119.96586499
_symmetry_Int_Tables_number   1
_chemical_formula_structural   Th10InSn3Bi4
_chemical_formula_sum   'Th10 In1 Sn3 Bi4'
_cell_volume   543.66002944
_cell_formula_units_Z   1
loop_
 _symmetry_equiv_pos_site_id
 _symmetry_equiv_pos_as_xyz
  1  'x, y, z'
loop_
 _atom_site_type_symbol
 _atom_site_label
 _atom_site_symmetry_multiplicity
 _atom_site_fract_x
 _atom_site_fract_y
 _atom_site_fract_z
 _atom_site_occupancy
  Th  Th0  1  0.000023  0.716965  0.749503  1
  Th  Th1  1  0.283058  0.283035  0.749503  1
  Th  Th2  1  0.331029  0.663826  0.496965  1
  Th  Th3  1  0.667204  0.336174  0.496965  1
  Th  Th4  1  0.718384  0.714354  0.250431  1
  Th  Th5  1  0.717973  0.000000  0.749406  1
  Th  Th6  1  0.004030  0.285646  0.250431  1
  Th  Th7  1  0.280862  0.000000  0.250847  1
  Th  Th8  1  0.331296  0.663987  0.002722  1
  Th  Th9  1  0.667310  0.336013  0.002722  1
  In  In10  1  0.999483  0.000000  0.000961  1
  Sn  Sn11  1  0.379063  0.378769  0.248693  1
  Sn  Sn12  1  0.000294  0.621231  0.248693  1
  Sn  Sn13  1  0.999370  0.000000  0.499813  1
  Bi  Bi14  1  0.620259  0.620341  0.751135  1
  Bi  Bi15  1  0.999919  0.379659  0.751135  1
  Bi  Bi16  1  0.379270  0.000000  0.751280  1
  Bi  Bi17  1  0.621174  0.000000  0.248799  1
