# generated using pymatgen
data_Lu5Co3P12(Ru7Pt)2
_symmetry_space_group_name_H-M   'P 1'
_cell_length_a   12.45132695
_cell_length_b   12.43461797
_cell_length_c   3.87483100
_cell_angle_alpha   90.00000000
_cell_angle_beta   90.00000000
_cell_angle_gamma   119.49566586
_symmetry_Int_Tables_number   1
_chemical_formula_structural   Lu5Co3P12(Ru7Pt)2
_chemical_formula_sum   'Lu5 Co3 P12 Ru14 Pt2'
_cell_volume   522.17516281
_cell_formula_units_Z   1
loop_
 _symmetry_equiv_pos_site_id
 _symmetry_equiv_pos_as_xyz
  1  'x, y, z'
loop_
 _atom_site_type_symbol
 _atom_site_label
 _atom_site_symmetry_multiplicity
 _atom_site_fract_x
 _atom_site_fract_y
 _atom_site_fract_z
 _atom_site_occupancy
  Lu  Lu0  1  0.334330  0.671642  0.500000  1
  Lu  Lu1  1  0.665091  0.332090  0.500000  1
  Lu  Lu2  1  0.181026  0.000687  0.000000  1
  Lu  Lu3  1  0.998981  0.180417  0.000000  1
  Lu  Lu4  1  0.817946  0.817020  0.000000  1
  Co  Co5  1  0.999663  0.718987  0.000000  1
  Co  Co6  1  0.278892  0.279725  0.000000  1
  Co  Co7  1  0.003295  0.000385  0.500000  1
  P  P8  1  0.367661  0.002079  0.500000  1
  P  P9  1  0.990497  0.358408  0.500000  1
  P  P10  1  0.642893  0.631231  0.500000  1
  P  P11  1  0.308291  0.466318  0.000000  1
  P  P12  1  0.522915  0.840165  0.000000  1
  P  P13  1  0.166244  0.698742  0.000000  1
  P  P14  1  0.837120  0.524557  0.000000  1
  P  P15  1  0.689507  0.168415  0.000000  1
  P  P16  1  0.475579  0.311715  0.000000  1
  P  P17  1  0.826713  0.997554  0.500000  1
  P  P18  1  0.999116  0.824067  0.500000  1
  P  P19  1  0.175381  0.175361  0.500000  1
  Ru  Ru20  1  0.191198  0.372037  0.500000  1
  Ru  Ru21  1  0.624600  0.812122  0.500000  1
  Ru  Ru22  1  0.176472  0.807742  0.500000  1
  Ru  Ru23  1  0.826617  0.627424  0.500000  1
  Ru  Ru24  1  0.804873  0.178781  0.500000  1
  Ru  Ru25  1  0.370313  0.194689  0.500000  1
  Ru  Ru26  1  0.551738  0.996621  0.500000  1
  Ru  Ru27  1  0.004966  0.554041  0.500000  1
  Ru  Ru28  1  0.447638  0.448557  0.500000  1
  Ru  Ru29  1  0.359424  0.872973  0.000000  1
  Ru  Ru30  1  0.640835  0.511435  0.000000  1
  Ru  Ru31  1  0.873394  0.362502  0.000000  1
  Ru  Ru32  1  0.488996  0.129379  0.000000  1
  Ru  Ru33  1  0.721097  0.997407  0.000000  1
  Pt  Pt34  1  0.136153  0.499191  0.000000  1
  Pt  Pt35  1  0.500545  0.635536  0.000000  1
