# generated using pymatgen
data_InPPd4Pt
_symmetry_space_group_name_H-M   'P 1'
_cell_length_a   3.95604600
_cell_length_b   4.03258200
_cell_length_c   7.03605700
_cell_angle_alpha   90.00000000
_cell_angle_beta   90.00000000
_cell_angle_gamma   90.00000000
_symmetry_Int_Tables_number   1
_chemical_formula_structural   InPPd4Pt
_chemical_formula_sum   'In1 P1 Pd4 Pt1'
_cell_volume   112.24677944
_cell_formula_units_Z   1
loop_
 _symmetry_equiv_pos_site_id
 _symmetry_equiv_pos_as_xyz
  1  'x, y, z'
loop_
 _atom_site_type_symbol
 _atom_site_label
 _atom_site_symmetry_multiplicity
 _atom_site_fract_x
 _atom_site_fract_y
 _atom_site_fract_z
 _atom_site_occupancy
  In  In0  1  0.500000  0.500000  0.000527  1
  P  P1  1  0.000000  0.000000  0.502222  1
  Pd  Pd2  1  0.000000  0.000000  0.999729  1
  Pd  Pd3  1  0.000000  0.500000  0.701156  1
  Pd  Pd4  1  0.500000  0.000000  0.297035  1
  Pd  Pd5  1  0.000000  0.500000  0.299864  1
  Pt  Pt6  1  0.500000  0.000000  0.699468  1
