# generated using pymatgen
data_Pr3NdZn4(IrRh)2
_symmetry_space_group_name_H-M   'P 1'
_cell_length_a   4.06463900
_cell_length_b   7.34335729
_cell_length_c   16.65150462
_cell_angle_alpha   90.13829286
_cell_angle_beta   90.00000000
_cell_angle_gamma   90.00000000
_symmetry_Int_Tables_number   1
_chemical_formula_structural   Pr3NdZn4(IrRh)2
_chemical_formula_sum   'Pr6 Nd2 Zn8 Ir4 Rh4'
_cell_volume   497.01426783
_cell_formula_units_Z   2
loop_
 _symmetry_equiv_pos_site_id
 _symmetry_equiv_pos_as_xyz
  1  'x, y, z'
loop_
 _atom_site_type_symbol
 _atom_site_label
 _atom_site_symmetry_multiplicity
 _atom_site_fract_x
 _atom_site_fract_y
 _atom_site_fract_z
 _atom_site_occupancy
  Pr  Pr0  1  0.250000  0.167086  0.938887  1
  Pr  Pr1  1  0.250000  0.667407  0.561047  1
  Pr  Pr2  1  0.750000  0.333313  0.439977  1
  Pr  Pr3  1  0.750000  0.952840  0.283315  1
  Pr  Pr4  1  0.750000  0.832574  0.059650  1
  Pr  Pr5  1  0.750000  0.452673  0.217440  1
  Nd  Nd6  1  0.250000  0.046751  0.716951  1
  Nd  Nd7  1  0.250000  0.547271  0.782922  1
  Zn  Zn8  1  0.750000  0.000522  0.560822  1
  Zn  Zn9  1  0.250000  0.624104  0.350405  1
  Zn  Zn10  1  0.750000  0.374244  0.651759  1
  Zn  Zn11  1  0.250000  0.498112  0.060161  1
  Zn  Zn12  1  0.750000  0.501528  0.938440  1
  Zn  Zn13  1  0.250000  0.998189  0.439953  1
  Zn  Zn14  1  0.250000  0.126500  0.150642  1
  Zn  Zn15  1  0.750000  0.875201  0.848158  1
  Ir  Ir16  1  0.750000  0.757058  0.435026  1
  Ir  Ir17  1  0.250000  0.244628  0.312883  1
  Ir  Ir18  1  0.750000  0.255837  0.813036  1
  Ir  Ir19  1  0.750000  0.755438  0.688166  1
  Rh  Rh20  1  0.250000  0.241275  0.565442  1
  Rh  Rh21  1  0.250000  0.745916  0.184972  1
  Rh  Rh22  1  0.750000  0.257817  0.064651  1
  Rh  Rh23  1  0.250000  0.743712  0.935297  1
