# generated using pymatgen
data_CeEr7(AlRu)2
_symmetry_space_group_name_H-M   'P 1'
_cell_length_a   9.49931592
_cell_length_b   9.45510849
_cell_length_c   9.45511023
_cell_angle_alpha   59.84057205
_cell_angle_beta   59.84522721
_cell_angle_gamma   59.84522406
_symmetry_Int_Tables_number   1
_chemical_formula_structural   CeEr7(AlRu)2
_chemical_formula_sum   'Ce2 Er14 Al4 Ru4'
_cell_volume   598.36603142
_cell_formula_units_Z   2
loop_
 _symmetry_equiv_pos_site_id
 _symmetry_equiv_pos_as_xyz
  1  'x, y, z'
loop_
 _atom_site_type_symbol
 _atom_site_label
 _atom_site_symmetry_multiplicity
 _atom_site_fract_x
 _atom_site_fract_y
 _atom_site_fract_z
 _atom_site_occupancy
  Ce  Ce0  1  0.962318  0.344821  0.344821  1
  Ce  Ce1  1  0.348039  0.344821  0.344821  1
  Er  Er2  1  0.561132  0.562589  0.938669  1
  Er  Er3  1  0.937610  0.562589  0.938669  1
  Er  Er4  1  0.560926  0.939074  0.939074  1
  Er  Er5  1  0.937610  0.938669  0.562589  1
  Er  Er6  1  0.561132  0.938669  0.562589  1
  Er  Er7  1  0.937412  0.562588  0.562588  1
  Er  Er8  1  0.194557  0.193445  0.807207  1
  Er  Er9  1  0.804791  0.193445  0.807207  1
  Er  Er10  1  0.194279  0.805721  0.805720  1
  Er  Er11  1  0.804791  0.807208  0.193445  1
  Er  Er12  1  0.194556  0.807207  0.193444  1
  Er  Er13  1  0.806070  0.193930  0.193930  1
  Er  Er14  1  0.352717  0.353338  0.941229  1
  Er  Er15  1  0.352717  0.941229  0.353338  1
  Al  Al16  1  0.577866  0.576208  0.268059  1
  Al  Al17  1  0.577866  0.268059  0.576208  1
  Al  Al18  1  0.268173  0.576633  0.576633  1
  Al  Al19  1  0.578558  0.576633  0.576633  1
  Ru  Ru20  1  0.138614  0.149325  0.573445  1
  Ru  Ru21  1  0.138614  0.573445  0.149325  1
  Ru  Ru22  1  0.574296  0.145176  0.145176  1
  Ru  Ru23  1  0.135351  0.145176  0.145176  1
