# generated using pymatgen
data_Zr6Zn19Ir4Se
_symmetry_space_group_name_H-M   'P 1'
_cell_length_a   8.76750077
_cell_length_b   8.79894056
_cell_length_c   8.79894156
_cell_angle_alpha   59.98502043
_cell_angle_beta   59.75274104
_cell_angle_gamma   59.75273977
_symmetry_Int_Tables_number   1
_chemical_formula_structural   Zr6Zn19Ir4Se
_chemical_formula_sum   'Zr6 Zn19 Ir4 Se1'
_cell_volume   478.12291835
_cell_formula_units_Z   1
loop_
 _symmetry_equiv_pos_site_id
 _symmetry_equiv_pos_as_xyz
  1  'x, y, z'
loop_
 _atom_site_type_symbol
 _atom_site_label
 _atom_site_symmetry_multiplicity
 _atom_site_fract_x
 _atom_site_fract_y
 _atom_site_fract_z
 _atom_site_occupancy
  Zr  Zr0  1  0.714486  0.284406  0.284406  1
  Zr  Zr1  1  0.285514  0.715594  0.715594  1
  Zr  Zr2  1  0.285885  0.722845  0.279398  1
  Zr  Zr3  1  0.714115  0.277155  0.720602  1
  Zr  Zr4  1  0.285885  0.279398  0.722845  1
  Zr  Zr5  1  0.714115  0.720602  0.277155  1
  Zn  Zn6  1  0.123053  0.118763  0.633264  1
  Zn  Zn7  1  0.123053  0.633264  0.118763  1
  Zn  Zn8  1  0.876947  0.881237  0.366736  1
  Zn  Zn9  1  0.876947  0.366736  0.881237  1
  Zn  Zn10  1  0.627788  0.124152  0.124152  1
  Zn  Zn11  1  0.372212  0.875848  0.875848  1
  Zn  Zn12  1  0.500000  0.000000  0.000000  1
  Zn  Zn13  1  0.000000  0.500000  0.500000  1
  Zn  Zn14  1  0.000000  0.500000  0.000000  1
  Zn  Zn15  1  0.000000  0.000000  0.500000  1
  Zn  Zn16  1  0.332750  0.338850  0.338850  1
  Zn  Zn17  1  0.667250  0.661150  0.661150  1
  Zn  Zn18  1  0.329481  0.330825  0.001869  1
  Zn  Zn19  1  0.329481  0.001869  0.330825  1
  Zn  Zn20  1  0.670519  0.669175  0.998131  1
  Zn  Zn21  1  0.670519  0.998131  0.669175  1
  Zn  Zn22  1  0.996266  0.331164  0.331164  1
  Zn  Zn23  1  0.003734  0.668836  0.668836  1
  Zn  Zn24  1  0.000000  0.000000  0.000000  1
  Ir  Ir25  1  0.114886  0.118774  0.118774  1
  Ir  Ir26  1  0.885114  0.881226  0.881226  1
  Ir  Ir27  1  0.500000  0.000000  0.500000  1
  Ir  Ir28  1  0.500000  0.500000  0.000000  1
  Se  Se29  1  0.500000  0.500000  0.500000  1
