# generated using pymatgen
data_Nb6AlGa3(OsC)2
_symmetry_space_group_name_H-M   'P 1'
_cell_length_a   8.33933403
_cell_length_b   8.33914377
_cell_length_c   8.33927232
_cell_angle_alpha   60.00107975
_cell_angle_beta   60.00132544
_cell_angle_gamma   60.00889309
_symmetry_Int_Tables_number   1
_chemical_formula_structural   Nb6AlGa3(OsC)2
_chemical_formula_sum   'Nb12 Al2 Ga6 Os4 C4'
_cell_volume   410.11255483
_cell_formula_units_Z   2
loop_
 _symmetry_equiv_pos_site_id
 _symmetry_equiv_pos_as_xyz
  1  'x, y, z'
loop_
 _atom_site_type_symbol
 _atom_site_label
 _atom_site_symmetry_multiplicity
 _atom_site_fract_x
 _atom_site_fract_y
 _atom_site_fract_z
 _atom_site_occupancy
  Nb  Nb0  1  0.805623  0.805608  0.194504  1
  Nb  Nb1  1  0.195056  0.195064  0.804938  1
  Nb  Nb2  1  0.805543  0.194247  0.805349  1
  Nb  Nb3  1  0.194311  0.805524  0.194814  1
  Nb  Nb4  1  0.194220  0.805517  0.805348  1
  Nb  Nb5  1  0.805564  0.194245  0.194827  1
  Nb  Nb6  1  0.445211  0.445219  0.054877  1
  Nb  Nb7  1  0.056154  0.056155  0.443846  1
  Nb  Nb8  1  0.444698  0.054566  0.444330  1
  Nb  Nb9  1  0.054606  0.444714  0.056312  1
  Nb  Nb10  1  0.054526  0.444706  0.444348  1
  Nb  Nb11  1  0.444715  0.054570  0.056351  1
  Al  Al12  1  0.749730  0.416916  0.416550  1
  Al  Al13  1  0.416930  0.749710  0.416633  1
  Ga  Ga14  1  0.414177  0.414057  0.758907  1
  Ga  Ga15  1  0.413945  0.413941  0.413171  1
  Ga  Ga16  1  0.489166  0.837559  0.836513  1
  Ga  Ga17  1  0.837487  0.489168  0.836646  1
  Ga  Ga18  1  0.837296  0.837331  0.489481  1
  Ga  Ga19  1  0.837097  0.837247  0.836210  1
  Os  Os20  1  0.124966  0.626532  0.624434  1
  Os  Os21  1  0.626549  0.124970  0.624304  1
  Os  Os22  1  0.625839  0.625947  0.124737  1
  Os  Os23  1  0.626136  0.626044  0.623013  1
  C  C24  1  0.624771  0.125269  0.124993  1
  C  C25  1  0.125271  0.624762  0.124992  1
  C  C26  1  0.125186  0.125204  0.624812  1
  C  C27  1  0.125229  0.125214  0.124755  1
