# generated using pymatgen
data_YHoAl9RePd2
_symmetry_space_group_name_H-M   'P 1'
_cell_length_a   7.60773769
_cell_length_b   7.61019269
_cell_length_c   9.52297100
_cell_angle_alpha   90.00000000
_cell_angle_beta   90.00000000
_cell_angle_gamma   118.40543714
_symmetry_Int_Tables_number   1
_chemical_formula_structural   YHoAl9RePd2
_chemical_formula_sum   'Y2 Ho2 Al18 Re2 Pd4'
_cell_volume   484.96518335
_cell_formula_units_Z   2
loop_
 _symmetry_equiv_pos_site_id
 _symmetry_equiv_pos_as_xyz
  1  'x, y, z'
loop_
 _atom_site_type_symbol
 _atom_site_label
 _atom_site_symmetry_multiplicity
 _atom_site_fract_x
 _atom_site_fract_y
 _atom_site_fract_z
 _atom_site_occupancy
  Y  Y0  1  0.994294  0.683938  0.250000  1
  Y  Y1  1  0.005706  0.316062  0.750000  1
  Ho  Ho2  1  0.684199  0.994337  0.250000  1
  Ho  Ho3  1  0.315801  0.005663  0.750000  1
  Al  Al4  1  0.134257  0.134394  0.250000  1
  Al  Al5  1  0.865743  0.865606  0.750000  1
  Al  Al6  1  0.002450  0.336276  0.077197  1
  Al  Al7  1  0.997550  0.663724  0.922803  1
  Al  Al8  1  0.997550  0.663724  0.577197  1
  Al  Al9  1  0.336527  0.002569  0.422938  1
  Al  Al10  1  0.002450  0.336276  0.422803  1
  Al  Al11  1  0.663473  0.997431  0.577062  1
  Al  Al12  1  0.663473  0.997431  0.922938  1
  Al  Al13  1  0.336527  0.002569  0.077062  1
  Al  Al14  1  0.329591  0.329472  0.547964  1
  Al  Al15  1  0.670409  0.670529  0.452036  1
  Al  Al16  1  0.670409  0.670529  0.047964  1
  Al  Al17  1  0.329591  0.329472  0.952036  1
  Al  Al18  1  0.345293  0.554395  0.250000  1
  Al  Al19  1  0.654707  0.445605  0.750000  1
  Al  Al20  1  0.554293  0.345080  0.250000  1
  Al  Al21  1  0.445707  0.654920  0.750000  1
  Re  Re22  1  0.000000  0.000000  0.000000  1
  Re  Re23  1  0.000000  0.000000  0.500000  1
  Pd  Pd24  1  0.672126  0.327851  0.000017  1
  Pd  Pd25  1  0.327874  0.672149  0.999983  1
  Pd  Pd26  1  0.327874  0.672149  0.500017  1
  Pd  Pd27  1  0.672126  0.327851  0.499983  1
