# generated using pymatgen
data_Pr4AsBr6
_symmetry_space_group_name_H-M   'P 1'
_cell_length_a   4.28351800
_cell_length_b   13.70714900
_cell_length_c   14.61707000
_cell_angle_alpha   90.00000000
_cell_angle_beta   90.00000000
_cell_angle_gamma   90.00000000
_symmetry_Int_Tables_number   1
_chemical_formula_structural   Pr4AsBr6
_chemical_formula_sum   'Pr8 As2 Br12'
_cell_volume   858.23862623
_cell_formula_units_Z   2
loop_
 _symmetry_equiv_pos_site_id
 _symmetry_equiv_pos_as_xyz
  1  'x, y, z'
loop_
 _atom_site_type_symbol
 _atom_site_label
 _atom_site_symmetry_multiplicity
 _atom_site_fract_x
 _atom_site_fract_y
 _atom_site_fract_z
 _atom_site_occupancy
  Pr  Pr0  1  0.500000  0.119442  0.340048  1
  Pr  Pr1  1  0.500000  0.880558  0.659952  1
  Pr  Pr2  1  0.500000  0.619442  0.159952  1
  Pr  Pr3  1  0.500000  0.380558  0.840048  1
  Pr  Pr4  1  0.000000  0.118064  0.578354  1
  Pr  Pr5  1  0.000000  0.881936  0.421646  1
  Pr  Pr6  1  0.000000  0.618064  0.921646  1
  Pr  Pr7  1  0.000000  0.381936  0.078354  1
  As  As8  1  0.500000  0.000000  0.500000  1
  As  As9  1  0.500000  0.500000  0.000000  1
  Br  Br10  1  0.500000  0.243835  0.161843  1
  Br  Br11  1  0.500000  0.756165  0.838157  1
  Br  Br12  1  0.500000  0.743835  0.338157  1
  Br  Br13  1  0.500000  0.256165  0.661843  1
  Br  Br14  1  0.000000  0.254435  0.411062  1
  Br  Br15  1  0.000000  0.745565  0.588938  1
  Br  Br16  1  0.000000  0.754435  0.088938  1
  Br  Br17  1  0.000000  0.245565  0.911062  1
  Br  Br18  1  0.000000  0.002123  0.244299  1
  Br  Br19  1  0.000000  0.997877  0.755701  1
  Br  Br20  1  0.000000  0.502123  0.255701  1
  Br  Br21  1  0.000000  0.497877  0.744299  1
