# generated using pymatgen
data_Tb2Y3Ti3(Co4As3)4
_symmetry_space_group_name_H-M   'P 1'
_cell_length_a   12.59699500
_cell_length_b   12.59700632
_cell_length_c   3.81078100
_cell_angle_alpha   90.00000000
_cell_angle_beta   90.00000000
_cell_angle_gamma   120.00003625
_symmetry_Int_Tables_number   1
_chemical_formula_structural   Tb2Y3Ti3(Co4As3)4
_chemical_formula_sum   'Tb2 Y3 Ti3 Co16 As12'
_cell_volume   523.69541124
_cell_formula_units_Z   1
loop_
 _symmetry_equiv_pos_site_id
 _symmetry_equiv_pos_as_xyz
  1  'x, y, z'
loop_
 _atom_site_type_symbol
 _atom_site_label
 _atom_site_symmetry_multiplicity
 _atom_site_fract_x
 _atom_site_fract_y
 _atom_site_fract_z
 _atom_site_occupancy
  Tb  Tb0  1  0.186054  0.186052  0.500000  1
  Tb  Tb1  1  0.813946  0.999998  0.500000  1
  Y  Y2  1  0.000000  0.813938  0.500000  1
  Y  Y3  1  0.333338  0.666671  0.000000  1
  Y  Y4  1  0.666662  0.333332  0.000000  1
  Ti  Ti5  1  0.564201  0.564203  0.000000  1
  Ti  Ti6  1  0.435799  0.000002  0.000000  1
  Ti  Ti7  1  0.000000  0.435800  0.000000  1
  Co  Co8  1  0.716525  0.716521  0.500000  1
  Co  Co9  1  0.283475  0.999996  0.500000  1
  Co  Co10  1  0.000000  0.283481  0.500000  1
  Co  Co11  1  0.177132  0.376041  0.000000  1
  Co  Co12  1  0.623959  0.801089  0.000000  1
  Co  Co13  1  0.198903  0.822872  0.000000  1
  Co  Co14  1  0.801097  0.623969  0.000000  1
  Co  Co15  1  0.822868  0.198909  0.000000  1
  Co  Co16  1  0.376041  0.177129  0.000000  1
  Co  Co17  1  0.356380  0.479951  0.500000  1
  Co  Co18  1  0.520051  0.876425  0.500000  1
  Co  Co19  1  0.123574  0.643625  0.500000  1
  Co  Co20  1  0.876426  0.520051  0.500000  1
  Co  Co21  1  0.643620  0.123571  0.500000  1
  Co  Co22  1  0.479949  0.356374  0.500000  1
  Co  Co23  1  0.000000  0.999992  0.000000  1
  As  As24  1  0.821719  0.821705  0.000000  1
  As  As25  1  0.178281  0.999986  0.000000  1
  As  As26  1  0.000000  0.178302  0.000000  1
  As  As27  1  0.168793  0.482614  0.500000  1
  As  As28  1  0.517388  0.686181  0.500000  1
  As  As29  1  0.313823  0.831206  0.500000  1
  As  As30  1  0.686177  0.517382  0.500000  1
  As  As31  1  0.831207  0.313821  0.500000  1
  As  As32  1  0.482612  0.168792  0.500000  1
  As  As33  1  0.360031  0.360031  0.000000  1
  As  As34  1  0.639969  0.000000  0.000000  1
  As  As35  1  0.000000  0.639989  0.000000  1
