# generated using pymatgen
data_LaCeNd6(ZnRh)8
_symmetry_space_group_name_H-M   'P 1'
_cell_length_a   3.99280200
_cell_length_b   7.41702363
_cell_length_c   16.53262695
_cell_angle_alpha   90.14133810
_cell_angle_beta   90.00000000
_cell_angle_gamma   90.00000000
_symmetry_Int_Tables_number   1
_chemical_formula_structural   LaCeNd6(ZnRh)8
_chemical_formula_sum   'La1 Ce1 Nd6 Zn8 Rh8'
_cell_volume   489.60740984
_cell_formula_units_Z   1
loop_
 _symmetry_equiv_pos_site_id
 _symmetry_equiv_pos_as_xyz
  1  'x, y, z'
loop_
 _atom_site_type_symbol
 _atom_site_label
 _atom_site_symmetry_multiplicity
 _atom_site_fract_x
 _atom_site_fract_y
 _atom_site_fract_z
 _atom_site_occupancy
  La  La0  1  0.750000  0.948845  0.283632  1
  Ce  Ce1  1  0.750000  0.324578  0.441177  1
  Nd  Nd2  1  0.250000  0.050143  0.716041  1
  Nd  Nd3  1  0.250000  0.548970  0.782305  1
  Nd  Nd4  1  0.250000  0.669716  0.559919  1
  Nd  Nd5  1  0.750000  0.830416  0.059652  1
  Nd  Nd6  1  0.250000  0.170976  0.939584  1
  Nd  Nd7  1  0.750000  0.452192  0.217370  1
  Zn  Zn8  1  0.250000  0.123632  0.149434  1
  Zn  Zn9  1  0.250000  0.992756  0.440695  1
  Zn  Zn10  1  0.750000  0.875983  0.849182  1
  Zn  Zn11  1  0.750000  0.998960  0.559275  1
  Zn  Zn12  1  0.250000  0.499658  0.059850  1
  Zn  Zn13  1  0.750000  0.374654  0.648804  1
  Zn  Zn14  1  0.750000  0.501041  0.939912  1
  Zn  Zn15  1  0.250000  0.616316  0.350709  1
  Rh  Rh16  1  0.750000  0.257137  0.812463  1
  Rh  Rh17  1  0.250000  0.252281  0.325409  1
  Rh  Rh18  1  0.250000  0.743765  0.934530  1
  Rh  Rh19  1  0.250000  0.251493  0.557128  1
  Rh  Rh20  1  0.250000  0.746719  0.186959  1
  Rh  Rh21  1  0.750000  0.752238  0.433564  1
  Rh  Rh22  1  0.750000  0.258249  0.066786  1
  Rh  Rh23  1  0.750000  0.759280  0.685619  1
