# generated using pymatgen
data_LaYb9Si10O
_symmetry_space_group_name_H-M   'P 1'
_cell_length_a   10.72071361
_cell_length_b   10.72071437
_cell_length_c   10.72071300
_cell_angle_alpha   155.28423921
_cell_angle_beta   109.93319297
_cell_angle_gamma   75.56287696
_symmetry_Int_Tables_number   1
_chemical_formula_structural   LaYb9Si10O
_chemical_formula_sum   'La1 Yb9 Si10 O1'
_cell_volume   478.57941905
_cell_formula_units_Z   1
loop_
 _symmetry_equiv_pos_site_id
 _symmetry_equiv_pos_as_xyz
  1  'x, y, z'
loop_
 _atom_site_type_symbol
 _atom_site_label
 _atom_site_symmetry_multiplicity
 _atom_site_fract_x
 _atom_site_fract_y
 _atom_site_fract_z
 _atom_site_occupancy
  La  La0  1  0.500000  0.000000  0.500000  1
  Yb  Yb1  1  0.850894  0.850894  0.000000  1
  Yb  Yb2  1  0.192279  0.000006  0.192285  1
  Yb  Yb3  1  0.478045  0.810893  0.667097  1
  Yb  Yb4  1  0.856204  0.189052  0.667097  1
  Yb  Yb5  1  0.807721  0.999994  0.807715  1
  Yb  Yb6  1  0.000000  0.500000  0.500000  1
  Yb  Yb7  1  0.149106  0.149106  0.000000  1
  Yb  Yb8  1  0.521955  0.189107  0.332903  1
  Yb  Yb9  1  0.143796  0.810948  0.332903  1
  Si  Si10  1  0.413204  0.570528  0.842732  1
  Si  Si11  1  0.272204  0.429528  0.842732  1
  Si  Si12  1  0.586796  0.429472  0.157268  1
  Si  Si13  1  0.727796  0.570472  0.157268  1
  Si  Si14  1  0.693941  0.367126  0.326934  1
  Si  Si15  1  0.651805  0.651805  0.000000  1
  Si  Si16  1  0.306059  0.632874  0.673066  1
  Si  Si17  1  0.348195  0.348195  0.000000  1
  Si  Si18  1  0.040192  0.367006  0.673066  1
  Si  Si19  1  0.959808  0.632994  0.326934  1
  O  O20  1  0.000000  0.000000  0.000000  1
