# generated using pymatgen
data_Th2Mn2Co10P7
_symmetry_space_group_name_H-M   'P 1'
_cell_length_a   9.11072745
_cell_length_b   9.09800417
_cell_length_c   3.69954900
_cell_angle_alpha   90.00000000
_cell_angle_beta   90.00000000
_cell_angle_gamma   120.00995403
_symmetry_Int_Tables_number   1
_chemical_formula_structural   Th2Mn2Co10P7
_chemical_formula_sum   'Th2 Mn2 Co10 P7'
_cell_volume   265.54310686
_cell_formula_units_Z   1
loop_
 _symmetry_equiv_pos_site_id
 _symmetry_equiv_pos_as_xyz
  1  'x, y, z'
loop_
 _atom_site_type_symbol
 _atom_site_label
 _atom_site_symmetry_multiplicity
 _atom_site_fract_x
 _atom_site_fract_y
 _atom_site_fract_z
 _atom_site_occupancy
  Th  Th0  1  0.333663  0.666706  0.000000  1
  Th  Th1  1  0.999412  0.999538  0.500000  1
  Mn  Mn2  1  0.766272  0.548690  0.500000  1
  Mn  Mn3  1  0.448107  0.212920  0.500000  1
  Co  Co4  1  0.036785  0.272647  0.000000  1
  Co  Co5  1  0.729721  0.767006  0.000000  1
  Co  Co6  1  0.234694  0.963420  0.000000  1
  Co  Co7  1  0.547833  0.060938  0.000000  1
  Co  Co8  1  0.937029  0.483429  0.000000  1
  Co  Co9  1  0.511911  0.453645  0.000000  1
  Co  Co10  1  0.615708  0.900934  0.500000  1
  Co  Co11  1  0.100305  0.714783  0.500000  1
  Co  Co12  1  0.283319  0.384936  0.500000  1
  Co  Co13  1  0.790576  0.236290  0.500000  1
  P  P14  1  0.771231  0.035761  0.000000  1
  P  P15  1  0.965871  0.736464  0.000000  1
  P  P16  1  0.263540  0.228042  0.000000  1
  P  P17  1  0.375899  0.937834  0.500000  1
  P  P18  1  0.062345  0.439140  0.500000  1
  P  P19  1  0.562091  0.624664  0.500000  1
  P  P20  1  0.663687  0.332213  0.000000  1
