# generated using pymatgen
data_La6IrPd6Au
_symmetry_space_group_name_H-M   'P 1'
_cell_length_a   8.29862511
_cell_length_b   8.30925369
_cell_length_c   8.32548531
_cell_angle_alpha   114.71418539
_cell_angle_beta   114.53222538
_cell_angle_gamma   114.21153389
_symmetry_Int_Tables_number   1
_chemical_formula_structural   La6IrPd6Au
_chemical_formula_sum   'La6 Ir1 Pd6 Au1'
_cell_volume   335.84456352
_cell_formula_units_Z   1
loop_
 _symmetry_equiv_pos_site_id
 _symmetry_equiv_pos_as_xyz
  1  'x, y, z'
loop_
 _atom_site_type_symbol
 _atom_site_label
 _atom_site_symmetry_multiplicity
 _atom_site_fract_x
 _atom_site_fract_y
 _atom_site_fract_z
 _atom_site_occupancy
  La  La0  1  0.973634  0.601144  0.730020  1
  La  La1  1  0.723812  0.975930  0.606292  1
  La  La2  1  0.602403  0.724778  0.970479  1
  La  La3  1  0.028176  0.395527  0.273253  1
  La  La4  1  0.280346  0.032613  0.393612  1
  La  La5  1  0.388374  0.268016  0.024582  1
  Ir  Ir6  1  0.998012  0.998083  0.998189  1
  Pd  Pd7  1  0.500469  0.500881  0.500898  1
  Pd  Pd8  1  0.441057  0.942601  0.776538  1
  Pd  Pd9  1  0.773610  0.437107  0.938277  1
  Pd  Pd10  1  0.058871  0.225891  0.560535  1
  Pd  Pd11  1  0.561975  0.060648  0.225877  1
  Pd  Pd12  1  0.227332  0.561736  0.061027  1
  Au  Au13  1  0.941928  0.775044  0.440422  1
