# generated using pymatgen
data_Zr3Al3FeCuNi
_symmetry_space_group_name_H-M   'P 1'
_cell_length_a   7.02581900
_cell_length_b   7.02581811
_cell_length_c   3.41957900
_cell_angle_alpha   90.00000000
_cell_angle_beta   90.00000000
_cell_angle_gamma   119.99999947
_symmetry_Int_Tables_number   1
_chemical_formula_structural   Zr3Al3FeCuNi
_chemical_formula_sum   'Zr3 Al3 Fe1 Cu1 Ni1'
_cell_volume   146.18308909
_cell_formula_units_Z   1
loop_
 _symmetry_equiv_pos_site_id
 _symmetry_equiv_pos_as_xyz
  1  'x, y, z'
loop_
 _atom_site_type_symbol
 _atom_site_label
 _atom_site_symmetry_multiplicity
 _atom_site_fract_x
 _atom_site_fract_y
 _atom_site_fract_z
 _atom_site_occupancy
  Zr  Zr0  1  0.018476  0.416104  0.500000  1
  Zr  Zr1  1  0.583896  0.602372  0.500000  1
  Zr  Zr2  1  0.397628  0.981524  0.500000  1
  Al  Al3  1  0.996640  0.747733  0.000000  1
  Al  Al4  1  0.252267  0.248907  0.000000  1
  Al  Al5  1  0.751093  0.003360  0.000000  1
  Fe  Fe6  1  0.333333  0.666667  0.000000  1
  Cu  Cu7  1  0.666667  0.333333  0.000000  1
  Ni  Ni8  1  0.000000  0.000000  0.500000  1
