# generated using pymatgen
data_Tb7Dy2Sc(SiB4)4
_symmetry_space_group_name_H-M   'P 1'
_cell_length_a   7.21737701
_cell_length_b   7.21776501
_cell_length_c   8.05777100
_cell_angle_alpha   89.99844703
_cell_angle_beta   89.99837174
_cell_angle_gamma   90.00425496
_symmetry_Int_Tables_number   1
_chemical_formula_structural   Tb7Dy2Sc(SiB4)4
_chemical_formula_sum   'Tb7 Dy2 Sc1 Si4 B16'
_cell_volume   419.75613191
_cell_formula_units_Z   1
loop_
 _symmetry_equiv_pos_site_id
 _symmetry_equiv_pos_as_xyz
  1  'x, y, z'
loop_
 _atom_site_type_symbol
 _atom_site_label
 _atom_site_symmetry_multiplicity
 _atom_site_fract_x
 _atom_site_fract_y
 _atom_site_fract_z
 _atom_site_occupancy
  Tb  Tb0  1  0.680997  0.179576  0.226458  1
  Tb  Tb1  1  0.319007  0.820487  0.773532  1
  Tb  Tb2  1  0.318981  0.820440  0.226462  1
  Tb  Tb3  1  0.820411  0.681039  0.226414  1
  Tb  Tb4  1  0.820380  0.681058  0.773609  1
  Tb  Tb5  1  0.680971  0.179542  0.773542  1
  Tb  Tb6  1  0.179629  0.318931  0.773663  1
  Dy  Dy7  1  0.179591  0.318908  0.225730  1
  Dy  Dy8  1  0.499911  0.499951  0.499932  1
  Sc  Sc9  1  0.000056  0.000103  0.499924  1
  Si  Si10  1  0.110033  0.622013  0.499869  1
  Si  Si11  1  0.890241  0.377760  0.499806  1
  Si  Si12  1  0.377717  0.110069  0.499807  1
  Si  Si13  1  0.622082  0.890127  0.499961  1
  B  B14  1  0.172603  0.039128  0.000104  1
  B  B15  1  0.827482  0.961053  0.000037  1
  B  B16  1  0.961180  0.172649  0.000126  1
  B  B17  1  0.327661  0.539115  0.000125  1
  B  B18  1  0.038964  0.827460  0.000061  1
  B  B19  1  0.672223  0.460736  0.000059  1
  B  B20  1  0.539254  0.672217  0.000043  1
  B  B21  1  0.460571  0.327700  0.000091  1
  B  B22  1  0.089813  0.589515  0.000152  1
  B  B23  1  0.910353  0.410320  0.000157  1
  B  B24  1  0.410276  0.089881  0.000029  1
  B  B25  1  0.589692  0.910151  0.000018  1
  B  B26  1  0.000130  0.000206  0.163458  1
  B  B27  1  0.000026  0.000025  0.836687  1
  B  B28  1  0.499989  0.499968  0.837478  1
  B  B29  1  0.499774  0.499871  0.162666  1
