# generated using pymatgen
data_Pr10PdRu3
_symmetry_space_group_name_H-M   'P 1'
_cell_length_a   9.06601138
_cell_length_b   9.10810079
_cell_length_c   7.41337498
_cell_angle_alpha   83.59882610
_cell_angle_beta   83.54022039
_cell_angle_gamma   42.95065377
_symmetry_Int_Tables_number   1
_chemical_formula_structural   Pr10PdRu3
_chemical_formula_sum   'Pr10 Pd1 Ru3'
_cell_volume   414.06942475
_cell_formula_units_Z   1
loop_
 _symmetry_equiv_pos_site_id
 _symmetry_equiv_pos_as_xyz
  1  'x, y, z'
loop_
 _atom_site_type_symbol
 _atom_site_label
 _atom_site_symmetry_multiplicity
 _atom_site_fract_x
 _atom_site_fract_y
 _atom_site_fract_z
 _atom_site_occupancy
  Pr  Pr0  1  0.010740  0.804925  0.926121  1
  Pr  Pr1  1  0.200315  0.987823  0.585019  1
  Pr  Pr2  1  0.987657  0.197178  0.086651  1
  Pr  Pr3  1  0.787952  0.027114  0.411222  1
  Pr  Pr4  1  0.365185  0.198330  0.816850  1
  Pr  Pr5  1  0.784679  0.641060  0.686022  1
  Pr  Pr6  1  0.645708  0.787366  0.187911  1
  Pr  Pr7  1  0.209632  0.351358  0.309086  1
  Pr  Pr8  1  0.575547  0.425401  0.751673  1
  Pr  Pr9  1  0.428413  0.578238  0.242599  1
  Pd  Pd10  1  0.184994  0.595312  0.572195  1
  Ru  Ru11  1  0.403017  0.823178  0.922692  1
  Ru  Ru12  1  0.821702  0.400989  0.427530  1
  Ru  Ru13  1  0.594460  0.181726  0.074429  1
