# generated using pymatgen
data_U2Ga2Co12P5
_symmetry_space_group_name_H-M   'P 1'
_cell_length_a   9.07814800
_cell_length_b   9.03004174
_cell_length_c   3.60171100
_cell_angle_alpha   90.00200503
_cell_angle_beta   89.99847895
_cell_angle_gamma   120.20041034
_symmetry_Int_Tables_number   1
_chemical_formula_structural   U2Ga2Co12P5
_chemical_formula_sum   'U2 Ga2 Co12 P5'
_cell_volume   255.17958068
_cell_formula_units_Z   1
loop_
 _symmetry_equiv_pos_site_id
 _symmetry_equiv_pos_as_xyz
  1  'x, y, z'
loop_
 _atom_site_type_symbol
 _atom_site_label
 _atom_site_symmetry_multiplicity
 _atom_site_fract_x
 _atom_site_fract_y
 _atom_site_fract_z
 _atom_site_occupancy
  U  U0  1  0.001791  0.999293  0.999999  1
  U  U1  1  0.335523  0.667895  0.499998  1
  Ga  Ga2  1  0.667754  0.333355  0.000001  1
  Ga  Ga3  1  0.063028  0.619367  0.999998  1
  Co  Co4  1  0.106643  0.391433  0.000029  1
  Co  Co5  1  0.603088  0.710785  0.999982  1
  Co  Co6  1  0.294309  0.895295  0.999995  1
  Co  Co7  1  0.048207  0.774124  0.500012  1
  Co  Co8  1  0.229430  0.277403  0.500010  1
  Co  Co9  1  0.721728  0.951146  0.499989  1
  Co  Co10  1  0.816177  0.615153  0.999970  1
  Co  Co11  1  0.386455  0.209347  0.000004  1
  Co  Co12  1  0.792985  0.177228  0.000019  1
  Co  Co13  1  0.899359  0.436014  0.499997  1
  Co  Co14  1  0.559578  0.464805  0.499989  1
  Co  Co15  1  0.538119  0.098757  0.500004  1
  P  P16  1  0.774678  0.734741  0.499982  1
  P  P17  1  0.268736  0.041616  0.500003  1
  P  P18  1  0.959275  0.224686  0.500015  1
  P  P19  1  0.375888  0.445069  0.999998  1
  P  P20  1  0.557252  0.932484  0.000004  1
