# generated using pymatgen
data_ScNbFeB2Ru5
_symmetry_space_group_name_H-M   'P 1'
_cell_length_a   9.29299064
_cell_length_b   9.29299064
_cell_length_c   3.01959100
_cell_angle_alpha   90.00000000
_cell_angle_beta   90.00000000
_cell_angle_gamma   89.45102326
_symmetry_Int_Tables_number   1
_chemical_formula_structural   ScNbFeB2Ru5
_chemical_formula_sum   'Sc2 Nb2 Fe2 B4 Ru10'
_cell_volume   260.75892776
_cell_formula_units_Z   2
loop_
 _symmetry_equiv_pos_site_id
 _symmetry_equiv_pos_as_xyz
  1  'x, y, z'
loop_
 _atom_site_type_symbol
 _atom_site_label
 _atom_site_symmetry_multiplicity
 _atom_site_fract_x
 _atom_site_fract_y
 _atom_site_fract_z
 _atom_site_occupancy
  Sc  Sc0  1  0.825372  0.674628  0.000000  1
  Sc  Sc1  1  0.174628  0.325372  0.000000  1
  Nb  Nb2  1  0.322496  0.822496  0.000000  1
  Nb  Nb3  1  0.677504  0.177504  0.000000  1
  Fe  Fe4  1  0.500000  0.500000  0.000000  1
  Fe  Fe5  1  0.000000  0.000000  0.000000  1
  B  B6  1  0.626197  0.873803  0.000000  1
  B  B7  1  0.373803  0.126197  0.000000  1
  B  B8  1  0.122683  0.622683  0.000000  1
  B  B9  1  0.877317  0.377317  0.000000  1
  Ru  Ru10  1  0.566393  0.714490  0.500000  1
  Ru  Ru11  1  0.433607  0.285510  0.500000  1
  Ru  Ru12  1  0.075910  0.789282  0.500000  1
  Ru  Ru13  1  0.924090  0.210718  0.500000  1
  Ru  Ru14  1  0.289282  0.575910  0.500000  1
  Ru  Ru15  1  0.710718  0.424090  0.500000  1
  Ru  Ru16  1  0.214490  0.066393  0.500000  1
  Ru  Ru17  1  0.785510  0.933607  0.500000  1
  Ru  Ru18  1  0.500000  0.000000  0.500000  1
  Ru  Ru19  1  0.000000  0.500000  0.500000  1
