# generated using pymatgen
data_Pr16Er4Si15Hg
_symmetry_space_group_name_H-M   'P 1'
_cell_length_a   7.87159177
_cell_length_b   7.85280696
_cell_length_c   15.37043000
_cell_angle_alpha   89.99703044
_cell_angle_beta   89.60742187
_cell_angle_gamma   89.97175125
_symmetry_Int_Tables_number   1
_chemical_formula_structural   Pr16Er4Si15Hg
_chemical_formula_sum   'Pr16 Er4 Si15 Hg1'
_cell_volume   950.08673509
_cell_formula_units_Z   1
loop_
 _symmetry_equiv_pos_site_id
 _symmetry_equiv_pos_as_xyz
  1  'x, y, z'
loop_
 _atom_site_type_symbol
 _atom_site_label
 _atom_site_symmetry_multiplicity
 _atom_site_fract_x
 _atom_site_fract_y
 _atom_site_fract_z
 _atom_site_occupancy
  Pr  Pr0  1  0.375553  0.015230  0.446942  1
  Pr  Pr1  1  0.489631  0.873092  0.696542  1
  Pr  Pr2  1  0.513419  0.119934  0.195580  1
  Pr  Pr3  1  0.881473  0.487605  0.303462  1
  Pr  Pr4  1  0.115799  0.520414  0.806038  1
  Pr  Pr5  1  0.624009  0.984777  0.948356  1
  Pr  Pr6  1  0.005019  0.384653  0.549761  1
  Pr  Pr7  1  0.988650  0.622011  0.055964  1
  Pr  Pr8  1  0.126490  0.974769  0.881621  1
  Pr  Pr9  1  0.525729  0.626389  0.128950  1
  Pr  Pr10  1  0.479488  0.378772  0.627665  1
  Pr  Pr11  1  0.624841  0.525160  0.873523  1
  Pr  Pr12  1  0.376126  0.477641  0.369578  1
  Pr  Pr13  1  0.875030  0.024723  0.377905  1
  Pr  Pr14  1  0.977998  0.126728  0.121996  1
  Pr  Pr15  1  0.015345  0.864316  0.618586  1
  Er  Er16  1  0.310072  0.308504  0.999713  1
  Er  Er17  1  0.192305  0.810924  0.249768  1
  Er  Er18  1  0.799078  0.188609  0.752315  1
  Er  Er19  1  0.689601  0.689593  0.498444  1
  Si  Si20  1  0.327645  0.686555  0.959549  1
  Si  Si21  1  0.668033  0.311409  0.456818  1
  Si  Si22  1  0.689987  0.328653  0.042706  1
  Si  Si23  1  0.313452  0.673027  0.539758  1
  Si  Si24  1  0.815655  0.827576  0.209141  1
  Si  Si25  1  0.174531  0.187059  0.291930  1
  Si  Si26  1  0.828706  0.813689  0.792097  1
  Si  Si27  1  0.285559  0.920522  0.064752  1
  Si  Si28  1  0.582107  0.786147  0.314326  1
  Si  Si29  1  0.434141  0.210169  0.818578  1
  Si  Si30  1  0.782317  0.579699  0.687361  1
  Si  Si31  1  0.216558  0.420253  0.185847  1
  Si  Si32  1  0.712052  0.080278  0.563011  1
  Si  Si33  1  0.921417  0.286589  0.936641  1
  Si  Si34  1  0.081217  0.715646  0.434415  1
  Hg  Hg35  1  0.180967  0.168885  0.700359  1
