# generated using pymatgen
data_Lu3Mg2ZrIr3
_symmetry_space_group_name_H-M   'P 1'
_cell_length_a   7.12420700
_cell_length_b   7.23047837
_cell_length_c   4.15591300
_cell_angle_alpha   90.00000000
_cell_angle_beta   90.00000000
_cell_angle_gamma   119.51497900
_symmetry_Int_Tables_number   1
_chemical_formula_structural   Lu3Mg2ZrIr3
_chemical_formula_sum   'Lu3 Mg2 Zr1 Ir3'
_cell_volume   186.29556998
_cell_formula_units_Z   1
loop_
 _symmetry_equiv_pos_site_id
 _symmetry_equiv_pos_as_xyz
  1  'x, y, z'
loop_
 _atom_site_type_symbol
 _atom_site_label
 _atom_site_symmetry_multiplicity
 _atom_site_fract_x
 _atom_site_fract_y
 _atom_site_fract_z
 _atom_site_occupancy
  Lu  Lu0  1  0.398882  0.000000  0.500000  1
  Lu  Lu1  1  0.004681  0.419020  0.500000  1
  Lu  Lu2  1  0.585660  0.580980  0.500000  1
  Mg  Mg3  1  0.251327  0.249530  0.000000  1
  Mg  Mg4  1  0.001796  0.750470  0.000000  1
  Zr  Zr5  1  0.752453  0.000000  0.000000  1
  Ir  Ir6  1  0.672911  0.327282  0.000000  1
  Ir  Ir7  1  0.345629  0.672718  0.000000  1
  Ir  Ir8  1  0.986658  0.000000  0.500000  1
