# generated using pymatgen
data_Cs2Li2SnS4
_symmetry_space_group_name_H-M   'P 1'
_cell_length_a   9.76647624
_cell_length_b   9.76647658
_cell_length_c   9.76647613
_cell_angle_alpha   144.17034948
_cell_angle_beta   106.21985851
_cell_angle_gamma   84.83150802
_symmetry_Int_Tables_number   1
_chemical_formula_structural   Cs2Li2SnS4
_chemical_formula_sum   'Cs4 Li4 Sn2 S8'
_cell_volume   507.96553439
_cell_formula_units_Z   2
loop_
 _symmetry_equiv_pos_site_id
 _symmetry_equiv_pos_as_xyz
  1  'x, y, z'
loop_
 _atom_site_type_symbol
 _atom_site_label
 _atom_site_symmetry_multiplicity
 _atom_site_fract_x
 _atom_site_fract_y
 _atom_site_fract_z
 _atom_site_occupancy
  Cs  Cs0  1  0.622923  0.772557  0.395479  1
  Cs  Cs1  1  0.877077  0.272557  0.149634  1
  Cs  Cs2  1  0.122923  0.727443  0.850366  1
  Cs  Cs3  1  0.377077  0.227443  0.604521  1
  Li  Li4  1  0.023411  0.750000  0.273411  1
  Li  Li5  1  0.476589  0.750000  0.726589  1
  Li  Li6  1  0.976589  0.250000  0.726589  1
  Li  Li7  1  0.523411  0.250000  0.273411  1
  Sn  Sn8  1  0.750000  0.750000  0.000000  1
  Sn  Sn9  1  0.250000  0.250000  0.000000  1
  S  S10  1  0.717718  0.632013  0.656452  1
  S  S11  1  0.782282  0.438734  0.914295  1
  S  S12  1  0.524439  0.867987  0.085705  1
  S  S13  1  0.975561  0.061266  0.343548  1
  S  S14  1  0.282282  0.367987  0.343548  1
  S  S15  1  0.217718  0.561266  0.085705  1
  S  S16  1  0.024439  0.938734  0.656452  1
  S  S17  1  0.475561  0.132013  0.914295  1
