# generated using pymatgen
data_Lu8Hg3Ir
_symmetry_space_group_name_H-M   'P 1'
_cell_length_a   9.96649900
_cell_length_b   9.96649847
_cell_length_c   7.10472100
_cell_angle_alpha   90.00000000
_cell_angle_beta   90.00000000
_cell_angle_gamma   119.99999843
_symmetry_Int_Tables_number   1
_chemical_formula_structural   Lu8Hg3Ir
_chemical_formula_sum   'Lu16 Hg6 Ir2'
_cell_volume   611.17122483
_cell_formula_units_Z   2
loop_
 _symmetry_equiv_pos_site_id
 _symmetry_equiv_pos_as_xyz
  1  'x, y, z'
loop_
 _atom_site_type_symbol
 _atom_site_label
 _atom_site_symmetry_multiplicity
 _atom_site_fract_x
 _atom_site_fract_y
 _atom_site_fract_z
 _atom_site_occupancy
  Lu  Lu0  1  0.537984  0.075970  0.529042  1
  Lu  Lu1  1  0.924030  0.462016  0.529042  1
  Lu  Lu2  1  0.537984  0.462016  0.529042  1
  Lu  Lu3  1  0.462016  0.924030  0.029042  1
  Lu  Lu4  1  0.075970  0.537984  0.029042  1
  Lu  Lu5  1  0.462016  0.537984  0.029042  1
  Lu  Lu6  1  0.173358  0.346715  0.715717  1
  Lu  Lu7  1  0.653285  0.826642  0.715717  1
  Lu  Lu8  1  0.173358  0.826642  0.715717  1
  Lu  Lu9  1  0.826642  0.653285  0.215717  1
  Lu  Lu10  1  0.346715  0.173358  0.215717  1
  Lu  Lu11  1  0.826642  0.173358  0.215717  1
  Lu  Lu12  1  0.666667  0.333333  0.910730  1
  Lu  Lu13  1  0.333333  0.666667  0.410730  1
  Lu  Lu14  1  0.000000  0.000000  0.490419  1
  Lu  Lu15  1  0.000000  0.000000  0.990419  1
  Hg  Hg16  1  0.833507  0.667012  0.783379  1
  Hg  Hg17  1  0.332988  0.166493  0.783379  1
  Hg  Hg18  1  0.833507  0.166493  0.783379  1
  Hg  Hg19  1  0.166493  0.332988  0.283379  1
  Hg  Hg20  1  0.667012  0.833507  0.283379  1
  Hg  Hg21  1  0.166493  0.833507  0.283379  1
  Ir  Ir22  1  0.666667  0.333333  0.292279  1
  Ir  Ir23  1  0.333333  0.666667  0.792279  1
