# generated using pymatgen
data_Tm6Lu2Tc3B24Os
_symmetry_space_group_name_H-M   'P 1'
_cell_length_a   3.62836300
_cell_length_b   9.07725980
_cell_length_c   11.44589700
_cell_angle_alpha   89.94794045
_cell_angle_beta   90.00000000
_cell_angle_gamma   90.00000000
_symmetry_Int_Tables_number   1
_chemical_formula_structural   Tm6Lu2Tc3B24Os
_chemical_formula_sum   'Tm6 Lu2 Tc3 B24 Os1'
_cell_volume   376.97725630
_cell_formula_units_Z   1
loop_
 _symmetry_equiv_pos_site_id
 _symmetry_equiv_pos_as_xyz
  1  'x, y, z'
loop_
 _atom_site_type_symbol
 _atom_site_label
 _atom_site_symmetry_multiplicity
 _atom_site_fract_x
 _atom_site_fract_y
 _atom_site_fract_z
 _atom_site_occupancy
  Tm  Tm0  1  0.000000  0.323289  0.413745  1
  Tm  Tm1  1  0.000000  0.675850  0.584352  1
  Tm  Tm2  1  0.000000  0.822295  0.087113  1
  Tm  Tm3  1  0.000000  0.178982  0.914536  1
  Tm  Tm4  1  0.000000  0.942617  0.370162  1
  Tm  Tm5  1  0.000000  0.058192  0.629889  1
  Lu  Lu6  1  0.000000  0.443039  0.129703  1
  Lu  Lu7  1  0.000000  0.556871  0.869961  1
  Tc  Tc8  1  0.000000  0.637929  0.319758  1
  Tc  Tc9  1  0.000000  0.362026  0.680715  1
  Tc  Tc10  1  0.000000  0.138513  0.178170  1
  B  B11  1  0.500000  0.552631  0.433163  1
  B  B12  1  0.500000  0.447248  0.566693  1
  B  B13  1  0.500000  0.053096  0.066274  1
  B  B14  1  0.500000  0.946207  0.933465  1
  B  B15  1  0.500000  0.748949  0.419056  1
  B  B16  1  0.500000  0.250724  0.581032  1
  B  B17  1  0.500000  0.250728  0.080630  1
  B  B18  1  0.500000  0.749790  0.919112  1
  B  B19  1  0.500000  0.791986  0.264779  1
  B  B20  1  0.500000  0.208138  0.735812  1
  B  B21  1  0.500000  0.292744  0.234881  1
  B  B22  1  0.500000  0.707912  0.765101  1
  B  B23  1  0.500000  0.629958  0.184376  1
  B  B24  1  0.500000  0.369956  0.816186  1
  B  B25  1  0.500000  0.130441  0.314641  1
  B  B26  1  0.500000  0.869075  0.685157  1
  B  B27  1  0.500000  0.981032  0.211645  1
  B  B28  1  0.500000  0.017738  0.788356  1
  B  B29  1  0.500000  0.480643  0.287586  1
  B  B30  1  0.500000  0.519169  0.712323  1
  B  B31  1  0.500000  0.600220  0.027603  1
  B  B32  1  0.500000  0.400979  0.972276  1
  B  B33  1  0.500000  0.101397  0.471990  1
  B  B34  1  0.500000  0.898637  0.528479  1
  Os  Os35  1  0.000000  0.861000  0.821279  1
