# generated using pymatgen
data_Ho7UGaPd24
_symmetry_space_group_name_H-M   'P 1'
_cell_length_a   8.32954101
_cell_length_b   8.32954101
_cell_length_c   8.32954100
_cell_angle_alpha   89.99781260
_cell_angle_beta   89.99781260
_cell_angle_gamma   89.99781251
_symmetry_Int_Tables_number   1
_chemical_formula_structural   Ho7UGaPd24
_chemical_formula_sum   'Ho7 U1 Ga1 Pd24'
_cell_volume   577.91399375
_cell_formula_units_Z   1
loop_
 _symmetry_equiv_pos_site_id
 _symmetry_equiv_pos_as_xyz
  1  'x, y, z'
loop_
 _atom_site_type_symbol
 _atom_site_label
 _atom_site_symmetry_multiplicity
 _atom_site_fract_x
 _atom_site_fract_y
 _atom_site_fract_z
 _atom_site_occupancy
  Ho  Ho0  1  0.252475  0.252475  0.748726  1
  Ho  Ho1  1  0.252475  0.748726  0.252475  1
  Ho  Ho2  1  0.748726  0.252475  0.252475  1
  Ho  Ho3  1  0.747364  0.747364  0.747364  1
  Ho  Ho4  1  0.747295  0.747295  0.252398  1
  Ho  Ho5  1  0.747295  0.252398  0.747295  1
  Ho  Ho6  1  0.252398  0.747295  0.747295  1
  U  U7  1  0.253995  0.253995  0.253995  1
  Ga  Ga8  1  0.998497  0.998497  0.998497  1
  Pd  Pd9  1  0.499626  0.499626  0.747348  1
  Pd  Pd10  1  0.496998  0.253385  0.496998  1
  Pd  Pd11  1  0.253385  0.496998  0.496998  1
  Pd  Pd12  1  0.496998  0.496998  0.253385  1
  Pd  Pd13  1  0.499626  0.747348  0.499626  1
  Pd  Pd14  1  0.747348  0.499626  0.499626  1
  Pd  Pd15  1  0.000213  0.000213  0.708931  1
  Pd  Pd16  1  0.001955  0.289664  0.001955  1
  Pd  Pd17  1  0.289664  0.001955  0.001955  1
  Pd  Pd18  1  0.001955  0.001955  0.289664  1
  Pd  Pd19  1  0.000213  0.708931  0.000213  1
  Pd  Pd20  1  0.708931  0.000213  0.000213  1
  Pd  Pd21  1  0.000096  0.499391  0.740417  1
  Pd  Pd22  1  0.497085  0.259788  0.004506  1
  Pd  Pd23  1  0.259788  0.004506  0.497085  1
  Pd  Pd24  1  0.004506  0.259788  0.497085  1
  Pd  Pd25  1  0.499391  0.000096  0.740417  1
  Pd  Pd26  1  0.259788  0.497085  0.004506  1
  Pd  Pd27  1  0.004506  0.497085  0.259788  1
  Pd  Pd28  1  0.499391  0.740417  0.000096  1
  Pd  Pd29  1  0.000096  0.740417  0.499391  1
  Pd  Pd30  1  0.497085  0.004506  0.259788  1
  Pd  Pd31  1  0.740417  0.000096  0.499391  1
  Pd  Pd32  1  0.740417  0.499391  0.000096  1
