# generated using pymatgen
data_Ti7Ru2Pt19
_symmetry_space_group_name_H-M   'P 1'
_cell_length_a   5.56375521
_cell_length_b   5.56104216
_cell_length_c   15.92064350
_cell_angle_alpha   90.31647737
_cell_angle_beta   90.11107095
_cell_angle_gamma   119.74485061
_symmetry_Int_Tables_number   1
_chemical_formula_structural   Ti7Ru2Pt19
_chemical_formula_sum   'Ti7 Ru2 Pt19'
_cell_volume   427.67452534
_cell_formula_units_Z   1
loop_
 _symmetry_equiv_pos_site_id
 _symmetry_equiv_pos_as_xyz
  1  'x, y, z'
loop_
 _atom_site_type_symbol
 _atom_site_label
 _atom_site_symmetry_multiplicity
 _atom_site_fract_x
 _atom_site_fract_y
 _atom_site_fract_z
 _atom_site_occupancy
  Ti  Ti0  1  0.993175  0.990752  0.716052  1
  Ti  Ti1  1  0.677240  0.337664  0.861000  1
  Ti  Ti2  1  0.322749  0.663005  0.139369  1
  Ti  Ti3  1  0.002743  0.001683  0.280742  1
  Ti  Ti4  1  0.671729  0.345619  0.434439  1
  Ti  Ti5  1  0.000227  0.001007  0.999438  1
  Ti  Ti6  1  0.335671  0.666445  0.571224  1
  Ru  Ru7  1  0.831032  0.663053  0.570653  1
  Ru  Ru8  1  0.001022  0.499785  0.000165  1
  Pt  Pt9  1  0.332431  0.164800  0.570880  1
  Pt  Pt10  1  0.169386  0.334465  0.857621  1
  Pt  Pt11  1  0.167609  0.333268  0.428382  1
  Pt  Pt12  1  0.165889  0.833226  0.429001  1
  Pt  Pt13  1  0.497443  0.001064  0.713853  1
  Pt  Pt14  1  0.666511  0.833683  0.429834  1
  Pt  Pt15  1  0.169075  0.829006  0.857326  1
  Pt  Pt16  1  0.669500  0.833624  0.856159  1
  Pt  Pt17  1  0.829250  0.168369  0.142025  1
  Pt  Pt18  1  0.832291  0.164216  0.571679  1
  Pt  Pt19  1  0.500584  0.498707  0.712935  1
  Pt  Pt20  1  0.328717  0.166192  0.143380  1
  Pt  Pt21  1  0.829196  0.663405  0.142718  1
  Pt  Pt22  1  0.502573  0.504787  0.286689  1
  Pt  Pt23  1  0.502327  0.000569  0.285712  1
  Pt  Pt24  1  0.499635  0.000294  0.999633  1
  Pt  Pt25  1  0.000756  0.500312  0.286711  1
  Pt  Pt26  1  0.000062  0.500072  0.712505  1
  Pt  Pt27  1  0.501179  0.500928  0.999876  1
