# generated using pymatgen
data_Th3Ga3IrPt2
_symmetry_space_group_name_H-M   'P 1'
_cell_length_a   7.35386800
_cell_length_b   7.35386670
_cell_length_c   4.09122300
_cell_angle_alpha   90.00000000
_cell_angle_beta   90.00000000
_cell_angle_gamma   120.00000586
_symmetry_Int_Tables_number   1
_chemical_formula_structural   Th3Ga3IrPt2
_chemical_formula_sum   'Th3 Ga3 Ir1 Pt2'
_cell_volume   191.60875173
_cell_formula_units_Z   1
loop_
 _symmetry_equiv_pos_site_id
 _symmetry_equiv_pos_as_xyz
  1  'x, y, z'
loop_
 _atom_site_type_symbol
 _atom_site_label
 _atom_site_symmetry_multiplicity
 _atom_site_fract_x
 _atom_site_fract_y
 _atom_site_fract_z
 _atom_site_occupancy
  Th  Th0  1  0.414586  0.419433  0.500000  1
  Th  Th1  1  0.580567  0.995153  0.500000  1
  Th  Th2  1  0.004847  0.585414  0.500000  1
  Ga  Ga3  1  0.757606  0.760247  0.000000  1
  Ga  Ga4  1  0.239753  0.997359  0.000000  1
  Ga  Ga5  1  0.002641  0.242394  0.000000  1
  Ir  Ir6  1  0.333333  0.666667  0.000000  1
  Pt  Pt7  1  0.666667  0.333333  0.000000  1
  Pt  Pt8  1  0.000000  0.000000  0.500000  1
