# generated using pymatgen
data_EuTm(CuSb2)2
_symmetry_space_group_name_H-M   'P 1'
_cell_length_a   4.38763700
_cell_length_b   4.38763700
_cell_length_c   9.91607800
_cell_angle_alpha   90.00000000
_cell_angle_beta   90.00000000
_cell_angle_gamma   90.00000000
_symmetry_Int_Tables_number   1
_chemical_formula_structural   EuTm(CuSb2)2
_chemical_formula_sum   'Eu1 Tm1 Cu2 Sb4'
_cell_volume   190.89797193
_cell_formula_units_Z   1
loop_
 _symmetry_equiv_pos_site_id
 _symmetry_equiv_pos_as_xyz
  1  'x, y, z'
loop_
 _atom_site_type_symbol
 _atom_site_label
 _atom_site_symmetry_multiplicity
 _atom_site_fract_x
 _atom_site_fract_y
 _atom_site_fract_z
 _atom_site_occupancy
  Eu  Eu0  1  0.000000  0.500000  0.750209  1
  Tm  Tm1  1  0.500000  0.000000  0.255983  1
  Cu  Cu2  1  0.500000  0.500000  0.492520  1
  Cu  Cu3  1  0.000000  0.000000  0.492520  1
  Sb  Sb4  1  0.500000  0.500000  0.012598  1
  Sb  Sb5  1  0.000000  0.000000  0.012598  1
  Sb  Sb6  1  0.000000  0.500000  0.338105  1
  Sb  Sb7  1  0.500000  0.000000  0.645468  1
