# generated using pymatgen
data_BaTaSbF12
_symmetry_space_group_name_H-M   'P 1'
_cell_length_a   5.54763396
_cell_length_b   5.81443741
_cell_length_c   9.86366800
_cell_angle_alpha   90.86781073
_cell_angle_beta   106.38557352
_cell_angle_gamma   117.73374227
_symmetry_Int_Tables_number   1
_chemical_formula_structural   BaTaSbF12
_chemical_formula_sum   'Ba1 Ta1 Sb1 F12'
_cell_volume   266.13043564
_cell_formula_units_Z   1
loop_
 _symmetry_equiv_pos_site_id
 _symmetry_equiv_pos_as_xyz
  1  'x, y, z'
loop_
 _atom_site_type_symbol
 _atom_site_label
 _atom_site_symmetry_multiplicity
 _atom_site_fract_x
 _atom_site_fract_y
 _atom_site_fract_z
 _atom_site_occupancy
  Ba  Ba0  1  0.030143  0.979790  0.900645  1
  Ta  Ta1  1  0.145249  0.506663  0.580393  1
  Sb  Sb2  1  0.444585  0.682186  0.144497  1
  F  F3  1  0.108014  0.531668  0.968271  1
  F  F4  1  0.493826  0.653489  0.757576  1
  F  F5  1  0.961387  0.243564  0.695784  1
  F  F6  1  0.047216  0.735416  0.678089  1
  F  F7  1  0.279340  0.288460  0.526458  1
  F  F8  1  0.355123  0.785793  0.495067  1
  F  F9  1  0.800367  0.364015  0.426560  1
  F  F10  1  0.779398  0.836614  0.306016  1
  F  F11  1  0.223111  0.397212  0.225160  1
  F  F12  1  0.290302  0.902475  0.181015  1
  F  F13  1  0.635404  0.944456  0.033804  1
  F  F14  1  0.554527  0.458193  0.058662  1
