# generated using pymatgen
data_GaICl6
_symmetry_space_group_name_H-M   'P 1'
_cell_length_a   11.82580100
_cell_length_b   6.34937058
_cell_length_c   7.42199986
_cell_angle_alpha   81.64423907
_cell_angle_beta   90.00000000
_cell_angle_gamma   90.00000000
_symmetry_Int_Tables_number   1
_chemical_formula_structural   GaICl6
_chemical_formula_sum   'Ga2 I2 Cl12'
_cell_volume   551.37545804
_cell_formula_units_Z   2
loop_
 _symmetry_equiv_pos_site_id
 _symmetry_equiv_pos_as_xyz
  1  'x, y, z'
loop_
 _atom_site_type_symbol
 _atom_site_label
 _atom_site_symmetry_multiplicity
 _atom_site_fract_x
 _atom_site_fract_y
 _atom_site_fract_z
 _atom_site_occupancy
  Ga  Ga0  1  0.090657  0.410303  0.511563  1
  Ga  Ga1  1  0.590657  0.589697  0.488437  1
  I  I2  1  0.743239  0.006235  0.799237  1
  I  I3  1  0.243239  0.993765  0.200763  1
  Cl  Cl4  1  0.765763  0.710599  0.548571  1
  Cl  Cl5  1  0.265763  0.289401  0.451429  1
  Cl  Cl6  1  0.210550  0.733431  0.009082  1
  Cl  Cl7  1  0.710550  0.266569  0.990918  1
  Cl  Cl8  1  0.364016  0.209104  0.997547  1
  Cl  Cl9  1  0.864016  0.790896  0.002453  1
  Cl  Cl10  1  0.052450  0.315299  0.796373  1
  Cl  Cl11  1  0.552450  0.684701  0.203627  1
  Cl  Cl12  1  0.103474  0.771065  0.476598  1
  Cl  Cl13  1  0.603474  0.228935  0.523402  1
  Cl  Cl14  1  0.470854  0.682403  0.681677  1
  Cl  Cl15  1  0.970854  0.317597  0.318323  1
