# generated using pymatgen
data_Eu2Cd3InPd2
_symmetry_space_group_name_H-M   'P 1'
_cell_length_a   5.69356337
_cell_length_b   5.69356325
_cell_length_c   8.21649355
_cell_angle_alpha   90.05684872
_cell_angle_beta   89.94315142
_cell_angle_gamma   134.05139454
_symmetry_Int_Tables_number   1
_chemical_formula_structural   Eu2Cd3InPd2
_chemical_formula_sum   'Eu2 Cd3 In1 Pd2'
_cell_volume   191.43093901
_cell_formula_units_Z   1
loop_
 _symmetry_equiv_pos_site_id
 _symmetry_equiv_pos_as_xyz
  1  'x, y, z'
loop_
 _atom_site_type_symbol
 _atom_site_label
 _atom_site_symmetry_multiplicity
 _atom_site_fract_x
 _atom_site_fract_y
 _atom_site_fract_z
 _atom_site_occupancy
  Eu  Eu0  1  0.066186  0.933814  0.252481  1
  Eu  Eu1  1  0.934320  0.065680  0.749558  1
  Cd  Cd2  1  0.644921  0.355079  0.552363  1
  Cd  Cd3  1  0.354856  0.645144  0.449701  1
  Cd  Cd4  1  0.642226  0.357774  0.944214  1
  In  In5  1  0.353592  0.646408  0.053567  1
  Pd  Pd6  1  0.222377  0.777623  0.752179  1
  Pd  Pd7  1  0.781522  0.218478  0.245936  1
