# generated using pymatgen
data_La4Ga8Ge2PtRh5
_symmetry_space_group_name_H-M   'P 1'
_cell_length_a   8.73036234
_cell_length_b   8.74313590
_cell_length_c   8.74313475
_cell_angle_alpha   140.80456799
_cell_angle_beta   107.76908263
_cell_angle_gamma   85.42021523
_symmetry_Int_Tables_number   1
_chemical_formula_structural   La4Ga8Ge2PtRh5
_chemical_formula_sum   'La4 Ga8 Ge2 Pt1 Rh5'
_cell_volume   387.78825779
_cell_formula_units_Z   1
loop_
 _symmetry_equiv_pos_site_id
 _symmetry_equiv_pos_as_xyz
  1  'x, y, z'
loop_
 _atom_site_type_symbol
 _atom_site_label
 _atom_site_symmetry_multiplicity
 _atom_site_fract_x
 _atom_site_fract_y
 _atom_site_fract_z
 _atom_site_occupancy
  La  La0  1  0.362627  0.134244  0.228383  1
  La  La1  1  0.639086  0.865134  0.773953  1
  La  La2  1  0.092383  0.365396  0.726987  1
  La  La3  1  0.903935  0.633225  0.270711  1
  Ga  Ga4  1  0.000053  0.254256  0.250328  1
  Ga  Ga5  1  0.000053  0.749725  0.745797  1
  Ga  Ga6  1  0.711767  0.967296  0.252044  1
  Ga  Ga7  1  0.285961  0.535441  0.250235  1
  Ga  Ga8  1  0.285961  0.035726  0.750520  1
  Ga  Ga9  1  0.711767  0.459723  0.744471  1
  Ga  Ga10  1  0.566352  0.403851  0.162501  1
  Ga  Ga11  1  0.245947  0.904108  0.341840  1
  Ge  Ge12  1  0.755794  0.093882  0.661913  1
  Ge  Ge13  1  0.432604  0.594305  0.838299  1
  Pt  Pt14  1  0.957815  0.856338  0.101477  1
  Rh  Rh15  1  0.501866  0.751241  0.249695  1
  Rh  Rh16  1  0.757139  0.356973  0.400166  1
  Rh  Rh17  1  0.246591  0.643275  0.603315  1
  Rh  Rh18  1  0.040431  0.143691  0.896740  1
  Rh  Rh19  1  0.501866  0.252172  0.750626  1
