# generated using pymatgen
data_Sm6HoCoBr12
_symmetry_space_group_name_H-M   'P 1'
_cell_length_a   9.35612720
_cell_length_b   9.35612789
_cell_length_c   9.35612745
_cell_angle_alpha   106.93875785
_cell_angle_beta   106.93875647
_cell_angle_gamma   106.93875473
_symmetry_Int_Tables_number   1
_chemical_formula_structural   Sm6HoCoBr12
_chemical_formula_sum   'Sm6 Ho1 Co1 Br12'
_cell_volume   683.21441409
_cell_formula_units_Z   1
loop_
 _symmetry_equiv_pos_site_id
 _symmetry_equiv_pos_as_xyz
  1  'x, y, z'
loop_
 _atom_site_type_symbol
 _atom_site_label
 _atom_site_symmetry_multiplicity
 _atom_site_fract_x
 _atom_site_fract_y
 _atom_site_fract_z
 _atom_site_occupancy
  Sm  Sm0  1  0.976722  0.900533  0.693575  1
  Sm  Sm1  1  0.023278  0.099467  0.306425  1
  Sm  Sm2  1  0.099467  0.306425  0.023278  1
  Sm  Sm3  1  0.306425  0.023278  0.099467  1
  Sm  Sm4  1  0.900533  0.693575  0.976722  1
  Sm  Sm5  1  0.693575  0.976722  0.900533  1
  Ho  Ho6  1  0.500000  0.500000  0.500000  1
  Co  Co7  1  0.000000  0.000000  0.000000  1
  Br  Br8  1  0.534473  0.610531  0.826165  1
  Br  Br9  1  0.465527  0.389469  0.173835  1
  Br  Br10  1  0.318564  0.928244  0.776056  1
  Br  Br11  1  0.389469  0.173835  0.465527  1
  Br  Br12  1  0.928244  0.776056  0.318564  1
  Br  Br13  1  0.681436  0.071756  0.223944  1
  Br  Br14  1  0.071756  0.223944  0.681436  1
  Br  Br15  1  0.776056  0.318564  0.928244  1
  Br  Br16  1  0.223944  0.681436  0.071756  1
  Br  Br17  1  0.826165  0.534473  0.610531  1
  Br  Br18  1  0.173835  0.465527  0.389469  1
  Br  Br19  1  0.610531  0.826165  0.534473  1
