# generated using pymatgen
data_Y4InRu
_symmetry_space_group_name_H-M   'P 1'
_cell_length_a   9.68761020
_cell_length_b   9.68760944
_cell_length_c   9.71012300
_cell_angle_alpha   59.92309782
_cell_angle_beta   59.92310041
_cell_angle_gamma   59.85424338
_symmetry_Int_Tables_number   1
_chemical_formula_structural   Y4InRu
_chemical_formula_sum   'Y16 In4 Ru4'
_cell_volume   642.92106473
_cell_formula_units_Z   4
loop_
 _symmetry_equiv_pos_site_id
 _symmetry_equiv_pos_as_xyz
  1  'x, y, z'
loop_
 _atom_site_type_symbol
 _atom_site_label
 _atom_site_symmetry_multiplicity
 _atom_site_fract_x
 _atom_site_fract_y
 _atom_site_fract_z
 _atom_site_occupancy
  Y  Y0  1  0.441449  0.441449  0.058551  1
  Y  Y1  1  0.651280  0.651280  0.045510  1
  Y  Y2  1  0.192057  0.809450  0.191689  1
  Y  Y3  1  0.059047  0.441735  0.057623  1
  Y  Y4  1  0.192057  0.809450  0.806804  1
  Y  Y5  1  0.059047  0.441735  0.441595  1
  Y  Y6  1  0.809450  0.192057  0.191689  1
  Y  Y7  1  0.651280  0.651280  0.651931  1
  Y  Y8  1  0.809450  0.192057  0.806804  1
  Y  Y9  1  0.192149  0.192149  0.807851  1
  Y  Y10  1  0.044164  0.651396  0.652220  1
  Y  Y11  1  0.441735  0.059047  0.057623  1
  Y  Y12  1  0.058135  0.058135  0.441865  1
  Y  Y13  1  0.651396  0.044164  0.652220  1
  Y  Y14  1  0.808398  0.808398  0.191602  1
  Y  Y15  1  0.441735  0.059047  0.441595  1
  In  In16  1  0.417410  0.417410  0.416910  1
  In  In17  1  0.417410  0.417410  0.748271  1
  In  In18  1  0.417637  0.747940  0.417212  1
  In  In19  1  0.747940  0.417637  0.417212  1
  Ru  Ru20  1  0.418729  0.858404  0.861433  1
  Ru  Ru21  1  0.859821  0.859821  0.862678  1
  Ru  Ru22  1  0.858404  0.418729  0.861433  1
  Ru  Ru23  1  0.859821  0.859821  0.417679  1
