# generated using pymatgen
data_HfSc7Fe5Si16Ru7
_symmetry_space_group_name_H-M   'P 1'
_cell_length_a   9.83647857
_cell_length_b   9.83732686
_cell_length_c   13.19256698
_cell_angle_alpha   53.53922597
_cell_angle_beta   53.54470524
_cell_angle_gamma   30.75152661
_symmetry_Int_Tables_number   1
_chemical_formula_structural   HfSc7Fe5Si16Ru7
_chemical_formula_sum   'Hf1 Sc7 Fe5 Si16 Ru7'
_cell_volume   514.03842725
_cell_formula_units_Z   1
loop_
 _symmetry_equiv_pos_site_id
 _symmetry_equiv_pos_as_xyz
  1  'x, y, z'
loop_
 _atom_site_type_symbol
 _atom_site_label
 _atom_site_symmetry_multiplicity
 _atom_site_fract_x
 _atom_site_fract_y
 _atom_site_fract_z
 _atom_site_occupancy
  Hf  Hf0  1  0.292507  0.040633  0.138249  1
  Sc  Sc1  1  0.294818  0.561498  0.643979  1
  Sc  Sc2  1  0.438394  0.706288  0.854334  1
  Sc  Sc3  1  0.704604  0.441202  0.356813  1
  Sc  Sc4  1  0.559047  0.294387  0.145622  1
  Sc  Sc5  1  0.036607  0.293510  0.638026  1
  Sc  Sc6  1  0.707940  0.962016  0.861392  1
  Sc  Sc7  1  0.962529  0.707185  0.359468  1
  Fe  Fe8  1  0.648149  0.830612  0.279101  1
  Fe  Fe9  1  0.165656  0.348968  0.221461  1
  Fe  Fe10  1  0.755342  0.488392  0.069649  1
  Fe  Fe11  1  0.831909  0.648324  0.782629  1
  Fe  Fe12  1  0.901439  0.141142  0.583497  1
  Si  Si13  1  0.870966  0.133890  0.247025  1
  Si  Si14  1  0.122355  0.878938  0.745862  1
  Si  Si15  1  0.391082  0.615043  0.246520  1
  Si  Si16  1  0.622868  0.376765  0.745981  1
  Si  Si17  1  0.967782  0.265547  0.891879  1
  Si  Si18  1  0.752691  0.025674  0.609950  1
  Si  Si19  1  0.022228  0.737747  0.113786  1
  Si  Si20  1  0.256149  0.978416  0.390213  1
  Si  Si21  1  0.568462  0.083006  0.073405  1
  Si  Si22  1  0.920180  0.425265  0.428469  1
  Si  Si23  1  0.442027  0.901993  0.934846  1
  Si  Si24  1  0.073166  0.579458  0.571572  1
  Si  Si25  1  0.389642  0.139528  0.391590  1
  Si  Si26  1  0.855124  0.609894  0.108486  1
  Si  Si27  1  0.612033  0.859142  0.602084  1
  Si  Si28  1  0.132456  0.390540  0.898562  1
  Ru  Ru29  1  0.855520  0.105187  0.914718  1
  Ru  Ru30  1  0.105176  0.858801  0.413850  1
  Ru  Ru31  1  0.143831  0.894499  0.085177  1
  Ru  Ru32  1  0.242944  0.508055  0.935314  1
  Ru  Ru33  1  0.495964  0.749841  0.562165  1
  Ru  Ru34  1  0.503423  0.251433  0.433065  1
  Ru  Ru35  1  0.354991  0.167183  0.721260  1
