# generated using pymatgen
data_YHo(AlPd)2
_symmetry_space_group_name_H-M   'P 1'
_cell_length_a   4.47603700
_cell_length_b   6.89148400
_cell_length_c   7.76753600
_cell_angle_alpha   90.00000000
_cell_angle_beta   90.00000000
_cell_angle_gamma   90.00000000
_symmetry_Int_Tables_number   1
_chemical_formula_structural   YHo(AlPd)2
_chemical_formula_sum   'Y2 Ho2 Al4 Pd4'
_cell_volume   239.60158949
_cell_formula_units_Z   2
loop_
 _symmetry_equiv_pos_site_id
 _symmetry_equiv_pos_as_xyz
  1  'x, y, z'
loop_
 _atom_site_type_symbol
 _atom_site_label
 _atom_site_symmetry_multiplicity
 _atom_site_fract_x
 _atom_site_fract_y
 _atom_site_fract_z
 _atom_site_occupancy
  Y  Y0  1  0.250000  0.031991  0.680646  1
  Y  Y1  1  0.250000  0.531991  0.819354  1
  Ho  Ho2  1  0.750000  0.966928  0.319234  1
  Ho  Ho3  1  0.750000  0.466928  0.180766  1
  Al  Al4  1  0.250000  0.146584  0.062364  1
  Al  Al5  1  0.250000  0.646584  0.437636  1
  Al  Al6  1  0.750000  0.853475  0.937889  1
  Al  Al7  1  0.750000  0.353475  0.562111  1
  Pd  Pd8  1  0.250000  0.274155  0.381425  1
  Pd  Pd9  1  0.250000  0.774155  0.118575  1
  Pd  Pd10  1  0.750000  0.726866  0.616308  1
  Pd  Pd11  1  0.750000  0.226866  0.883692  1
