# generated using pymatgen
data_Pr4Ga7(SiAu2)3
_symmetry_space_group_name_H-M   'P 1'
_cell_length_a   8.69117069
_cell_length_b   8.71117810
_cell_length_c   8.71117788
_cell_angle_alpha   138.06863535
_cell_angle_beta   105.43626499
_cell_angle_gamma   89.45438171
_symmetry_Int_Tables_number   1
_chemical_formula_structural   Pr4Ga7(SiAu2)3
_chemical_formula_sum   'Pr4 Ga7 Si3 Au6'
_cell_volume   406.22779431
_cell_formula_units_Z   1
loop_
 _symmetry_equiv_pos_site_id
 _symmetry_equiv_pos_as_xyz
  1  'x, y, z'
loop_
 _atom_site_type_symbol
 _atom_site_label
 _atom_site_symmetry_multiplicity
 _atom_site_fract_x
 _atom_site_fract_y
 _atom_site_fract_z
 _atom_site_occupancy
  Pr  Pr0  1  0.866791  0.623691  0.243101  1
  Pr  Pr1  1  0.136817  0.374794  0.762022  1
  Pr  Pr2  1  0.387471  0.127157  0.260313  1
  Pr  Pr3  1  0.616285  0.875080  0.741206  1
  Ga  Ga4  1  0.501841  0.749282  0.245912  1
  Ga  Ga5  1  0.501841  0.255929  0.752558  1
  Ga  Ga6  1  0.234452  0.985455  0.752015  1
  Ga  Ga7  1  0.763207  0.507110  0.743963  1
  Ga  Ga8  1  0.763207  0.019245  0.256097  1
  Ga  Ga9  1  0.234452  0.482437  0.248997  1
  Ga  Ga10  1  0.024349  0.881389  0.142960  1
  Si  Si11  1  0.975743  0.117441  0.858302  1
  Si  Si12  1  0.735568  0.380312  0.355256  1
  Si  Si13  1  0.257792  0.617415  0.640376  1
  Au  Au14  1  0.996648  0.747145  0.741680  1
  Au  Au15  1  0.996648  0.254968  0.249503  1
  Au  Au16  1  0.248761  0.867384  0.381378  1
  Au  Au17  1  0.759537  0.131004  0.628532  1
  Au  Au18  1  0.492253  0.367227  0.125026  1
  Au  Au19  1  0.506337  0.635533  0.870804  1
