# generated using pymatgen
data_Dy7Tm3AlSb5
_symmetry_space_group_name_H-M   'P 1'
_cell_length_a   6.35168724
_cell_length_b   8.88892371
_cell_length_c   8.89738880
_cell_angle_alpha   119.93654379
_cell_angle_beta   90.01299476
_cell_angle_gamma   90.01837725
_symmetry_Int_Tables_number   1
_chemical_formula_structural   Dy7Tm3AlSb5
_chemical_formula_sum   'Dy7 Tm3 Al1 Sb5'
_cell_volume   435.32014353
_cell_formula_units_Z   1
loop_
 _symmetry_equiv_pos_site_id
 _symmetry_equiv_pos_as_xyz
  1  'x, y, z'
loop_
 _atom_site_type_symbol
 _atom_site_label
 _atom_site_symmetry_multiplicity
 _atom_site_fract_x
 _atom_site_fract_y
 _atom_site_fract_z
 _atom_site_occupancy
  Dy  Dy0  1  0.999121  0.338020  0.673166  1
  Dy  Dy1  1  0.749897  0.247873  0.000017  1
  Dy  Dy2  1  0.749962  0.752924  0.762269  1
  Dy  Dy3  1  0.749731  0.990748  0.237168  1
  Dy  Dy4  1  0.250314  0.757298  0.000100  1
  Dy  Dy5  1  0.250099  0.245578  0.244715  1
  Dy  Dy6  1  0.250093  0.001306  0.755810  1
  Tm  Tm7  1  0.501047  0.338278  0.673271  1
  Tm  Tm8  1  0.501273  0.665586  0.326729  1
  Tm  Tm9  1  0.998419  0.665429  0.326113  1
  Al  Al10  1  0.748810  0.604137  0.001694  1
  Sb  Sb11  1  0.749135  0.389075  0.390149  1
  Sb  Sb12  1  0.749229  0.997198  0.608185  1
  Sb  Sb13  1  0.251147  0.393981  0.001097  1
  Sb  Sb14  1  0.250704  0.610647  0.607100  1
  Sb  Sb15  1  0.251018  0.001924  0.392419  1
