# generated using pymatgen
data_Dy3Ho13In4Ru3Rh
_symmetry_space_group_name_H-M   'P 1'
_cell_length_a   9.62873738
_cell_length_b   9.65076863
_cell_length_c   9.60238948
_cell_angle_alpha   59.84829431
_cell_angle_beta   59.74391856
_cell_angle_gamma   59.91990316
_symmetry_Int_Tables_number   1
_chemical_formula_structural   Dy3Ho13In4Ru3Rh
_chemical_formula_sum   'Dy3 Ho13 In4 Ru3 Rh1'
_cell_volume   628.61908773
_cell_formula_units_Z   1
loop_
 _symmetry_equiv_pos_site_id
 _symmetry_equiv_pos_as_xyz
  1  'x, y, z'
loop_
 _atom_site_type_symbol
 _atom_site_label
 _atom_site_symmetry_multiplicity
 _atom_site_fract_x
 _atom_site_fract_y
 _atom_site_fract_z
 _atom_site_occupancy
  Dy  Dy0  1  0.189212  0.190327  0.808253  1
  Dy  Dy1  1  0.598287  0.598230  0.205409  1
  Dy  Dy2  1  0.441288  0.058967  0.440657  1
  Ho  Ho3  1  0.440395  0.442604  0.059529  1
  Ho  Ho4  1  0.812614  0.189442  0.808182  1
  Ho  Ho5  1  0.192480  0.807664  0.191896  1
  Ho  Ho6  1  0.440526  0.057526  0.059615  1
  Ho  Ho7  1  0.189418  0.811681  0.807997  1
  Ho  Ho8  1  0.056306  0.441889  0.060299  1
  Ho  Ho9  1  0.808965  0.808526  0.190260  1
  Ho  Ho10  1  0.204808  0.598954  0.597482  1
  Ho  Ho11  1  0.057966  0.443192  0.439678  1
  Ho  Ho12  1  0.058014  0.059126  0.439905  1
  Ho  Ho13  1  0.808622  0.192292  0.190649  1
  Ho  Ho14  1  0.599717  0.204426  0.597697  1
  Ho  Ho15  1  0.599642  0.598326  0.597694  1
  In  In16  1  0.832657  0.832540  0.832699  1
  In  In17  1  0.832739  0.832890  0.501471  1
  In  In18  1  0.501833  0.832700  0.832787  1
  In  In19  1  0.832646  0.501940  0.832657  1
  Ru  Ru20  1  0.389871  0.831106  0.391876  1
  Ru  Ru21  1  0.390003  0.387307  0.391534  1
  Ru  Ru22  1  0.830246  0.388547  0.392622  1
  Rh  Rh23  1  0.391744  0.389799  0.829150  1
