# generated using pymatgen
data_Ho6Lu4Si5P
_symmetry_space_group_name_H-M   'P 1'
_cell_length_a   8.31947800
_cell_length_b   8.32501189
_cell_length_c   6.18409700
_cell_angle_alpha   90.00000000
_cell_angle_beta   90.00000000
_cell_angle_gamma   119.97802125
_symmetry_Int_Tables_number   1
_chemical_formula_structural   Ho6Lu4Si5P
_chemical_formula_sum   'Ho6 Lu4 Si5 P1'
_cell_volume   371.00862561
_cell_formula_units_Z   1
loop_
 _symmetry_equiv_pos_site_id
 _symmetry_equiv_pos_as_xyz
  1  'x, y, z'
loop_
 _atom_site_type_symbol
 _atom_site_label
 _atom_site_symmetry_multiplicity
 _atom_site_fract_x
 _atom_site_fract_y
 _atom_site_fract_z
 _atom_site_occupancy
  Ho  Ho0  1  0.754468  0.000000  0.750000  1
  Ho  Ho1  1  0.756016  0.755302  0.250000  1
  Ho  Ho2  1  0.000714  0.244698  0.250000  1
  Ho  Ho3  1  0.000890  0.756060  0.750000  1
  Ho  Ho4  1  0.244829  0.243940  0.750000  1
  Ho  Ho5  1  0.244731  0.000000  0.250000  1
  Lu  Lu6  1  0.666235  0.332720  0.000218  1
  Lu  Lu7  1  0.333514  0.667280  0.499782  1
  Lu  Lu8  1  0.333514  0.667280  0.000218  1
  Lu  Lu9  1  0.666235  0.332720  0.499782  1
  Si  Si10  1  0.395609  0.395132  0.250000  1
  Si  Si11  1  0.000477  0.604868  0.250000  1
  Si  Si12  1  0.999965  0.395240  0.750000  1
  Si  Si13  1  0.604725  0.604760  0.750000  1
  Si  Si14  1  0.605366  0.000000  0.250000  1
  P  P15  1  0.392711  0.000000  0.750000  1
