# generated using pymatgen
data_TiTlF5
_symmetry_space_group_name_H-M   'P 1'
_cell_length_a   5.52079000
_cell_length_b   7.85570700
_cell_length_c   10.52228000
_cell_angle_alpha   90.00000000
_cell_angle_beta   90.00000000
_cell_angle_gamma   90.00000000
_symmetry_Int_Tables_number   1
_chemical_formula_structural   TiTlF5
_chemical_formula_sum   'Ti4 Tl4 F20'
_cell_volume   456.34821792
_cell_formula_units_Z   4
loop_
 _symmetry_equiv_pos_site_id
 _symmetry_equiv_pos_as_xyz
  1  'x, y, z'
loop_
 _atom_site_type_symbol
 _atom_site_label
 _atom_site_symmetry_multiplicity
 _atom_site_fract_x
 _atom_site_fract_y
 _atom_site_fract_z
 _atom_site_occupancy
  Ti  Ti0  1  0.000000  0.888378  0.240723  1
  Ti  Ti1  1  0.500000  0.569679  0.342059  1
  Ti  Ti2  1  0.500000  0.430321  0.842059  1
  Ti  Ti3  1  0.000000  0.111622  0.740723  1
  Tl  Tl4  1  0.500000  0.892272  0.975160  1
  Tl  Tl5  1  0.500000  0.107728  0.475160  1
  Tl  Tl6  1  0.000000  0.364635  0.119684  1
  Tl  Tl7  1  0.000000  0.635365  0.619684  1
  F  F8  1  0.258178  0.547900  0.921586  1
  F  F9  1  0.748334  0.701812  0.241086  1
  F  F10  1  0.240635  0.049161  0.234989  1
  F  F11  1  0.748334  0.298188  0.741086  1
  F  F12  1  0.500000  0.248946  0.954229  1
  F  F13  1  0.759365  0.950839  0.734989  1
  F  F14  1  0.500000  0.573648  0.701720  1
  F  F15  1  0.240635  0.950839  0.734989  1
  F  F16  1  0.000000  0.849469  0.067308  1
  F  F17  1  0.759365  0.049161  0.234989  1
  F  F18  1  0.500000  0.426352  0.201720  1
  F  F19  1  0.741822  0.452100  0.421586  1
  F  F20  1  0.251666  0.701812  0.241086  1
  F  F21  1  0.000000  0.865103  0.415306  1
  F  F22  1  0.000000  0.150531  0.567308  1
  F  F23  1  0.251666  0.298188  0.741086  1
  F  F24  1  0.000000  0.134897  0.915306  1
  F  F25  1  0.258178  0.452100  0.421586  1
  F  F26  1  0.500000  0.751054  0.454229  1
  F  F27  1  0.741822  0.547900  0.921586  1
