# generated using pymatgen
data_Zn2Bi3Sb3O14
_symmetry_space_group_name_H-M   'P 1'
_cell_length_a   7.32769314
_cell_length_b   7.32769296
_cell_length_c   7.32769406
_cell_angle_alpha   61.98918794
_cell_angle_beta   61.98918629
_cell_angle_gamma   61.98918824
_symmetry_Int_Tables_number   1
_chemical_formula_structural   Zn2Bi3Sb3O14
_chemical_formula_sum   'Zn2 Bi3 Sb3 O14'
_cell_volume   290.59890315
_cell_formula_units_Z   1
loop_
 _symmetry_equiv_pos_site_id
 _symmetry_equiv_pos_as_xyz
  1  'x, y, z'
loop_
 _atom_site_type_symbol
 _atom_site_label
 _atom_site_symmetry_multiplicity
 _atom_site_fract_x
 _atom_site_fract_y
 _atom_site_fract_z
 _atom_site_occupancy
  Zn  Zn0  1  0.500000  0.500000  0.500000  1
  Zn  Zn1  1  0.000000  0.000000  0.000000  1
  Bi  Bi2  1  0.000000  0.500000  0.000000  1
  Bi  Bi3  1  0.500000  0.000000  0.000000  1
  Bi  Bi4  1  0.000000  0.000000  0.500000  1
  Sb  Sb5  1  0.500000  0.000000  0.500000  1
  Sb  Sb6  1  0.000000  0.500000  0.500000  1
  Sb  Sb7  1  0.500000  0.500000  0.000000  1
  O  O8  1  0.410953  0.410953  0.846259  1
  O  O9  1  0.846259  0.410953  0.410953  1
  O  O10  1  0.410953  0.846259  0.410953  1
  O  O11  1  0.819673  0.819673  0.421830  1
  O  O12  1  0.421830  0.819673  0.819673  1
  O  O13  1  0.819673  0.421830  0.819673  1
  O  O14  1  0.589047  0.589047  0.153741  1
  O  O15  1  0.153741  0.589047  0.589047  1
  O  O16  1  0.589047  0.153741  0.589047  1
  O  O17  1  0.180327  0.180327  0.578170  1
  O  O18  1  0.578170  0.180327  0.180327  1
  O  O19  1  0.180327  0.578170  0.180327  1
  O  O20  1  0.108828  0.108828  0.108828  1
  O  O21  1  0.891172  0.891172  0.891172  1
