# generated using pymatgen
data_Tm4(Pd3Au)3
_symmetry_space_group_name_H-M   'P 1'
_cell_length_a   7.15644297
_cell_length_b   7.15644447
_cell_length_c   7.15644342
_cell_angle_alpha   108.39433620
_cell_angle_beta   108.39433620
_cell_angle_gamma   111.64714953
_symmetry_Int_Tables_number   1
_chemical_formula_structural   Tm4(Pd3Au)3
_chemical_formula_sum   'Tm4 Pd9 Au3'
_cell_volume   281.83689739
_cell_formula_units_Z   1
loop_
 _symmetry_equiv_pos_site_id
 _symmetry_equiv_pos_as_xyz
  1  'x, y, z'
loop_
 _atom_site_type_symbol
 _atom_site_label
 _atom_site_symmetry_multiplicity
 _atom_site_fract_x
 _atom_site_fract_y
 _atom_site_fract_z
 _atom_site_occupancy
  Tm  Tm0  1  0.245643  0.245643  0.491287  1
  Tm  Tm1  1  0.754357  0.754357  0.508713  1
  Tm  Tm2  1  0.245643  0.754357  0.000000  1
  Tm  Tm3  1  0.754357  0.245643  0.000000  1
  Pd  Pd4  1  0.500772  0.251857  0.248914  1
  Pd  Pd5  1  0.499228  0.748143  0.751086  1
  Pd  Pd6  1  0.002943  0.251857  0.751086  1
  Pd  Pd7  1  0.251857  0.002943  0.751086  1
  Pd  Pd8  1  0.997057  0.748143  0.248914  1
  Pd  Pd9  1  0.748143  0.997057  0.248914  1
  Pd  Pd10  1  0.251857  0.500772  0.248914  1
  Pd  Pd11  1  0.748143  0.499228  0.751086  1
  Pd  Pd12  1  0.000000  0.000000  0.000000  1
  Au  Au13  1  0.500000  0.000000  0.500000  1
  Au  Au14  1  0.000000  0.500000  0.500000  1
  Au  Au15  1  0.500000  0.500000  0.000000  1
