# generated using pymatgen
data_Tm6Sc4AlSb5
_symmetry_space_group_name_H-M   'P 1'
_cell_length_a   8.66701500
_cell_length_b   8.67708633
_cell_length_c   6.09567500
_cell_angle_alpha   90.00000000
_cell_angle_beta   90.00000000
_cell_angle_gamma   119.96161620
_symmetry_Int_Tables_number   1
_chemical_formula_structural   Tm6Sc4AlSb5
_chemical_formula_sum   'Tm6 Sc4 Al1 Sb5'
_cell_volume   397.15839685
_cell_formula_units_Z   1
loop_
 _symmetry_equiv_pos_site_id
 _symmetry_equiv_pos_as_xyz
  1  'x, y, z'
loop_
 _atom_site_type_symbol
 _atom_site_label
 _atom_site_symmetry_multiplicity
 _atom_site_fract_x
 _atom_site_fract_y
 _atom_site_fract_z
 _atom_site_occupancy
  Tm  Tm0  1  0.247018  0.000000  0.250000  1
  Tm  Tm1  1  0.759504  0.000000  0.750000  1
  Tm  Tm2  1  0.989710  0.234998  0.250000  1
  Tm  Tm3  1  0.754712  0.765002  0.250000  1
  Tm  Tm4  1  0.243597  0.241646  0.750000  1
  Tm  Tm5  1  0.001951  0.758354  0.750000  1
  Sc  Sc6  1  0.337059  0.671435  0.002505  1
  Sc  Sc7  1  0.665625  0.328565  0.497495  1
  Sc  Sc8  1  0.665625  0.328565  0.002505  1
  Sc  Sc9  1  0.337059  0.671435  0.497495  1
  Al  Al10  1  0.598005  0.000000  0.250000  1
  Sb  Sb11  1  0.401186  0.000000  0.750000  1
  Sb  Sb12  1  0.998258  0.605009  0.250000  1
  Sb  Sb13  1  0.393249  0.394991  0.250000  1
  Sb  Sb14  1  0.605018  0.602593  0.750000  1
  Sb  Sb15  1  0.002424  0.397407  0.750000  1
