# generated using pymatgen
data_Ho2Al8ZnRu5
_symmetry_space_group_name_H-M   'P 1'
_cell_length_a   8.00812679
_cell_length_b   8.00812610
_cell_length_c   8.00812549
_cell_angle_alpha   134.78151022
_cell_angle_beta   134.78150535
_cell_angle_gamma   65.86988272
_symmetry_Int_Tables_number   1
_chemical_formula_structural   Ho2Al8ZnRu5
_chemical_formula_sum   'Ho2 Al8 Zn1 Ru5'
_cell_volume   254.81841467
_cell_formula_units_Z   1
loop_
 _symmetry_equiv_pos_site_id
 _symmetry_equiv_pos_as_xyz
  1  'x, y, z'
loop_
 _atom_site_type_symbol
 _atom_site_label
 _atom_site_symmetry_multiplicity
 _atom_site_fract_x
 _atom_site_fract_y
 _atom_site_fract_z
 _atom_site_occupancy
  Ho  Ho0  1  0.000000  0.500000  0.500000  1
  Ho  Ho1  1  0.500000  0.000000  0.500000  1
  Al  Al2  1  0.438292  0.862862  0.000000  1
  Al  Al3  1  0.137138  0.137138  0.575429  1
  Al  Al4  1  0.862862  0.438292  0.000000  1
  Al  Al5  1  0.862862  0.862862  0.424571  1
  Al  Al6  1  0.561708  0.137138  0.000000  1
  Al  Al7  1  0.137138  0.561708  0.000000  1
  Al  Al8  1  0.561708  0.561708  0.424571  1
  Al  Al9  1  0.438292  0.438292  0.575429  1
  Zn  Zn10  1  0.000000  0.000000  0.000000  1
  Ru  Ru11  1  0.191643  0.191643  0.000000  1
  Ru  Ru12  1  0.808357  0.808357  0.000000  1
  Ru  Ru13  1  0.250000  0.750000  0.500000  1
  Ru  Ru14  1  0.750000  0.250000  0.500000  1
  Ru  Ru15  1  0.500000  0.500000  0.000000  1
