# generated using pymatgen
data_Li8Tb8Si7Sb
_symmetry_space_group_name_H-M   'P 1'
_cell_length_a   8.82400800
_cell_length_b   8.82105214
_cell_length_c   7.08314200
_cell_angle_alpha   90.12114478
_cell_angle_beta   90.00000000
_cell_angle_gamma   120.01108535
_symmetry_Int_Tables_number   1
_chemical_formula_structural   Li8Tb8Si7Sb
_chemical_formula_sum   'Li8 Tb8 Si7 Sb1'
_cell_volume   477.41168552
_cell_formula_units_Z   1
loop_
 _symmetry_equiv_pos_site_id
 _symmetry_equiv_pos_as_xyz
  1  'x, y, z'
loop_
 _atom_site_type_symbol
 _atom_site_label
 _atom_site_symmetry_multiplicity
 _atom_site_fract_x
 _atom_site_fract_y
 _atom_site_fract_z
 _atom_site_occupancy
  Li  Li0  1  0.166678  0.333357  0.284338  1
  Li  Li1  1  0.170107  0.834272  0.288130  1
  Li  Li2  1  0.664165  0.834272  0.288130  1
  Li  Li3  1  0.833109  0.666217  0.786034  1
  Li  Li4  1  0.823711  0.162341  0.792138  1
  Li  Li5  1  0.338629  0.162341  0.792138  1
  Li  Li6  1  0.338033  0.676068  0.665288  1
  Li  Li7  1  0.665263  0.330526  0.168295  1
  Tb  Tb8  1  0.514117  0.028232  0.493828  1
  Tb  Tb9  1  0.522278  0.491377  0.490982  1
  Tb  Tb10  1  0.969102  0.491377  0.490982  1
  Tb  Tb11  1  0.485890  0.971782  0.996292  1
  Tb  Tb12  1  0.497102  0.518497  0.999404  1
  Tb  Tb13  1  0.021394  0.518497  0.999404  1
  Tb  Tb14  1  0.993768  0.987536  0.498245  1
  Tb  Tb15  1  0.996537  0.993074  0.005942  1
  Si  Si16  1  0.165821  0.832433  0.729394  1
  Si  Si17  1  0.666612  0.832433  0.729394  1
  Si  Si18  1  0.833419  0.666839  0.230935  1
  Si  Si19  1  0.833558  0.167196  0.229115  1
  Si  Si20  1  0.333638  0.167196  0.229115  1
  Si  Si21  1  0.332888  0.665778  0.260952  1
  Si  Si22  1  0.667347  0.334693  0.762108  1
  Sb  Sb23  1  0.166833  0.333666  0.731413  1
