# generated using pymatgen
data_Tb3Ho5In3Pt
_symmetry_space_group_name_H-M   'P 1'
_cell_length_a   10.45909400
_cell_length_b   10.45909391
_cell_length_c   7.04589100
_cell_angle_alpha   90.00000000
_cell_angle_beta   90.00000000
_cell_angle_gamma   120.00000029
_symmetry_Int_Tables_number   1
_chemical_formula_structural   Tb3Ho5In3Pt
_chemical_formula_sum   'Tb6 Ho10 In6 Pt2'
_cell_volume   667.50524016
_cell_formula_units_Z   2
loop_
 _symmetry_equiv_pos_site_id
 _symmetry_equiv_pos_as_xyz
  1  'x, y, z'
loop_
 _atom_site_type_symbol
 _atom_site_label
 _atom_site_symmetry_multiplicity
 _atom_site_fract_x
 _atom_site_fract_y
 _atom_site_fract_z
 _atom_site_occupancy
  Tb  Tb0  1  0.531322  0.062644  0.508614  1
  Tb  Tb1  1  0.937356  0.468678  0.508614  1
  Tb  Tb2  1  0.531322  0.468678  0.508614  1
  Tb  Tb3  1  0.468678  0.937356  0.008614  1
  Tb  Tb4  1  0.062644  0.531322  0.008614  1
  Tb  Tb5  1  0.468678  0.531322  0.008614  1
  Ho  Ho6  1  0.175017  0.350032  0.713953  1
  Ho  Ho7  1  0.649968  0.824983  0.713953  1
  Ho  Ho8  1  0.175017  0.824983  0.713953  1
  Ho  Ho9  1  0.824983  0.649968  0.213953  1
  Ho  Ho10  1  0.350032  0.175017  0.213953  1
  Ho  Ho11  1  0.824983  0.175017  0.213953  1
  Ho  Ho12  1  0.666667  0.333333  0.884161  1
  Ho  Ho13  1  0.333333  0.666667  0.384161  1
  Ho  Ho14  1  0.000000  0.000000  0.490056  1
  Ho  Ho15  1  0.000000  0.000000  0.990056  1
  In  In16  1  0.837252  0.674503  0.752812  1
  In  In17  1  0.325497  0.162748  0.752812  1
  In  In18  1  0.837252  0.162748  0.752812  1
  In  In19  1  0.162748  0.325497  0.252812  1
  In  In20  1  0.674503  0.837252  0.252812  1
  In  In21  1  0.162748  0.837252  0.252812  1
  Pt  Pt22  1  0.666667  0.333333  0.278669  1
  Pt  Pt23  1  0.333333  0.666667  0.778669  1
