# generated using pymatgen
data_Ta3Be8Ru
_symmetry_space_group_name_H-M   'P 1'
_cell_length_a   4.52887400
_cell_length_b   4.52887406
_cell_length_c   7.40397400
_cell_angle_alpha   90.00000000
_cell_angle_beta   90.00000000
_cell_angle_gamma   119.99999959
_symmetry_Int_Tables_number   1
_chemical_formula_structural   Ta3Be8Ru
_chemical_formula_sum   'Ta3 Be8 Ru1'
_cell_volume   131.51521528
_cell_formula_units_Z   1
loop_
 _symmetry_equiv_pos_site_id
 _symmetry_equiv_pos_as_xyz
  1  'x, y, z'
loop_
 _atom_site_type_symbol
 _atom_site_label
 _atom_site_symmetry_multiplicity
 _atom_site_fract_x
 _atom_site_fract_y
 _atom_site_fract_z
 _atom_site_occupancy
  Ta  Ta0  1  0.333333  0.666667  0.426956  1
  Ta  Ta1  1  0.666667  0.333333  0.567714  1
  Ta  Ta2  1  0.666667  0.333333  0.942460  1
  Be  Be3  1  0.000000  0.000000  0.496644  1
  Be  Be4  1  0.000000  0.000000  0.999164  1
  Be  Be5  1  0.830723  0.169277  0.248171  1
  Be  Be6  1  0.830723  0.661446  0.248171  1
  Be  Be7  1  0.338554  0.169277  0.248171  1
  Be  Be8  1  0.169570  0.830430  0.752192  1
  Be  Be9  1  0.169570  0.339140  0.752192  1
  Be  Be10  1  0.660860  0.830430  0.752192  1
  Ru  Ru11  1  0.333333  0.666667  0.065974  1
