# generated using pymatgen
data_Mg4Ga6ReTc
_symmetry_space_group_name_H-M   'P 1'
_cell_length_a   5.19923495
_cell_length_b   5.19923355
_cell_length_c   8.62942900
_cell_angle_alpha   90.00000000
_cell_angle_beta   90.00000000
_cell_angle_gamma   117.31024031
_symmetry_Int_Tables_number   1
_chemical_formula_structural   Mg4Ga6ReTc
_chemical_formula_sum   'Mg4 Ga6 Re1 Tc1'
_cell_volume   207.26954286
_cell_formula_units_Z   1
loop_
 _symmetry_equiv_pos_site_id
 _symmetry_equiv_pos_as_xyz
  1  'x, y, z'
loop_
 _atom_site_type_symbol
 _atom_site_label
 _atom_site_symmetry_multiplicity
 _atom_site_fract_x
 _atom_site_fract_y
 _atom_site_fract_z
 _atom_site_occupancy
  Mg  Mg0  1  0.674666  0.325334  0.066117  1
  Mg  Mg1  1  0.325339  0.674661  0.933132  1
  Mg  Mg2  1  0.325339  0.674661  0.566868  1
  Mg  Mg3  1  0.674666  0.325334  0.433883  1
  Ga  Ga4  1  0.829492  0.643214  0.750000  1
  Ga  Ga5  1  0.170055  0.356138  0.250000  1
  Ga  Ga6  1  0.356786  0.170508  0.750000  1
  Ga  Ga7  1  0.643862  0.829945  0.250000  1
  Ga  Ga8  1  0.999706  0.000294  0.500881  1
  Ga  Ga9  1  0.999706  0.000294  0.999119  1
  Re  Re10  1  0.157277  0.842723  0.250000  1
  Tc  Tc11  1  0.843106  0.156894  0.750000  1
