# generated using pymatgen
data_Pr2Sc3Tl4
_symmetry_space_group_name_H-M   'P 1'
_cell_length_a   7.91235000
_cell_length_b   8.10874200
_cell_length_c   15.38544300
_cell_angle_alpha   90.00000000
_cell_angle_beta   90.00000000
_cell_angle_gamma   90.00000000
_symmetry_Int_Tables_number   1
_chemical_formula_structural   Pr2Sc3Tl4
_chemical_formula_sum   'Pr8 Sc12 Tl16'
_cell_volume   987.11778782
_cell_formula_units_Z   4
loop_
 _symmetry_equiv_pos_site_id
 _symmetry_equiv_pos_as_xyz
  1  'x, y, z'
loop_
 _atom_site_type_symbol
 _atom_site_label
 _atom_site_symmetry_multiplicity
 _atom_site_fract_x
 _atom_site_fract_y
 _atom_site_fract_z
 _atom_site_occupancy
  Pr  Pr0  1  0.001389  0.180124  0.406354  1
  Pr  Pr1  1  0.501389  0.319876  0.406354  1
  Pr  Pr2  1  0.498611  0.680124  0.906354  1
  Pr  Pr3  1  0.498611  0.680124  0.593646  1
  Pr  Pr4  1  0.998611  0.819876  0.593646  1
  Pr  Pr5  1  0.998611  0.819876  0.906354  1
  Pr  Pr6  1  0.501389  0.319876  0.093646  1
  Pr  Pr7  1  0.001389  0.180124  0.093646  1
  Sc  Sc8  1  0.333759  0.158343  0.626414  1
  Sc  Sc9  1  0.666241  0.841657  0.373586  1
  Sc  Sc10  1  0.665375  0.005784  0.750000  1
  Sc  Sc11  1  0.166241  0.658343  0.373586  1
  Sc  Sc12  1  0.833759  0.341657  0.873586  1
  Sc  Sc13  1  0.833759  0.341657  0.626414  1
  Sc  Sc14  1  0.834625  0.505784  0.250000  1
  Sc  Sc15  1  0.334625  0.994216  0.250000  1
  Sc  Sc16  1  0.333759  0.158343  0.873586  1
  Sc  Sc17  1  0.166241  0.658343  0.126414  1
  Sc  Sc18  1  0.666241  0.841657  0.126414  1
  Sc  Sc19  1  0.165375  0.494216  0.750000  1
  Tl  Tl20  1  0.299058  0.861201  0.750000  1
  Tl  Tl21  1  0.474942  0.628067  0.250000  1
  Tl  Tl22  1  0.025058  0.128067  0.750000  1
  Tl  Tl23  1  0.525058  0.371933  0.750000  1
  Tl  Tl24  1  0.176504  0.455036  0.542656  1
  Tl  Tl25  1  0.974942  0.871933  0.250000  1
  Tl  Tl26  1  0.700942  0.138799  0.250000  1
  Tl  Tl27  1  0.823496  0.544964  0.042656  1
  Tl  Tl28  1  0.323496  0.955036  0.042656  1
  Tl  Tl29  1  0.176504  0.455036  0.957344  1
  Tl  Tl30  1  0.676504  0.044964  0.542656  1
  Tl  Tl31  1  0.323496  0.955036  0.457344  1
  Tl  Tl32  1  0.823496  0.544964  0.457344  1
  Tl  Tl33  1  0.799058  0.638799  0.750000  1
  Tl  Tl34  1  0.200942  0.361201  0.250000  1
  Tl  Tl35  1  0.676504  0.044964  0.957344  1
