# generated using pymatgen
data_Ti6Re5Si6Rh
_symmetry_space_group_name_H-M   'P 1'
_cell_length_a   7.54568648
_cell_length_b   7.54378514
_cell_length_c   7.54556151
_cell_angle_alpha   126.30340662
_cell_angle_beta   129.01651455
_cell_angle_gamma   77.20290572
_symmetry_Int_Tables_number   1
_chemical_formula_structural   Ti6Re5Si6Rh
_chemical_formula_sum   'Ti6 Re5 Si6 Rh1'
_cell_volume   260.97977557
_cell_formula_units_Z   1
loop_
 _symmetry_equiv_pos_site_id
 _symmetry_equiv_pos_as_xyz
  1  'x, y, z'
loop_
 _atom_site_type_symbol
 _atom_site_label
 _atom_site_symmetry_multiplicity
 _atom_site_fract_x
 _atom_site_fract_y
 _atom_site_fract_z
 _atom_site_occupancy
  Ti  Ti0  1  0.248595  0.897890  0.156082  1
  Ti  Ti1  1  0.949083  0.487026  0.033980  1
  Ti  Ti2  1  0.050341  0.104857  0.547102  1
  Ti  Ti3  1  0.453276  0.487155  0.538152  1
  Ti  Ti4  1  0.742076  0.897840  0.649567  1
  Ti  Ti5  1  0.558006  0.105026  0.054819  1
  Re  Re6  1  0.498276  0.234877  0.736006  1
  Re  Re7  1  0.000146  0.236675  0.236185  1
  Re  Re8  1  0.869334  0.496068  0.626454  1
  Re  Re9  1  0.631757  0.760974  0.129478  1
  Re  Re10  1  0.368798  0.495712  0.126582  1
  Si  Si11  1  0.753853  0.503323  0.250659  1
  Si  Si12  1  0.166107  0.157165  0.991145  1
  Si  Si13  1  0.665262  0.158574  0.493378  1
  Si  Si14  1  0.329772  0.828307  0.498595  1
  Si  Si15  1  0.252510  0.503454  0.749330  1
  Si  Si16  1  0.831607  0.828746  0.997259  1
  Rh  Rh17  1  0.131204  0.758540  0.627440  1
