# generated using pymatgen
data_Lu2NiP7Ru11
_symmetry_space_group_name_H-M   'P 1'
_cell_length_a   9.28739570
_cell_length_b   9.42262077
_cell_length_c   3.89710700
_cell_angle_alpha   90.00000000
_cell_angle_beta   90.00000000
_cell_angle_gamma   119.45093168
_symmetry_Int_Tables_number   1
_chemical_formula_structural   Lu2NiP7Ru11
_chemical_formula_sum   'Lu2 Ni1 P7 Ru11'
_cell_volume   296.97164616
_cell_formula_units_Z   1
loop_
 _symmetry_equiv_pos_site_id
 _symmetry_equiv_pos_as_xyz
  1  'x, y, z'
loop_
 _atom_site_type_symbol
 _atom_site_label
 _atom_site_symmetry_multiplicity
 _atom_site_fract_x
 _atom_site_fract_y
 _atom_site_fract_z
 _atom_site_occupancy
  Lu  Lu0  1  0.670805  0.335119  0.500000  1
  Lu  Lu1  1  0.328971  0.659238  0.000000  1
  Ni  Ni2  1  0.551841  0.944272  0.500000  1
  P  P3  1  0.990268  0.996192  0.000000  1
  P  P4  1  0.424063  0.301693  0.000000  1
  P  P5  1  0.592888  0.711065  0.500000  1
  P  P6  1  0.286682  0.882339  0.500000  1
  P  P7  1  0.117475  0.401838  0.500000  1
  P  P8  1  0.706525  0.125714  0.000000  1
  P  P9  1  0.886994  0.582030  0.000000  1
  Ru  Ru10  1  0.388471  0.440174  0.500000  1
  Ru  Ru11  1  0.058761  0.614301  0.500000  1
  Ru  Ru12  1  0.220724  0.089863  0.500000  1
  Ru  Ru13  1  0.875839  0.796171  0.500000  1
  Ru  Ru14  1  0.902744  0.125966  0.500000  1
  Ru  Ru15  1  0.710896  0.886351  0.000000  1
  Ru  Ru16  1  0.112916  0.842176  0.000000  1
  Ru  Ru17  1  0.159595  0.265755  0.000000  1
  Ru  Ru18  1  0.939178  0.368939  0.000000  1
  Ru  Ru19  1  0.637052  0.569546  0.000000  1
  Ru  Ru20  1  0.437312  0.061260  0.000000  1
