# generated using pymatgen
data_Na2RuF6
_symmetry_space_group_name_H-M   'P 1'
_cell_length_a   5.37046900
_cell_length_b   5.37046900
_cell_length_c   19.27415500
_cell_angle_alpha   90.00000000
_cell_angle_beta   90.00000000
_cell_angle_gamma   90.00000000
_symmetry_Int_Tables_number   1
_chemical_formula_structural   Na2RuF6
_chemical_formula_sum   'Na8 Ru4 F24'
_cell_volume   555.90396963
_cell_formula_units_Z   4
loop_
 _symmetry_equiv_pos_site_id
 _symmetry_equiv_pos_as_xyz
  1  'x, y, z'
loop_
 _atom_site_type_symbol
 _atom_site_label
 _atom_site_symmetry_multiplicity
 _atom_site_fract_x
 _atom_site_fract_y
 _atom_site_fract_z
 _atom_site_occupancy
  Na  Na0  1  0.000000  0.500000  0.303522  1
  Na  Na1  1  0.500000  0.000000  0.696478  1
  Na  Na2  1  0.500000  0.000000  0.196478  1
  Na  Na3  1  0.000000  0.500000  0.803522  1
  Na  Na4  1  0.000000  0.000000  0.500000  1
  Na  Na5  1  0.500000  0.500000  0.000000  1
  Na  Na6  1  0.000000  0.000000  0.000000  1
  Na  Na7  1  0.500000  0.500000  0.500000  1
  Ru  Ru8  1  0.000000  0.500000  0.128177  1
  Ru  Ru9  1  0.500000  0.000000  0.871823  1
  Ru  Ru10  1  0.500000  0.000000  0.371823  1
  Ru  Ru11  1  0.000000  0.500000  0.628177  1
  F  F12  1  0.231723  0.234584  0.376771  1
  F  F13  1  0.768277  0.765416  0.376771  1
  F  F14  1  0.234584  0.768277  0.623229  1
  F  F15  1  0.268277  0.734584  0.123229  1
  F  F16  1  0.765416  0.231723  0.623229  1
  F  F17  1  0.731723  0.265416  0.123229  1
  F  F18  1  0.265416  0.268277  0.876771  1
  F  F19  1  0.734584  0.731723  0.876771  1
  F  F20  1  0.166625  0.307448  0.201398  1
  F  F21  1  0.833375  0.692552  0.201398  1
  F  F22  1  0.307448  0.833375  0.798602  1
  F  F23  1  0.333375  0.807448  0.298602  1
  F  F24  1  0.692552  0.166625  0.798602  1
  F  F25  1  0.666625  0.192552  0.298602  1
  F  F26  1  0.192552  0.333375  0.701398  1
  F  F27  1  0.807448  0.666625  0.701398  1
  F  F28  1  0.179565  0.310555  0.054482  1
  F  F29  1  0.820435  0.689445  0.054482  1
  F  F30  1  0.310555  0.820435  0.945518  1
  F  F31  1  0.320435  0.810555  0.445518  1
  F  F32  1  0.689445  0.179565  0.945518  1
  F  F33  1  0.679565  0.189445  0.445518  1
  F  F34  1  0.189445  0.320435  0.554482  1
  F  F35  1  0.810555  0.679565  0.554482  1
