# generated using pymatgen
data_Ti3MnS6
_symmetry_space_group_name_H-M   'P 1'
_cell_length_a   6.77602549
_cell_length_b   6.77602465
_cell_length_c   6.77602555
_cell_angle_alpha   51.75845552
_cell_angle_beta   51.75846385
_cell_angle_gamma   51.75846201
_symmetry_Int_Tables_number   1
_chemical_formula_structural   Ti3MnS6
_chemical_formula_sum   'Ti3 Mn1 S6'
_cell_volume   177.33762450
_cell_formula_units_Z   1
loop_
 _symmetry_equiv_pos_site_id
 _symmetry_equiv_pos_as_xyz
  1  'x, y, z'
loop_
 _atom_site_type_symbol
 _atom_site_label
 _atom_site_symmetry_multiplicity
 _atom_site_fract_x
 _atom_site_fract_y
 _atom_site_fract_z
 _atom_site_occupancy
  Ti  Ti0  1  0.000000  0.000000  0.000000  1
  Ti  Ti1  1  0.331834  0.331834  0.331834  1
  Ti  Ti2  1  0.668166  0.668166  0.668166  1
  Mn  Mn3  1  0.500000  0.500000  0.500000  1
  S  S4  1  0.916845  0.585444  0.248637  1
  S  S5  1  0.585444  0.248637  0.916845  1
  S  S6  1  0.248637  0.916845  0.585444  1
  S  S7  1  0.751363  0.083155  0.414556  1
  S  S8  1  0.414556  0.751363  0.083155  1
  S  S9  1  0.083155  0.414556  0.751363  1
