# generated using pymatgen
data_Cs2MoF7
_symmetry_space_group_name_H-M   'P 1'
_cell_length_a   6.23004500
_cell_length_b   6.28728900
_cell_length_c   11.19280300
_cell_angle_alpha   90.00000000
_cell_angle_beta   90.00000000
_cell_angle_gamma   90.00000000
_symmetry_Int_Tables_number   1
_chemical_formula_structural   Cs2MoF7
_chemical_formula_sum   'Cs4 Mo2 F14'
_cell_volume   438.42313890
_cell_formula_units_Z   2
loop_
 _symmetry_equiv_pos_site_id
 _symmetry_equiv_pos_as_xyz
  1  'x, y, z'
loop_
 _atom_site_type_symbol
 _atom_site_label
 _atom_site_symmetry_multiplicity
 _atom_site_fract_x
 _atom_site_fract_y
 _atom_site_fract_z
 _atom_site_occupancy
  Cs  Cs0  1  0.000000  0.500000  0.361333  1
  Cs  Cs1  1  0.500000  0.000000  0.638667  1
  Cs  Cs2  1  0.500000  0.500000  0.997622  1
  Cs  Cs3  1  0.000000  0.000000  0.002378  1
  Mo  Mo4  1  0.000000  0.500000  0.757290  1
  Mo  Mo5  1  0.500000  0.000000  0.242710  1
  F  F6  1  0.208410  0.269633  0.796060  1
  F  F7  1  0.291590  0.230367  0.203940  1
  F  F8  1  0.708410  0.769633  0.203940  1
  F  F9  1  0.791590  0.730367  0.796060  1
  F  F10  1  0.208410  0.730367  0.796060  1
  F  F11  1  0.708410  0.230367  0.203940  1
  F  F12  1  0.291590  0.769633  0.203940  1
  F  F13  1  0.791590  0.269633  0.796060  1
  F  F14  1  0.000000  0.500000  0.936859  1
  F  F15  1  0.500000  0.000000  0.063141  1
  F  F16  1  0.187982  0.500000  0.614942  1
  F  F17  1  0.812018  0.500000  0.614942  1
  F  F18  1  0.312018  0.000000  0.385058  1
  F  F19  1  0.687982  0.000000  0.385058  1
