# generated using pymatgen
data_TbTm9(In2Bi)2
_symmetry_space_group_name_H-M   'P 1'
_cell_length_a   6.56218400
_cell_length_b   8.93374362
_cell_length_c   8.90806491
_cell_angle_alpha   119.75048561
_cell_angle_beta   89.99915340
_cell_angle_gamma   90.00235811
_symmetry_Int_Tables_number   1
_chemical_formula_structural   TbTm9(In2Bi)2
_chemical_formula_sum   'Tb1 Tm9 In4 Bi2'
_cell_volume   453.40086635
_cell_formula_units_Z   1
loop_
 _symmetry_equiv_pos_site_id
 _symmetry_equiv_pos_as_xyz
  1  'x, y, z'
loop_
 _atom_site_type_symbol
 _atom_site_label
 _atom_site_symmetry_multiplicity
 _atom_site_fract_x
 _atom_site_fract_y
 _atom_site_fract_z
 _atom_site_occupancy
  Tb  Tb0  1  0.749946  0.228344  0.991395  1
  Tm  Tm1  1  0.492236  0.328852  0.667496  1
  Tm  Tm2  1  0.492523  0.671563  0.339082  1
  Tm  Tm3  1  0.007441  0.671706  0.339070  1
  Tm  Tm4  1  0.007828  0.329032  0.667571  1
  Tm  Tm5  1  0.750005  0.771157  0.761054  1
  Tm  Tm6  1  0.749879  0.999402  0.236795  1
  Tm  Tm7  1  0.250035  0.766345  0.000808  1
  Tm  Tm8  1  0.249957  0.233595  0.234947  1
  Tm  Tm9  1  0.250050  0.999666  0.763152  1
  In  In10  1  0.750087  0.999144  0.593277  1
  In  In11  1  0.249947  0.398275  0.004103  1
  In  In12  1  0.250031  0.600398  0.604130  1
  In  In13  1  0.250058  0.000357  0.398427  1
  Bi  Bi14  1  0.749961  0.604786  0.999847  1
  Bi  Bi15  1  0.750013  0.397380  0.398847  1
