# generated using pymatgen
data_Ce4Ta4Co16Si5P7
_symmetry_space_group_name_H-M   'P 1'
_cell_length_a   3.75808400
_cell_length_b   10.68467606
_cell_length_c   12.13673708
_cell_angle_alpha   89.98730152
_cell_angle_beta   90.00000000
_cell_angle_gamma   90.00000000
_symmetry_Int_Tables_number   1
_chemical_formula_structural   Ce4Ta4Co16Si5P7
_chemical_formula_sum   'Ce4 Ta4 Co16 Si5 P7'
_cell_volume   487.33743825
_cell_formula_units_Z   1
loop_
 _symmetry_equiv_pos_site_id
 _symmetry_equiv_pos_as_xyz
  1  'x, y, z'
loop_
 _atom_site_type_symbol
 _atom_site_label
 _atom_site_symmetry_multiplicity
 _atom_site_fract_x
 _atom_site_fract_y
 _atom_site_fract_z
 _atom_site_occupancy
  Ce  Ce0  1  0.250000  0.578630  0.700799  1
  Ce  Ce1  1  0.250000  0.920636  0.200594  1
  Ce  Ce2  1  0.750000  0.420899  0.299617  1
  Ce  Ce3  1  0.750000  0.075796  0.799683  1
  Ta  Ta4  1  0.250000  0.701162  0.994062  1
  Ta  Ta5  1  0.250000  0.798187  0.493431  1
  Ta  Ta6  1  0.750000  0.299360  0.007949  1
  Ta  Ta7  1  0.750000  0.201252  0.505654  1
  Co  Co8  1  0.250000  0.406478  0.484242  1
  Co  Co9  1  0.250000  0.092283  0.987500  1
  Co  Co10  1  0.750000  0.594321  0.513835  1
  Co  Co11  1  0.750000  0.904905  0.013771  1
  Co  Co12  1  0.250000  0.217175  0.174051  1
  Co  Co13  1  0.250000  0.284750  0.668468  1
  Co  Co14  1  0.750000  0.782572  0.826604  1
  Co  Co15  1  0.750000  0.717453  0.326924  1
  Co  Co16  1  0.250000  0.883747  0.702437  1
  Co  Co17  1  0.250000  0.616898  0.202842  1
  Co  Co18  1  0.750000  0.115570  0.297436  1
  Co  Co19  1  0.750000  0.384990  0.796760  1
  Co  Co20  1  0.250000  0.466656  0.932674  1
  Co  Co21  1  0.250000  0.035732  0.431296  1
  Co  Co22  1  0.750000  0.537084  0.070025  1
  Co  Co23  1  0.750000  0.964500  0.569158  1
  Si  Si24  1  0.250000  0.422991  0.116290  1
  Si  Si25  1  0.250000  0.078362  0.616343  1
  Si  Si26  1  0.750000  0.576898  0.884032  1
  Si  Si27  1  0.750000  0.922596  0.384343  1
  Si  Si28  1  0.250000  0.272765  0.855959  1
  P  P29  1  0.250000  0.225914  0.357255  1
  P  P30  1  0.750000  0.726529  0.142894  1
  P  P31  1  0.750000  0.773693  0.642347  1
  P  P32  1  0.250000  0.597819  0.392762  1
  P  P33  1  0.250000  0.902074  0.893443  1
  P  P34  1  0.750000  0.402190  0.607505  1
  P  P35  1  0.750000  0.097132  0.107012  1
