# generated using pymatgen
data_CaTb(Cu2P)4
_symmetry_space_group_name_H-M   'P 1'
_cell_length_a   7.26513126
_cell_length_b   7.26513126
_cell_length_c   3.80134900
_cell_angle_alpha   90.00000000
_cell_angle_beta   90.00000000
_cell_angle_gamma   89.52178269
_symmetry_Int_Tables_number   1
_chemical_formula_structural   CaTb(Cu2P)4
_chemical_formula_sum   'Ca1 Tb1 Cu8 P4'
_cell_volume   200.63631707
_cell_formula_units_Z   1
loop_
 _symmetry_equiv_pos_site_id
 _symmetry_equiv_pos_as_xyz
  1  'x, y, z'
loop_
 _atom_site_type_symbol
 _atom_site_label
 _atom_site_symmetry_multiplicity
 _atom_site_fract_x
 _atom_site_fract_y
 _atom_site_fract_z
 _atom_site_occupancy
  Ca  Ca0  1  0.500000  0.500000  0.500000  1
  Tb  Tb1  1  0.000000  0.000000  0.000000  1
  Cu  Cu2  1  0.664841  0.916200  0.500000  1
  Cu  Cu3  1  0.162824  0.584368  0.000000  1
  Cu  Cu4  1  0.415632  0.837176  0.000000  1
  Cu  Cu5  1  0.916200  0.664841  0.500000  1
  Cu  Cu6  1  0.837176  0.415632  0.000000  1
  Cu  Cu7  1  0.584368  0.162824  0.000000  1
  Cu  Cu8  1  0.083800  0.335159  0.500000  1
  Cu  Cu9  1  0.335159  0.083800  0.500000  1
  P  P10  1  0.281515  0.281515  0.000000  1
  P  P11  1  0.718485  0.718485  0.000000  1
  P  P12  1  0.785847  0.214153  0.500000  1
  P  P13  1  0.214153  0.785847  0.500000  1
