# generated using pymatgen
data_Nb3Al2NiN
_symmetry_space_group_name_H-M   'P 1'
_cell_length_a   8.21730887
_cell_length_b   8.21730920
_cell_length_c   8.21730990
_cell_angle_alpha   60.00139619
_cell_angle_beta   60.00139552
_cell_angle_gamma   60.00140601
_symmetry_Int_Tables_number   1
_chemical_formula_structural   Nb3Al2NiN
_chemical_formula_sum   'Nb12 Al8 Ni4 N4'
_cell_volume   392.36267375
_cell_formula_units_Z   4
loop_
 _symmetry_equiv_pos_site_id
 _symmetry_equiv_pos_as_xyz
  1  'x, y, z'
loop_
 _atom_site_type_symbol
 _atom_site_label
 _atom_site_symmetry_multiplicity
 _atom_site_fract_x
 _atom_site_fract_y
 _atom_site_fract_z
 _atom_site_occupancy
  Nb  Nb0  1  0.812499  0.812499  0.187752  1
  Nb  Nb1  1  0.187338  0.187338  0.812649  1
  Nb  Nb2  1  0.812499  0.187752  0.812499  1
  Nb  Nb3  1  0.187338  0.812649  0.187338  1
  Nb  Nb4  1  0.187752  0.812499  0.812499  1
  Nb  Nb5  1  0.812649  0.187338  0.187338  1
  Nb  Nb6  1  0.437501  0.437501  0.062248  1
  Nb  Nb7  1  0.062662  0.062662  0.437351  1
  Nb  Nb8  1  0.437501  0.062248  0.437501  1
  Nb  Nb9  1  0.062662  0.437351  0.062662  1
  Nb  Nb10  1  0.062248  0.437501  0.437501  1
  Nb  Nb11  1  0.437351  0.062662  0.062662  1
  Al  Al12  1  0.747860  0.417420  0.417420  1
  Al  Al13  1  0.417420  0.747860  0.417420  1
  Al  Al14  1  0.417420  0.417420  0.747860  1
  Al  Al15  1  0.417282  0.417282  0.417282  1
  Al  Al16  1  0.502140  0.832580  0.832580  1
  Al  Al17  1  0.832580  0.502140  0.832580  1
  Al  Al18  1  0.832580  0.832580  0.502140  1
  Al  Al19  1  0.832718  0.832718  0.832718  1
  Ni  Ni20  1  0.125000  0.625000  0.625000  1
  Ni  Ni21  1  0.625000  0.125000  0.625000  1
  Ni  Ni22  1  0.625000  0.625000  0.125000  1
  Ni  Ni23  1  0.625000  0.625000  0.625000  1
  N  N24  1  0.125000  0.125000  0.125000  1
  N  N25  1  0.625000  0.125000  0.125000  1
  N  N26  1  0.125000  0.625000  0.125000  1
  N  N27  1  0.125000  0.125000  0.625000  1
