# generated using pymatgen
data_Y7Ta(B6Os)4
_symmetry_space_group_name_H-M   'P 1'
_cell_length_a   3.62690600
_cell_length_b   9.11392839
_cell_length_c   11.48674238
_cell_angle_alpha   90.05629515
_cell_angle_beta   90.00000000
_cell_angle_gamma   90.00000000
_symmetry_Int_Tables_number   1
_chemical_formula_structural   Y7Ta(B6Os)4
_chemical_formula_sum   'Y7 Ta1 B24 Os4'
_cell_volume   379.69823949
_cell_formula_units_Z   1
loop_
 _symmetry_equiv_pos_site_id
 _symmetry_equiv_pos_as_xyz
  1  'x, y, z'
loop_
 _atom_site_type_symbol
 _atom_site_label
 _atom_site_symmetry_multiplicity
 _atom_site_fract_x
 _atom_site_fract_y
 _atom_site_fract_z
 _atom_site_occupancy
  Y  Y0  1  0.000000  0.322294  0.413824  1
  Y  Y1  1  0.000000  0.677992  0.587959  1
  Y  Y2  1  0.000000  0.821285  0.085343  1
  Y  Y3  1  0.000000  0.179054  0.912666  1
  Y  Y4  1  0.000000  0.944655  0.374153  1
  Y  Y5  1  0.000000  0.056215  0.627814  1
  Y  Y6  1  0.000000  0.445042  0.123416  1
  Ta  Ta7  1  0.000000  0.555965  0.874871  1
  B  B8  1  0.500000  0.553296  0.432543  1
  B  B9  1  0.500000  0.447596  0.568397  1
  B  B10  1  0.500000  0.053191  0.066066  1
  B  B11  1  0.500000  0.942961  0.933562  1
  B  B12  1  0.500000  0.747546  0.419476  1
  B  B13  1  0.500000  0.253641  0.582204  1
  B  B14  1  0.500000  0.248539  0.080082  1
  B  B15  1  0.500000  0.745299  0.918871  1
  B  B16  1  0.500000  0.791106  0.265609  1
  B  B17  1  0.500000  0.209969  0.736057  1
  B  B18  1  0.500000  0.291645  0.233115  1
  B  B19  1  0.500000  0.704219  0.765505  1
  B  B20  1  0.500000  0.630479  0.185336  1
  B  B21  1  0.500000  0.373980  0.816668  1
  B  B22  1  0.500000  0.132546  0.314448  1
  B  B23  1  0.500000  0.866173  0.685482  1
  B  B24  1  0.500000  0.983821  0.212478  1
  B  B25  1  0.500000  0.015111  0.788684  1
  B  B26  1  0.500000  0.482388  0.287134  1
  B  B27  1  0.500000  0.521078  0.713904  1
  B  B28  1  0.500000  0.602230  0.021531  1
  B  B29  1  0.500000  0.402853  0.966604  1
  B  B30  1  0.500000  0.111437  0.470756  1
  B  B31  1  0.500000  0.889105  0.531322  1
  Os  Os32  1  0.000000  0.637652  0.319097  1
  Os  Os33  1  0.000000  0.366228  0.684754  1
  Os  Os34  1  0.000000  0.139149  0.177173  1
  Os  Os35  1  0.000000  0.854265  0.823096  1
