# generated using pymatgen
data_Rb6LuNpF12
_symmetry_space_group_name_H-M   'P 1'
_cell_length_a   6.89536450
_cell_length_b   6.65737381
_cell_length_c   11.58245600
_cell_angle_alpha   55.29064705
_cell_angle_beta   90.14636880
_cell_angle_gamma   89.91618343
_symmetry_Int_Tables_number   1
_chemical_formula_structural   Rb6LuNpF12
_chemical_formula_sum   'Rb6 Lu1 Np1 F12'
_cell_volume   437.07452434
_cell_formula_units_Z   1
loop_
 _symmetry_equiv_pos_site_id
 _symmetry_equiv_pos_as_xyz
  1  'x, y, z'
loop_
 _atom_site_type_symbol
 _atom_site_label
 _atom_site_symmetry_multiplicity
 _atom_site_fract_x
 _atom_site_fract_y
 _atom_site_fract_z
 _atom_site_occupancy
  Rb  Rb0  1  0.500000  0.500000  0.000000  1
  Rb  Rb1  1  0.000000  0.500000  0.500000  1
  Rb  Rb2  1  0.047674  0.725533  0.761342  1
  Rb  Rb3  1  0.952326  0.274467  0.238658  1
  Rb  Rb4  1  0.550367  0.260084  0.754504  1
  Rb  Rb5  1  0.449633  0.739916  0.245496  1
  Lu  Lu6  1  0.000000  0.000000  0.000000  1
  Np  Np7  1  0.500000  0.000000  0.500000  1
  F  F8  1  0.774538  0.761088  0.572069  1
  F  F9  1  0.225462  0.238912  0.427931  1
  F  F10  1  0.254580  0.223092  0.938986  1
  F  F11  1  0.745420  0.776908  0.061014  1
  F  F12  1  0.444671  0.884565  0.725759  1
  F  F13  1  0.555329  0.115435  0.274241  1
  F  F14  1  0.950868  0.109139  0.789421  1
  F  F15  1  0.049132  0.890861  0.210579  1
  F  F16  1  0.325446  0.667155  0.550762  1
  F  F17  1  0.674554  0.332845  0.449238  1
  F  F18  1  0.828892  0.303893  0.956732  1
  F  F19  1  0.171108  0.696107  0.043268  1
