# generated using pymatgen
data_La2Pr(InPt)3
_symmetry_space_group_name_H-M   'P 1'
_cell_length_a   7.78589170
_cell_length_b   7.78589145
_cell_length_c   4.15478900
_cell_angle_alpha   90.00000000
_cell_angle_beta   90.00000000
_cell_angle_gamma   120.38828816
_symmetry_Int_Tables_number   1
_chemical_formula_structural   La2Pr(InPt)3
_chemical_formula_sum   'La2 Pr1 In3 Pt3'
_cell_volume   217.26198046
_cell_formula_units_Z   1
loop_
 _symmetry_equiv_pos_site_id
 _symmetry_equiv_pos_as_xyz
  1  'x, y, z'
loop_
 _atom_site_type_symbol
 _atom_site_label
 _atom_site_symmetry_multiplicity
 _atom_site_fract_x
 _atom_site_fract_y
 _atom_site_fract_z
 _atom_site_occupancy
  La  La0  1  0.000075  0.588772  0.500000  1
  La  La1  1  0.588772  0.000075  0.500000  1
  Pr  Pr2  1  0.409789  0.409789  0.500000  1
  In  In3  1  0.751021  0.751021  0.000000  1
  In  In4  1  0.247542  0.001669  0.000000  1
  In  In5  1  0.001669  0.247542  0.000000  1
  Pt  Pt6  1  0.668104  0.332888  0.000000  1
  Pt  Pt7  1  0.332888  0.668104  0.000000  1
  Pt  Pt8  1  0.000140  0.000140  0.500000  1
