# generated using pymatgen
data_Cs6U3Bi2(PS4)8
_symmetry_space_group_name_H-M   'P 1'
_cell_length_a   15.24913542
_cell_length_b   15.24785986
_cell_length_c   18.26988631
_cell_angle_alpha   65.33608438
_cell_angle_beta   65.29365527
_cell_angle_gamma   60.00276977
_symmetry_Int_Tables_number   1
_chemical_formula_structural   Cs6U3Bi2(PS4)8
_chemical_formula_sum   'Cs12 U6 Bi4 P16 S64'
_cell_volume   3222.95708612
_cell_formula_units_Z   2
loop_
 _symmetry_equiv_pos_site_id
 _symmetry_equiv_pos_as_xyz
  1  'x, y, z'
loop_
 _atom_site_type_symbol
 _atom_site_label
 _atom_site_symmetry_multiplicity
 _atom_site_fract_x
 _atom_site_fract_y
 _atom_site_fract_z
 _atom_site_occupancy
  Cs  Cs0  1  0.863680  0.238575  0.588781  1
  Cs  Cs1  1  0.238413  0.309053  0.588863  1
  Cs  Cs2  1  0.309075  0.863688  0.588790  1
  Cs  Cs3  1  0.363680  0.808965  0.088781  1
  Cs  Cs4  1  0.809075  0.738447  0.088790  1
  Cs  Cs5  1  0.738413  0.363672  0.088863  1
  Cs  Cs6  1  0.136320  0.761460  0.411208  1
  Cs  Cs7  1  0.761592  0.690944  0.411122  1
  Cs  Cs8  1  0.690949  0.136282  0.411224  1
  Cs  Cs9  1  0.636320  0.191013  0.911208  1
  Cs  Cs10  1  0.190949  0.261546  0.911224  1
  Cs  Cs11  1  0.261592  0.636341  0.911122  1
  U  U12  1  0.082072  0.249890  0.250090  1
  U  U13  1  0.249953  0.417698  0.250028  1
  U  U14  1  0.417840  0.082102  0.249926  1
  U  U15  1  0.582072  0.917947  0.750090  1
  U  U16  1  0.917841  0.750131  0.749926  1
  U  U17  1  0.749953  0.582319  0.750028  1
  Bi  Bi18  1  0.459267  0.459128  0.622466  1
  Bi  Bi19  1  0.959267  0.959139  0.122466  1
  Bi  Bi20  1  0.540746  0.540856  0.377530  1
  Bi  Bi21  1  0.040746  0.040868  0.877530  1
  P  P22  1  0.194185  0.194275  0.417270  1
  P  P23  1  0.694185  0.694270  0.917270  1
  P  P24  1  0.805856  0.805711  0.582747  1
  P  P25  1  0.305856  0.305687  0.082747  1
  P  P26  1  0.537765  0.185432  0.668403  1
  P  P27  1  0.185444  0.608388  0.668444  1
  P  P28  1  0.608465  0.537755  0.668472  1
  P  P29  1  0.037765  0.108402  0.168403  1
  P  P30  1  0.108465  0.685308  0.168472  1
  P  P31  1  0.685444  0.037722  0.168444  1
  P  P32  1  0.462239  0.814614  0.331590  1
  P  P33  1  0.814512  0.391642  0.331555  1
  P  P34  1  0.391563  0.462233  0.331514  1
  P  P35  1  0.962239  0.891558  0.831590  1
  P  P36  1  0.891563  0.314690  0.831514  1
  P  P37  1  0.314512  0.962291  0.831555  1
  S  S38  1  0.089061  0.336604  0.362093  1
  S  S39  1  0.336467  0.212450  0.361953  1
  S  S40  1  0.212382  0.088943  0.362047  1
  S  S41  1  0.589061  0.712242  0.862093  1
  S  S42  1  0.712382  0.836628  0.862047  1
  S  S43  1  0.836467  0.589129  0.861953  1
  S  S44  1  0.910952  0.663389  0.637965  1
  S  S45  1  0.663570  0.787533  0.638044  1
  S  S46  1  0.787655  0.911052  0.637946  1
  S  S47  1  0.410952  0.287695  0.137965  1
  S  S48  1  0.287655  0.163347  0.137946  1
  S  S49  1  0.163570  0.410852  0.138044  1
  S  S50  1  0.900895  0.232245  0.368558  1
  S  S51  1  0.232227  0.498181  0.368529  1
  S  S52  1  0.498253  0.901155  0.368472  1
  S  S53  1  0.400895  0.998301  0.868558  1
  S  S54  1  0.998253  0.732119  0.868472  1
  S  S55  1  0.732227  0.401064  0.868529  1
  S  S56  1  0.099059  0.767767  0.631454  1
  S  S57  1  0.767811  0.501816  0.631493  1
  S  S58  1  0.501732  0.098918  0.631521  1
  S  S59  1  0.599059  0.001720  0.131454  1
  S  S60  1  0.001732  0.267829  0.131521  1
  S  S61  1  0.267811  0.598880  0.131493  1
  S  S62  1  0.400049  0.296571  0.720747  1
  S  S63  1  0.296656  0.582629  0.720719  1
  S  S64  1  0.582694  0.399954  0.720733  1
  S  S65  1  0.900049  0.082634  0.220747  1
  S  S66  1  0.082694  0.796619  0.220733  1
  S  S67  1  0.796656  0.899997  0.220719  1
  S  S68  1  0.599961  0.703462  0.279274  1
  S  S69  1  0.703317  0.417379  0.279271  1
  S  S70  1  0.417335  0.600037  0.279255  1
  S  S71  1  0.099961  0.917303  0.779274  1
  S  S72  1  0.917335  0.203374  0.779255  1
  S  S73  1  0.203317  0.100033  0.779270  1
  S  S74  1  0.623045  0.263396  0.570356  1
  S  S75  1  0.263505  0.543123  0.570410  1
  S  S76  1  0.543403  0.623006  0.570410  1
  S  S77  1  0.123045  0.043203  0.070356  1
  S  S78  1  0.043403  0.763180  0.070410  1
  S  S79  1  0.763505  0.122962  0.070410  1
  S  S80  1  0.376950  0.736660  0.429640  1
  S  S81  1  0.736453  0.456890  0.429597  1
  S  S82  1  0.456639  0.376982  0.429569  1
  S  S83  1  0.876950  0.956750  0.929640  1
  S  S84  1  0.956639  0.236811  0.929569  1
  S  S85  1  0.236453  0.877060  0.929597  1
  S  S86  1  0.612645  0.077955  0.759976  1
  S  S87  1  0.077743  0.549678  0.759950  1
  S  S88  1  0.549776  0.612593  0.760058  1
  S  S89  1  0.112645  0.049424  0.259976  1
  S  S90  1  0.049776  0.577573  0.260058  1
  S  S91  1  0.577743  0.112629  0.259949  1
  S  S92  1  0.387345  0.922087  0.240019  1
  S  S93  1  0.922202  0.450358  0.240061  1
  S  S94  1  0.450178  0.387397  0.239945  1
  S  S95  1  0.887345  0.950551  0.740019  1
  S  S96  1  0.950178  0.422478  0.739945  1
  S  S97  1  0.422202  0.887378  0.740061  1
  S  S98  1  0.153044  0.153139  0.540758  1
  S  S99  1  0.653044  0.653059  0.040758  1
  S  S100  1  0.847022  0.846818  0.459256  1
  S  S101  1  0.347022  0.346904  0.959256  1
