# generated using pymatgen
data_TbDyB6Ir7Rh2
_symmetry_space_group_name_H-M   'P 1'
_cell_length_a   5.63323426
_cell_length_b   5.63323318
_cell_length_c   8.64582200
_cell_angle_alpha   90.00000000
_cell_angle_beta   90.00000000
_cell_angle_gamma   119.82338117
_symmetry_Int_Tables_number   1
_chemical_formula_structural   TbDyB6Ir7Rh2
_chemical_formula_sum   'Tb1 Dy1 B6 Ir7 Rh2'
_cell_volume   238.02503646
_cell_formula_units_Z   1
loop_
 _symmetry_equiv_pos_site_id
 _symmetry_equiv_pos_as_xyz
  1  'x, y, z'
loop_
 _atom_site_type_symbol
 _atom_site_label
 _atom_site_symmetry_multiplicity
 _atom_site_fract_x
 _atom_site_fract_y
 _atom_site_fract_z
 _atom_site_occupancy
  Tb  Tb0  1  0.000000  0.000000  0.700675  1
  Dy  Dy1  1  0.000000  0.000000  0.299293  1
  B  B2  1  0.667539  0.332461  0.000031  1
  B  B3  1  0.332461  0.667539  0.000031  1
  B  B4  1  0.666830  0.333170  0.667961  1
  B  B5  1  0.333170  0.666830  0.667961  1
  B  B6  1  0.333172  0.666828  0.332010  1
  B  B7  1  0.666828  0.333172  0.332010  1
  Ir  Ir8  1  0.500000  0.000000  0.836363  1
  Ir  Ir9  1  0.000000  0.500000  0.836363  1
  Ir  Ir10  1  0.500000  0.000000  0.163718  1
  Ir  Ir11  1  0.000000  0.500000  0.163718  1
  Ir  Ir12  1  0.500000  0.500000  0.499934  1
  Ir  Ir13  1  0.500000  0.000000  0.499933  1
  Ir  Ir14  1  0.000000  0.500000  0.499933  1
  Rh  Rh15  1  0.500000  0.500000  0.836582  1
  Rh  Rh16  1  0.500000  0.500000  0.163485  1
