# generated using pymatgen
data_TbDy13Rh6
_symmetry_space_group_name_H-M   'P 1'
_cell_length_a   9.80618600
_cell_length_b   9.80596778
_cell_length_c   6.19232415
_cell_angle_alpha   89.97818983
_cell_angle_beta   90.00000000
_cell_angle_gamma   120.00073617
_symmetry_Int_Tables_number   1
_chemical_formula_structural   TbDy13Rh6
_chemical_formula_sum   'Tb1 Dy13 Rh6'
_cell_volume   515.66972959
_cell_formula_units_Z   1
loop_
 _symmetry_equiv_pos_site_id
 _symmetry_equiv_pos_as_xyz
  1  'x, y, z'
loop_
 _atom_site_type_symbol
 _atom_site_label
 _atom_site_symmetry_multiplicity
 _atom_site_fract_x
 _atom_site_fract_y
 _atom_site_fract_z
 _atom_site_occupancy
  Tb  Tb0  1  0.459390  0.918780  0.945261  1
  Dy  Dy1  1  0.333293  0.666586  0.456628  1
  Dy  Dy2  1  0.666701  0.333400  0.956727  1
  Dy  Dy3  1  0.123826  0.876138  0.253962  1
  Dy  Dy4  1  0.752312  0.876138  0.253962  1
  Dy  Dy5  1  0.123843  0.247685  0.253957  1
  Dy  Dy6  1  0.876185  0.123892  0.753932  1
  Dy  Dy7  1  0.247707  0.123892  0.753932  1
  Dy  Dy8  1  0.876145  0.752290  0.753948  1
  Dy  Dy9  1  0.540712  0.459350  0.445046  1
  Dy  Dy10  1  0.918638  0.459350  0.445046  1
  Dy  Dy11  1  0.540720  0.081440  0.445010  1
  Dy  Dy12  1  0.459337  0.540547  0.945025  1
  Dy  Dy13  1  0.081210  0.540547  0.945025  1
  Rh  Rh14  1  0.810187  0.190035  0.179923  1
  Rh  Rh15  1  0.379850  0.190035  0.179923  1
  Rh  Rh16  1  0.810036  0.620072  0.179902  1
  Rh  Rh17  1  0.189697  0.809952  0.679725  1
  Rh  Rh18  1  0.620254  0.809952  0.679725  1
  Rh  Rh19  1  0.189958  0.379916  0.679904  1
