# generated using pymatgen
data_Tb5LuSi24Os5Ru3
_symmetry_space_group_name_H-M   'P 1'
_cell_length_a   10.11990766
_cell_length_b   10.11990949
_cell_length_c   8.16478855
_cell_angle_alpha   90.01678362
_cell_angle_beta   90.01681334
_cell_angle_gamma   132.42517251
_symmetry_Int_Tables_number   1
_chemical_formula_structural   Tb5LuSi24Os5Ru3
_chemical_formula_sum   'Tb5 Lu1 Si24 Os5 Ru3'
_cell_volume   617.23129253
_cell_formula_units_Z   1
loop_
 _symmetry_equiv_pos_site_id
 _symmetry_equiv_pos_as_xyz
  1  'x, y, z'
loop_
 _atom_site_type_symbol
 _atom_site_label
 _atom_site_symmetry_multiplicity
 _atom_site_fract_x
 _atom_site_fract_y
 _atom_site_fract_z
 _atom_site_occupancy
  Tb  Tb0  1  0.999934  0.999934  0.999641  1
  Tb  Tb1  1  0.501863  0.001698  0.749346  1
  Tb  Tb2  1  0.998141  0.498232  0.250636  1
  Tb  Tb3  1  0.498232  0.998141  0.250636  1
  Tb  Tb4  1  0.001698  0.501862  0.749345  1
  Lu  Lu5  1  0.499526  0.499526  0.500109  1
  Si  Si6  1  0.795324  0.204907  0.500169  1
  Si  Si7  1  0.296084  0.703894  0.000153  1
  Si  Si8  1  0.204907  0.795324  0.500170  1
  Si  Si9  1  0.703894  0.296084  0.000153  1
  Si  Si10  1  0.332950  0.332950  0.833186  1
  Si  Si11  1  0.667526  0.667526  0.167290  1
  Si  Si12  1  0.166422  0.166422  0.331280  1
  Si  Si13  1  0.831192  0.831192  0.666117  1
  Si  Si14  1  0.120603  0.886341  0.727831  1
  Si  Si15  1  0.114004  0.880343  0.272271  1
  Si  Si16  1  0.610442  0.378058  0.228813  1
  Si  Si17  1  0.622543  0.389641  0.771411  1
  Si  Si18  1  0.880343  0.114004  0.272271  1
  Si  Si19  1  0.886341  0.120604  0.727831  1
  Si  Si20  1  0.389641  0.622544  0.771411  1
  Si  Si21  1  0.378058  0.610442  0.228813  1
  Si  Si22  1  0.345169  0.111992  0.504298  1
  Si  Si23  1  0.887852  0.655346  0.496215  1
  Si  Si24  1  0.388015  0.155001  0.005755  1
  Si  Si25  1  0.844923  0.612469  0.994713  1
  Si  Si26  1  0.655346  0.887852  0.496215  1
  Si  Si27  1  0.111992  0.345169  0.504298  1
  Si  Si28  1  0.612469  0.844923  0.994713  1
  Si  Si29  1  0.155001  0.388015  0.005755  1
  Os  Os30  1  0.668382  0.331713  0.499915  1
  Os  Os31  1  0.169883  0.829941  0.000009  1
  Os  Os32  1  0.331713  0.668382  0.499915  1
  Os  Os33  1  0.829941  0.169884  0.000008  1
  Os  Os34  1  0.127858  0.127857  0.625020  1
  Ru  Ru35  1  0.871990  0.871990  0.374649  1
  Ru  Ru36  1  0.374056  0.374056  0.129441  1
  Ru  Ru37  1  0.625744  0.625743  0.870201  1
