# generated using pymatgen
data_EuTh2Se5
_symmetry_space_group_name_H-M   'P 1'
_cell_length_a   7.92952000
_cell_length_b   8.69426732
_cell_length_c   12.64339570
_cell_angle_alpha   89.85466462
_cell_angle_beta   90.00000000
_cell_angle_gamma   90.00000000
_symmetry_Int_Tables_number   1
_chemical_formula_structural   EuTh2Se5
_chemical_formula_sum   'Eu4 Th8 Se20'
_cell_volume   871.65017406
_cell_formula_units_Z   4
loop_
 _symmetry_equiv_pos_site_id
 _symmetry_equiv_pos_as_xyz
  1  'x, y, z'
loop_
 _atom_site_type_symbol
 _atom_site_label
 _atom_site_symmetry_multiplicity
 _atom_site_fract_x
 _atom_site_fract_y
 _atom_site_fract_z
 _atom_site_occupancy
  Eu  Eu0  1  0.968726  0.504547  0.824015  1
  Eu  Eu1  1  0.468726  0.495453  0.675985  1
  Eu  Eu2  1  0.031274  0.495453  0.175985  1
  Eu  Eu3  1  0.531274  0.504547  0.324015  1
  Th  Th4  1  0.575638  0.252808  0.008765  1
  Th  Th5  1  0.924362  0.252808  0.508765  1
  Th  Th6  1  0.424362  0.747192  0.991235  1
  Th  Th7  1  0.075638  0.747192  0.491235  1
  Th  Th8  1  0.518079  0.001631  0.320346  1
  Th  Th9  1  0.018079  0.998369  0.179654  1
  Th  Th10  1  0.481921  0.998369  0.679654  1
  Th  Th11  1  0.981921  0.001631  0.820346  1
  Se  Se12  1  0.839129  0.956242  0.601697  1
  Se  Se13  1  0.825822  0.771302  0.314998  1
  Se  Se14  1  0.674178  0.771302  0.814998  1
  Se  Se15  1  0.174178  0.228698  0.685002  1
  Se  Se16  1  0.540747  0.226405  0.501173  1
  Se  Se17  1  0.040747  0.773595  0.998827  1
  Se  Se18  1  0.459253  0.773595  0.498827  1
  Se  Se19  1  0.959253  0.226405  0.001173  1
  Se  Se20  1  0.198965  0.759810  0.717279  1
  Se  Se21  1  0.698965  0.240190  0.782721  1
  Se  Se22  1  0.801035  0.240190  0.282721  1
  Se  Se23  1  0.660871  0.956242  0.101697  1
  Se  Se24  1  0.828024  0.543163  0.592343  1
  Se  Se25  1  0.328024  0.456837  0.907657  1
  Se  Se26  1  0.171976  0.456837  0.407657  1
  Se  Se27  1  0.671976  0.543163  0.092343  1
  Se  Se28  1  0.301035  0.759810  0.217279  1
  Se  Se29  1  0.339129  0.043758  0.898303  1
  Se  Se30  1  0.160871  0.043758  0.398303  1
  Se  Se31  1  0.325822  0.228698  0.185002  1
