# generated using pymatgen
data_Y3Tm5B24Rh3W
_symmetry_space_group_name_H-M   'P 1'
_cell_length_a   3.64191500
_cell_length_b   9.14747184
_cell_length_c   11.52428119
_cell_angle_alpha   90.22909009
_cell_angle_beta   90.00000000
_cell_angle_gamma   90.00000000
_symmetry_Int_Tables_number   1
_chemical_formula_structural   Y3Tm5B24Rh3W
_chemical_formula_sum   'Y3 Tm5 B24 Rh3 W1'
_cell_volume   383.92046350
_cell_formula_units_Z   1
loop_
 _symmetry_equiv_pos_site_id
 _symmetry_equiv_pos_as_xyz
  1  'x, y, z'
loop_
 _atom_site_type_symbol
 _atom_site_label
 _atom_site_symmetry_multiplicity
 _atom_site_fract_x
 _atom_site_fract_y
 _atom_site_fract_z
 _atom_site_occupancy
  Y  Y0  1  0.500000  0.318895  0.410941  1
  Y  Y1  1  0.500000  0.677018  0.585105  1
  Y  Y2  1  0.500000  0.179031  0.916307  1
  Tm  Tm3  1  0.500000  0.823229  0.086694  1
  Tm  Tm4  1  0.500000  0.445785  0.125564  1
  Tm  Tm5  1  0.500000  0.557738  0.871708  1
  Tm  Tm6  1  0.500000  0.055740  0.629262  1
  Tm  Tm7  1  0.500000  0.944261  0.374338  1
  B  B8  1  0.000000  0.104733  0.473360  1
  B  B9  1  0.000000  0.893569  0.530178  1
  B  B10  1  0.000000  0.397151  0.969528  1
  B  B11  1  0.000000  0.608435  0.028275  1
  B  B12  1  0.000000  0.130976  0.317211  1
  B  B13  1  0.000000  0.867399  0.684113  1
  B  B14  1  0.000000  0.369475  0.815935  1
  B  B15  1  0.000000  0.633243  0.183197  1
  B  B16  1  0.000000  0.050811  0.064893  1
  B  B17  1  0.000000  0.945639  0.933376  1
  B  B18  1  0.000000  0.444582  0.565870  1
  B  B19  1  0.000000  0.553151  0.433220  1
  B  B20  1  0.000000  0.483832  0.286573  1
  B  B21  1  0.000000  0.517058  0.712494  1
  B  B22  1  0.000000  0.016979  0.787206  1
  B  B23  1  0.000000  0.978681  0.214195  1
  B  B24  1  0.000000  0.252241  0.078899  1
  B  B25  1  0.000000  0.751198  0.919907  1
  B  B26  1  0.000000  0.249258  0.580121  1
  B  B27  1  0.000000  0.749032  0.420417  1
  B  B28  1  0.000000  0.295768  0.235422  1
  B  B29  1  0.000000  0.706390  0.764131  1
  B  B30  1  0.000000  0.207843  0.735710  1
  B  B31  1  0.000000  0.792151  0.265807  1
  Rh  Rh32  1  0.500000  0.860787  0.820836  1
  Rh  Rh33  1  0.500000  0.360683  0.679752  1
  Rh  Rh34  1  0.500000  0.639491  0.320231  1
  W  W35  1  0.500000  0.137744  0.179225  1
