# generated using pymatgen
data_Y3Sc3Sn6Pt5Rh
_symmetry_space_group_name_H-M   'P 1'
_cell_length_a   7.55881800
_cell_length_b   7.55881814
_cell_length_c   7.55432700
_cell_angle_alpha   90.00000000
_cell_angle_beta   90.00000000
_cell_angle_gamma   120.00000812
_symmetry_Int_Tables_number   1
_chemical_formula_structural   Y3Sc3Sn6Pt5Rh
_chemical_formula_sum   'Y3 Sc3 Sn6 Pt5 Rh1'
_cell_volume   373.79557993
_cell_formula_units_Z   1
loop_
 _symmetry_equiv_pos_site_id
 _symmetry_equiv_pos_as_xyz
  1  'x, y, z'
loop_
 _atom_site_type_symbol
 _atom_site_label
 _atom_site_symmetry_multiplicity
 _atom_site_fract_x
 _atom_site_fract_y
 _atom_site_fract_z
 _atom_site_occupancy
  Y  Y0  1  0.402682  0.995566  0.750000  1
  Y  Y1  1  0.592884  0.597318  0.750000  1
  Y  Y2  1  0.004434  0.407116  0.750000  1
  Sc  Sc3  1  0.392073  0.004430  0.250000  1
  Sc  Sc4  1  0.612357  0.607927  0.250000  1
  Sc  Sc5  1  0.995570  0.387643  0.250000  1
  Sn  Sn6  1  0.265951  0.267699  0.012454  1
  Sn  Sn7  1  0.001748  0.734049  0.012454  1
  Sn  Sn8  1  0.001748  0.734049  0.487546  1
  Sn  Sn9  1  0.732301  0.998252  0.487546  1
  Sn  Sn10  1  0.265951  0.267699  0.487546  1
  Sn  Sn11  1  0.732301  0.998252  0.012454  1
  Pt  Pt12  1  0.000000  0.000000  0.750000  1
  Pt  Pt13  1  0.666667  0.333333  0.021967  1
  Pt  Pt14  1  0.333333  0.666667  0.460415  1
  Pt  Pt15  1  0.333333  0.666667  0.039585  1
  Pt  Pt16  1  0.666667  0.333333  0.478033  1
  Rh  Rh17  1  0.000000  0.000000  0.250000  1
