# generated using pymatgen
data_La9Pr6Th(HgIr)4
_symmetry_space_group_name_H-M   'P 1'
_cell_length_a   10.07791468
_cell_length_b   10.07791385
_cell_length_c   10.07791363
_cell_angle_alpha   59.96391859
_cell_angle_beta   59.96391220
_cell_angle_gamma   59.96391925
_symmetry_Int_Tables_number   1
_chemical_formula_structural   La9Pr6Th(HgIr)4
_chemical_formula_sum   'La9 Pr6 Th1 Hg4 Ir4'
_cell_volume   723.17171449
_cell_formula_units_Z   1
loop_
 _symmetry_equiv_pos_site_id
 _symmetry_equiv_pos_as_xyz
  1  'x, y, z'
loop_
 _atom_site_type_symbol
 _atom_site_label
 _atom_site_symmetry_multiplicity
 _atom_site_fract_x
 _atom_site_fract_y
 _atom_site_fract_z
 _atom_site_occupancy
  La  La0  1  0.348826  0.348826  0.955518  1
  La  La1  1  0.348826  0.955518  0.348826  1
  La  La2  1  0.955518  0.348826  0.348826  1
  La  La3  1  0.809593  0.190367  0.190367  1
  La  La4  1  0.191248  0.805974  0.805974  1
  La  La5  1  0.190367  0.809593  0.190367  1
  La  La6  1  0.805974  0.191248  0.805974  1
  La  La7  1  0.190367  0.190367  0.809593  1
  La  La8  1  0.805974  0.805974  0.191248  1
  Pr  Pr9  1  0.940901  0.562712  0.562712  1
  Pr  Pr10  1  0.560090  0.937221  0.937221  1
  Pr  Pr11  1  0.562712  0.940901  0.562712  1
  Pr  Pr12  1  0.937221  0.560090  0.937221  1
  Pr  Pr13  1  0.562712  0.562712  0.940901  1
  Pr  Pr14  1  0.937221  0.937221  0.560090  1
  Th  Th15  1  0.345826  0.345826  0.345826  1
  Hg  Hg16  1  0.584744  0.584744  0.584744  1
  Hg  Hg17  1  0.583332  0.583332  0.246667  1
  Hg  Hg18  1  0.583332  0.246667  0.583332  1
  Hg  Hg19  1  0.246667  0.583332  0.583332  1
  Ir  Ir20  1  0.141484  0.141484  0.141484  1
  Ir  Ir21  1  0.147048  0.147048  0.572965  1
  Ir  Ir22  1  0.147048  0.572965  0.147048  1
  Ir  Ir23  1  0.572965  0.147048  0.147048  1
