# generated using pymatgen
data_Li2La4Zn2IrPd3
_symmetry_space_group_name_H-M   'P 1'
_cell_length_a   7.37053094
_cell_length_b   4.15742500
_cell_length_c   8.62436373
_cell_angle_alpha   90.00000000
_cell_angle_beta   90.50898790
_cell_angle_gamma   90.00000000
_symmetry_Int_Tables_number   1
_chemical_formula_structural   Li2La4Zn2IrPd3
_chemical_formula_sum   'Li2 La4 Zn2 Ir1 Pd3'
_cell_volume   264.26103097
_cell_formula_units_Z   1
loop_
 _symmetry_equiv_pos_site_id
 _symmetry_equiv_pos_as_xyz
  1  'x, y, z'
loop_
 _atom_site_type_symbol
 _atom_site_label
 _atom_site_symmetry_multiplicity
 _atom_site_fract_x
 _atom_site_fract_y
 _atom_site_fract_z
 _atom_site_occupancy
  Li  Li0  1  0.627077  0.250000  0.554228  1
  Li  Li1  1  0.132125  0.250000  0.942017  1
  La  La2  1  0.046757  0.250000  0.318762  1
  La  La3  1  0.541470  0.250000  0.188021  1
  La  La4  1  0.971778  0.750000  0.694412  1
  La  La5  1  0.453495  0.750000  0.796113  1
  Zn  Zn6  1  0.364261  0.750000  0.438005  1
  Zn  Zn7  1  0.865380  0.750000  0.062896  1
  Ir  Ir8  1  0.252887  0.250000  0.613883  1
  Pd  Pd9  1  0.755586  0.250000  0.891602  1
  Pd  Pd10  1  0.745557  0.750000  0.381611  1
  Pd  Pd11  1  0.243629  0.750000  0.118449  1
