# generated using pymatgen
data_Tm2TcB6
_symmetry_space_group_name_H-M   'P 1'
_cell_length_a   3.63931900
_cell_length_b   9.09074300
_cell_length_c   11.45369300
_cell_angle_alpha   90.00000000
_cell_angle_beta   90.00000000
_cell_angle_gamma   90.00000000
_symmetry_Int_Tables_number   1
_chemical_formula_structural   Tm2TcB6
_chemical_formula_sum   'Tm8 Tc4 B24'
_cell_volume   378.93528177
_cell_formula_units_Z   4
loop_
 _symmetry_equiv_pos_site_id
 _symmetry_equiv_pos_as_xyz
  1  'x, y, z'
loop_
 _atom_site_type_symbol
 _atom_site_label
 _atom_site_symmetry_multiplicity
 _atom_site_fract_x
 _atom_site_fract_y
 _atom_site_fract_z
 _atom_site_occupancy
  Tm  Tm0  1  0.000000  0.323551  0.414048  1
  Tm  Tm1  1  0.000000  0.676449  0.585952  1
  Tm  Tm2  1  0.000000  0.823551  0.085952  1
  Tm  Tm3  1  0.000000  0.176449  0.914048  1
  Tm  Tm4  1  0.000000  0.943391  0.369794  1
  Tm  Tm5  1  0.000000  0.056609  0.630206  1
  Tm  Tm6  1  0.000000  0.443391  0.130206  1
  Tm  Tm7  1  0.000000  0.556609  0.869794  1
  Tc  Tc8  1  0.000000  0.639200  0.320563  1
  Tc  Tc9  1  0.000000  0.360800  0.679437  1
  Tc  Tc10  1  0.000000  0.139200  0.179437  1
  Tc  Tc11  1  0.000000  0.860800  0.820563  1
  B  B12  1  0.500000  0.553443  0.433385  1
  B  B13  1  0.500000  0.446557  0.566615  1
  B  B14  1  0.500000  0.053443  0.066615  1
  B  B15  1  0.500000  0.946557  0.933385  1
  B  B16  1  0.500000  0.749971  0.419541  1
  B  B17  1  0.500000  0.250029  0.580459  1
  B  B18  1  0.500000  0.249971  0.080459  1
  B  B19  1  0.500000  0.750029  0.919541  1
  B  B20  1  0.500000  0.793166  0.265138  1
  B  B21  1  0.500000  0.206834  0.734862  1
  B  B22  1  0.500000  0.293166  0.234862  1
  B  B23  1  0.500000  0.706834  0.765138  1
  B  B24  1  0.500000  0.631291  0.185008  1
  B  B25  1  0.500000  0.368709  0.814992  1
  B  B26  1  0.500000  0.131291  0.314992  1
  B  B27  1  0.500000  0.868709  0.685008  1
  B  B28  1  0.500000  0.981898  0.211809  1
  B  B29  1  0.500000  0.018102  0.788191  1
  B  B30  1  0.500000  0.481898  0.288191  1
  B  B31  1  0.500000  0.518102  0.711809  1
  B  B32  1  0.500000  0.600151  0.027971  1
  B  B33  1  0.500000  0.399849  0.972029  1
  B  B34  1  0.500000  0.100151  0.472029  1
  B  B35  1  0.500000  0.899849  0.527971  1
