# generated using pymatgen
data_YHo7Cu3Si12Pd
_symmetry_space_group_name_H-M   'P 1'
_cell_length_a   8.01006600
_cell_length_b   8.01006494
_cell_length_c   8.07727400
_cell_angle_alpha   90.00000000
_cell_angle_beta   90.00000000
_cell_angle_gamma   119.99999610
_symmetry_Int_Tables_number   1
_chemical_formula_structural   YHo7Cu3Si12Pd
_chemical_formula_sum   'Y1 Ho7 Cu3 Si12 Pd1'
_cell_volume   448.81524056
_cell_formula_units_Z   1
loop_
 _symmetry_equiv_pos_site_id
 _symmetry_equiv_pos_as_xyz
  1  'x, y, z'
loop_
 _atom_site_type_symbol
 _atom_site_label
 _atom_site_symmetry_multiplicity
 _atom_site_fract_x
 _atom_site_fract_y
 _atom_site_fract_z
 _atom_site_occupancy
  Y  Y0  1  0.000000  0.000000  0.750760  1
  Ho  Ho1  1  0.500931  0.001862  0.249257  1
  Ho  Ho2  1  0.500402  0.000804  0.750752  1
  Ho  Ho3  1  0.998138  0.499069  0.249257  1
  Ho  Ho4  1  0.999196  0.499598  0.750752  1
  Ho  Ho5  1  0.500931  0.499069  0.249257  1
  Ho  Ho6  1  0.500402  0.499598  0.750752  1
  Ho  Ho7  1  0.000000  0.000000  0.249205  1
  Cu  Cu8  1  0.333333  0.666667  0.002534  1
  Cu  Cu9  1  0.666667  0.333333  0.997801  1
  Cu  Cu10  1  0.666667  0.333333  0.500848  1
  Si  Si11  1  0.169620  0.339240  0.999847  1
  Si  Si12  1  0.830881  0.661761  0.000427  1
  Si  Si13  1  0.660760  0.830380  0.999847  1
  Si  Si14  1  0.831090  0.662179  0.500189  1
  Si  Si15  1  0.338239  0.169119  0.000427  1
  Si  Si16  1  0.166064  0.332128  0.499500  1
  Si  Si17  1  0.169620  0.830380  0.999847  1
  Si  Si18  1  0.337821  0.168910  0.500189  1
  Si  Si19  1  0.830881  0.169119  0.000427  1
  Si  Si20  1  0.667872  0.833936  0.499500  1
  Si  Si21  1  0.831090  0.168910  0.500189  1
  Si  Si22  1  0.166064  0.833936  0.499500  1
  Pd  Pd23  1  0.333333  0.666667  0.498937  1
