# generated using pymatgen
data_Ca2TbHo(BO4)2
_symmetry_space_group_name_H-M   'P 1'
_cell_length_a   3.61731100
_cell_length_b   9.67989836
_cell_length_c   10.52867695
_cell_angle_alpha   89.86848590
_cell_angle_beta   90.00000000
_cell_angle_gamma   90.00000000
_symmetry_Int_Tables_number   1
_chemical_formula_structural   Ca2TbHo(BO4)2
_chemical_formula_sum   'Ca4 Tb2 Ho2 B4 O16'
_cell_volume   368.66278763
_cell_formula_units_Z   2
loop_
 _symmetry_equiv_pos_site_id
 _symmetry_equiv_pos_as_xyz
  1  'x, y, z'
loop_
 _atom_site_type_symbol
 _atom_site_label
 _atom_site_symmetry_multiplicity
 _atom_site_fract_x
 _atom_site_fract_y
 _atom_site_fract_z
 _atom_site_occupancy
  Ca  Ca0  1  0.250000  0.669693  0.083993  1
  Ca  Ca1  1  0.750000  0.330307  0.916007  1
  Ca  Ca2  1  0.750000  0.171152  0.417031  1
  Ca  Ca3  1  0.250000  0.828848  0.582969  1
  Tb  Tb4  1  0.250000  0.088561  0.112606  1
  Tb  Tb5  1  0.750000  0.911439  0.887394  1
  Ho  Ho6  1  0.750000  0.587774  0.388738  1
  Ho  Ho7  1  0.250000  0.412226  0.611262  1
  B  B8  1  0.250000  0.368720  0.200917  1
  B  B9  1  0.750000  0.631280  0.799083  1
  B  B10  1  0.750000  0.867369  0.300402  1
  B  B11  1  0.250000  0.132631  0.699598  1
  O  O12  1  0.250000  0.500728  0.252104  1
  O  O13  1  0.750000  0.499272  0.747896  1
  O  O14  1  0.750000  0.999644  0.249472  1
  O  O15  1  0.250000  0.000356  0.750528  1
  O  O16  1  0.250000  0.250544  0.277456  1
  O  O17  1  0.750000  0.749456  0.722544  1
  O  O18  1  0.750000  0.748787  0.224640  1
  O  O19  1  0.250000  0.251213  0.775360  1
  O  O20  1  0.250000  0.350893  0.068690  1
  O  O21  1  0.750000  0.649107  0.931310  1
  O  O22  1  0.750000  0.849141  0.432434  1
  O  O23  1  0.250000  0.150859  0.567566  1
  O  O24  1  0.250000  0.613182  0.505469  1
  O  O25  1  0.750000  0.386818  0.494531  1
  O  O26  1  0.750000  0.114777  0.992822  1
  O  O27  1  0.250000  0.885223  0.007178  1
