# generated using pymatgen
data_Dy5Mo3P12Ir13Rh3
_symmetry_space_group_name_H-M   'P 1'
_cell_length_a   12.68347200
_cell_length_b   12.68347203
_cell_length_c   3.97925500
_cell_angle_alpha   90.00000000
_cell_angle_beta   90.00000000
_cell_angle_gamma   119.99999991
_symmetry_Int_Tables_number   1
_chemical_formula_structural   Dy5Mo3P12Ir13Rh3
_chemical_formula_sum   'Dy5 Mo3 P12 Ir13 Rh3'
_cell_volume   554.38147919
_cell_formula_units_Z   1
loop_
 _symmetry_equiv_pos_site_id
 _symmetry_equiv_pos_as_xyz
  1  'x, y, z'
loop_
 _atom_site_type_symbol
 _atom_site_label
 _atom_site_symmetry_multiplicity
 _atom_site_fract_x
 _atom_site_fract_y
 _atom_site_fract_z
 _atom_site_occupancy
  Dy  Dy0  1  0.333333  0.666667  0.500000  1
  Dy  Dy1  1  0.666667  0.333333  0.500000  1
  Dy  Dy2  1  0.999981  0.812828  0.000000  1
  Dy  Dy3  1  0.187172  0.187152  0.000000  1
  Dy  Dy4  1  0.812848  0.000019  0.000000  1
  Mo  Mo5  1  0.000415  0.453545  0.500000  1
  Mo  Mo6  1  0.546455  0.546870  0.500000  1
  Mo  Mo7  1  0.453130  0.999585  0.500000  1
  P  P8  1  0.000145  0.638381  0.500000  1
  P  P9  1  0.361619  0.361764  0.500000  1
  P  P10  1  0.638236  0.999855  0.500000  1
  P  P11  1  0.516132  0.683813  0.000000  1
  P  P12  1  0.316187  0.832319  0.000000  1
  P  P13  1  0.167681  0.483868  0.000000  1
  P  P14  1  0.483506  0.167734  0.000000  1
  P  P15  1  0.684228  0.516494  0.000000  1
  P  P16  1  0.832266  0.315772  0.000000  1
  P  P17  1  0.999830  0.176975  0.500000  1
  P  P18  1  0.823025  0.822855  0.500000  1
  P  P19  1  0.177145  0.000170  0.500000  1
  Ir  Ir20  1  0.510731  0.867493  0.000000  1
  Ir  Ir21  1  0.132507  0.643239  0.000000  1
  Ir  Ir22  1  0.356761  0.489269  0.000000  1
  Ir  Ir23  1  0.490817  0.357481  0.000000  1
  Ir  Ir24  1  0.866665  0.509183  0.000000  1
  Ir  Ir25  1  0.642519  0.133335  0.000000  1
  Ir  Ir26  1  0.000310  0.285940  0.000000  1
  Ir  Ir27  1  0.714060  0.714371  0.000000  1
  Ir  Ir28  1  0.285629  0.999690  0.000000  1
  Ir  Ir29  1  0.374400  0.178550  0.500000  1
  Ir  Ir30  1  0.804150  0.625600  0.500000  1
  Ir  Ir31  1  0.821450  0.195850  0.500000  1
  Ir  Ir32  1  0.000000  0.000000  0.500000  1
  Rh  Rh33  1  0.625677  0.804345  0.500000  1
  Rh  Rh34  1  0.195655  0.821332  0.500000  1
  Rh  Rh35  1  0.178668  0.374323  0.500000  1
