# generated using pymatgen
data_SnTe19
_symmetry_space_group_name_H-M   'P 1'
_cell_length_a   8.01800484
_cell_length_b   9.02478963
_cell_length_c   10.16484400
_cell_angle_alpha   104.08862850
_cell_angle_beta   97.23290686
_cell_angle_gamma   106.97193268
_symmetry_Int_Tables_number   1
_chemical_formula_structural   SnTe19
_chemical_formula_sum   'Sn1 Te19'
_cell_volume   666.78472118
_cell_formula_units_Z   1
loop_
 _symmetry_equiv_pos_site_id
 _symmetry_equiv_pos_as_xyz
  1  'x, y, z'
loop_
 _atom_site_type_symbol
 _atom_site_label
 _atom_site_symmetry_multiplicity
 _atom_site_fract_x
 _atom_site_fract_y
 _atom_site_fract_z
 _atom_site_occupancy
  Sn  Sn0  1  0.000000  0.500000  0.000000  1
  Te  Te1  1  0.787649  0.584347  0.615217  1
  Te  Te2  1  0.633770  0.203858  0.205705  1
  Te  Te3  1  0.366230  0.796142  0.794295  1
  Te  Te4  1  0.601496  0.686542  0.195571  1
  Te  Te5  1  0.212351  0.415653  0.384783  1
  Te  Te6  1  0.398504  0.313458  0.804429  1
  Te  Te7  1  0.000000  0.000000  0.000000  1
  Te  Te8  1  0.191784  0.907955  0.392933  1
  Te  Te9  1  0.808216  0.092045  0.607067  1
  Te  Te10  1  0.693026  0.634323  0.905606  1
  Te  Te11  1  0.513817  0.257042  0.497768  1
  Te  Te12  1  0.714343  0.145996  0.909173  1
  Te  Te13  1  0.285657  0.854004  0.090827  1
  Te  Te14  1  0.486183  0.742958  0.502232  1
  Te  Te15  1  0.093083  0.461989  0.703869  1
  Te  Te16  1  0.306974  0.365677  0.094394  1
  Te  Te17  1  0.915816  0.041278  0.302436  1
  Te  Te18  1  0.084184  0.958722  0.697564  1
  Te  Te19  1  0.906917  0.538011  0.296131  1
