# generated using pymatgen
data_ErLu3SiI6
_symmetry_space_group_name_H-M   'P 1'
_cell_length_a   4.16076800
_cell_length_b   13.76040807
_cell_length_c   14.52057553
_cell_angle_alpha   89.88354384
_cell_angle_beta   90.00000000
_cell_angle_gamma   90.00000000
_symmetry_Int_Tables_number   1
_chemical_formula_structural   ErLu3SiI6
_chemical_formula_sum   'Er2 Lu6 Si2 I12'
_cell_volume   831.35736242
_cell_formula_units_Z   2
loop_
 _symmetry_equiv_pos_site_id
 _symmetry_equiv_pos_as_xyz
  1  'x, y, z'
loop_
 _atom_site_type_symbol
 _atom_site_label
 _atom_site_symmetry_multiplicity
 _atom_site_fract_x
 _atom_site_fract_y
 _atom_site_fract_z
 _atom_site_occupancy
  Er  Er0  1  0.000000  0.110354  0.574416  1
  Er  Er1  1  0.000000  0.889646  0.425584  1
  Lu  Lu2  1  0.500000  0.113493  0.348568  1
  Lu  Lu3  1  0.500000  0.886507  0.651432  1
  Lu  Lu4  1  0.500000  0.613304  0.151257  1
  Lu  Lu5  1  0.500000  0.386696  0.848743  1
  Lu  Lu6  1  0.000000  0.608430  0.927002  1
  Lu  Lu7  1  0.000000  0.391570  0.072998  1
  Si  Si8  1  0.500000  0.000000  0.500000  1
  Si  Si9  1  0.500000  0.500000  0.000000  1
  I  I10  1  0.500000  0.249244  0.162484  1
  I  I11  1  0.500000  0.750756  0.837516  1
  I  I12  1  0.500000  0.745737  0.335635  1
  I  I13  1  0.500000  0.254263  0.664365  1
  I  I14  1  0.000000  0.258840  0.412917  1
  I  I15  1  0.000000  0.741160  0.587083  1
  I  I16  1  0.000000  0.757917  0.085153  1
  I  I17  1  0.000000  0.242083  0.914847  1
  I  I18  1  0.000000  0.002260  0.239031  1
  I  I19  1  0.000000  0.997740  0.760969  1
  I  I20  1  0.000000  0.500260  0.259217  1
  I  I21  1  0.000000  0.499740  0.740783  1
