# generated using pymatgen
data_PrY(In2Cl5)2
_symmetry_space_group_name_H-M   'P 1'
_cell_length_a   8.25353500
_cell_length_b   8.74368300
_cell_length_c   13.04974300
_cell_angle_alpha   90.00000000
_cell_angle_beta   90.00000000
_cell_angle_gamma   90.00000000
_symmetry_Int_Tables_number   1
_chemical_formula_structural   PrY(In2Cl5)2
_chemical_formula_sum   'Pr2 Y2 In8 Cl20'
_cell_volume   941.75158565
_cell_formula_units_Z   2
loop_
 _symmetry_equiv_pos_site_id
 _symmetry_equiv_pos_as_xyz
  1  'x, y, z'
loop_
 _atom_site_type_symbol
 _atom_site_label
 _atom_site_symmetry_multiplicity
 _atom_site_fract_x
 _atom_site_fract_y
 _atom_site_fract_z
 _atom_site_occupancy
  Pr  Pr0  1  0.073611  0.250000  0.494333  1
  Pr  Pr1  1  0.426389  0.250000  0.994333  1
  Y  Y2  1  0.926893  0.750000  0.504357  1
  Y  Y3  1  0.573107  0.750000  0.004357  1
  In  In4  1  0.941423  0.005544  0.829549  1
  In  In5  1  0.056790  0.990422  0.170424  1
  In  In6  1  0.558577  0.494456  0.329549  1
  In  In7  1  0.056790  0.509578  0.170424  1
  In  In8  1  0.941423  0.494456  0.829549  1
  In  In9  1  0.443210  0.509578  0.670424  1
  In  In10  1  0.558577  0.005544  0.329549  1
  In  In11  1  0.443210  0.990422  0.670424  1
  Cl  Cl12  1  0.592787  0.750000  0.507631  1
  Cl  Cl13  1  0.163771  0.950186  0.431203  1
  Cl  Cl14  1  0.835098  0.037435  0.569040  1
  Cl  Cl15  1  0.336229  0.549814  0.931203  1
  Cl  Cl16  1  0.163771  0.549814  0.431203  1
  Cl  Cl17  1  0.345020  0.250000  0.204146  1
  Cl  Cl18  1  0.336229  0.950186  0.931203  1
  Cl  Cl19  1  0.835098  0.462565  0.569040  1
  Cl  Cl20  1  0.401647  0.750000  0.178725  1
  Cl  Cl21  1  0.664902  0.037435  0.069040  1
  Cl  Cl22  1  0.154980  0.250000  0.704146  1
  Cl  Cl23  1  0.609223  0.250000  0.812280  1
  Cl  Cl24  1  0.417689  0.250000  0.494107  1
  Cl  Cl25  1  0.098353  0.750000  0.678725  1
  Cl  Cl26  1  0.664902  0.462565  0.069040  1
  Cl  Cl27  1  0.082311  0.250000  0.994107  1
  Cl  Cl28  1  0.907213  0.750000  0.007631  1
  Cl  Cl29  1  0.848752  0.750000  0.303988  1
  Cl  Cl30  1  0.651248  0.750000  0.803988  1
  Cl  Cl31  1  0.890777  0.250000  0.312280  1
