# generated using pymatgen
data_NpScB6Os
_symmetry_space_group_name_H-M   'P 1'
_cell_length_a   3.54078000
_cell_length_b   9.01311700
_cell_length_c   11.40057900
_cell_angle_alpha   90.00000000
_cell_angle_beta   90.00000000
_cell_angle_gamma   90.00000000
_symmetry_Int_Tables_number   1
_chemical_formula_structural   NpScB6Os
_chemical_formula_sum   'Np4 Sc4 B24 Os4'
_cell_volume   363.83197218
_cell_formula_units_Z   4
loop_
 _symmetry_equiv_pos_site_id
 _symmetry_equiv_pos_as_xyz
  1  'x, y, z'
loop_
 _atom_site_type_symbol
 _atom_site_label
 _atom_site_symmetry_multiplicity
 _atom_site_fract_x
 _atom_site_fract_y
 _atom_site_fract_z
 _atom_site_occupancy
  Np  Np0  1  0.000000  0.822256  0.085370  1
  Np  Np1  1  0.000000  0.177744  0.914630  1
  Np  Np2  1  0.000000  0.322256  0.414630  1
  Np  Np3  1  0.000000  0.677744  0.585370  1
  Sc  Sc4  1  0.000000  0.444991  0.124723  1
  Sc  Sc5  1  0.000000  0.555009  0.875277  1
  Sc  Sc6  1  0.000000  0.944991  0.375277  1
  Sc  Sc7  1  0.000000  0.055009  0.624723  1
  B  B8  1  0.500000  0.054280  0.066916  1
  B  B9  1  0.500000  0.945720  0.933084  1
  B  B10  1  0.500000  0.554280  0.433084  1
  B  B11  1  0.500000  0.445720  0.566916  1
  B  B12  1  0.500000  0.253427  0.080245  1
  B  B13  1  0.500000  0.746573  0.919755  1
  B  B14  1  0.500000  0.753427  0.419755  1
  B  B15  1  0.500000  0.246573  0.580245  1
  B  B16  1  0.500000  0.294973  0.235080  1
  B  B17  1  0.500000  0.705027  0.764920  1
  B  B18  1  0.500000  0.794973  0.264920  1
  B  B19  1  0.500000  0.205027  0.735080  1
  B  B20  1  0.500000  0.130812  0.318264  1
  B  B21  1  0.500000  0.869188  0.681736  1
  B  B22  1  0.500000  0.630812  0.181736  1
  B  B23  1  0.500000  0.369188  0.818264  1
  B  B24  1  0.500000  0.481373  0.285048  1
  B  B25  1  0.500000  0.518627  0.714952  1
  B  B26  1  0.500000  0.981373  0.214952  1
  B  B27  1  0.500000  0.018627  0.785048  1
  B  B28  1  0.500000  0.100469  0.472829  1
  B  B29  1  0.500000  0.899531  0.527171  1
  B  B30  1  0.500000  0.600469  0.027171  1
  B  B31  1  0.500000  0.399531  0.972829  1
  Os  Os32  1  0.000000  0.140087  0.180936  1
  Os  Os33  1  0.000000  0.859913  0.819064  1
  Os  Os34  1  0.000000  0.640087  0.319064  1
  Os  Os35  1  0.000000  0.359913  0.680936  1
