# generated using pymatgen
data_Er7Co2Sn23Os4
_symmetry_space_group_name_H-M   'P 1'
_cell_length_a   9.78398240
_cell_length_b   9.83760910
_cell_length_c   10.03421564
_cell_angle_alpha   89.99999818
_cell_angle_beta   89.75883038
_cell_angle_gamma   120.18148166
_symmetry_Int_Tables_number   1
_chemical_formula_structural   Er7Co2Sn23Os4
_chemical_formula_sum   'Er7 Co2 Sn23 Os4'
_cell_volume   834.86647566
_cell_formula_units_Z   1
loop_
 _symmetry_equiv_pos_site_id
 _symmetry_equiv_pos_as_xyz
  1  'x, y, z'
loop_
 _atom_site_type_symbol
 _atom_site_label
 _atom_site_symmetry_multiplicity
 _atom_site_fract_x
 _atom_site_fract_y
 _atom_site_fract_z
 _atom_site_occupancy
  Er  Er0  1  0.000000  0.000000  0.000000  1
  Er  Er1  1  0.484825  0.518560  0.305711  1
  Er  Er2  1  0.515175  0.481440  0.694289  1
  Er  Er3  1  0.484825  0.966266  0.305711  1
  Er  Er4  1  0.515175  0.033734  0.694289  1
  Er  Er5  1  0.033491  0.516746  0.304001  1
  Er  Er6  1  0.966509  0.483254  0.695999  1
  Co  Co7  1  0.339245  0.169622  0.199694  1
  Co  Co8  1  0.660755  0.830378  0.800306  1
  Sn  Sn9  1  0.349386  0.002983  0.005088  1
  Sn  Sn10  1  0.650614  0.997017  0.994912  1
  Sn  Sn11  1  0.000000  0.349727  0.000000  1
  Sn  Sn12  1  0.000000  0.650273  0.000000  1
  Sn  Sn13  1  0.650614  0.653596  0.994912  1
  Sn  Sn14  1  0.349386  0.346404  0.005088  1
  Sn  Sn15  1  0.336626  0.668314  0.822091  1
  Sn  Sn16  1  0.663374  0.331686  0.177909  1
  Sn  Sn17  1  0.000000  0.000000  0.500000  1
  Sn  Sn18  1  0.780206  0.220676  0.462189  1
  Sn  Sn19  1  0.219794  0.779324  0.537811  1
  Sn  Sn20  1  0.780206  0.559531  0.462189  1
  Sn  Sn21  1  0.219794  0.440469  0.537811  1
  Sn  Sn22  1  0.438099  0.219049  0.454707  1
  Sn  Sn23  1  0.561901  0.780951  0.545293  1
  Sn  Sn24  1  0.335138  0.667569  0.126148  1
  Sn  Sn25  1  0.664862  0.332431  0.873852  1
  Sn  Sn26  1  0.121261  0.889090  0.275803  1
  Sn  Sn27  1  0.878739  0.110910  0.724197  1
  Sn  Sn28  1  0.121261  0.232170  0.275803  1
  Sn  Sn29  1  0.878739  0.767830  0.724197  1
  Sn  Sn30  1  0.763529  0.881764  0.277337  1
  Sn  Sn31  1  0.236471  0.118236  0.722663  1
  Os  Os32  1  0.829112  0.168400  0.200941  1
  Os  Os33  1  0.170888  0.831600  0.799059  1
  Os  Os34  1  0.829112  0.660712  0.200941  1
  Os  Os35  1  0.170888  0.339288  0.799059  1
