# generated using pymatgen
data_Dy8Zr11Si16Mo
_symmetry_space_group_name_H-M   'P 1'
_cell_length_a   7.30610450
_cell_length_b   7.30610458
_cell_length_c   13.42907528
_cell_angle_alpha   89.95212414
_cell_angle_beta   90.04787899
_cell_angle_gamma   90.06423778
_symmetry_Int_Tables_number   1
_chemical_formula_structural   Dy8Zr11Si16Mo
_chemical_formula_sum   'Dy8 Zr11 Si16 Mo1'
_cell_volume   716.83185522
_cell_formula_units_Z   1
loop_
 _symmetry_equiv_pos_site_id
 _symmetry_equiv_pos_as_xyz
  1  'x, y, z'
loop_
 _atom_site_type_symbol
 _atom_site_label
 _atom_site_symmetry_multiplicity
 _atom_site_fract_x
 _atom_site_fract_y
 _atom_site_fract_z
 _atom_site_occupancy
  Dy  Dy0  1  0.995447  0.654407  0.036044  1
  Dy  Dy1  1  0.001419  0.348052  0.535113  1
  Dy  Dy2  1  0.654407  0.995447  0.963956  1
  Dy  Dy3  1  0.154765  0.504671  0.783963  1
  Dy  Dy4  1  0.845192  0.498280  0.288956  1
  Dy  Dy5  1  0.504671  0.154765  0.216037  1
  Dy  Dy6  1  0.498280  0.845192  0.711044  1
  Dy  Dy7  1  0.348052  0.001419  0.464887  1
  Zr  Zr8  1  0.355248  0.505350  0.377941  1
  Zr  Zr9  1  0.851380  0.994261  0.376412  1
  Zr  Zr10  1  0.003542  0.146152  0.125319  1
  Zr  Zr11  1  0.994261  0.851380  0.623588  1
  Zr  Zr12  1  0.505350  0.355248  0.622059  1
  Zr  Zr13  1  0.146152  0.003542  0.874681  1
  Zr  Zr14  1  0.823574  0.175832  0.748434  1
  Zr  Zr15  1  0.175832  0.823574  0.251566  1
  Zr  Zr16  1  0.324407  0.324407  0.000000  1
  Zr  Zr17  1  0.497082  0.645446  0.126742  1
  Zr  Zr18  1  0.645446  0.497082  0.873258  1
  Si  Si19  1  0.047363  0.703972  0.437707  1
  Si  Si20  1  0.947864  0.295960  0.936413  1
  Si  Si21  1  0.703972  0.047363  0.562293  1
  Si  Si22  1  0.203847  0.448798  0.187848  1
  Si  Si23  1  0.794034  0.554227  0.682523  1
  Si  Si24  1  0.448798  0.203847  0.812152  1
  Si  Si25  1  0.554227  0.794034  0.317477  1
  Si  Si26  1  0.295960  0.947864  0.063587  1
  Si  Si27  1  0.794456  0.859832  0.184403  1
  Si  Si28  1  0.296421  0.639840  0.566531  1
  Si  Si29  1  0.705742  0.360431  0.066464  1
  Si  Si30  1  0.639840  0.296421  0.433469  1
  Si  Si31  1  0.360431  0.705742  0.933536  1
  Si  Si32  1  0.139988  0.205668  0.317567  1
  Si  Si33  1  0.205668  0.139988  0.682433  1
  Si  Si34  1  0.859832  0.794456  0.815597  1
  Mo  Mo35  1  0.677048  0.677048  0.500000  1
