# generated using pymatgen
data_Lu10Zn3NiBi2
_symmetry_space_group_name_H-M   'P 1'
_cell_length_a   8.42756546
_cell_length_b   8.42756534
_cell_length_c   8.51281052
_cell_angle_alpha   124.36445299
_cell_angle_beta   124.36445333
_cell_angle_gamma   81.93311717
_symmetry_Int_Tables_number   1
_chemical_formula_structural   Lu10Zn3NiBi2
_chemical_formula_sum   'Lu10 Zn3 Ni1 Bi2'
_cell_volume   397.62611225
_cell_formula_units_Z   1
loop_
 _symmetry_equiv_pos_site_id
 _symmetry_equiv_pos_as_xyz
  1  'x, y, z'
loop_
 _atom_site_type_symbol
 _atom_site_label
 _atom_site_symmetry_multiplicity
 _atom_site_fract_x
 _atom_site_fract_y
 _atom_site_fract_z
 _atom_site_occupancy
  Lu  Lu0  1  0.004155  0.000525  0.004680  1
  Lu  Lu1  1  0.499475  0.495845  0.995320  1
  Lu  Lu2  1  0.781101  0.293385  0.796019  1
  Lu  Lu3  1  0.206615  0.718899  0.203981  1
  Lu  Lu4  1  0.485082  0.997367  0.203981  1
  Lu  Lu5  1  0.302705  0.469071  0.500000  1
  Lu  Lu6  1  0.030929  0.197295  0.500000  1
  Lu  Lu7  1  0.502633  0.014918  0.796019  1
  Lu  Lu8  1  0.706259  0.514300  0.500000  1
  Lu  Lu9  1  0.985700  0.793741  0.500000  1
  Zn  Zn10  1  0.137647  0.638278  0.775926  1
  Zn  Zn11  1  0.861722  0.362353  0.224074  1
  Zn  Zn12  1  0.634860  0.865140  0.500000  1
  Ni  Ni13  1  0.371035  0.128965  0.500000  1
  Bi  Bi14  1  0.245042  0.254958  0.000000  1
  Bi  Bi15  1  0.745042  0.754958  0.000000  1
