# generated using pymatgen
data_LiHo16Co4Hg3
_symmetry_space_group_name_H-M   'P 1'
_cell_length_a   9.43954632
_cell_length_b   9.43012018
_cell_length_c   9.43954600
_cell_angle_alpha   59.96692984
_cell_angle_beta   60.00000110
_cell_angle_gamma   59.96693150
_symmetry_Int_Tables_number   1
_chemical_formula_structural   LiHo16Co4Hg3
_chemical_formula_sum   'Li1 Ho16 Co4 Hg3'
_cell_volume   593.86427783
_cell_formula_units_Z   1
loop_
 _symmetry_equiv_pos_site_id
 _symmetry_equiv_pos_as_xyz
  1  'x, y, z'
loop_
 _atom_site_type_symbol
 _atom_site_label
 _atom_site_symmetry_multiplicity
 _atom_site_fract_x
 _atom_site_fract_y
 _atom_site_fract_z
 _atom_site_occupancy
  Li  Li0  1  0.567190  0.298432  0.567190  1
  Ho  Ho1  1  0.938415  0.937434  0.562076  1
  Ho  Ho2  1  0.814347  0.184686  0.186619  1
  Ho  Ho3  1  0.936933  0.562108  0.564028  1
  Ho  Ho4  1  0.936933  0.562108  0.936933  1
  Ho  Ho5  1  0.811522  0.809912  0.189283  1
  Ho  Ho6  1  0.345322  0.348711  0.345322  1
  Ho  Ho7  1  0.562076  0.937434  0.938415  1
  Ho  Ho8  1  0.562076  0.937434  0.562076  1
  Ho  Ho9  1  0.189283  0.809912  0.811522  1
  Ho  Ho10  1  0.186619  0.184686  0.814347  1
  Ho  Ho11  1  0.345322  0.348711  0.960647  1
  Ho  Ho12  1  0.349522  0.951434  0.349522  1
  Ho  Ho13  1  0.814347  0.184686  0.814347  1
  Ho  Ho14  1  0.564028  0.562108  0.936933  1
  Ho  Ho15  1  0.189283  0.809912  0.189283  1
  Ho  Ho16  1  0.960647  0.348711  0.345322  1
  Co  Co17  1  0.576140  0.137968  0.142946  1
  Co  Co18  1  0.142946  0.137968  0.142946  1
  Co  Co19  1  0.140912  0.577265  0.140912  1
  Co  Co20  1  0.142946  0.137968  0.576140  1
  Hg  Hg21  1  0.586626  0.576805  0.249945  1
  Hg  Hg22  1  0.249945  0.576805  0.586626  1
  Hg  Hg23  1  0.586626  0.576805  0.586626  1
