# generated using pymatgen
data_LaSm2Zn2B4Ir9
_symmetry_space_group_name_H-M   'P 1'
_cell_length_a   5.57460400
_cell_length_b   5.57460291
_cell_length_c   10.21227600
_cell_angle_alpha   90.00000000
_cell_angle_beta   90.00000000
_cell_angle_gamma   119.99999459
_symmetry_Int_Tables_number   1
_chemical_formula_structural   LaSm2Zn2B4Ir9
_chemical_formula_sum   'La1 Sm2 Zn2 B4 Ir9'
_cell_volume   274.84077111
_cell_formula_units_Z   1
loop_
 _symmetry_equiv_pos_site_id
 _symmetry_equiv_pos_as_xyz
  1  'x, y, z'
loop_
 _atom_site_type_symbol
 _atom_site_label
 _atom_site_symmetry_multiplicity
 _atom_site_fract_x
 _atom_site_fract_y
 _atom_site_fract_z
 _atom_site_occupancy
  La  La0  1  0.000000  0.000000  0.000000  1
  Sm  Sm1  1  0.000000  0.000000  0.658132  1
  Sm  Sm2  1  0.000000  0.000000  0.341868  1
  Zn  Zn3  1  0.666667  0.333333  0.000000  1
  Zn  Zn4  1  0.333333  0.666667  0.000000  1
  B  B5  1  0.666667  0.333333  0.652181  1
  B  B6  1  0.333333  0.666667  0.652181  1
  B  B7  1  0.333333  0.666667  0.347819  1
  B  B8  1  0.666667  0.333333  0.347819  1
  Ir  Ir9  1  0.500000  0.500000  0.500000  1
  Ir  Ir10  1  0.500000  0.000000  0.500000  1
  Ir  Ir11  1  0.000000  0.500000  0.500000  1
  Ir  Ir12  1  0.500000  0.500000  0.790657  1
  Ir  Ir13  1  0.500000  0.000000  0.790657  1
  Ir  Ir14  1  0.000000  0.500000  0.790657  1
  Ir  Ir15  1  0.500000  0.500000  0.209343  1
  Ir  Ir16  1  0.500000  0.000000  0.209343  1
  Ir  Ir17  1  0.000000  0.500000  0.209343  1
