# generated using pymatgen
data_Ho2TmTa(Co4P3)2
_symmetry_space_group_name_H-M   'P 1'
_cell_length_a   3.69212700
_cell_length_b   10.61228400
_cell_length_c   12.30662200
_cell_angle_alpha   90.00000000
_cell_angle_beta   90.00000000
_cell_angle_gamma   90.00000000
_symmetry_Int_Tables_number   1
_chemical_formula_structural   Ho2TmTa(Co4P3)2
_chemical_formula_sum   'Ho4 Tm2 Ta2 Co16 P12'
_cell_volume   482.19683609
_cell_formula_units_Z   2
loop_
 _symmetry_equiv_pos_site_id
 _symmetry_equiv_pos_as_xyz
  1  'x, y, z'
loop_
 _atom_site_type_symbol
 _atom_site_label
 _atom_site_symmetry_multiplicity
 _atom_site_fract_x
 _atom_site_fract_y
 _atom_site_fract_z
 _atom_site_occupancy
  Ho  Ho0  1  0.000000  0.500000  0.526869  1
  Ho  Ho1  1  0.500000  0.000000  0.472862  1
  Ho  Ho2  1  0.000000  0.679155  0.794918  1
  Ho  Ho3  1  0.000000  0.320845  0.794918  1
  Tm  Tm4  1  0.500000  0.821013  0.205106  1
  Tm  Tm5  1  0.500000  0.178987  0.205106  1
  Ta  Ta6  1  0.500000  0.500000  0.157040  1
  Ta  Ta7  1  0.000000  0.000000  0.843113  1
  Co  Co8  1  0.000000  0.500000  0.987071  1
  Co  Co9  1  0.500000  0.000000  0.013514  1
  Co  Co10  1  0.500000  0.295364  0.432095  1
  Co  Co11  1  0.500000  0.704636  0.432095  1
  Co  Co12  1  0.000000  0.204501  0.567470  1
  Co  Co13  1  0.000000  0.795499  0.567470  1
  Co  Co14  1  0.500000  0.877546  0.705313  1
  Co  Co15  1  0.500000  0.122454  0.705313  1
  Co  Co16  1  0.000000  0.622890  0.294371  1
  Co  Co17  1  0.000000  0.377110  0.294371  1
  Co  Co18  1  0.500000  0.332533  0.992603  1
  Co  Co19  1  0.500000  0.667467  0.992603  1
  Co  Co20  1  0.000000  0.167233  0.008069  1
  Co  Co21  1  0.000000  0.832767  0.008069  1
  Co  Co22  1  0.500000  0.500000  0.702204  1
  Co  Co23  1  0.000000  0.000000  0.297271  1
  P  P24  1  0.500000  0.311491  0.615695  1
  P  P25  1  0.500000  0.688509  0.615695  1
  P  P26  1  0.000000  0.188286  0.383574  1
  P  P27  1  0.000000  0.811714  0.383574  1
  P  P28  1  0.500000  0.500000  0.881721  1
  P  P29  1  0.000000  0.000000  0.118974  1
  P  P30  1  0.500000  0.840704  0.892505  1
  P  P31  1  0.500000  0.159296  0.892505  1
  P  P32  1  0.000000  0.659848  0.107992  1
  P  P33  1  0.000000  0.340152  0.107992  1
  P  P34  1  0.500000  0.500000  0.357366  1
  P  P35  1  0.000000  0.000000  0.642575  1
