# generated using pymatgen
data_Ba3DyScO6
_symmetry_space_group_name_H-M   'P 1'
_cell_length_a   7.28054326
_cell_length_b   7.28060578
_cell_length_c   7.28053116
_cell_angle_alpha   93.11630436
_cell_angle_beta   93.11671870
_cell_angle_gamma   93.11504911
_symmetry_Int_Tables_number   1
_chemical_formula_structural   Ba3DyScO6
_chemical_formula_sum   'Ba6 Dy2 Sc2 O12'
_cell_volume   384.14086946
_cell_formula_units_Z   2
loop_
 _symmetry_equiv_pos_site_id
 _symmetry_equiv_pos_as_xyz
  1  'x, y, z'
loop_
 _atom_site_type_symbol
 _atom_site_label
 _atom_site_symmetry_multiplicity
 _atom_site_fract_x
 _atom_site_fract_y
 _atom_site_fract_z
 _atom_site_occupancy
  Ba  Ba0  1  0.609741  0.890263  0.249994  1
  Ba  Ba1  1  0.249977  0.609746  0.890284  1
  Ba  Ba2  1  0.890257  0.250017  0.609709  1
  Ba  Ba3  1  0.390273  0.109734  0.749996  1
  Ba  Ba4  1  0.749988  0.390272  0.109758  1
  Ba  Ba5  1  0.109709  0.750008  0.390235  1
  Dy  Dy6  1  0.250006  0.250017  0.249996  1
  Dy  Dy7  1  0.750001  0.750018  0.749995  1
  Sc  Sc8  1  0.000047  0.999981  0.999960  1
  Sc  Sc9  1  0.499970  0.499961  0.500072  1
  O  O10  1  0.282087  0.967459  0.096167  1
  O  O11  1  0.096191  0.282073  0.967449  1
  O  O12  1  0.967470  0.096183  0.282058  1
  O  O13  1  0.532544  0.217919  0.403833  1
  O  O14  1  0.403811  0.532536  0.217942  1
  O  O15  1  0.217921  0.403824  0.532547  1
  O  O16  1  0.717936  0.032538  0.903803  1
  O  O17  1  0.903828  0.717927  0.032537  1
  O  O18  1  0.032534  0.903821  0.717911  1
  O  O19  1  0.467458  0.782068  0.596190  1
  O  O20  1  0.596178  0.467459  0.782091  1
  O  O21  1  0.782076  0.596172  0.467472  1
