# generated using pymatgen
data_Hf3Al3Ga2Ir
_symmetry_space_group_name_H-M   'P 1'
_cell_length_a   6.69159700
_cell_length_b   6.69159726
_cell_length_c   4.04303200
_cell_angle_alpha   90.00000000
_cell_angle_beta   90.00000000
_cell_angle_gamma   120.00000368
_symmetry_Int_Tables_number   1
_chemical_formula_structural   Hf3Al3Ga2Ir
_chemical_formula_sum   'Hf3 Al3 Ga2 Ir1'
_cell_volume   156.78242100
_cell_formula_units_Z   1
loop_
 _symmetry_equiv_pos_site_id
 _symmetry_equiv_pos_as_xyz
  1  'x, y, z'
loop_
 _atom_site_type_symbol
 _atom_site_label
 _atom_site_symmetry_multiplicity
 _atom_site_fract_x
 _atom_site_fract_y
 _atom_site_fract_z
 _atom_site_occupancy
  Hf  Hf0  1  0.407396  0.000000  0.499999  1
  Hf  Hf1  1  0.000000  0.407396  0.499999  1
  Hf  Hf2  1  0.592604  0.592604  0.499999  1
  Al  Al3  1  0.757428  0.000000  0.000000  1
  Al  Al4  1  0.242571  0.242571  0.000000  1
  Al  Al5  1  0.000000  0.757429  0.000000  1
  Ga  Ga6  1  0.666667  0.333333  0.000000  1
  Ga  Ga7  1  0.333333  0.666667  0.000000  1
  Ir  Ir8  1  0.000000  0.000000  0.499999  1
