# generated using pymatgen
data_LuSiRu2C
_symmetry_space_group_name_H-M   'P 1'
_cell_length_a   5.88811280
_cell_length_b   5.88811196
_cell_length_c   7.10159000
_cell_angle_alpha   90.00000000
_cell_angle_beta   90.00000000
_cell_angle_gamma   142.90451337
_symmetry_Int_Tables_number   1
_chemical_formula_structural   LuSiRu2C
_chemical_formula_sum   'Lu2 Si2 Ru4 C2'
_cell_volume   148.50108317
_cell_formula_units_Z   2
loop_
 _symmetry_equiv_pos_site_id
 _symmetry_equiv_pos_as_xyz
  1  'x, y, z'
loop_
 _atom_site_type_symbol
 _atom_site_label
 _atom_site_symmetry_multiplicity
 _atom_site_fract_x
 _atom_site_fract_y
 _atom_site_fract_z
 _atom_site_occupancy
  Lu  Lu0  1  0.546289  0.453711  0.250000  1
  Lu  Lu1  1  0.453711  0.546289  0.750000  1
  Si  Si2  1  0.267534  0.732466  0.250000  1
  Si  Si3  1  0.732466  0.267534  0.750000  1
  Ru  Ru4  1  0.836711  0.163289  0.055528  1
  Ru  Ru5  1  0.163289  0.836711  0.944472  1
  Ru  Ru6  1  0.163289  0.836711  0.555528  1
  Ru  Ru7  1  0.836711  0.163289  0.444472  1
  C  C8  1  0.000000  0.000000  0.000000  1
  C  C9  1  0.000000  0.000000  0.500000  1
