# generated using pymatgen
data_La2Sm4Zn4Pt13
_symmetry_space_group_name_H-M   'P 1'
_cell_length_a   8.38706510
_cell_length_b   8.38706590
_cell_length_c   8.38697992
_cell_angle_alpha   109.57168597
_cell_angle_beta   109.57169003
_cell_angle_gamma   109.27089006
_symmetry_Int_Tables_number   1
_chemical_formula_structural   La2Sm4Zn4Pt13
_chemical_formula_sum   'La2 Sm4 Zn4 Pt13'
_cell_volume   454.14815508
_cell_formula_units_Z   1
loop_
 _symmetry_equiv_pos_site_id
 _symmetry_equiv_pos_as_xyz
  1  'x, y, z'
loop_
 _atom_site_type_symbol
 _atom_site_label
 _atom_site_symmetry_multiplicity
 _atom_site_fract_x
 _atom_site_fract_y
 _atom_site_fract_z
 _atom_site_occupancy
  La  La0  1  0.700578  0.000383  0.700961  1
  La  La1  1  0.000383  0.700578  0.700961  1
  Sm  Sm2  1  0.697643  0.697643  0.001106  1
  Sm  Sm3  1  0.302760  0.000329  0.303089  1
  Sm  Sm4  1  0.000329  0.302760  0.303089  1
  Sm  Sm5  1  0.303463  0.303463  0.001106  1
  Zn  Zn6  1  0.000052  0.000052  0.495264  1
  Zn  Zn7  1  0.999903  0.499903  0.999805  1
  Zn  Zn8  1  0.499903  0.999903  0.999805  1
  Zn  Zn9  1  0.495212  0.495212  0.495264  1
  Pt  Pt10  1  0.329910  0.329910  0.659821  1
  Pt  Pt11  1  0.671835  0.000627  0.327497  1
  Pt  Pt12  1  0.000627  0.671835  0.327497  1
  Pt  Pt13  1  0.669589  0.331923  0.001513  1
  Pt  Pt14  1  0.326870  0.655663  0.327497  1
  Pt  Pt15  1  0.000879  0.329001  0.670618  1
  Pt  Pt16  1  0.331923  0.669589  0.001513  1
  Pt  Pt17  1  0.329001  0.000879  0.670618  1
  Pt  Pt18  1  0.655663  0.326870  0.327497  1
  Pt  Pt19  1  0.667797  0.667797  0.335593  1
  Pt  Pt20  1  0.669740  0.341616  0.670618  1
  Pt  Pt21  1  0.341616  0.669740  0.670618  1
  Pt  Pt22  1  0.004324  0.004324  0.008648  1
