# generated using pymatgen
data_TbSmHo4NiBr10
_symmetry_space_group_name_H-M   'P 1'
_cell_length_a   7.33052713
_cell_length_b   9.15249815
_cell_length_c   9.25567991
_cell_angle_alpha   107.69253556
_cell_angle_beta   96.55681174
_cell_angle_gamma   105.36208906
_symmetry_Int_Tables_number   1
_chemical_formula_structural   TbSmHo4NiBr10
_chemical_formula_sum   'Tb1 Sm1 Ho4 Ni1 Br10'
_cell_volume   557.51852487
_cell_formula_units_Z   1
loop_
 _symmetry_equiv_pos_site_id
 _symmetry_equiv_pos_as_xyz
  1  'x, y, z'
loop_
 _atom_site_type_symbol
 _atom_site_label
 _atom_site_symmetry_multiplicity
 _atom_site_fract_x
 _atom_site_fract_y
 _atom_site_fract_z
 _atom_site_occupancy
  Tb  Tb0  1  0.646767  0.868954  0.826109  1
  Sm  Sm1  1  0.127412  0.048185  0.754909  1
  Ho  Ho2  1  0.876083  0.953562  0.239825  1
  Ho  Ho3  1  0.969711  0.292574  0.093130  1
  Ho  Ho4  1  0.030827  0.708231  0.910624  1
  Ho  Ho5  1  0.350901  0.129871  0.172485  1
  Ni  Ni6  1  0.000403  0.000640  0.999992  1
  Br  Br7  1  0.552573  0.182559  0.918573  1
  Br  Br8  1  0.452561  0.821444  0.086856  1
  Br  Br9  1  0.349323  0.450740  0.270601  1
  Br  Br10  1  0.652792  0.547058  0.730815  1
  Br  Br11  1  0.249199  0.081034  0.450023  1
  Br  Br12  1  0.745343  0.916576  0.540184  1
  Br  Br13  1  0.776985  0.252048  0.342653  1
  Br  Br14  1  0.220828  0.740024  0.657499  1
  Br  Br15  1  0.083923  0.376981  0.831999  1
  Br  Br16  1  0.914367  0.629520  0.173722  1
