# generated using pymatgen
data_HfZr5Ti4GaGe5
_symmetry_space_group_name_H-M   'P 1'
_cell_length_a   7.90234184
_cell_length_b   7.90234308
_cell_length_c   5.41239400
_cell_angle_alpha   90.00000000
_cell_angle_beta   90.00000000
_cell_angle_gamma   119.89382978
_symmetry_Int_Tables_number   1
_chemical_formula_structural   HfZr5Ti4GaGe5
_chemical_formula_sum   'Hf1 Zr5 Ti4 Ga1 Ge5'
_cell_volume   293.01871653
_cell_formula_units_Z   1
loop_
 _symmetry_equiv_pos_site_id
 _symmetry_equiv_pos_as_xyz
  1  'x, y, z'
loop_
 _atom_site_type_symbol
 _atom_site_label
 _atom_site_symmetry_multiplicity
 _atom_site_fract_x
 _atom_site_fract_y
 _atom_site_fract_z
 _atom_site_occupancy
  Hf  Hf0  1  0.750971  0.750971  0.250000  1
  Zr  Zr1  1  0.250404  0.000512  0.250000  1
  Zr  Zr2  1  0.750051  0.999308  0.750000  1
  Zr  Zr3  1  0.000512  0.250404  0.250000  1
  Zr  Zr4  1  0.999308  0.750051  0.750000  1
  Zr  Zr5  1  0.249795  0.249795  0.750000  1
  Ti  Ti6  1  0.332107  0.666880  0.000281  1
  Ti  Ti7  1  0.666880  0.332107  0.000281  1
  Ti  Ti8  1  0.666880  0.332107  0.499719  1
  Ti  Ti9  1  0.332107  0.666880  0.499719  1
  Ga  Ga10  1  0.601531  0.601531  0.750000  1
  Ge  Ge11  1  0.603607  0.998313  0.250000  1
  Ge  Ge12  1  0.396908  0.999992  0.750000  1
  Ge  Ge13  1  0.998313  0.603607  0.250000  1
  Ge  Ge14  1  0.999992  0.396908  0.750000  1
  Ge  Ge15  1  0.400635  0.400635  0.250000  1
