# generated using pymatgen
data_Zr4Ti2FeCo9B4
_symmetry_space_group_name_H-M   'P 1'
_cell_length_a   8.70771945
_cell_length_b   8.72352845
_cell_length_c   3.12062500
_cell_angle_alpha   90.00000000
_cell_angle_beta   90.00000000
_cell_angle_gamma   89.96305454
_symmetry_Int_Tables_number   1
_chemical_formula_structural   Zr4Ti2FeCo9B4
_chemical_formula_sum   'Zr4 Ti2 Fe1 Co9 B4'
_cell_volume   237.04898683
_cell_formula_units_Z   1
loop_
 _symmetry_equiv_pos_site_id
 _symmetry_equiv_pos_as_xyz
  1  'x, y, z'
loop_
 _atom_site_type_symbol
 _atom_site_label
 _atom_site_symmetry_multiplicity
 _atom_site_fract_x
 _atom_site_fract_y
 _atom_site_fract_z
 _atom_site_occupancy
  Zr  Zr0  1  0.825017  0.323180  0.000000  1
  Zr  Zr1  1  0.322470  0.176438  0.000000  1
  Zr  Zr2  1  0.676148  0.823719  0.000000  1
  Zr  Zr3  1  0.176342  0.675527  0.000000  1
  Ti  Ti4  1  0.999990  0.999971  0.000000  1
  Ti  Ti5  1  0.500121  0.499833  0.000000  1
  Fe  Fe6  1  0.069064  0.222880  0.500000  1
  Co  Co7  1  0.499823  0.999884  0.500000  1
  Co  Co8  1  0.999920  0.501839  0.500000  1
  Co  Co9  1  0.223738  0.929366  0.500000  1
  Co  Co10  1  0.775629  0.068475  0.500000  1
  Co  Co11  1  0.930095  0.777159  0.500000  1
  Co  Co12  1  0.431575  0.723731  0.500000  1
  Co  Co13  1  0.569273  0.276122  0.500000  1
  Co  Co14  1  0.723386  0.569368  0.500000  1
  Co  Co15  1  0.277588  0.432468  0.500000  1
  B  B16  1  0.618431  0.118086  0.000000  1
  B  B17  1  0.118061  0.381857  0.000000  1
  B  B18  1  0.881913  0.618202  0.000000  1
  B  B19  1  0.381417  0.881897  0.000000  1
