# generated using pymatgen
data_Rb8Na4YLu3Sb8
_symmetry_space_group_name_H-M   'P 1'
_cell_length_a   11.29097545
_cell_length_b   11.29097452
_cell_length_c   7.44872163
_cell_angle_alpha   90.03605180
_cell_angle_beta   89.96394555
_cell_angle_gamma   98.83614523
_symmetry_Int_Tables_number   1
_chemical_formula_structural   Rb8Na4YLu3Sb8
_chemical_formula_sum   'Rb8 Na4 Y1 Lu3 Sb8'
_cell_volume   938.33800377
_cell_formula_units_Z   1
loop_
 _symmetry_equiv_pos_site_id
 _symmetry_equiv_pos_as_xyz
  1  'x, y, z'
loop_
 _atom_site_type_symbol
 _atom_site_label
 _atom_site_symmetry_multiplicity
 _atom_site_fract_x
 _atom_site_fract_y
 _atom_site_fract_z
 _atom_site_occupancy
  Rb  Rb0  1  0.071317  0.429517  0.250667  1
  Rb  Rb1  1  0.429517  0.071317  0.749333  1
  Rb  Rb2  1  0.928360  0.571353  0.749690  1
  Rb  Rb3  1  0.571353  0.928360  0.250310  1
  Rb  Rb4  1  0.676097  0.323964  0.215930  1
  Rb  Rb5  1  0.823125  0.176100  0.715340  1
  Rb  Rb6  1  0.323964  0.676097  0.784070  1
  Rb  Rb7  1  0.176100  0.823125  0.284660  1
  Na  Na8  1  0.382905  0.382905  0.000000  1
  Na  Na9  1  0.117610  0.117610  0.500000  1
  Na  Na10  1  0.617565  0.617565  0.000000  1
  Na  Na11  1  0.882084  0.882084  0.500000  1
  Y  Y12  1  0.130728  0.130728  0.000000  1
  Lu  Lu13  1  0.370744  0.370744  0.500000  1
  Lu  Lu14  1  0.869005  0.869005  0.000000  1
  Lu  Lu15  1  0.630052  0.630052  0.500000  1
  Sb  Sb16  1  0.844674  0.654974  0.249817  1
  Sb  Sb17  1  0.654974  0.844674  0.750183  1
  Sb  Sb18  1  0.155201  0.348284  0.746362  1
  Sb  Sb19  1  0.348284  0.155201  0.253638  1
  Sb  Sb20  1  0.896939  0.098896  0.210834  1
  Sb  Sb21  1  0.600265  0.400241  0.709071  1
  Sb  Sb22  1  0.098896  0.896939  0.789166  1
  Sb  Sb23  1  0.400241  0.600265  0.290929  1
