# generated using pymatgen
data_Cs4K2LuInAs4
_symmetry_space_group_name_H-M   'P 1'
_cell_length_a   9.95767138
_cell_length_b   9.95767152
_cell_length_c   9.95767155
_cell_angle_alpha   133.96035007
_cell_angle_beta   138.28579330
_cell_angle_gamma   63.85568527
_symmetry_Int_Tables_number   1
_chemical_formula_structural   Cs4K2LuInAs4
_chemical_formula_sum   'Cs4 K2 Lu1 In1 As4'
_cell_volume   466.68509669
_cell_formula_units_Z   1
loop_
 _symmetry_equiv_pos_site_id
 _symmetry_equiv_pos_as_xyz
  1  'x, y, z'
loop_
 _atom_site_type_symbol
 _atom_site_label
 _atom_site_symmetry_multiplicity
 _atom_site_fract_x
 _atom_site_fract_y
 _atom_site_fract_z
 _atom_site_occupancy
  Cs  Cs0  1  0.686744  0.438295  0.765116  1
  Cs  Cs1  1  0.813256  0.078372  0.251551  1
  Cs  Cs2  1  0.173178  0.921628  0.734884  1
  Cs  Cs3  1  0.326822  0.561705  0.248449  1
  K  K4  1  0.750000  0.000000  0.750000  1
  K  K5  1  0.250000  0.000000  0.250000  1
  Lu  Lu6  1  0.250000  0.500000  0.750000  1
  In  In7  1  0.750000  0.500000  0.250000  1
  As  As8  1  0.408698  0.213808  0.807790  1
  As  As9  1  0.593982  0.786192  0.194890  1
  As  As10  1  0.091302  0.399094  0.305110  1
  As  As11  1  0.906018  0.600906  0.692210  1
