# generated using pymatgen
data_GdSc7(B6Os)4
_symmetry_space_group_name_H-M   'P 1'
_cell_length_a   8.90150803
_cell_length_b   11.23869111
_cell_length_c   3.52035200
_cell_angle_alpha   90.00000000
_cell_angle_beta   90.00000000
_cell_angle_gamma   89.96973067
_symmetry_Int_Tables_number   1
_chemical_formula_structural   GdSc7(B6Os)4
_chemical_formula_sum   'Gd1 Sc7 B24 Os4'
_cell_volume   352.18053847
_cell_formula_units_Z   1
loop_
 _symmetry_equiv_pos_site_id
 _symmetry_equiv_pos_as_xyz
  1  'x, y, z'
loop_
 _atom_site_type_symbol
 _atom_site_label
 _atom_site_symmetry_multiplicity
 _atom_site_fract_x
 _atom_site_fract_y
 _atom_site_fract_z
 _atom_site_occupancy
  Gd  Gd0  1  0.320281  0.086107  0.000000  1
  Sc  Sc1  1  0.943675  0.126503  0.000000  1
  Sc  Sc2  1  0.444692  0.374987  0.000000  1
  Sc  Sc3  1  0.817543  0.415057  0.000000  1
  Sc  Sc4  1  0.182260  0.585715  0.000000  1
  Sc  Sc5  1  0.556172  0.625450  0.000000  1
  Sc  Sc6  1  0.054587  0.872611  0.000000  1
  Sc  Sc7  1  0.682663  0.913551  0.000000  1
  B  B8  1  0.098304  0.026782  0.499999  1
  B  B9  1  0.555675  0.065185  0.499999  1
  B  B10  1  0.752519  0.078725  0.499999  1
  B  B11  1  0.127527  0.184230  0.499999  1
  B  B12  1  0.481863  0.215152  0.499999  1
  B  B13  1  0.794271  0.235830  0.499999  1
  B  B14  1  0.292510  0.267501  0.499999  1
  B  B15  1  0.978710  0.288263  0.499999  1
  B  B16  1  0.630714  0.318371  0.499999  1
  B  B17  1  0.251323  0.422555  0.499999  1
  B  B18  1  0.052763  0.436162  0.499999  1
  B  B19  1  0.602869  0.472112  0.499999  1
  B  B20  1  0.397967  0.528049  0.499999  1
  B  B21  1  0.946214  0.565270  0.499999  1
  B  B22  1  0.748304  0.578568  0.499999  1
  B  B23  1  0.370490  0.681339  0.499999  1
  B  B24  1  0.020075  0.712594  0.499999  1
  B  B25  1  0.706389  0.734776  0.499999  1
  B  B26  1  0.206025  0.762980  0.499999  1
  B  B27  1  0.520839  0.785667  0.499999  1
  B  B28  1  0.869757  0.817279  0.499999  1
  B  B29  1  0.247069  0.918018  0.499999  1
  B  B30  1  0.447652  0.932346  0.499999  1
  B  B31  1  0.897607  0.971760  0.499999  1
  Os  Os32  1  0.641094  0.181104  0.000000  1
  Os  Os33  1  0.136690  0.322492  0.000000  1
  Os  Os34  1  0.861439  0.679498  0.000000  1
  Os  Os35  1  0.361465  0.817414  0.000000  1
