# generated using pymatgen
data_Sc12Ni2OsI16
_symmetry_space_group_name_H-M   'P 1'
_cell_length_a   8.99931923
_cell_length_b   11.97352145
_cell_length_c   12.63671600
_cell_angle_alpha   117.23427782
_cell_angle_beta   100.98074376
_cell_angle_gamma   100.44297337
_symmetry_Int_Tables_number   1
_chemical_formula_structural   Sc12Ni2OsI16
_chemical_formula_sum   'Sc12 Ni2 Os1 I16'
_cell_volume   1130.93989957
_cell_formula_units_Z   1
loop_
 _symmetry_equiv_pos_site_id
 _symmetry_equiv_pos_as_xyz
  1  'x, y, z'
loop_
 _atom_site_type_symbol
 _atom_site_label
 _atom_site_symmetry_multiplicity
 _atom_site_fract_x
 _atom_site_fract_y
 _atom_site_fract_z
 _atom_site_occupancy
  Sc  Sc0  1  0.087919  0.276519  0.363442  1
  Sc  Sc1  1  0.912081  0.723481  0.636558  1
  Sc  Sc2  1  0.784163  0.535084  0.334090  1
  Sc  Sc3  1  0.215837  0.464916  0.665910  1
  Sc  Sc4  1  0.270327  0.724272  0.636929  1
  Sc  Sc5  1  0.729673  0.275728  0.363071  1
  Sc  Sc6  1  0.142624  0.535652  0.334647  1
  Sc  Sc7  1  0.857376  0.464348  0.665353  1
  Sc  Sc8  1  0.409190  0.364682  0.283010  1
  Sc  Sc9  1  0.590810  0.635318  0.716990  1
  Sc  Sc10  1  0.460575  0.315030  0.520523  1
  Sc  Sc11  1  0.539425  0.684970  0.479477  1
  Ni  Ni12  1  0.343899  0.500194  0.499836  1
  Ni  Ni13  1  0.656102  0.499806  0.500164  1
  Os  Os14  1  0.000000  0.500000  0.500000  1
  I  I15  1  0.393672  0.738255  0.881288  1
  I  I16  1  0.606328  0.261745  0.118712  1
  I  I17  1  0.186833  0.962634  0.781270  1
  I  I18  1  0.813167  0.037366  0.218730  1
  I  I19  1  0.339373  0.099851  0.254550  1
  I  I20  1  0.660627  0.900149  0.745450  1
  I  I21  1  0.560359  0.437936  0.796455  1
  I  I22  1  0.439641  0.562064  0.203545  1
  I  I23  1  0.305768  0.825544  0.462652  1
  I  I24  1  0.694232  0.174456  0.537348  1
  I  I25  1  0.167208  0.174018  0.535404  1
  I  I26  1  0.832792  0.825982  0.464596  1
  I  I27  1  0.925878  0.575569  0.160374  1
  I  I28  1  0.074122  0.424431  0.839626  1
  I  I29  1  0.924292  0.736806  0.880901  1
  I  I30  1  0.075708  0.263194  0.119099  1
