# generated using pymatgen
data_Tm20Ir3Pt2Rh7
_symmetry_space_group_name_H-M   'P 1'
_cell_length_a   10.77531859
_cell_length_b   10.77531771
_cell_length_c   6.29836840
_cell_angle_alpha   89.93415482
_cell_angle_beta   89.93415412
_cell_angle_gamma   89.46930370
_symmetry_Int_Tables_number   1
_chemical_formula_structural   Tm20Ir3Pt2Rh7
_chemical_formula_sum   'Tm20 Ir3 Pt2 Rh7'
_cell_volume   731.25536482
_cell_formula_units_Z   1
loop_
 _symmetry_equiv_pos_site_id
 _symmetry_equiv_pos_as_xyz
  1  'x, y, z'
loop_
 _atom_site_type_symbol
 _atom_site_label
 _atom_site_symmetry_multiplicity
 _atom_site_fract_x
 _atom_site_fract_y
 _atom_site_fract_z
 _atom_site_occupancy
  Tm  Tm0  1  0.291108  0.089286  0.377200  1
  Tm  Tm1  1  0.292039  0.909987  0.876228  1
  Tm  Tm2  1  0.706513  0.083984  0.874405  1
  Tm  Tm3  1  0.706911  0.908703  0.377964  1
  Tm  Tm4  1  0.586723  0.789795  0.877980  1
  Tm  Tm5  1  0.582804  0.207298  0.374142  1
  Tm  Tm6  1  0.412950  0.790674  0.376638  1
  Tm  Tm7  1  0.409208  0.207710  0.878984  1
  Tm  Tm8  1  0.210205  0.413277  0.622020  1
  Tm  Tm9  1  0.209326  0.587050  0.123362  1
  Tm  Tm10  1  0.792702  0.417196  0.125858  1
  Tm  Tm11  1  0.792290  0.590792  0.621016  1
  Tm  Tm12  1  0.910714  0.708892  0.122800  1
  Tm  Tm13  1  0.916016  0.293487  0.625595  1
  Tm  Tm14  1  0.090013  0.707961  0.623772  1
  Tm  Tm15  1  0.091297  0.293089  0.122036  1
  Tm  Tm16  1  0.000867  0.998092  0.500274  1
  Tm  Tm17  1  0.001908  0.999133  0.999726  1
  Tm  Tm18  1  0.498396  0.500853  0.000363  1
  Tm  Tm19  1  0.499147  0.501604  0.499637  1
  Ir  Ir20  1  0.654812  0.653365  0.249587  1
  Ir  Ir21  1  0.346635  0.345188  0.250413  1
  Ir  Ir22  1  0.344974  0.655026  0.750000  1
  Pt  Pt23  1  0.844846  0.155154  0.250000  1
  Pt  Pt24  1  0.655795  0.344205  0.750000  1
  Rh  Rh25  1  0.846268  0.847480  0.750114  1
  Rh  Rh26  1  0.152520  0.153732  0.749886  1
  Rh  Rh27  1  0.153962  0.846038  0.250000  1
  Rh  Rh28  1  0.499891  0.000371  0.123599  1
  Rh  Rh29  1  0.499947  0.000417  0.624038  1
  Rh  Rh30  1  0.999583  0.500053  0.875962  1
  Rh  Rh31  1  0.999629  0.500109  0.376401  1
