# generated using pymatgen
data_CaHo6FeBr12
_symmetry_space_group_name_H-M   'P 1'
_cell_length_a   9.18939161
_cell_length_b   9.18939222
_cell_length_c   9.18939249
_cell_angle_alpha   106.78465773
_cell_angle_beta   106.78466272
_cell_angle_gamma   106.78464674
_symmetry_Int_Tables_number   1
_chemical_formula_structural   CaHo6FeBr12
_chemical_formula_sum   'Ca1 Ho6 Fe1 Br12'
_cell_volume   650.01716775
_cell_formula_units_Z   1
loop_
 _symmetry_equiv_pos_site_id
 _symmetry_equiv_pos_as_xyz
  1  'x, y, z'
loop_
 _atom_site_type_symbol
 _atom_site_label
 _atom_site_symmetry_multiplicity
 _atom_site_fract_x
 _atom_site_fract_y
 _atom_site_fract_z
 _atom_site_occupancy
  Ca  Ca0  1  0.000000  0.000000  0.000000  1
  Ho  Ho1  1  0.801951  0.522184  0.597546  1
  Ho  Ho2  1  0.522184  0.597546  0.801951  1
  Ho  Ho3  1  0.198049  0.477816  0.402454  1
  Ho  Ho4  1  0.477816  0.402454  0.198049  1
  Ho  Ho5  1  0.597546  0.801951  0.522184  1
  Ho  Ho6  1  0.402454  0.198049  0.477816  1
  Fe  Fe7  1  0.500000  0.500000  0.500000  1
  Br  Br8  1  0.720380  0.180941  0.572751  1
  Br  Br9  1  0.950960  0.873450  0.652382  1
  Br  Br10  1  0.572751  0.720380  0.180941  1
  Br  Br11  1  0.126550  0.347618  0.049040  1
  Br  Br12  1  0.652382  0.950960  0.873450  1
  Br  Br13  1  0.873450  0.652382  0.950960  1
  Br  Br14  1  0.049040  0.126550  0.347618  1
  Br  Br15  1  0.819059  0.427249  0.279620  1
  Br  Br16  1  0.347618  0.049040  0.126550  1
  Br  Br17  1  0.279620  0.819059  0.427249  1
  Br  Br18  1  0.180941  0.572751  0.720380  1
  Br  Br19  1  0.427249  0.279620  0.819059  1
