# generated using pymatgen
data_Dy3Er3Al14(Si5Tc3)2
_symmetry_space_group_name_H-M   'P 1'
_cell_length_a   8.64597300
_cell_length_b   8.64597203
_cell_length_c   9.35544000
_cell_angle_alpha   90.00000000
_cell_angle_beta   90.00000000
_cell_angle_gamma   119.99999225
_symmetry_Int_Tables_number   1
_chemical_formula_structural   Dy3Er3Al14(Si5Tc3)2
_chemical_formula_sum   'Dy3 Er3 Al14 Si10 Tc6'
_cell_volume   605.65120337
_cell_formula_units_Z   1
loop_
 _symmetry_equiv_pos_site_id
 _symmetry_equiv_pos_as_xyz
  1  'x, y, z'
loop_
 _atom_site_type_symbol
 _atom_site_label
 _atom_site_symmetry_multiplicity
 _atom_site_fract_x
 _atom_site_fract_y
 _atom_site_fract_z
 _atom_site_occupancy
  Dy  Dy0  1  0.197309  0.802691  0.250000  1
  Dy  Dy1  1  0.197309  0.394619  0.250000  1
  Dy  Dy2  1  0.605381  0.802691  0.250000  1
  Er  Er3  1  0.801589  0.198411  0.750000  1
  Er  Er4  1  0.801589  0.603179  0.750000  1
  Er  Er5  1  0.396821  0.198411  0.750000  1
  Al  Al6  1  0.164945  0.835055  0.916364  1
  Al  Al7  1  0.164945  0.329891  0.916364  1
  Al  Al8  1  0.670109  0.835055  0.916364  1
  Al  Al9  1  0.834730  0.165270  0.081206  1
  Al  Al10  1  0.834730  0.669460  0.081206  1
  Al  Al11  1  0.330540  0.165270  0.081206  1
  Al  Al12  1  0.834730  0.165270  0.418794  1
  Al  Al13  1  0.834730  0.669460  0.418794  1
  Al  Al14  1  0.330540  0.165270  0.418794  1
  Al  Al15  1  0.164945  0.835055  0.583636  1
  Al  Al16  1  0.164945  0.329891  0.583636  1
  Al  Al17  1  0.670109  0.835055  0.583636  1
  Al  Al18  1  0.000000  0.000000  0.250000  1
  Al  Al19  1  0.000000  0.000000  0.750000  1
  Si  Si20  1  0.564946  0.435054  0.250000  1
  Si  Si21  1  0.564946  0.129894  0.250000  1
  Si  Si22  1  0.870106  0.435054  0.250000  1
  Si  Si23  1  0.435153  0.564847  0.750000  1
  Si  Si24  1  0.435153  0.870307  0.750000  1
  Si  Si25  1  0.129693  0.564847  0.750000  1
  Si  Si26  1  0.333333  0.666667  0.460812  1
  Si  Si27  1  0.666667  0.333333  0.541083  1
  Si  Si28  1  0.666667  0.333333  0.958917  1
  Si  Si29  1  0.333333  0.666667  0.039188  1
  Tc  Tc30  1  0.500071  0.499929  0.500636  1
  Tc  Tc31  1  0.500071  0.000141  0.500636  1
  Tc  Tc32  1  0.999859  0.499929  0.500636  1
  Tc  Tc33  1  0.500071  0.499929  0.999364  1
  Tc  Tc34  1  0.500071  0.000141  0.999364  1
  Tc  Tc35  1  0.999859  0.499929  0.999364  1
