# generated using pymatgen
data_Y5Ga2Ru3
_symmetry_space_group_name_H-M   'P 1'
_cell_length_a   8.35734215
_cell_length_b   8.35734255
_cell_length_c   8.35734200
_cell_angle_alpha   109.47121445
_cell_angle_beta   109.47121541
_cell_angle_gamma   109.47122489
_symmetry_Int_Tables_number   1
_chemical_formula_structural   Y5Ga2Ru3
_chemical_formula_sum   'Y10 Ga4 Ru6'
_cell_volume   449.34789181
_cell_formula_units_Z   2
loop_
 _symmetry_equiv_pos_site_id
 _symmetry_equiv_pos_as_xyz
  1  'x, y, z'
loop_
 _atom_site_type_symbol
 _atom_site_label
 _atom_site_symmetry_multiplicity
 _atom_site_fract_x
 _atom_site_fract_y
 _atom_site_fract_z
 _atom_site_occupancy
  Y  Y0  1  0.000000  0.217006  0.000000  1
  Y  Y1  1  0.750000  0.432593  0.182594  1
  Y  Y2  1  0.432594  0.682595  0.250000  1
  Y  Y3  1  0.250000  0.067406  0.317407  1
  Y  Y4  1  0.217006  0.500001  0.500001  1
  Y  Y5  1  0.817406  0.250000  0.567406  1
  Y  Y6  1  0.500000  0.000000  0.717006  1
  Y  Y7  1  0.067406  0.817406  0.750000  1
  Y  Y8  1  0.282994  0.282994  0.782995  1
  Y  Y9  1  0.682595  0.750000  0.932594  1
  Ga  Ga10  1  0.000000  0.587213  0.000000  1
  Ga  Ga11  1  0.500000  0.000000  0.087213  1
  Ga  Ga12  1  0.912787  0.912787  0.412787  1
  Ga  Ga13  1  0.587213  0.500000  0.500000  1
  Ru  Ru14  1  0.376223  0.250000  0.126223  1
  Ru  Ru15  1  0.873778  0.123778  0.249999  1
  Ru  Ru16  1  0.123778  0.750000  0.373777  1
  Ru  Ru17  1  0.750000  0.873778  0.623778  1
  Ru  Ru18  1  0.626222  0.376223  0.750000  1
  Ru  Ru19  1  0.250000  0.626222  0.876223  1
