# generated using pymatgen
data_Ho2Lu4Al17Si7Os8
_symmetry_space_group_name_H-M   'P 1'
_cell_length_a   8.66852500
_cell_length_b   8.65841275
_cell_length_c   9.44155100
_cell_angle_alpha   90.00000000
_cell_angle_beta   90.00000000
_cell_angle_gamma   120.08543651
_symmetry_Int_Tables_number   1
_chemical_formula_structural   Ho2Lu4Al17Si7Os8
_chemical_formula_sum   'Ho2 Lu4 Al17 Si7 Os8'
_cell_volume   613.17287055
_cell_formula_units_Z   1
loop_
 _symmetry_equiv_pos_site_id
 _symmetry_equiv_pos_as_xyz
  1  'x, y, z'
loop_
 _atom_site_type_symbol
 _atom_site_label
 _atom_site_symmetry_multiplicity
 _atom_site_fract_x
 _atom_site_fract_y
 _atom_site_fract_z
 _atom_site_occupancy
  Ho  Ho0  1  0.388144  0.191319  0.750000  1
  Ho  Ho1  1  0.802751  0.191898  0.750000  1
  Lu  Lu2  1  0.194407  0.391828  0.250000  1
  Lu  Lu3  1  0.805531  0.611355  0.750000  1
  Lu  Lu4  1  0.607471  0.805719  0.250000  1
  Lu  Lu5  1  0.197481  0.803584  0.250000  1
  Al  Al6  1  0.164472  0.329743  0.578271  1
  Al  Al7  1  0.834328  0.671450  0.420673  1
  Al  Al8  1  0.671505  0.834787  0.578058  1
  Al  Al9  1  0.834328  0.671450  0.079327  1
  Al  Al10  1  0.329490  0.165947  0.421430  1
  Al  Al11  1  0.164472  0.329743  0.921729  1
  Al  Al12  1  0.163253  0.834050  0.577071  1
  Al  Al13  1  0.329490  0.165947  0.078570  1
  Al  Al14  1  0.835612  0.164076  0.420611  1
  Al  Al15  1  0.671505  0.834787  0.921942  1
  Al  Al16  1  0.835612  0.164076  0.079389  1
  Al  Al17  1  0.163253  0.834050  0.922929  1
  Al  Al18  1  0.125171  0.565611  0.750000  1
  Al  Al19  1  0.564224  0.435582  0.250000  1
  Al  Al20  1  0.439341  0.566391  0.750000  1
  Al  Al21  1  0.999517  0.999375  0.250000  1
  Al  Al22  1  0.999325  0.999383  0.750000  1
  Si  Si23  1  0.333518  0.664959  0.041034  1
  Si  Si24  1  0.666997  0.336520  0.959314  1
  Si  Si25  1  0.666997  0.336520  0.540686  1
  Si  Si26  1  0.333518  0.664959  0.458966  1
  Si  Si27  1  0.564192  0.123595  0.250000  1
  Si  Si28  1  0.436370  0.872881  0.750000  1
  Si  Si29  1  0.875526  0.435385  0.250000  1
  Os  Os30  1  0.500593  0.000331  0.002058  1
  Os  Os31  1  0.999144  0.500006  0.007268  1
  Os  Os32  1  0.500593  0.000331  0.497942  1
  Os  Os33  1  0.500759  0.500774  0.000935  1
  Os  Os34  1  0.999144  0.500006  0.492732  1
  Os  Os35  1  0.500759  0.500774  0.499065  1
  Os  Os36  1  0.000603  0.000403  0.000156  1
  Os  Os37  1  0.000603  0.000403  0.499844  1
