# generated using pymatgen
data_Hf6Al4Ga2Ir5Pt
_symmetry_space_group_name_H-M   'P 1'
_cell_length_a   7.15081923
_cell_length_b   7.15052505
_cell_length_c   7.00530500
_cell_angle_alpha   90.00000000
_cell_angle_beta   90.00000000
_cell_angle_gamma   119.62671826
_symmetry_Int_Tables_number   1
_chemical_formula_structural   Hf6Al4Ga2Ir5Pt
_chemical_formula_sum   'Hf6 Al4 Ga2 Ir5 Pt1'
_cell_volume   311.36710153
_cell_formula_units_Z   1
loop_
 _symmetry_equiv_pos_site_id
 _symmetry_equiv_pos_as_xyz
  1  'x, y, z'
loop_
 _atom_site_type_symbol
 _atom_site_label
 _atom_site_symmetry_multiplicity
 _atom_site_fract_x
 _atom_site_fract_y
 _atom_site_fract_z
 _atom_site_occupancy
  Hf  Hf0  1  0.402876  0.398955  0.250000  1
  Hf  Hf1  1  0.593196  0.994239  0.750000  1
  Hf  Hf2  1  0.406436  0.410578  0.750000  1
  Hf  Hf3  1  0.002391  0.596949  0.750000  1
  Hf  Hf4  1  0.995461  0.601061  0.250000  1
  Hf  Hf5  1  0.604510  0.003195  0.250000  1
  Al  Al6  1  0.263389  0.001776  0.002167  1
  Al  Al7  1  0.263389  0.001776  0.497833  1
  Al  Al8  1  0.001625  0.263334  0.497640  1
  Al  Al9  1  0.001625  0.263334  0.002360  1
  Ga  Ga10  1  0.734095  0.733961  0.002097  1
  Ga  Ga11  1  0.734095  0.733961  0.497903  1
  Ir  Ir12  1  0.665071  0.327784  0.506824  1
  Ir  Ir13  1  0.665071  0.327784  0.993176  1
  Ir  Ir14  1  0.327839  0.665095  0.004011  1
  Ir  Ir15  1  0.327839  0.665095  0.495989  1
  Ir  Ir16  1  0.005406  0.005422  0.250000  1
  Pt  Pt17  1  0.005686  0.005702  0.750000  1
