# generated using pymatgen
data_Ho3Er5Re2(B12Os)2
_symmetry_space_group_name_H-M   'P 1'
_cell_length_a   3.64919200
_cell_length_b   9.12360829
_cell_length_c   11.50503801
_cell_angle_alpha   90.13509833
_cell_angle_beta   90.00000000
_cell_angle_gamma   90.00000000
_symmetry_Int_Tables_number   1
_chemical_formula_structural   Ho3Er5Re2(B12Os)2
_chemical_formula_sum   'Ho3 Er5 Re2 B24 Os2'
_cell_volume   383.04535104
_cell_formula_units_Z   1
loop_
 _symmetry_equiv_pos_site_id
 _symmetry_equiv_pos_as_xyz
  1  'x, y, z'
loop_
 _atom_site_type_symbol
 _atom_site_label
 _atom_site_symmetry_multiplicity
 _atom_site_fract_x
 _atom_site_fract_y
 _atom_site_fract_z
 _atom_site_occupancy
  Ho  Ho0  1  0.000000  0.320716  0.412484  1
  Ho  Ho1  1  0.000000  0.679278  0.587524  1
  Ho  Ho2  1  0.000000  0.824522  0.084704  1
  Er  Er3  1  0.000000  0.175396  0.915354  1
  Er  Er4  1  0.000000  0.943566  0.370743  1
  Er  Er5  1  0.000000  0.056482  0.629286  1
  Er  Er6  1  0.000000  0.442675  0.128714  1
  Er  Er7  1  0.000000  0.557229  0.871237  1
  Re  Re8  1  0.000000  0.138491  0.179522  1
  Re  Re9  1  0.000000  0.861672  0.820414  1
  B  B10  1  0.500000  0.553763  0.433194  1
  B  B11  1  0.500000  0.446231  0.566815  1
  B  B12  1  0.500000  0.053218  0.066698  1
  B  B13  1  0.500000  0.946961  0.933197  1
  B  B14  1  0.500000  0.749097  0.418910  1
  B  B15  1  0.500000  0.250913  0.581108  1
  B  B16  1  0.500000  0.249087  0.080756  1
  B  B17  1  0.500000  0.750913  0.919081  1
  B  B18  1  0.500000  0.791073  0.265793  1
  B  B19  1  0.500000  0.208872  0.734321  1
  B  B20  1  0.500000  0.292079  0.234659  1
  B  B21  1  0.500000  0.707923  0.765320  1
  B  B22  1  0.500000  0.630825  0.185846  1
  B  B23  1  0.500000  0.369059  0.814233  1
  B  B24  1  0.500000  0.131274  0.314992  1
  B  B25  1  0.500000  0.868754  0.685016  1
  B  B26  1  0.500000  0.982437  0.212572  1
  B  B27  1  0.500000  0.017750  0.787489  1
  B  B28  1  0.500000  0.482794  0.287886  1
  B  B29  1  0.500000  0.517183  0.712118  1
  B  B30  1  0.500000  0.602783  0.028730  1
  B  B31  1  0.500000  0.397031  0.971210  1
  B  B32  1  0.500000  0.103126  0.471610  1
  B  B33  1  0.500000  0.896880  0.528391  1
  Os  Os34  1  0.000000  0.637639  0.321799  1
  Os  Os35  1  0.000000  0.362307  0.678274  1
