# generated using pymatgen
data_NdMnGaO5
_symmetry_space_group_name_H-M   'P 1'
_cell_length_a   5.80450800
_cell_length_b   7.57130700
_cell_length_c   8.70310100
_cell_angle_alpha   90.00000000
_cell_angle_beta   90.00000000
_cell_angle_gamma   90.00000000
_symmetry_Int_Tables_number   1
_chemical_formula_structural   NdMnGaO5
_chemical_formula_sum   'Nd4 Mn4 Ga4 O20'
_cell_volume   382.48137671
_cell_formula_units_Z   4
loop_
 _symmetry_equiv_pos_site_id
 _symmetry_equiv_pos_as_xyz
  1  'x, y, z'
loop_
 _atom_site_type_symbol
 _atom_site_label
 _atom_site_symmetry_multiplicity
 _atom_site_fract_x
 _atom_site_fract_y
 _atom_site_fract_z
 _atom_site_occupancy
  Nd  Nd0  1  0.500000  0.363759  0.329749  1
  Nd  Nd1  1  0.500000  0.636241  0.670251  1
  Nd  Nd2  1  0.500000  0.136241  0.829749  1
  Nd  Nd3  1  0.500000  0.863759  0.170251  1
  Mn  Mn4  1  0.245535  0.000000  0.500000  1
  Mn  Mn5  1  0.754465  0.000000  0.500000  1
  Mn  Mn6  1  0.754465  0.500000  0.000000  1
  Mn  Mn7  1  0.245535  0.500000  0.000000  1
  Ga  Ga8  1  0.000000  0.109889  0.144244  1
  Ga  Ga9  1  0.000000  0.890111  0.855756  1
  Ga  Ga10  1  0.000000  0.390111  0.644244  1
  Ga  Ga11  1  0.000000  0.609889  0.355756  1
  O  O12  1  0.500000  0.344275  0.053444  1
  O  O13  1  0.500000  0.655725  0.946556  1
  O  O14  1  0.500000  0.155725  0.553444  1
  O  O15  1  0.500000  0.844275  0.446556  1
  O  O16  1  0.222569  0.000000  0.000000  1
  O  O17  1  0.777431  0.000000  0.000000  1
  O  O18  1  0.777431  0.500000  0.500000  1
  O  O19  1  0.222569  0.500000  0.500000  1
  O  O20  1  0.251745  0.101449  0.294201  1
  O  O21  1  0.748255  0.898551  0.705799  1
  O  O22  1  0.251745  0.898551  0.705799  1
  O  O23  1  0.748255  0.398551  0.794201  1
  O  O24  1  0.748255  0.101449  0.294201  1
  O  O25  1  0.251745  0.601449  0.205799  1
  O  O26  1  0.748255  0.601449  0.205799  1
  O  O27  1  0.251745  0.398551  0.794201  1
  O  O28  1  0.000000  0.348302  0.068430  1
  O  O29  1  0.000000  0.651698  0.931570  1
  O  O30  1  0.000000  0.151698  0.568430  1
  O  O31  1  0.000000  0.848302  0.431570  1
