# generated using pymatgen
data_Rb5Tl(SiTe3)2
_symmetry_space_group_name_H-M   'P 1'
_cell_length_a   8.50445048
_cell_length_b   8.89679012
_cell_length_c   9.35309000
_cell_angle_alpha   74.69146799
_cell_angle_beta   75.57440741
_cell_angle_gamma   108.97902161
_symmetry_Int_Tables_number   1
_chemical_formula_structural   Rb5Tl(SiTe3)2
_chemical_formula_sum   'Rb5 Tl1 Si2 Te6'
_cell_volume   600.35094647
_cell_formula_units_Z   1
loop_
 _symmetry_equiv_pos_site_id
 _symmetry_equiv_pos_as_xyz
  1  'x, y, z'
loop_
 _atom_site_type_symbol
 _atom_site_label
 _atom_site_symmetry_multiplicity
 _atom_site_fract_x
 _atom_site_fract_y
 _atom_site_fract_z
 _atom_site_occupancy
  Rb  Rb0  1  0.217783  0.203871  0.320567  1
  Rb  Rb1  1  0.000000  0.500000  0.000000  1
  Rb  Rb2  1  0.665107  0.338127  0.503235  1
  Rb  Rb3  1  0.334893  0.661873  0.496765  1
  Rb  Rb4  1  0.782217  0.796129  0.679433  1
  Tl  Tl5  1  0.500000  0.000000  0.000000  1
  Si  Si6  1  0.105924  0.100882  0.867334  1
  Si  Si7  1  0.894076  0.899118  0.132666  1
  Te  Te8  1  0.641715  0.658296  0.118241  1
  Te  Te9  1  0.358285  0.341704  0.881759  1
  Te  Te10  1  0.754242  0.053062  0.283350  1
  Te  Te11  1  0.944007  0.233457  0.714924  1
  Te  Te12  1  0.245758  0.946938  0.716650  1
  Te  Te13  1  0.055993  0.766543  0.285076  1
