# generated using pymatgen
data_Pr10Bi5P2Pb
_symmetry_space_group_name_H-M   'P 1'
_cell_length_a   9.61950408
_cell_length_b   9.61950269
_cell_length_c   6.94421300
_cell_angle_alpha   90.00000000
_cell_angle_beta   90.00000000
_cell_angle_gamma   119.90822709
_symmetry_Int_Tables_number   1
_chemical_formula_structural   Pr10Bi5P2Pb
_chemical_formula_sum   'Pr10 Bi5 P2 Pb1'
_cell_volume   557.00596615
_cell_formula_units_Z   1
loop_
 _symmetry_equiv_pos_site_id
 _symmetry_equiv_pos_as_xyz
  1  'x, y, z'
loop_
 _atom_site_type_symbol
 _atom_site_label
 _atom_site_symmetry_multiplicity
 _atom_site_fract_x
 _atom_site_fract_y
 _atom_site_fract_z
 _atom_site_occupancy
  Pr  Pr0  1  0.665973  0.333345  0.999551  1
  Pr  Pr1  1  0.333345  0.665973  0.999551  1
  Pr  Pr2  1  0.333345  0.665973  0.500449  1
  Pr  Pr3  1  0.665973  0.333345  0.500449  1
  Pr  Pr4  1  0.760903  0.760903  0.750000  1
  Pr  Pr5  1  0.239264  0.001396  0.750000  1
  Pr  Pr6  1  0.001396  0.239264  0.750000  1
  Pr  Pr7  1  0.238837  0.238837  0.250000  1
  Pr  Pr8  1  0.761674  0.000243  0.250000  1
  Pr  Pr9  1  0.000243  0.761674  0.250000  1
  Bi  Bi10  1  0.602920  0.999936  0.750000  1
  Bi  Bi11  1  0.999936  0.602920  0.750000  1
  Bi  Bi12  1  0.602309  0.602309  0.250000  1
  Bi  Bi13  1  0.396906  0.000100  0.250000  1
  Bi  Bi14  1  0.000100  0.396906  0.250000  1
  P  P15  1  0.999719  0.999719  0.000040  1
  P  P16  1  0.999719  0.999719  0.499960  1
  Pb  Pb17  1  0.397438  0.397438  0.750000  1
