# generated using pymatgen
data_YBi5(PtO6)3
_symmetry_space_group_name_H-M   'P 1'
_cell_length_a   9.25637600
_cell_length_b   9.26155024
_cell_length_c   5.16457100
_cell_angle_alpha   90.14549842
_cell_angle_beta   90.00000000
_cell_angle_gamma   119.98151362
_symmetry_Int_Tables_number   1
_chemical_formula_structural   YBi5(PtO6)3
_chemical_formula_sum   'Y1 Bi5 Pt3 O18'
_cell_volume   383.50282071
_cell_formula_units_Z   1
loop_
 _symmetry_equiv_pos_site_id
 _symmetry_equiv_pos_as_xyz
  1  'x, y, z'
loop_
 _atom_site_type_symbol
 _atom_site_label
 _atom_site_symmetry_multiplicity
 _atom_site_fract_x
 _atom_site_fract_y
 _atom_site_fract_z
 _atom_site_occupancy
  Y  Y0  1  0.625943  0.000000  0.000000  1
  Bi  Bi1  1  0.998851  0.626929  0.999269  1
  Bi  Bi2  1  0.997523  0.292612  0.499968  1
  Bi  Bi3  1  0.371921  0.373071  0.000731  1
  Bi  Bi4  1  0.296779  0.000000  0.500000  1
  Bi  Bi5  1  0.704911  0.707388  0.500032  1
  Pt  Pt6  1  0.334259  0.667798  0.498395  1
  Pt  Pt7  1  0.999582  0.000000  0.000000  1
  Pt  Pt8  1  0.666462  0.332202  0.501605  1
  O  O9  1  0.087454  0.882045  0.781946  1
  O  O10  1  0.226679  0.769086  0.282297  1
  O  O11  1  0.129639  0.538336  0.713325  1
  O  O12  1  0.415151  0.874035  0.715444  1
  O  O13  1  0.231557  0.457747  0.284840  1
  O  O14  1  0.116275  0.203544  0.777099  1
  O  O15  1  0.205411  0.117955  0.218054  1
  O  O16  1  0.544228  0.778563  0.282890  1
  O  O17  1  0.462937  0.592868  0.714236  1
  O  O18  1  0.790459  0.908770  0.786315  1
  O  O19  1  0.457593  0.230914  0.717703  1
  O  O20  1  0.591305  0.461664  0.286675  1
  O  O21  1  0.541116  0.125965  0.284556  1
  O  O22  1  0.773810  0.542253  0.715160  1
  O  O23  1  0.912732  0.796456  0.222901  1
  O  O24  1  0.765665  0.221437  0.717110  1
  O  O25  1  0.870069  0.407132  0.285764  1
  O  O26  1  0.881690  0.091230  0.213685  1
