# generated using pymatgen
data_Pa4Co(GeOs)6
_symmetry_space_group_name_H-M   'P 1'
_cell_length_a   7.26333893
_cell_length_b   7.26333805
_cell_length_c   7.26333890
_cell_angle_alpha   109.24097888
_cell_angle_beta   109.24098167
_cell_angle_gamma   109.93268826
_symmetry_Int_Tables_number   1
_chemical_formula_structural   Pa4Co(GeOs)6
_chemical_formula_sum   'Pa4 Co1 Ge6 Os6'
_cell_volume   294.96184491
_cell_formula_units_Z   1
loop_
 _symmetry_equiv_pos_site_id
 _symmetry_equiv_pos_as_xyz
  1  'x, y, z'
loop_
 _atom_site_type_symbol
 _atom_site_label
 _atom_site_symmetry_multiplicity
 _atom_site_fract_x
 _atom_site_fract_y
 _atom_site_fract_z
 _atom_site_occupancy
  Pa  Pa0  1  0.001017  0.998983  0.500000  1
  Pa  Pa1  1  0.001017  0.501017  0.002035  1
  Pa  Pa2  1  0.498983  0.998983  0.997965  1
  Pa  Pa3  1  0.498983  0.501017  0.500000  1
  Co  Co4  1  0.750000  0.250000  0.500000  1
  Ge  Ge5  1  0.688141  0.688141  0.000000  1
  Ge  Ge6  1  0.320405  0.004153  0.316252  1
  Ge  Ge7  1  0.995847  0.312098  0.316252  1
  Ge  Ge8  1  0.311859  0.311859  0.000000  1
  Ge  Ge9  1  0.687902  0.004153  0.683748  1
  Ge  Ge10  1  0.995847  0.679595  0.683748  1
  Os  Os11  1  0.749042  0.498663  0.250379  1
  Os  Os12  1  0.501337  0.250958  0.749621  1
  Os  Os13  1  0.248284  0.498663  0.749621  1
  Os  Os14  1  0.250000  0.750000  0.500000  1
  Os  Os15  1  0.501337  0.751716  0.250379  1
  Os  Os16  1  0.000000  0.000000  0.000000  1
