# generated using pymatgen
data_Rb6Na4ErTaP6
_symmetry_space_group_name_H-M   'P 1'
_cell_length_a   10.85233881
_cell_length_b   10.85234037
_cell_length_c   15.60644100
_cell_angle_alpha   90.00000000
_cell_angle_beta   90.00000000
_cell_angle_gamma   143.07471626
_symmetry_Int_Tables_number   1
_chemical_formula_structural   Rb6Na4ErTaP6
_chemical_formula_sum   'Rb12 Na8 Er2 Ta2 P12'
_cell_volume   1104.23388898
_cell_formula_units_Z   2
loop_
 _symmetry_equiv_pos_site_id
 _symmetry_equiv_pos_as_xyz
  1  'x, y, z'
loop_
 _atom_site_type_symbol
 _atom_site_label
 _atom_site_symmetry_multiplicity
 _atom_site_fract_x
 _atom_site_fract_y
 _atom_site_fract_z
 _atom_site_occupancy
  Rb  Rb0  1  0.946252  0.603173  0.823943  1
  Rb  Rb1  1  0.553748  0.896827  0.323943  1
  Rb  Rb2  1  0.396827  0.053748  0.176057  1
  Rb  Rb3  1  0.050383  0.390319  0.180530  1
  Rb  Rb4  1  0.890319  0.550383  0.319470  1
  Rb  Rb5  1  0.449617  0.109681  0.680530  1
  Rb  Rb6  1  0.609681  0.949617  0.819470  1
  Rb  Rb7  1  0.282559  0.278558  0.315145  1
  Rb  Rb8  1  0.778558  0.782559  0.184855  1
  Rb  Rb9  1  0.217441  0.221442  0.815145  1
  Rb  Rb10  1  0.721442  0.717441  0.684855  1
  Rb  Rb11  1  0.103173  0.446252  0.676057  1
  Na  Na12  1  0.918862  0.081138  0.000000  1
  Na  Na13  1  0.581138  0.418862  0.500000  1
  Na  Na14  1  0.081242  0.918758  0.000000  1
  Na  Na15  1  0.418758  0.581242  0.500000  1
  Na  Na16  1  0.755181  0.244819  0.000000  1
  Na  Na17  1  0.744819  0.255181  0.500000  1
  Na  Na18  1  0.246136  0.753864  0.000000  1
  Na  Na19  1  0.253864  0.746136  0.500000  1
  Er  Er20  1  0.412782  0.587218  0.000000  1
  Er  Er21  1  0.087218  0.912782  0.500000  1
  Ta  Ta22  1  0.584658  0.415342  0.000000  1
  Ta  Ta23  1  0.915342  0.084658  0.500000  1
  P  P24  1  0.854373  0.551529  0.090605  1
  P  P25  1  0.448471  0.145627  0.909395  1
  P  P26  1  0.645627  0.948471  0.590605  1
  P  P27  1  0.931438  0.610896  0.600874  1
  P  P28  1  0.110896  0.431438  0.899126  1
  P  P29  1  0.568562  0.889104  0.100874  1
  P  P30  1  0.389104  0.068562  0.399126  1
  P  P31  1  0.187483  0.207296  0.586317  1
  P  P32  1  0.707296  0.687483  0.913683  1
  P  P33  1  0.312517  0.292704  0.086317  1
  P  P34  1  0.051529  0.354373  0.409395  1
  P  P35  1  0.792704  0.812517  0.413683  1
