# generated using pymatgen
data_Rb2Hf(AgTe2)2
_symmetry_space_group_name_H-M   'P 1'
_cell_length_a   8.20258423
_cell_length_b   8.20258397
_cell_length_c   6.56778100
_cell_angle_alpha   90.00000000
_cell_angle_beta   90.00000000
_cell_angle_gamma   132.69056731
_symmetry_Int_Tables_number   1
_chemical_formula_structural   Rb2Hf(AgTe2)2
_chemical_formula_sum   'Rb2 Hf1 Ag2 Te4'
_cell_volume   324.80513383
_cell_formula_units_Z   1
loop_
 _symmetry_equiv_pos_site_id
 _symmetry_equiv_pos_as_xyz
  1  'x, y, z'
loop_
 _atom_site_type_symbol
 _atom_site_label
 _atom_site_symmetry_multiplicity
 _atom_site_fract_x
 _atom_site_fract_y
 _atom_site_fract_z
 _atom_site_occupancy
  Rb  Rb0  1  0.500000  0.000000  0.254555  1
  Rb  Rb1  1  0.000000  0.500000  0.745445  1
  Hf  Hf2  1  0.000000  0.000000  0.000000  1
  Ag  Ag3  1  0.000000  0.000000  0.500000  1
  Ag  Ag4  1  0.500000  0.500000  0.000000  1
  Te  Te5  1  0.871659  0.653265  0.237663  1
  Te  Te6  1  0.128341  0.346735  0.237663  1
  Te  Te7  1  0.653265  0.871659  0.762337  1
  Te  Te8  1  0.346735  0.128341  0.762337  1
