# generated using pymatgen
data_Yb4HoIr2
_symmetry_space_group_name_H-M   'P 1'
_cell_length_a   6.54314378
_cell_length_b   7.30425581
_cell_length_c   8.50095426
_cell_angle_alpha   97.18487266
_cell_angle_beta   112.63427598
_cell_angle_gamma   90.00000177
_symmetry_Int_Tables_number   1
_chemical_formula_structural   Yb4HoIr2
_chemical_formula_sum   'Yb8 Ho2 Ir4'
_cell_volume   371.53357237
_cell_formula_units_Z   2
loop_
 _symmetry_equiv_pos_site_id
 _symmetry_equiv_pos_as_xyz
  1  'x, y, z'
loop_
 _atom_site_type_symbol
 _atom_site_label
 _atom_site_symmetry_multiplicity
 _atom_site_fract_x
 _atom_site_fract_y
 _atom_site_fract_z
 _atom_site_occupancy
  Yb  Yb0  1  0.972340  0.921344  0.170904  1
  Yb  Yb1  1  0.801437  0.578656  0.829096  1
  Yb  Yb2  1  0.027660  0.078656  0.829096  1
  Yb  Yb3  1  0.198563  0.421344  0.170904  1
  Yb  Yb4  1  0.644102  0.819933  0.437647  1
  Yb  Yb5  1  0.206455  0.680067  0.562353  1
  Yb  Yb6  1  0.355898  0.180067  0.562353  1
  Yb  Yb7  1  0.793545  0.319933  0.437647  1
  Ho  Ho8  1  0.437822  0.750000  0.000000  1
  Ho  Ho9  1  0.562178  0.250000  0.000000  1
  Ir  Ir10  1  0.814988  0.573595  0.211693  1
  Ir  Ir11  1  0.603296  0.926405  0.788307  1
  Ir  Ir12  1  0.185012  0.426405  0.788307  1
  Ir  Ir13  1  0.396704  0.073595  0.211693  1
