# generated using pymatgen
data_YbZr7(Ta3Ge4)4
_symmetry_space_group_name_H-M   'P 1'
_cell_length_a   6.87229800
_cell_length_b   6.98302148
_cell_length_c   13.34242240
_cell_angle_alpha   90.11871042
_cell_angle_beta   89.85803096
_cell_angle_gamma   90.05271555
_symmetry_Int_Tables_number   1
_chemical_formula_structural   YbZr7(Ta3Ge4)4
_chemical_formula_sum   'Yb1 Zr7 Ta12 Ge16'
_cell_volume   640.29129786
_cell_formula_units_Z   1
loop_
 _symmetry_equiv_pos_site_id
 _symmetry_equiv_pos_as_xyz
  1  'x, y, z'
loop_
 _atom_site_type_symbol
 _atom_site_label
 _atom_site_symmetry_multiplicity
 _atom_site_fract_x
 _atom_site_fract_y
 _atom_site_fract_z
 _atom_site_occupancy
  Yb  Yb0  1  0.492714  0.673269  0.591181  1
  Zr  Zr1  1  0.988252  0.824926  0.909581  1
  Zr  Zr2  1  0.512225  0.325664  0.090921  1
  Zr  Zr3  1  0.011656  0.175994  0.408304  1
  Zr  Zr4  1  0.512530  0.322185  0.407543  1
  Zr  Zr5  1  0.012317  0.174688  0.090675  1
  Zr  Zr6  1  0.487487  0.675007  0.908077  1
  Zr  Zr7  1  0.991885  0.827218  0.591525  1
  Ta  Ta8  1  0.660247  0.166040  0.625674  1
  Ta  Ta9  1  0.158514  0.331886  0.875532  1
  Ta  Ta10  1  0.340201  0.834985  0.124483  1
  Ta  Ta11  1  0.840053  0.665271  0.375144  1
  Ta  Ta12  1  0.336580  0.837380  0.373479  1
  Ta  Ta13  1  0.841148  0.665924  0.124687  1
  Ta  Ta14  1  0.658686  0.166630  0.876292  1
  Ta  Ta15  1  0.155069  0.330045  0.625539  1
  Ta  Ta16  1  0.838280  0.489246  0.751905  1
  Ta  Ta17  1  0.335358  0.011579  0.752897  1
  Ta  Ta18  1  0.163417  0.511026  0.249238  1
  Ta  Ta19  1  0.663476  0.991225  0.249390  1
  Ge  Ge20  1  0.682378  0.961675  0.459043  1
  Ge  Ge21  1  0.183178  0.539458  0.039712  1
  Ge  Ge22  1  0.318017  0.039218  0.960454  1
  Ge  Ge23  1  0.820344  0.460275  0.540141  1
  Ge  Ge24  1  0.318764  0.038833  0.540132  1
  Ge  Ge25  1  0.816839  0.461439  0.960157  1
  Ge  Ge26  1  0.682084  0.959522  0.039960  1
  Ge  Ge27  1  0.180381  0.538790  0.459250  1
  Ge  Ge28  1  0.460915  0.386892  0.749719  1
  Ge  Ge29  1  0.959953  0.111265  0.750800  1
  Ge  Ge30  1  0.538297  0.613170  0.250365  1
  Ge  Ge31  1  0.037394  0.888305  0.249587  1
  Ge  Ge32  1  0.692972  0.849001  0.749476  1
  Ge  Ge33  1  0.193590  0.650908  0.749307  1
  Ge  Ge34  1  0.307118  0.151379  0.249735  1
  Ge  Ge35  1  0.807680  0.349687  0.250100  1
