# generated using pymatgen
data_P2AuBrO8
_symmetry_space_group_name_H-M   'P 1'
_cell_length_a   4.90029512
_cell_length_b   4.93668935
_cell_length_c   7.89670332
_cell_angle_alpha   83.80430009
_cell_angle_beta   84.11535661
_cell_angle_gamma   76.12364767
_symmetry_Int_Tables_number   1
_chemical_formula_structural   P2AuBrO8
_chemical_formula_sum   'P2 Au1 Br1 O8'
_cell_volume   183.79038475
_cell_formula_units_Z   1
loop_
 _symmetry_equiv_pos_site_id
 _symmetry_equiv_pos_as_xyz
  1  'x, y, z'
loop_
 _atom_site_type_symbol
 _atom_site_label
 _atom_site_symmetry_multiplicity
 _atom_site_fract_x
 _atom_site_fract_y
 _atom_site_fract_z
 _atom_site_occupancy
  P  P0  1  0.067445  0.932280  0.746680  1
  P  P1  1  0.932555  0.067720  0.253320  1
  Au  Au2  1  0.000000  0.500000  0.500000  1
  Br  Br3  1  0.500000  0.000000  0.000000  1
  O  O4  1  0.233318  0.808707  0.908111  1
  O  O5  1  0.197124  0.764012  0.589641  1
  O  O6  1  0.766682  0.191293  0.091889  1
  O  O7  1  0.802876  0.235988  0.410359  1
  O  O8  1  0.757730  0.900295  0.781844  1
  O  O9  1  0.102631  0.238472  0.710067  1
  O  O10  1  0.242270  0.099705  0.218156  1
  O  O11  1  0.897369  0.761528  0.289933  1
