# generated using pymatgen
data_Tb7ThGaPd24
_symmetry_space_group_name_H-M   'P 1'
_cell_length_a   8.38472823
_cell_length_b   8.38472823
_cell_length_c   8.38472823
_cell_angle_alpha   90.01902562
_cell_angle_beta   90.01902562
_cell_angle_gamma   89.98097438
_symmetry_Int_Tables_number   1
_chemical_formula_structural   Tb7ThGaPd24
_chemical_formula_sum   'Tb7 Th1 Ga1 Pd24'
_cell_volume   589.47704824
_cell_formula_units_Z   1
loop_
 _symmetry_equiv_pos_site_id
 _symmetry_equiv_pos_as_xyz
  1  'x, y, z'
loop_
 _atom_site_type_symbol
 _atom_site_label
 _atom_site_symmetry_multiplicity
 _atom_site_fract_x
 _atom_site_fract_y
 _atom_site_fract_z
 _atom_site_occupancy
  Tb  Tb0  1  0.252261  0.747741  0.252259  1
  Tb  Tb1  1  0.747741  0.252261  0.252259  1
  Tb  Tb2  1  0.747741  0.747741  0.747739  1
  Tb  Tb3  1  0.747712  0.747712  0.252288  1
  Tb  Tb4  1  0.747943  0.252226  0.747774  1
  Tb  Tb5  1  0.252226  0.747943  0.747774  1
  Tb  Tb6  1  0.252226  0.252226  0.252057  1
  Th  Th7  1  0.253068  0.253068  0.746932  1
  Ga  Ga8  1  0.999323  0.999323  0.000677  1
  Pd  Pd9  1  0.500222  0.500222  0.746792  1
  Pd  Pd10  1  0.500222  0.253208  0.499778  1
  Pd  Pd11  1  0.253208  0.500222  0.499778  1
  Pd  Pd12  1  0.500045  0.500045  0.253098  1
  Pd  Pd13  1  0.500045  0.746902  0.499955  1
  Pd  Pd14  1  0.746902  0.500045  0.499955  1
  Pd  Pd15  1  0.999483  0.999483  0.708495  1
  Pd  Pd16  1  0.999483  0.291505  0.000517  1
  Pd  Pd17  1  0.291505  0.999483  0.000517  1
  Pd  Pd18  1  0.999912  0.999912  0.291303  1
  Pd  Pd19  1  0.999912  0.708697  0.000088  1
  Pd  Pd20  1  0.708697  0.999912  0.000088  1
  Pd  Pd21  1  0.999937  0.500072  0.739880  1
  Pd  Pd22  1  0.500072  0.260120  0.000063  1
  Pd  Pd23  1  0.260120  0.999937  0.499928  1
  Pd  Pd24  1  0.999937  0.260120  0.499928  1
  Pd  Pd25  1  0.500072  0.999937  0.739880  1
  Pd  Pd26  1  0.260120  0.500072  0.000063  1
  Pd  Pd27  1  0.999946  0.500086  0.260098  1
  Pd  Pd28  1  0.500086  0.739902  0.000054  1
  Pd  Pd29  1  0.999946  0.739902  0.499914  1
  Pd  Pd30  1  0.500086  0.999946  0.260098  1
  Pd  Pd31  1  0.739902  0.999946  0.499914  1
  Pd  Pd32  1  0.739902  0.500086  0.000054  1
