# generated using pymatgen
data_TbYb2U(B4Ru)4
_symmetry_space_group_name_H-M   'P 1'
_cell_length_a   3.55280700
_cell_length_b   5.95110000
_cell_length_c   11.50122903
_cell_angle_alpha   90.00459897
_cell_angle_beta   90.00000000
_cell_angle_gamma   90.00000000
_symmetry_Int_Tables_number   1
_chemical_formula_structural   TbYb2U(B4Ru)4
_chemical_formula_sum   'Tb1 Yb2 U1 B16 Ru4'
_cell_volume   243.17174674
_cell_formula_units_Z   1
loop_
 _symmetry_equiv_pos_site_id
 _symmetry_equiv_pos_as_xyz
  1  'x, y, z'
loop_
 _atom_site_type_symbol
 _atom_site_label
 _atom_site_symmetry_multiplicity
 _atom_site_fract_x
 _atom_site_fract_y
 _atom_site_fract_z
 _atom_site_occupancy
  Tb  Tb0  1  0.500000  0.370662  0.847361  1
  Yb  Yb1  1  0.500000  0.127797  0.353099  1
  Yb  Yb2  1  0.500000  0.871264  0.649149  1
  U  U3  1  0.500000  0.628975  0.152373  1
  B  B4  1  0.000000  0.973864  0.191820  1
  B  B5  1  0.000000  0.023922  0.808072  1
  B  B6  1  0.000000  0.477575  0.307843  1
  B  B7  1  0.000000  0.524606  0.690661  1
  B  B8  1  0.000000  0.787812  0.313723  1
  B  B9  1  0.000000  0.211415  0.683927  1
  B  B10  1  0.000000  0.290954  0.185818  1
  B  B11  1  0.000000  0.714744  0.813223  1
  B  B12  1  0.000000  0.862811  0.469118  1
  B  B13  1  0.000000  0.135743  0.529824  1
  B  B14  1  0.000000  0.366382  0.031890  1
  B  B15  1  0.000000  0.635372  0.969738  1
  B  B16  1  0.000000  0.886765  0.047445  1
  B  B17  1  0.000000  0.110743  0.952845  1
  B  B18  1  0.000000  0.386159  0.453618  1
  B  B19  1  0.000000  0.612559  0.545785  1
  Ru  Ru20  1  0.500000  0.637460  0.406029  1
  Ru  Ru21  1  0.500000  0.362583  0.590370  1
  Ru  Ru22  1  0.500000  0.142070  0.094810  1
  Ru  Ru23  1  0.500000  0.857762  0.911460  1
