# generated using pymatgen
data_Lu2ScBe2Rh5
_symmetry_space_group_name_H-M   'P 1'
_cell_length_a   9.64534600
_cell_length_b   9.64534600
_cell_length_c   3.26720300
_cell_angle_alpha   90.00000000
_cell_angle_beta   90.00000000
_cell_angle_gamma   90.00000000
_symmetry_Int_Tables_number   1
_chemical_formula_structural   Lu2ScBe2Rh5
_chemical_formula_sum   'Lu4 Sc2 Be4 Rh10'
_cell_volume   303.95671477
_cell_formula_units_Z   2
loop_
 _symmetry_equiv_pos_site_id
 _symmetry_equiv_pos_as_xyz
  1  'x, y, z'
loop_
 _atom_site_type_symbol
 _atom_site_label
 _atom_site_symmetry_multiplicity
 _atom_site_fract_x
 _atom_site_fract_y
 _atom_site_fract_z
 _atom_site_occupancy
  Lu  Lu0  1  0.824773  0.324773  0.000000  1
  Lu  Lu1  1  0.324773  0.175227  0.000000  1
  Lu  Lu2  1  0.675227  0.824773  0.000000  1
  Lu  Lu3  1  0.175227  0.675227  0.000000  1
  Sc  Sc4  1  0.000000  0.000000  0.000000  1
  Sc  Sc5  1  0.500000  0.500000  0.000000  1
  Be  Be6  1  0.622183  0.122183  0.000000  1
  Be  Be7  1  0.122183  0.377817  0.000000  1
  Be  Be8  1  0.877817  0.622183  0.000000  1
  Be  Be9  1  0.377817  0.877817  0.000000  1
  Rh  Rh10  1  0.070496  0.215742  0.500000  1
  Rh  Rh11  1  0.215742  0.929504  0.500000  1
  Rh  Rh12  1  0.784258  0.070496  0.500000  1
  Rh  Rh13  1  0.929504  0.784258  0.500000  1
  Rh  Rh14  1  0.429504  0.715742  0.500000  1
  Rh  Rh15  1  0.570496  0.284258  0.500000  1
  Rh  Rh16  1  0.715742  0.570496  0.500000  1
  Rh  Rh17  1  0.284258  0.429504  0.500000  1
  Rh  Rh18  1  0.500000  0.000000  0.500000  1
  Rh  Rh19  1  0.000000  0.500000  0.500000  1
