# generated using pymatgen
data_Pr4Nd6CdSi4Ge
_symmetry_space_group_name_H-M   'P 1'
_cell_length_a   7.80379000
_cell_length_b   9.23305958
_cell_length_c   7.80379000
_cell_angle_alpha   114.99887990
_cell_angle_beta   90.00000000
_cell_angle_gamma   114.99887990
_symmetry_Int_Tables_number   1
_chemical_formula_structural   Pr4Nd6CdSi4Ge
_chemical_formula_sum   'Pr4 Nd6 Cd1 Si4 Ge1'
_cell_volume   450.81738168
_cell_formula_units_Z   1
loop_
 _symmetry_equiv_pos_site_id
 _symmetry_equiv_pos_as_xyz
  1  'x, y, z'
loop_
 _atom_site_type_symbol
 _atom_site_label
 _atom_site_symmetry_multiplicity
 _atom_site_fract_x
 _atom_site_fract_y
 _atom_site_fract_z
 _atom_site_occupancy
  Pr  Pr0  1  0.451293  0.279831  0.303948  1
  Pr  Pr1  1  0.828538  0.279831  0.975883  1
  Pr  Pr2  1  0.303948  0.279831  0.828538  1
  Pr  Pr3  1  0.975883  0.279831  0.451293  1
  Nd  Nd4  1  0.975068  0.950136  0.975068  1
  Nd  Nd5  1  0.521739  0.043479  0.521739  1
  Nd  Nd6  1  0.525813  0.722224  0.673492  1
  Nd  Nd7  1  0.196412  0.722224  0.048733  1
  Nd  Nd8  1  0.673492  0.722224  0.196412  1
  Nd  Nd9  1  0.048733  0.722224  0.525813  1
  Cd  Cd10  1  0.749509  0.499018  0.749509  1
  Si  Si11  1  0.883366  0.998143  0.614494  1
  Si  Si12  1  0.114776  0.998143  0.383648  1
  Si  Si13  1  0.614494  0.998143  0.114776  1
  Si  Si14  1  0.383648  0.998143  0.883366  1
  Ge  Ge15  1  0.253288  0.506577  0.253288  1
