# generated using pymatgen
data_TbSmTmTh5(ReC2)4
_symmetry_space_group_name_H-M   'P 1'
_cell_length_a   5.32174800
_cell_length_b   6.66722461
_cell_length_c   9.97108566
_cell_angle_alpha   89.86772080
_cell_angle_beta   90.00000000
_cell_angle_gamma   90.00000000
_symmetry_Int_Tables_number   1
_chemical_formula_structural   TbSmTmTh5(ReC2)4
_chemical_formula_sum   'Tb1 Sm1 Tm1 Th5 Re4 C8'
_cell_volume   353.78603127
_cell_formula_units_Z   1
loop_
 _symmetry_equiv_pos_site_id
 _symmetry_equiv_pos_as_xyz
  1  'x, y, z'
loop_
 _atom_site_type_symbol
 _atom_site_label
 _atom_site_symmetry_multiplicity
 _atom_site_fract_x
 _atom_site_fract_y
 _atom_site_fract_z
 _atom_site_occupancy
  Tb  Tb0  1  0.750000  0.319164  0.448857  1
  Sm  Sm1  1  0.250000  0.683360  0.549255  1
  Tm  Tm2  1  0.250000  0.178743  0.946998  1
  Th  Th3  1  0.750000  0.471313  0.781004  1
  Th  Th4  1  0.250000  0.027633  0.281957  1
  Th  Th5  1  0.750000  0.975213  0.715212  1
  Th  Th6  1  0.250000  0.522355  0.220797  1
  Th  Th7  1  0.750000  0.814179  0.046772  1
  Re  Re8  1  0.750000  0.771504  0.364279  1
  Re  Re9  1  0.250000  0.729750  0.862093  1
  Re  Re10  1  0.250000  0.230056  0.638337  1
  Re  Re11  1  0.750000  0.273253  0.135831  1
  C  C12  1  0.250000  0.966029  0.742334  1
  C  C13  1  0.750000  0.534027  0.243206  1
  C  C14  1  0.250000  0.461771  0.762595  1
  C  C15  1  0.750000  0.039239  0.260686  1
  C  C16  1  0.250000  0.324333  0.449376  1
  C  C17  1  0.750000  0.171220  0.946990  1
  C  C18  1  0.250000  0.833295  0.052086  1
  C  C19  1  0.750000  0.673563  0.551336  1
