# generated using pymatgen
data_BaMn4(CoO4)4
_symmetry_space_group_name_H-M   'P 1'
_cell_length_a   5.77516312
_cell_length_b   6.99997222
_cell_length_c   7.09696437
_cell_angle_alpha   89.82408162
_cell_angle_beta   78.23294889
_cell_angle_gamma   78.07852498
_symmetry_Int_Tables_number   1
_chemical_formula_structural   BaMn4(CoO4)4
_chemical_formula_sum   'Ba1 Mn4 Co4 O16'
_cell_volume   274.58595894
_cell_formula_units_Z   1
loop_
 _symmetry_equiv_pos_site_id
 _symmetry_equiv_pos_as_xyz
  1  'x, y, z'
loop_
 _atom_site_type_symbol
 _atom_site_label
 _atom_site_symmetry_multiplicity
 _atom_site_fract_x
 _atom_site_fract_y
 _atom_site_fract_z
 _atom_site_occupancy
  Ba  Ba0  1  0.009894  0.000385  0.988306  1
  Mn  Mn1  1  0.342040  0.178235  0.472312  1
  Mn  Mn2  1  0.839332  0.178794  0.479079  1
  Mn  Mn3  1  0.425720  0.492250  0.822837  1
  Mn  Mn4  1  0.923109  0.498539  0.822371  1
  Co  Co5  1  0.577553  0.516997  0.189213  1
  Co  Co6  1  0.078561  0.513635  0.189419  1
  Co  Co7  1  0.173076  0.814895  0.511703  1
  Co  Co8  1  0.671147  0.814301  0.515919  1
  O  O9  1  0.827739  0.648824  0.064450  1
  O  O10  1  0.324532  0.647342  0.063668  1
  O  O11  1  0.984472  0.688271  0.388590  1
  O  O12  1  0.485230  0.688653  0.389758  1
  O  O13  1  0.856562  0.957181  0.640008  1
  O  O14  1  0.353458  0.958862  0.637256  1
  O  O15  1  0.343528  0.368056  0.277318  1
  O  O16  1  0.843615  0.363431  0.276121  1
  O  O17  1  0.163104  0.644600  0.725562  1
  O  O18  1  0.661933  0.639122  0.722491  1
  O  O19  1  0.156358  0.034466  0.345640  1
  O  O20  1  0.662264  0.033246  0.347484  1
  O  O21  1  0.027036  0.297032  0.618353  1
  O  O22  1  0.523842  0.301590  0.612354  1
  O  O23  1  0.174198  0.360486  0.949853  1
  O  O24  1  0.678791  0.360809  0.949932  1
