# generated using pymatgen
data_RbVNiO4
_symmetry_space_group_name_H-M   'P 1'
_cell_length_a   10.42072834
_cell_length_b   10.42075511
_cell_length_c   10.42072559
_cell_angle_alpha   28.54539460
_cell_angle_beta   28.54546611
_cell_angle_gamma   28.54524553
_symmetry_Int_Tables_number   1
_chemical_formula_structural   RbVNiO4
_chemical_formula_sum   'Rb2 V2 Ni2 O8'
_cell_volume   228.40112532
_cell_formula_units_Z   2
loop_
 _symmetry_equiv_pos_site_id
 _symmetry_equiv_pos_as_xyz
  1  'x, y, z'
loop_
 _atom_site_type_symbol
 _atom_site_label
 _atom_site_symmetry_multiplicity
 _atom_site_fract_x
 _atom_site_fract_y
 _atom_site_fract_z
 _atom_site_occupancy
  Rb  Rb0  1  0.287476  0.287478  0.287476  1
  Rb  Rb1  1  0.712524  0.712522  0.712524  1
  V  V2  1  0.442263  0.442266  0.442261  1
  V  V3  1  0.557737  0.557734  0.557739  1
  Ni  Ni4  1  0.165318  0.165294  0.165276  1
  Ni  Ni5  1  0.834682  0.834706  0.834724  1
  O  O6  1  0.466144  0.784207  0.131674  1
  O  O7  1  0.868324  0.533845  0.215801  1
  O  O8  1  0.384902  0.384902  0.384902  1
  O  O9  1  0.784204  0.131683  0.466144  1
  O  O10  1  0.215796  0.868317  0.533856  1
  O  O11  1  0.615098  0.615098  0.615098  1
  O  O12  1  0.131676  0.466155  0.784199  1
  O  O13  1  0.533856  0.215793  0.868326  1
