# generated using pymatgen
data_Hf3Tc3As2P
_symmetry_space_group_name_H-M   'P 1'
_cell_length_a   3.53838600
_cell_length_b   6.87965519
_cell_length_c   6.87965500
_cell_angle_alpha   60.02672599
_cell_angle_beta   90.00000000
_cell_angle_gamma   90.00000000
_symmetry_Int_Tables_number   1
_chemical_formula_structural   Hf3Tc3As2P
_chemical_formula_sum   'Hf3 Tc3 As2 P1'
_cell_volume   145.07282481
_cell_formula_units_Z   1
loop_
 _symmetry_equiv_pos_site_id
 _symmetry_equiv_pos_as_xyz
  1  'x, y, z'
loop_
 _atom_site_type_symbol
 _atom_site_label
 _atom_site_symmetry_multiplicity
 _atom_site_fract_x
 _atom_site_fract_y
 _atom_site_fract_z
 _atom_site_occupancy
  Hf  Hf0  1  0.500000  0.599686  0.400314  1
  Hf  Hf1  1  0.500000  0.400316  0.000001  1
  Hf  Hf2  1  0.500000  0.999999  0.599684  1
  Tc  Tc3  1  0.000000  0.241354  0.758646  1
  Tc  Tc4  1  0.000000  0.758643  0.000043  1
  Tc  Tc5  1  0.000000  0.999957  0.241357  1
  As  As6  1  0.000000  0.333330  0.333283  1
  As  As7  1  0.000000  0.666717  0.666670  1
  P  P8  1  0.500000  0.999898  0.000102  1
