# generated using pymatgen
data_GdY3(WO6)2
_symmetry_space_group_name_H-M   'P 1'
_cell_length_a   5.42797000
_cell_length_b   7.74112852
_cell_length_c   11.53390351
_cell_angle_alpha   75.56548445
_cell_angle_beta   90.00000000
_cell_angle_gamma   90.00000000
_symmetry_Int_Tables_number   1
_chemical_formula_structural   GdY3(WO6)2
_chemical_formula_sum   'Gd2 Y6 W4 O24'
_cell_volume   469.34012802
_cell_formula_units_Z   2
loop_
 _symmetry_equiv_pos_site_id
 _symmetry_equiv_pos_as_xyz
  1  'x, y, z'
loop_
 _atom_site_type_symbol
 _atom_site_label
 _atom_site_symmetry_multiplicity
 _atom_site_fract_x
 _atom_site_fract_y
 _atom_site_fract_z
 _atom_site_occupancy
  Gd  Gd0  1  0.316013  0.500000  0.750000  1
  Gd  Gd1  1  0.683987  0.500000  0.250000  1
  Y  Y2  1  0.186205  0.795184  0.077485  1
  Y  Y3  1  0.260479  0.000000  0.750000  1
  Y  Y4  1  0.739521  0.000000  0.250000  1
  Y  Y5  1  0.186205  0.204816  0.422515  1
  Y  Y6  1  0.813795  0.204816  0.922515  1
  Y  Y7  1  0.813795  0.795184  0.577485  1
  W  W8  1  0.745320  0.724429  0.885173  1
  W  W9  1  0.254680  0.724429  0.385173  1
  W  W10  1  0.745320  0.275571  0.614827  1
  W  W11  1  0.254680  0.275571  0.114827  1
  O  O12  1  0.850646  0.363168  0.453217  1
  O  O13  1  0.469190  0.847804  0.930584  1
  O  O14  1  0.850646  0.636832  0.046783  1
  O  O15  1  0.016775  0.288703  0.728117  1
  O  O16  1  0.983225  0.288703  0.228117  1
  O  O17  1  0.149354  0.363168  0.953217  1
  O  O18  1  0.640933  0.491509  0.886677  1
  O  O19  1  0.530810  0.152196  0.069416  1
  O  O20  1  0.149354  0.636832  0.546783  1
  O  O21  1  0.016775  0.711297  0.771883  1
  O  O22  1  0.457005  0.209014  0.272007  1
  O  O23  1  0.043075  0.939767  0.395174  1
  O  O24  1  0.469190  0.152196  0.569416  1
  O  O25  1  0.983225  0.711297  0.271883  1
  O  O26  1  0.956925  0.060233  0.604826  1
  O  O27  1  0.542995  0.209014  0.772007  1
  O  O28  1  0.542995  0.790986  0.727993  1
  O  O29  1  0.043075  0.060233  0.104826  1
  O  O30  1  0.640933  0.508491  0.613323  1
  O  O31  1  0.359067  0.508491  0.113323  1
  O  O32  1  0.457005  0.790986  0.227993  1
  O  O33  1  0.359067  0.491509  0.386677  1
  O  O34  1  0.530810  0.847804  0.430584  1
  O  O35  1  0.956925  0.939767  0.895174  1
