# generated using pymatgen
data_TbHo11(OsRu)2
_symmetry_space_group_name_H-M   'P 1'
_cell_length_a   6.30557023
_cell_length_b   7.34138627
_cell_length_c   9.09371600
_cell_angle_alpha   90.00000000
_cell_angle_beta   90.00000000
_cell_angle_gamma   89.96900518
_symmetry_Int_Tables_number   1
_chemical_formula_structural   TbHo11(OsRu)2
_chemical_formula_sum   'Tb1 Ho11 Os2 Ru2'
_cell_volume   420.96284485
_cell_formula_units_Z   1
loop_
 _symmetry_equiv_pos_site_id
 _symmetry_equiv_pos_as_xyz
  1  'x, y, z'
loop_
 _atom_site_type_symbol
 _atom_site_label
 _atom_site_symmetry_multiplicity
 _atom_site_fract_x
 _atom_site_fract_y
 _atom_site_fract_z
 _atom_site_occupancy
  Tb  Tb0  1  0.132846  0.458998  0.750000  1
  Ho  Ho1  1  0.329353  0.676741  0.064621  1
  Ho  Ho2  1  0.171051  0.175996  0.435474  1
  Ho  Ho3  1  0.667328  0.324507  0.562615  1
  Ho  Ho4  1  0.831850  0.824946  0.937082  1
  Ho  Ho5  1  0.667328  0.324507  0.937385  1
  Ho  Ho6  1  0.831850  0.824946  0.562918  1
  Ho  Ho7  1  0.329353  0.676741  0.435379  1
  Ho  Ho8  1  0.171051  0.175996  0.064526  1
  Ho  Ho9  1  0.868101  0.538706  0.250000  1
  Ho  Ho10  1  0.631895  0.038637  0.250000  1
  Ho  Ho11  1  0.367015  0.959043  0.750000  1
  Os  Os12  1  0.038799  0.884397  0.250000  1
  Os  Os13  1  0.461300  0.384264  0.250000  1
  Ru  Ru14  1  0.962503  0.115240  0.750000  1
  Ru  Ru15  1  0.538379  0.616333  0.750000  1
