# generated using pymatgen
data_Nd3LuPa2(Co3P2)6
_symmetry_space_group_name_H-M   'P 1'
_cell_length_a   3.74072200
_cell_length_b   10.56389706
_cell_length_c   12.22738007
_cell_angle_alpha   89.98788435
_cell_angle_beta   90.00000000
_cell_angle_gamma   90.00000000
_symmetry_Int_Tables_number   1
_chemical_formula_structural   Nd3LuPa2(Co3P2)6
_chemical_formula_sum   'Nd3 Lu1 Pa2 Co18 P12'
_cell_volume   483.18450251
_cell_formula_units_Z   1
loop_
 _symmetry_equiv_pos_site_id
 _symmetry_equiv_pos_as_xyz
  1  'x, y, z'
loop_
 _atom_site_type_symbol
 _atom_site_label
 _atom_site_symmetry_multiplicity
 _atom_site_fract_x
 _atom_site_fract_y
 _atom_site_fract_z
 _atom_site_occupancy
  Nd  Nd0  1  0.500000  0.814228  0.204782  1
  Nd  Nd1  1  0.500000  0.186236  0.206931  1
  Nd  Nd2  1  0.000000  0.684515  0.793568  1
  Lu  Lu3  1  0.000000  0.314244  0.794190  1
  Pa  Pa4  1  0.000000  0.498030  0.528714  1
  Pa  Pa5  1  0.500000  0.999598  0.473256  1
  Co  Co6  1  0.500000  0.498503  0.158055  1
  Co  Co7  1  0.000000  0.001776  0.841495  1
  Co  Co8  1  0.500000  0.497294  0.695168  1
  Co  Co9  1  0.000000  0.000452  0.307436  1
  Co  Co10  1  0.000000  0.497312  0.981525  1
  Co  Co11  1  0.500000  0.002389  0.012912  1
  Co  Co12  1  0.500000  0.334056  0.991553  1
  Co  Co13  1  0.500000  0.663467  0.993187  1
  Co  Co14  1  0.000000  0.168205  0.002999  1
  Co  Co15  1  0.000000  0.834463  0.004200  1
  Co  Co16  1  0.500000  0.302919  0.435103  1
  Co  Co17  1  0.500000  0.696635  0.431599  1
  Co  Co18  1  0.000000  0.198297  0.572423  1
  Co  Co19  1  0.000000  0.802331  0.568477  1
  Co  Co20  1  0.500000  0.883615  0.708749  1
  Co  Co21  1  0.500000  0.121720  0.712912  1
  Co  Co22  1  0.000000  0.617348  0.289781  1
  Co  Co23  1  0.000000  0.382418  0.291852  1
  P  P24  1  0.500000  0.495740  0.877730  1
  P  P25  1  0.000000  0.001341  0.117155  1
  P  P26  1  0.500000  0.499905  0.343302  1
  P  P27  1  0.000000  0.000186  0.657600  1
  P  P28  1  0.500000  0.306102  0.619656  1
  P  P29  1  0.500000  0.693088  0.613561  1
  P  P30  1  0.000000  0.194964  0.388987  1
  P  P31  1  0.000000  0.805115  0.386173  1
  P  P32  1  0.500000  0.849444  0.895695  1
  P  P33  1  0.500000  0.155102  0.893274  1
  P  P34  1  0.000000  0.648614  0.101959  1
  P  P35  1  0.000000  0.350350  0.104042  1
