# generated using pymatgen
data_NaTb5DyRhI12
_symmetry_space_group_name_H-M   'P 1'
_cell_length_a   9.77599745
_cell_length_b   9.78422146
_cell_length_c   9.87546018
_cell_angle_alpha   107.00446180
_cell_angle_beta   106.77709711
_cell_angle_gamma   106.71943368
_symmetry_Int_Tables_number   1
_chemical_formula_structural   NaTb5DyRhI12
_chemical_formula_sum   'Na1 Tb5 Dy1 Rh1 I12'
_cell_volume   790.20408844
_cell_formula_units_Z   1
loop_
 _symmetry_equiv_pos_site_id
 _symmetry_equiv_pos_as_xyz
  1  'x, y, z'
loop_
 _atom_site_type_symbol
 _atom_site_label
 _atom_site_symmetry_multiplicity
 _atom_site_fract_x
 _atom_site_fract_y
 _atom_site_fract_z
 _atom_site_occupancy
  Na  Na0  1  0.499989  0.500038  0.500011  1
  Tb  Tb1  1  0.972296  0.700561  0.902359  1
  Tb  Tb2  1  0.701458  0.901492  0.972811  1
  Tb  Tb3  1  0.102687  0.028012  0.312169  1
  Tb  Tb4  1  0.027476  0.299325  0.097056  1
  Tb  Tb5  1  0.298498  0.098475  0.027203  1
  Dy  Dy6  1  0.897640  0.972124  0.689242  1
  Rh  Rh7  1  0.000078  0.999577  0.999853  1
  I  I8  1  0.550138  0.859003  0.630069  1
  I  I9  1  0.859465  0.629301  0.551466  1
  I  I10  1  0.627238  0.548910  0.857304  1
  I  I11  1  0.451112  0.141553  0.369762  1
  I  I12  1  0.140516  0.372019  0.448334  1
  I  I13  1  0.372730  0.451024  0.142637  1
  I  I14  1  0.681006  0.224222  0.074982  1
  I  I15  1  0.225106  0.074667  0.680936  1
  I  I16  1  0.074133  0.678877  0.222592  1
  I  I17  1  0.318936  0.775677  0.924943  1
  I  I18  1  0.773996  0.925206  0.319884  1
  I  I19  1  0.925504  0.319936  0.776387  1
