# generated using pymatgen
data_Ce8Al8Os5Rh3
_symmetry_space_group_name_H-M   'P 1'
_cell_length_a   4.15055000
_cell_length_b   7.17630390
_cell_length_c   15.91429346
_cell_angle_alpha   90.01477608
_cell_angle_beta   90.00000000
_cell_angle_gamma   90.00000000
_symmetry_Int_Tables_number   1
_chemical_formula_structural   Ce8Al8Os5Rh3
_chemical_formula_sum   'Ce8 Al8 Os5 Rh3'
_cell_volume   474.01689310
_cell_formula_units_Z   1
loop_
 _symmetry_equiv_pos_site_id
 _symmetry_equiv_pos_as_xyz
  1  'x, y, z'
loop_
 _atom_site_type_symbol
 _atom_site_label
 _atom_site_symmetry_multiplicity
 _atom_site_fract_x
 _atom_site_fract_y
 _atom_site_fract_z
 _atom_site_occupancy
  Ce  Ce0  1  0.250000  0.166067  0.559354  1
  Ce  Ce1  1  0.750000  0.835648  0.441616  1
  Ce  Ce2  1  0.250000  0.667812  0.938924  1
  Ce  Ce3  1  0.750000  0.334621  0.058077  1
  Ce  Ce4  1  0.250000  0.043935  0.782315  1
  Ce  Ce5  1  0.750000  0.951574  0.218622  1
  Ce  Ce6  1  0.250000  0.549598  0.719734  1
  Ce  Ce7  1  0.750000  0.451900  0.281293  1
  Al  Al8  1  0.250000  0.130834  0.350513  1
  Al  Al9  1  0.750000  0.868286  0.651033  1
  Al  Al10  1  0.250000  0.630486  0.149108  1
  Al  Al11  1  0.750000  0.371969  0.850886  1
  Al  Al12  1  0.250000  0.997261  0.062377  1
  Al  Al13  1  0.750000  0.002034  0.936836  1
  Al  Al14  1  0.250000  0.498548  0.437901  1
  Al  Al15  1  0.750000  0.503658  0.562716  1
  Os  Os16  1  0.750000  0.263949  0.432423  1
  Os  Os17  1  0.250000  0.739462  0.567197  1
  Os  Os18  1  0.750000  0.763298  0.067153  1
  Os  Os19  1  0.250000  0.235665  0.932454  1
  Os  Os20  1  0.750000  0.744150  0.815589  1
  Rh  Rh21  1  0.250000  0.249176  0.185590  1
  Rh  Rh22  1  0.750000  0.252342  0.684591  1
  Rh  Rh23  1  0.250000  0.747729  0.313699  1
