# generated using pymatgen
data_Ca2DyHo(Ru2O7)2
_symmetry_space_group_name_H-M   'P 1'
_cell_length_a   7.25574959
_cell_length_b   7.25574822
_cell_length_c   7.28059640
_cell_angle_alpha   59.90120362
_cell_angle_beta   59.90122293
_cell_angle_gamma   59.68385408
_symmetry_Int_Tables_number   1
_chemical_formula_structural   Ca2DyHo(Ru2O7)2
_chemical_formula_sum   'Ca2 Dy1 Ho1 Ru4 O14'
_cell_volume   269.97344630
_cell_formula_units_Z   1
loop_
 _symmetry_equiv_pos_site_id
 _symmetry_equiv_pos_as_xyz
  1  'x, y, z'
loop_
 _atom_site_type_symbol
 _atom_site_label
 _atom_site_symmetry_multiplicity
 _atom_site_fract_x
 _atom_site_fract_y
 _atom_site_fract_z
 _atom_site_occupancy
  Ca  Ca0  1  0.625000  0.125000  0.625000  1
  Ca  Ca1  1  0.125000  0.625000  0.625000  1
  Dy  Dy2  1  0.625000  0.625000  0.625000  1
  Ho  Ho3  1  0.625000  0.625000  0.125000  1
  Ru  Ru4  1  0.625000  0.125000  0.125000  1
  Ru  Ru5  1  0.125000  0.625000  0.125000  1
  Ru  Ru6  1  0.125000  0.125000  0.625000  1
  Ru  Ru7  1  0.125000  0.125000  0.125000  1
  O  O8  1  0.195853  0.195853  0.804215  1
  O  O9  1  0.206137  0.797201  0.197167  1
  O  O10  1  0.452799  0.043863  0.052833  1
  O  O11  1  0.205861  0.796922  0.799011  1
  O  O12  1  0.044139  0.453078  0.450989  1
  O  O13  1  0.791715  0.791715  0.207487  1
  O  O14  1  0.458285  0.458285  0.042513  1
  O  O15  1  0.506497  0.506497  0.492553  1
  O  O16  1  0.054147  0.054147  0.445785  1
  O  O17  1  0.453078  0.044139  0.450989  1
  O  O18  1  0.043863  0.452799  0.052833  1
  O  O19  1  0.743503  0.743503  0.757447  1
  O  O20  1  0.796922  0.205861  0.799011  1
  O  O21  1  0.797201  0.206137  0.197167  1
