# generated using pymatgen
data_TbHo14Th(InIr)4
_symmetry_space_group_name_H-M   'P 1'
_cell_length_a   9.66501048
_cell_length_b   9.65728780
_cell_length_c   9.66290621
_cell_angle_alpha   60.04768551
_cell_angle_beta   59.99241053
_cell_angle_gamma   59.97325380
_symmetry_Int_Tables_number   1
_chemical_formula_structural   TbHo14Th(InIr)4
_chemical_formula_sum   'Tb1 Ho14 Th1 In4 Ir4'
_cell_volume   637.81347094
_cell_formula_units_Z   1
loop_
 _symmetry_equiv_pos_site_id
 _symmetry_equiv_pos_as_xyz
  1  'x, y, z'
loop_
 _atom_site_type_symbol
 _atom_site_label
 _atom_site_symmetry_multiplicity
 _atom_site_fract_x
 _atom_site_fract_y
 _atom_site_fract_z
 _atom_site_occupancy
  Tb  Tb0  1  0.559369  0.940309  0.940948  1
  Ho  Ho1  1  0.941795  0.940160  0.558646  1
  Ho  Ho2  1  0.940193  0.558067  0.939076  1
  Ho  Ho3  1  0.311011  0.688390  0.312092  1
  Ho  Ho4  1  0.939628  0.559040  0.561703  1
  Ho  Ho5  1  0.310306  0.309238  0.690258  1
  Ho  Ho6  1  0.098280  0.100517  0.099652  1
  Ho  Ho7  1  0.562653  0.558077  0.939078  1
  Ho  Ho8  1  0.099253  0.101677  0.699849  1
  Ho  Ho9  1  0.690197  0.309236  0.690260  1
  Ho  Ho10  1  0.688501  0.688388  0.312095  1
  Ho  Ho11  1  0.689840  0.309156  0.311165  1
  Ho  Ho12  1  0.311115  0.688759  0.689011  1
  Ho  Ho13  1  0.559389  0.940162  0.558658  1
  Ho  Ho14  1  0.701543  0.100526  0.099673  1
  Th  Th15  1  0.096688  0.708739  0.097878  1
  In  In16  1  0.333590  0.332962  0.333432  1
  In  In17  1  0.000021  0.332959  0.333421  1
  In  In18  1  0.333070  0.000256  0.333603  1
  In  In19  1  0.333288  0.333236  0.000185  1
  Ir  Ir20  1  0.892171  0.892035  0.891168  1
  Ir  Ir21  1  0.891504  0.891782  0.325211  1
  Ir  Ir22  1  0.324629  0.892037  0.891166  1
  Ir  Ir23  1  0.891967  0.324293  0.891776  1
