# generated using pymatgen
data_Mg3MoPd12
_symmetry_space_group_name_H-M   'P 1'
_cell_length_a   5.60113900
_cell_length_b   5.60113900
_cell_length_c   7.92019500
_cell_angle_alpha   90.00000000
_cell_angle_beta   90.00000000
_cell_angle_gamma   90.00143210
_symmetry_Int_Tables_number   1
_chemical_formula_structural   Mg3MoPd12
_chemical_formula_sum   'Mg3 Mo1 Pd12'
_cell_volume   248.47836178
_cell_formula_units_Z   1
loop_
 _symmetry_equiv_pos_site_id
 _symmetry_equiv_pos_as_xyz
  1  'x, y, z'
loop_
 _atom_site_type_symbol
 _atom_site_label
 _atom_site_symmetry_multiplicity
 _atom_site_fract_x
 _atom_site_fract_y
 _atom_site_fract_z
 _atom_site_occupancy
  Mg  Mg0  1  0.000000  0.500000  0.249905  1
  Mg  Mg1  1  0.500000  0.000000  0.750077  1
  Mg  Mg2  1  0.000000  0.500000  0.750089  1
  Mo  Mo3  1  0.500000  0.000000  0.250002  1
  Pd  Pd4  1  0.746965  0.246966  0.004314  1
  Pd  Pd5  1  0.253001  0.246999  0.004307  1
  Pd  Pd6  1  0.746999  0.753000  0.004307  1
  Pd  Pd7  1  0.253034  0.753034  0.004314  1
  Pd  Pd8  1  0.000000  0.000000  0.250012  1
  Pd  Pd9  1  0.500000  0.500000  0.250012  1
  Pd  Pd10  1  0.253053  0.246946  0.495679  1
  Pd  Pd11  1  0.747051  0.247049  0.495689  1
  Pd  Pd12  1  0.252950  0.752950  0.495689  1
  Pd  Pd13  1  0.746946  0.753055  0.495679  1
  Pd  Pd14  1  0.000000  0.000000  0.749964  1
  Pd  Pd15  1  0.500000  0.500000  0.749964  1
