# generated using pymatgen
data_Ca20Cd3Ag8Sn
_symmetry_space_group_name_H-M   'P 1'
_cell_length_a   8.13837600
_cell_length_b   8.13837600
_cell_length_c   14.90655800
_cell_angle_alpha   90.00000000
_cell_angle_beta   90.00000000
_cell_angle_gamma   90.00000000
_symmetry_Int_Tables_number   1
_chemical_formula_structural   Ca20Cd3Ag8Sn
_chemical_formula_sum   'Ca20 Cd3 Ag8 Sn1'
_cell_volume   987.30849946
_cell_formula_units_Z   1
loop_
 _symmetry_equiv_pos_site_id
 _symmetry_equiv_pos_as_xyz
  1  'x, y, z'
loop_
 _atom_site_type_symbol
 _atom_site_label
 _atom_site_symmetry_multiplicity
 _atom_site_fract_x
 _atom_site_fract_y
 _atom_site_fract_z
 _atom_site_occupancy
  Ca  Ca0  1  0.670720  0.164032  0.105925  1
  Ca  Ca1  1  0.167019  0.667954  0.607606  1
  Ca  Ca2  1  0.329280  0.835968  0.105925  1
  Ca  Ca3  1  0.832981  0.332046  0.607606  1
  Ca  Ca4  1  0.835968  0.670720  0.105925  1
  Ca  Ca5  1  0.332046  0.167019  0.607606  1
  Ca  Ca6  1  0.164032  0.329280  0.105925  1
  Ca  Ca7  1  0.667954  0.832981  0.607606  1
  Ca  Ca8  1  0.835968  0.329280  0.894075  1
  Ca  Ca9  1  0.332046  0.832981  0.392394  1
  Ca  Ca10  1  0.164032  0.670720  0.894075  1
  Ca  Ca11  1  0.667954  0.167019  0.392394  1
  Ca  Ca12  1  0.670720  0.835968  0.894075  1
  Ca  Ca13  1  0.167019  0.332046  0.392394  1
  Ca  Ca14  1  0.329280  0.164032  0.894075  1
  Ca  Ca15  1  0.832981  0.667954  0.392394  1
  Ca  Ca16  1  0.500000  0.500000  0.752603  1
  Ca  Ca17  1  0.000000  0.000000  0.247149  1
  Ca  Ca18  1  0.000000  0.000000  0.752851  1
  Ca  Ca19  1  0.500000  0.500000  0.247397  1
  Cd  Cd20  1  0.500000  0.500000  0.500000  1
  Cd  Cd21  1  0.500000  0.500000  0.000000  1
  Cd  Cd22  1  0.000000  0.000000  0.500000  1
  Ag  Ag23  1  0.625129  0.127267  0.750263  1
  Ag  Ag24  1  0.127267  0.625129  0.249737  1
  Ag  Ag25  1  0.872733  0.374871  0.249737  1
  Ag  Ag26  1  0.374871  0.872733  0.750263  1
  Ag  Ag27  1  0.872733  0.625129  0.750263  1
  Ag  Ag28  1  0.374871  0.127267  0.249737  1
  Ag  Ag29  1  0.127267  0.374871  0.750263  1
  Ag  Ag30  1  0.625129  0.872733  0.249737  1
  Sn  Sn31  1  0.000000  0.000000  0.000000  1
