# generated using pymatgen
data_Ho5ErCo16(TcP6)2
_symmetry_space_group_name_H-M   'P 1'
_cell_length_a   3.70032900
_cell_length_b   10.51479300
_cell_length_c   12.19590300
_cell_angle_alpha   89.99963282
_cell_angle_beta   90.00000000
_cell_angle_gamma   90.00000000
_symmetry_Int_Tables_number   1
_chemical_formula_structural   Ho5ErCo16(TcP6)2
_chemical_formula_sum   'Ho5 Er1 Co16 Tc2 P12'
_cell_volume   474.52055342
_cell_formula_units_Z   1
loop_
 _symmetry_equiv_pos_site_id
 _symmetry_equiv_pos_as_xyz
  1  'x, y, z'
loop_
 _atom_site_type_symbol
 _atom_site_label
 _atom_site_symmetry_multiplicity
 _atom_site_fract_x
 _atom_site_fract_y
 _atom_site_fract_z
 _atom_site_occupancy
  Ho  Ho0  1  0.000000  0.499988  0.524250  1
  Ho  Ho1  1  0.500000  0.999914  0.475695  1
  Ho  Ho2  1  0.500000  0.182232  0.205960  1
  Ho  Ho3  1  0.000000  0.682392  0.793937  1
  Ho  Ho4  1  0.000000  0.317701  0.794142  1
  Er  Er5  1  0.500000  0.817838  0.206074  1
  Co  Co6  1  0.000000  0.500252  0.987416  1
  Co  Co7  1  0.500000  0.999704  0.012873  1
  Co  Co8  1  0.500000  0.296402  0.431110  1
  Co  Co9  1  0.500000  0.703477  0.430824  1
  Co  Co10  1  0.000000  0.203361  0.568908  1
  Co  Co11  1  0.000000  0.796505  0.568629  1
  Co  Co12  1  0.500000  0.878901  0.707427  1
  Co  Co13  1  0.500000  0.121083  0.707655  1
  Co  Co14  1  0.000000  0.621399  0.292202  1
  Co  Co15  1  0.000000  0.378971  0.292453  1
  Co  Co16  1  0.500000  0.332163  0.990097  1
  Co  Co17  1  0.500000  0.667973  0.990160  1
  Co  Co18  1  0.000000  0.167776  0.010033  1
  Co  Co19  1  0.000000  0.832148  0.010299  1
  Co  Co20  1  0.500000  0.500018  0.702513  1
  Co  Co21  1  0.000000  0.999806  0.297344  1
  Tc  Tc22  1  0.500000  0.500031  0.156288  1
  Tc  Tc23  1  0.000000  0.999976  0.843782  1
  P  P24  1  0.500000  0.311949  0.616273  1
  P  P25  1  0.500000  0.688078  0.616043  1
  P  P26  1  0.000000  0.187912  0.383726  1
  P  P27  1  0.000000  0.812014  0.383294  1
  P  P28  1  0.500000  0.500118  0.880945  1
  P  P29  1  0.000000  0.999741  0.119282  1
  P  P30  1  0.500000  0.846008  0.892415  1
  P  P31  1  0.500000  0.153988  0.892587  1
  P  P32  1  0.000000  0.654318  0.107809  1
  P  P33  1  0.000000  0.345949  0.107574  1
  P  P34  1  0.500000  0.499912  0.349322  1
  P  P35  1  0.000000  0.999998  0.650659  1
