# generated using pymatgen
data_Na2Fe6Ni6P7
_symmetry_space_group_name_H-M   'P 1'
_cell_length_a   9.04118200
_cell_length_b   9.04118311
_cell_length_c   3.58905100
_cell_angle_alpha   90.00000000
_cell_angle_beta   90.00000000
_cell_angle_gamma   120.00000325
_symmetry_Int_Tables_number   1
_chemical_formula_structural   Na2Fe6Ni6P7
_chemical_formula_sum   'Na2 Fe6 Ni6 P7'
_cell_volume   254.07429200
_cell_formula_units_Z   1
loop_
 _symmetry_equiv_pos_site_id
 _symmetry_equiv_pos_as_xyz
  1  'x, y, z'
loop_
 _atom_site_type_symbol
 _atom_site_label
 _atom_site_symmetry_multiplicity
 _atom_site_fract_x
 _atom_site_fract_y
 _atom_site_fract_z
 _atom_site_occupancy
  Na  Na0  1  0.333333  0.666667  0.000000  1
  Na  Na1  1  0.000000  0.000000  0.500000  1
  Fe  Fe2  1  0.548501  0.059462  0.000000  1
  Fe  Fe3  1  0.940538  0.489040  0.000000  1
  Fe  Fe4  1  0.510960  0.451499  0.000000  1
  Fe  Fe5  1  0.790680  0.237845  0.500000  1
  Fe  Fe6  1  0.762155  0.552835  0.500000  1
  Fe  Fe7  1  0.447165  0.209320  0.500000  1
  Ni  Ni8  1  0.041993  0.273924  0.000000  1
  Ni  Ni9  1  0.726076  0.768069  0.000000  1
  Ni  Ni10  1  0.231931  0.958007  0.000000  1
  Ni  Ni11  1  0.616489  0.895822  0.500000  1
  Ni  Ni12  1  0.104178  0.720666  0.500000  1
  Ni  Ni13  1  0.279334  0.383511  0.500000  1
  P  P14  1  0.781605  0.042804  0.000000  1
  P  P15  1  0.957196  0.738801  0.000000  1
  P  P16  1  0.261199  0.218395  0.000000  1
  P  P17  1  0.383049  0.934973  0.500000  1
  P  P18  1  0.065027  0.448077  0.500000  1
  P  P19  1  0.551923  0.616951  0.500000  1
  P  P20  1  0.666667  0.333333  0.000000  1
