# generated using pymatgen
data_LiTb6Y10Cd3Pt4
_symmetry_space_group_name_H-M   'P 1'
_cell_length_a   9.73540317
_cell_length_b   9.73857509
_cell_length_c   9.73857493
_cell_angle_alpha   59.83891498
_cell_angle_beta   59.90532098
_cell_angle_gamma   59.90532084
_symmetry_Int_Tables_number   1
_chemical_formula_structural   LiTb6Y10Cd3Pt4
_chemical_formula_sum   'Li1 Tb6 Y10 Cd3 Pt4'
_cell_volume   651.14362403
_cell_formula_units_Z   1
loop_
 _symmetry_equiv_pos_site_id
 _symmetry_equiv_pos_as_xyz
  1  'x, y, z'
loop_
 _atom_site_type_symbol
 _atom_site_label
 _atom_site_symmetry_multiplicity
 _atom_site_fract_x
 _atom_site_fract_y
 _atom_site_fract_z
 _atom_site_occupancy
  Li  Li0  1  0.572379  0.571278  0.571278  1
  Tb  Tb1  1  0.350942  0.351477  0.351477  1
  Tb  Tb2  1  0.352566  0.351941  0.944321  1
  Tb  Tb3  1  0.352566  0.944321  0.351941  1
  Tb  Tb4  1  0.944425  0.352458  0.352458  1
  Tb  Tb5  1  0.810413  0.191612  0.191612  1
  Tb  Tb6  1  0.187887  0.812847  0.812847  1
  Y  Y7  1  0.192196  0.809810  0.192294  1
  Y  Y8  1  0.811988  0.188201  0.812226  1
  Y  Y9  1  0.192196  0.192294  0.809810  1
  Y  Y10  1  0.811988  0.812226  0.188201  1
  Y  Y11  1  0.936237  0.565113  0.565113  1
  Y  Y12  1  0.563825  0.936137  0.936137  1
  Y  Y13  1  0.564557  0.937180  0.564712  1
  Y  Y14  1  0.936510  0.563576  0.936286  1
  Y  Y15  1  0.564557  0.564712  0.937180  1
  Y  Y16  1  0.936510  0.936286  0.563576  1
  Cd  Cd17  1  0.582338  0.582845  0.253191  1
  Cd  Cd18  1  0.582338  0.253191  0.582845  1
  Cd  Cd19  1  0.253340  0.582161  0.582161  1
  Pt  Pt20  1  0.143213  0.144353  0.144353  1
  Pt  Pt21  1  0.143318  0.142119  0.570533  1
  Pt  Pt22  1  0.143318  0.570533  0.142119  1
  Pt  Pt23  1  0.570392  0.143329  0.143329  1
