# generated using pymatgen
data_Tb6Dy(HoSi2)3
_symmetry_space_group_name_H-M   'P 1'
_cell_length_a   8.47262800
_cell_length_b   8.47262743
_cell_length_c   6.37867500
_cell_angle_alpha   90.00000000
_cell_angle_beta   90.00000000
_cell_angle_gamma   119.99999443
_symmetry_Int_Tables_number   1
_chemical_formula_structural   Tb6Dy(HoSi2)3
_chemical_formula_sum   'Tb6 Dy1 Ho3 Si6'
_cell_volume   396.54947473
_cell_formula_units_Z   1
loop_
 _symmetry_equiv_pos_site_id
 _symmetry_equiv_pos_as_xyz
  1  'x, y, z'
loop_
 _atom_site_type_symbol
 _atom_site_label
 _atom_site_symmetry_multiplicity
 _atom_site_fract_x
 _atom_site_fract_y
 _atom_site_fract_z
 _atom_site_occupancy
  Tb  Tb0  1  0.999924  0.756185  0.750077  1
  Tb  Tb1  1  0.999924  0.243739  0.249923  1
  Tb  Tb2  1  0.756261  0.756185  0.249923  1
  Tb  Tb3  1  0.756261  0.000076  0.750077  1
  Tb  Tb4  1  0.243815  0.243739  0.750077  1
  Tb  Tb5  1  0.243815  0.000076  0.249923  1
  Dy  Dy6  1  0.333333  0.666667  0.500000  1
  Ho  Ho7  1  0.666667  0.333333  0.000000  1
  Ho  Ho8  1  0.666667  0.333333  0.500000  1
  Ho  Ho9  1  0.333333  0.666667  0.000000  1
  Si  Si10  1  0.394845  0.000231  0.750198  1
  Si  Si11  1  0.394845  0.394614  0.249802  1
  Si  Si12  1  0.999769  0.605155  0.249802  1
  Si  Si13  1  0.999769  0.394614  0.750198  1
  Si  Si14  1  0.605386  0.605155  0.750198  1
  Si  Si15  1  0.605386  0.000231  0.249802  1
