# generated using pymatgen
data_TbHfReB6
_symmetry_space_group_name_H-M   'P 1'
_cell_length_a   3.60295300
_cell_length_b   9.01354700
_cell_length_c   11.40823800
_cell_angle_alpha   90.00000000
_cell_angle_beta   90.00000000
_cell_angle_gamma   90.00000000
_symmetry_Int_Tables_number   1
_chemical_formula_structural   TbHfReB6
_chemical_formula_sum   'Tb4 Hf4 Re4 B24'
_cell_volume   370.48693496
_cell_formula_units_Z   4
loop_
 _symmetry_equiv_pos_site_id
 _symmetry_equiv_pos_as_xyz
  1  'x, y, z'
loop_
 _atom_site_type_symbol
 _atom_site_label
 _atom_site_symmetry_multiplicity
 _atom_site_fract_x
 _atom_site_fract_y
 _atom_site_fract_z
 _atom_site_occupancy
  Tb  Tb0  1  0.000000  0.322244  0.414172  1
  Tb  Tb1  1  0.000000  0.677756  0.585828  1
  Tb  Tb2  1  0.000000  0.822244  0.085828  1
  Tb  Tb3  1  0.000000  0.177756  0.914172  1
  Hf  Hf4  1  0.000000  0.945051  0.372574  1
  Hf  Hf5  1  0.000000  0.054949  0.627426  1
  Hf  Hf6  1  0.000000  0.445051  0.127426  1
  Hf  Hf7  1  0.000000  0.554949  0.872574  1
  Re  Re8  1  0.000000  0.640619  0.317705  1
  Re  Re9  1  0.000000  0.359381  0.682295  1
  Re  Re10  1  0.000000  0.140619  0.182295  1
  Re  Re11  1  0.000000  0.859381  0.817705  1
  B  B12  1  0.500000  0.554709  0.432861  1
  B  B13  1  0.500000  0.445291  0.567139  1
  B  B14  1  0.500000  0.054709  0.067139  1
  B  B15  1  0.500000  0.945291  0.932861  1
  B  B16  1  0.500000  0.752765  0.417863  1
  B  B17  1  0.500000  0.247235  0.582137  1
  B  B18  1  0.500000  0.252765  0.082137  1
  B  B19  1  0.500000  0.747235  0.917863  1
  B  B20  1  0.500000  0.794834  0.264557  1
  B  B21  1  0.500000  0.205166  0.735443  1
  B  B22  1  0.500000  0.294834  0.235443  1
  B  B23  1  0.500000  0.705166  0.764557  1
  B  B24  1  0.500000  0.629807  0.183208  1
  B  B25  1  0.500000  0.370193  0.816792  1
  B  B26  1  0.500000  0.129807  0.316792  1
  B  B27  1  0.500000  0.870193  0.683208  1
  B  B28  1  0.500000  0.981986  0.213931  1
  B  B29  1  0.500000  0.018014  0.786069  1
  B  B30  1  0.500000  0.481986  0.286069  1
  B  B31  1  0.500000  0.518014  0.713931  1
  B  B32  1  0.500000  0.599374  0.026561  1
  B  B33  1  0.500000  0.400626  0.973439  1
  B  B34  1  0.500000  0.099374  0.473439  1
  B  B35  1  0.500000  0.900626  0.526561  1
