# generated using pymatgen
data_Yb3Eu(CdPt)4
_symmetry_space_group_name_H-M   'P 1'
_cell_length_a   4.24231200
_cell_length_b   7.29684048
_cell_length_c   8.76024547
_cell_angle_alpha   90.03970219
_cell_angle_beta   90.00000000
_cell_angle_gamma   90.00000000
_symmetry_Int_Tables_number   1
_chemical_formula_structural   Yb3Eu(CdPt)4
_chemical_formula_sum   'Yb3 Eu1 Cd4 Pt4'
_cell_volume   271.17748542
_cell_formula_units_Z   1
loop_
 _symmetry_equiv_pos_site_id
 _symmetry_equiv_pos_as_xyz
  1  'x, y, z'
loop_
 _atom_site_type_symbol
 _atom_site_label
 _atom_site_symmetry_multiplicity
 _atom_site_fract_x
 _atom_site_fract_y
 _atom_site_fract_z
 _atom_site_occupancy
  Yb  Yb0  1  0.250000  0.039451  0.321891  1
  Yb  Yb1  1  0.250000  0.540800  0.181697  1
  Yb  Yb2  1  0.750000  0.958907  0.674502  1
  Eu  Eu3  1  0.750000  0.460061  0.822772  1
  Cd  Cd4  1  0.250000  0.137711  0.938713  1
  Cd  Cd5  1  0.250000  0.642913  0.560289  1
  Cd  Cd6  1  0.750000  0.862062  0.064379  1
  Cd  Cd7  1  0.750000  0.359751  0.438285  1
  Pt  Pt8  1  0.250000  0.243604  0.627109  1
  Pt  Pt9  1  0.250000  0.755133  0.869151  1
  Pt  Pt10  1  0.750000  0.750175  0.369822  1
  Pt  Pt11  1  0.750000  0.249433  0.131393  1
