# generated using pymatgen
data_Tb4Y3IrI12
_symmetry_space_group_name_H-M   'P 1'
_cell_length_a   9.82094372
_cell_length_b   9.82172465
_cell_length_c   9.82373448
_cell_angle_alpha   106.89365964
_cell_angle_beta   106.88482958
_cell_angle_gamma   106.89416945
_symmetry_Int_Tables_number   1
_chemical_formula_structural   Tb4Y3IrI12
_chemical_formula_sum   'Tb4 Y3 Ir1 I12'
_cell_volume   791.49396705
_cell_formula_units_Z   1
loop_
 _symmetry_equiv_pos_site_id
 _symmetry_equiv_pos_as_xyz
  1  'x, y, z'
loop_
 _atom_site_type_symbol
 _atom_site_label
 _atom_site_symmetry_multiplicity
 _atom_site_fract_x
 _atom_site_fract_y
 _atom_site_fract_z
 _atom_site_occupancy
  Tb  Tb0  1  0.023173  0.296998  0.095035  1
  Tb  Tb1  1  0.905320  0.977622  0.702995  1
  Tb  Tb2  1  0.703085  0.905012  0.977801  1
  Tb  Tb3  1  0.977851  0.703402  0.905516  1
  Y  Y4  1  0.094694  0.022595  0.297074  1
  Y  Y5  1  0.297226  0.094675  0.023003  1
  Y  Y6  1  0.499823  0.499723  0.499808  1
  Ir  Ir7  1  0.000147  0.000124  0.000110  1
  I  I8  1  0.069637  0.675541  0.224446  1
  I  I9  1  0.224431  0.069621  0.674869  1
  I  I10  1  0.674844  0.224651  0.069590  1
  I  I11  1  0.930453  0.324585  0.775396  1
  I  I12  1  0.775483  0.930522  0.324516  1
  I  I13  1  0.324517  0.775591  0.930498  1
  I  I14  1  0.463162  0.162100  0.386837  1
  I  I15  1  0.386886  0.463286  0.162402  1
  I  I16  1  0.162399  0.386995  0.463180  1
  I  I17  1  0.536516  0.837404  0.612987  1
  I  I18  1  0.613021  0.536581  0.837304  1
  I  I19  1  0.837332  0.612975  0.536635  1
