# generated using pymatgen
data_ScTi3(AsRh5)2
_symmetry_space_group_name_H-M   'P 1'
_cell_length_a   3.97760400
_cell_length_b   5.50126398
_cell_length_c   10.71143063
_cell_angle_alpha   90.19410892
_cell_angle_beta   90.00000000
_cell_angle_gamma   90.00000000
_symmetry_Int_Tables_number   1
_chemical_formula_structural   ScTi3(AsRh5)2
_chemical_formula_sum   'Sc1 Ti3 As2 Rh10'
_cell_volume   234.38456922
_cell_formula_units_Z   1
loop_
 _symmetry_equiv_pos_site_id
 _symmetry_equiv_pos_as_xyz
  1  'x, y, z'
loop_
 _atom_site_type_symbol
 _atom_site_label
 _atom_site_symmetry_multiplicity
 _atom_site_fract_x
 _atom_site_fract_y
 _atom_site_fract_z
 _atom_site_occupancy
  Sc  Sc0  1  0.500000  0.824376  0.140017  1
  Ti  Ti1  1  0.500000  0.328763  0.354646  1
  Ti  Ti2  1  0.500000  0.666630  0.642360  1
  Ti  Ti3  1  0.500000  0.168989  0.855769  1
  As  As4  1  0.000000  0.003173  0.500895  1
  As  As5  1  0.000000  0.500580  0.999268  1
  Rh  Rh6  1  0.500000  0.315542  0.108344  1
  Rh  Rh7  1  0.500000  0.689815  0.887015  1
  Rh  Rh8  1  0.500000  0.808641  0.399847  1
  Rh  Rh9  1  0.500000  0.190585  0.608204  1
  Rh  Rh10  1  0.000000  0.924090  0.739811  1
  Rh  Rh11  1  0.000000  0.074748  0.261264  1
  Rh  Rh12  1  0.000000  0.424725  0.757578  1
  Rh  Rh13  1  0.000000  0.564810  0.250008  1
  Rh  Rh14  1  0.000000  0.498625  0.502620  1
  Rh  Rh15  1  0.000000  0.015907  0.992350  1
