# generated using pymatgen
data_Eu9Tm(Si2Hg)2
_symmetry_space_group_name_H-M   'P 1'
_cell_length_a   9.66684580
_cell_length_b   9.66684491
_cell_length_c   9.66684600
_cell_angle_alpha   131.78090516
_cell_angle_beta   131.78090045
_cell_angle_gamma   70.57528175
_symmetry_Int_Tables_number   1
_chemical_formula_structural   Eu9Tm(Si2Hg)2
_chemical_formula_sum   'Eu9 Tm1 Si4 Hg2'
_cell_volume   492.14277728
_cell_formula_units_Z   1
loop_
 _symmetry_equiv_pos_site_id
 _symmetry_equiv_pos_as_xyz
  1  'x, y, z'
loop_
 _atom_site_type_symbol
 _atom_site_label
 _atom_site_symmetry_multiplicity
 _atom_site_fract_x
 _atom_site_fract_y
 _atom_site_fract_z
 _atom_site_occupancy
  Eu  Eu0  1  0.533857  0.037336  0.847039  1
  Eu  Eu1  1  0.190300  0.686790  0.152884  1
  Eu  Eu2  1  0.037468  0.190296  0.503547  1
  Eu  Eu3  1  0.686787  0.533884  0.496428  1
  Eu  Eu4  1  0.466143  0.962664  0.152961  1
  Eu  Eu5  1  0.809700  0.313210  0.847116  1
  Eu  Eu6  1  0.962532  0.809704  0.496453  1
  Eu  Eu7  1  0.313213  0.466116  0.503572  1
  Eu  Eu8  1  0.000000  0.000000  0.000000  1
  Tm  Tm9  1  0.500000  0.500000  0.000000  1
  Si  Si10  1  0.879859  0.394222  0.274068  1
  Si  Si11  1  0.120141  0.605778  0.725932  1
  Si  Si12  1  0.394302  0.120182  0.514476  1
  Si  Si13  1  0.605698  0.879818  0.485524  1
  Hg  Hg14  1  0.250700  0.250683  0.999979  1
  Hg  Hg15  1  0.749300  0.749317  0.000021  1
