# generated using pymatgen
data_NaSrInPt3
_symmetry_space_group_name_H-M   'P 1'
_cell_length_a   5.65110687
_cell_length_b   5.65110587
_cell_length_c   5.46790000
_cell_angle_alpha   58.88529884
_cell_angle_beta   58.88530501
_cell_angle_gamma   60.00000101
_symmetry_Int_Tables_number   1
_chemical_formula_structural   NaSrInPt3
_chemical_formula_sum   'Na1 Sr1 In1 Pt3'
_cell_volume   121.35173090
_cell_formula_units_Z   1
loop_
 _symmetry_equiv_pos_site_id
 _symmetry_equiv_pos_as_xyz
  1  'x, y, z'
loop_
 _atom_site_type_symbol
 _atom_site_label
 _atom_site_symmetry_multiplicity
 _atom_site_fract_x
 _atom_site_fract_y
 _atom_site_fract_z
 _atom_site_occupancy
  Na  Na0  1  0.249762  0.249762  0.250715  1
  Sr  Sr1  1  0.005561  0.005561  0.983316  1
  In  In2  1  0.623675  0.623675  0.128974  1
  Pt  Pt3  1  0.622658  0.125684  0.628998  1
  Pt  Pt4  1  0.125684  0.622658  0.628998  1
  Pt  Pt5  1  0.622658  0.622658  0.628998  1
