# generated using pymatgen
data_Nd5SmCoCl10
_symmetry_space_group_name_H-M   'P 1'
_cell_length_a   7.34303152
_cell_length_b   9.03518052
_cell_length_c   9.22664040
_cell_angle_alpha   109.04470896
_cell_angle_beta   96.52791125
_cell_angle_gamma   106.06430386
_symmetry_Int_Tables_number   1
_chemical_formula_structural   Nd5SmCoCl10
_chemical_formula_sum   'Nd5 Sm1 Co1 Cl10'
_cell_volume   541.84441076
_cell_formula_units_Z   1
loop_
 _symmetry_equiv_pos_site_id
 _symmetry_equiv_pos_as_xyz
  1  'x, y, z'
loop_
 _atom_site_type_symbol
 _atom_site_label
 _atom_site_symmetry_multiplicity
 _atom_site_fract_x
 _atom_site_fract_y
 _atom_site_fract_z
 _atom_site_occupancy
  Nd  Nd0  1  0.032151  0.702861  0.404460  1
  Nd  Nd1  1  0.966202  0.296497  0.594390  1
  Nd  Nd2  1  0.861349  0.944073  0.748474  1
  Nd  Nd3  1  0.136481  0.054137  0.251119  1
  Nd  Nd4  1  0.369266  0.143907  0.690735  1
  Sm  Sm5  1  0.634172  0.859335  0.312880  1
  Co  Co6  1  0.000022  0.999848  0.500475  1
  Cl  Cl7  1  0.451904  0.825941  0.574284  1
  Cl  Cl8  1  0.549142  0.171580  0.421785  1
  Cl  Cl9  1  0.912628  0.630302  0.664786  1
  Cl  Cl10  1  0.084131  0.367497  0.332765  1
  Cl  Cl11  1  0.239860  0.078007  0.947551  1
  Cl  Cl12  1  0.755844  0.918454  0.054649  1
  Cl  Cl13  1  0.347198  0.455049  0.767762  1
  Cl  Cl14  1  0.650417  0.550328  0.229500  1
  Cl  Cl15  1  0.790893  0.251299  0.845378  1
  Cl  Cl16  1  0.218340  0.750885  0.159009  1
