# generated using pymatgen
data_NaPa3(Al3Rh)6
_symmetry_space_group_name_H-M   'P 1'
_cell_length_a   7.60609305
_cell_length_b   7.62139676
_cell_length_c   9.33879400
_cell_angle_alpha   90.00000000
_cell_angle_beta   90.00000000
_cell_angle_gamma   119.52530041
_symmetry_Int_Tables_number   1
_chemical_formula_structural   NaPa3(Al3Rh)6
_chemical_formula_sum   'Na1 Pa3 Al18 Rh6'
_cell_volume   471.05890741
_cell_formula_units_Z   1
loop_
 _symmetry_equiv_pos_site_id
 _symmetry_equiv_pos_as_xyz
  1  'x, y, z'
loop_
 _atom_site_type_symbol
 _atom_site_label
 _atom_site_symmetry_multiplicity
 _atom_site_fract_x
 _atom_site_fract_y
 _atom_site_fract_z
 _atom_site_occupancy
  Na  Na0  1  0.327580  0.008050  0.250000  1
  Pa  Pa1  1  0.997477  0.673939  0.750000  1
  Pa  Pa2  1  0.000973  0.327567  0.250000  1
  Pa  Pa3  1  0.670193  0.994362  0.750000  1
  Al  Al4  1  0.134091  0.130179  0.750000  1
  Al  Al5  1  0.871732  0.876082  0.250000  1
  Al  Al6  1  0.004800  0.336461  0.578005  1
  Al  Al7  1  0.005394  0.671650  0.417960  1
  Al  Al8  1  0.005394  0.671650  0.082040  1
  Al  Al9  1  0.335739  0.003309  0.931289  1
  Al  Al10  1  0.004800  0.336461  0.921995  1
  Al  Al11  1  0.656144  0.996481  0.082081  1
  Al  Al12  1  0.656144  0.996481  0.417919  1
  Al  Al13  1  0.335739  0.003309  0.568711  1
  Al  Al14  1  0.333361  0.329642  0.056927  1
  Al  Al15  1  0.664509  0.663910  0.952196  1
  Al  Al16  1  0.664509  0.663910  0.547804  1
  Al  Al17  1  0.333361  0.329642  0.443073  1
  Al  Al18  1  0.343738  0.547961  0.750000  1
  Al  Al19  1  0.661673  0.447181  0.250000  1
  Al  Al20  1  0.548111  0.340288  0.750000  1
  Al  Al21  1  0.444599  0.650857  0.250000  1
  Rh  Rh22  1  0.679219  0.331222  0.503361  1
  Rh  Rh23  1  0.326981  0.669979  0.504292  1
  Rh  Rh24  1  0.326981  0.669979  0.995708  1
  Rh  Rh25  1  0.679219  0.331222  0.996639  1
  Rh  Rh26  1  0.993768  0.999117  0.504599  1
  Rh  Rh27  1  0.993768  0.999117  0.995401  1
