# generated using pymatgen
data_Y6Zn20Ag3P
_symmetry_space_group_name_H-M   'P 1'
_cell_length_a   9.08644703
_cell_length_b   9.08644759
_cell_length_c   9.08357800
_cell_angle_alpha   60.01044636
_cell_angle_beta   60.01044431
_cell_angle_gamma   60.01855553
_symmetry_Int_Tables_number   1
_chemical_formula_structural   Y6Zn20Ag3P
_chemical_formula_sum   'Y6 Zn20 Ag3 P1'
_cell_volume   530.46851326
_cell_formula_units_Z   1
loop_
 _symmetry_equiv_pos_site_id
 _symmetry_equiv_pos_as_xyz
  1  'x, y, z'
loop_
 _atom_site_type_symbol
 _atom_site_label
 _atom_site_symmetry_multiplicity
 _atom_site_fract_x
 _atom_site_fract_y
 _atom_site_fract_z
 _atom_site_occupancy
  Y  Y0  1  0.711534  0.288180  0.288581  1
  Y  Y1  1  0.711534  0.288180  0.711706  1
  Y  Y2  1  0.709196  0.709196  0.290804  1
  Y  Y3  1  0.288180  0.711534  0.711706  1
  Y  Y4  1  0.288180  0.711534  0.288581  1
  Y  Y5  1  0.286649  0.286649  0.713351  1
  Zn  Zn6  1  0.126168  0.126168  0.620221  1
  Zn  Zn7  1  0.126168  0.126168  0.127444  1
  Zn  Zn8  1  0.377569  0.871440  0.875495  1
  Zn  Zn9  1  0.871440  0.377569  0.875495  1
  Zn  Zn10  1  0.874662  0.874662  0.371110  1
  Zn  Zn11  1  0.874662  0.874662  0.879565  1
  Zn  Zn12  1  0.497353  0.998261  0.999823  1
  Zn  Zn13  1  0.497353  0.998261  0.504564  1
  Zn  Zn14  1  0.501019  0.501019  0.998981  1
  Zn  Zn15  1  0.998261  0.497353  0.504564  1
  Zn  Zn16  1  0.998261  0.497353  0.999823  1
  Zn  Zn17  1  0.998874  0.998874  0.501126  1
  Zn  Zn18  1  0.010209  0.329745  0.330022  1
  Zn  Zn19  1  0.329745  0.010209  0.330022  1
  Zn  Zn20  1  0.330319  0.330319  0.009010  1
  Zn  Zn21  1  0.330319  0.330319  0.330350  1
  Zn  Zn22  1  0.987364  0.670347  0.671146  1
  Zn  Zn23  1  0.670347  0.987364  0.671146  1
  Zn  Zn24  1  0.669991  0.669991  0.989938  1
  Zn  Zn25  1  0.669991  0.669991  0.670083  1
  Ag  Ag26  1  0.633234  0.120476  0.123145  1
  Ag  Ag27  1  0.120476  0.633234  0.123145  1
  Ag  Ag28  1  0.012541  0.012541  0.987459  1
  P  P29  1  0.498403  0.498403  0.501597  1
