# generated using pymatgen
data_Nd6Al24Ru5Pt3
_symmetry_space_group_name_H-M   'P 1'
_cell_length_a   8.91813980
_cell_length_b   8.93727789
_cell_length_c   9.63303053
_cell_angle_alpha   90.09293059
_cell_angle_beta   89.97975203
_cell_angle_gamma   120.10570210
_symmetry_Int_Tables_number   1
_chemical_formula_structural   Nd6Al24Ru5Pt3
_chemical_formula_sum   'Nd6 Al24 Ru5 Pt3'
_cell_volume   664.21535283
_cell_formula_units_Z   1
loop_
 _symmetry_equiv_pos_site_id
 _symmetry_equiv_pos_as_xyz
  1  'x, y, z'
loop_
 _atom_site_type_symbol
 _atom_site_label
 _atom_site_symmetry_multiplicity
 _atom_site_fract_x
 _atom_site_fract_y
 _atom_site_fract_z
 _atom_site_occupancy
  Nd  Nd0  1  0.192816  0.382078  0.251138  1
  Nd  Nd1  1  0.807184  0.617922  0.748862  1
  Nd  Nd2  1  0.617455  0.807449  0.249931  1
  Nd  Nd3  1  0.382545  0.192551  0.750069  1
  Nd  Nd4  1  0.191526  0.810257  0.249106  1
  Nd  Nd5  1  0.808474  0.189743  0.750894  1
  Al  Al6  1  0.336407  0.664128  0.021483  1
  Al  Al7  1  0.663593  0.335872  0.978517  1
  Al  Al8  1  0.661383  0.330673  0.520963  1
  Al  Al9  1  0.338617  0.669327  0.479037  1
  Al  Al10  1  0.168694  0.326244  0.575686  1
  Al  Al11  1  0.831306  0.673756  0.424314  1
  Al  Al12  1  0.672144  0.836177  0.575561  1
  Al  Al13  1  0.831452  0.674842  0.076918  1
  Al  Al14  1  0.327856  0.163823  0.424439  1
  Al  Al15  1  0.168548  0.325158  0.923082  1
  Al  Al16  1  0.167962  0.843325  0.576426  1
  Al  Al17  1  0.326149  0.169040  0.078101  1
  Al  Al18  1  0.832038  0.156675  0.423574  1
  Al  Al19  1  0.673851  0.830960  0.921899  1
  Al  Al20  1  0.838592  0.162075  0.079547  1
  Al  Al21  1  0.161408  0.837925  0.920453  1
  Al  Al22  1  0.563185  0.126218  0.253408  1
  Al  Al23  1  0.436815  0.873782  0.746592  1
  Al  Al24  1  0.871729  0.435878  0.250149  1
  Al  Al25  1  0.128271  0.564122  0.749851  1
  Al  Al26  1  0.561427  0.438481  0.249700  1
  Al  Al27  1  0.438573  0.561519  0.750300  1
  Al  Al28  1  0.002077  0.000552  0.250234  1
  Al  Al29  1  0.997923  0.999448  0.749766  1
  Ru  Ru30  1  0.500000  0.000000  0.500000  1
  Ru  Ru31  1  0.500000  0.500000  0.000000  1
  Ru  Ru32  1  0.500000  0.500000  0.500000  1
  Ru  Ru33  1  0.000000  0.000000  0.000000  1
  Ru  Ru34  1  0.000000  0.000000  0.500000  1
  Pt  Pt35  1  0.500000  0.000000  0.000000  1
  Pt  Pt36  1  0.000000  0.500000  0.000000  1
  Pt  Pt37  1  0.000000  0.500000  0.500000  1
