# generated using pymatgen
data_Er3In3PtRhAu
_symmetry_space_group_name_H-M   'P 1'
_cell_length_a   7.75081700
_cell_length_b   7.75081762
_cell_length_c   3.77954000
_cell_angle_alpha   90.00000000
_cell_angle_beta   90.00000000
_cell_angle_gamma   119.99998457
_symmetry_Int_Tables_number   1
_chemical_formula_structural   Er3In3PtRhAu
_chemical_formula_sum   'Er3 In3 Pt1 Rh1 Au1'
_cell_volume   196.63673117
_cell_formula_units_Z   1
loop_
 _symmetry_equiv_pos_site_id
 _symmetry_equiv_pos_as_xyz
  1  'x, y, z'
loop_
 _atom_site_type_symbol
 _atom_site_label
 _atom_site_symmetry_multiplicity
 _atom_site_fract_x
 _atom_site_fract_y
 _atom_site_fract_z
 _atom_site_occupancy
  Er  Er0  1  0.013929  0.605288  0.500000  1
  Er  Er1  1  0.394712  0.408641  0.500000  1
  Er  Er2  1  0.591359  0.986071  0.500000  1
  In  In3  1  0.259235  0.000644  0.000000  1
  In  In4  1  0.741410  0.740765  0.000000  1
  In  In5  1  0.999356  0.258590  0.000000  1
  Pt  Pt6  1  0.333333  0.666667  0.000000  1
  Rh  Rh7  1  0.000000  0.000000  0.500000  1
  Au  Au8  1  0.666667  0.333333  0.000000  1
