# generated using pymatgen
data_Ac6GaSnI6
_symmetry_space_group_name_H-M   'P 1'
_cell_length_a   11.63160331
_cell_length_b   11.63151391
_cell_length_c   11.50768000
_cell_angle_alpha   109.46400388
_cell_angle_beta   109.46425575
_cell_angle_gamma   109.91755439
_symmetry_Int_Tables_number   1
_chemical_formula_structural   Ac6GaSnI6
_chemical_formula_sum   'Ac12 Ga2 Sn2 I12'
_cell_volume   1192.05658929
_cell_formula_units_Z   2
loop_
 _symmetry_equiv_pos_site_id
 _symmetry_equiv_pos_as_xyz
  1  'x, y, z'
loop_
 _atom_site_type_symbol
 _atom_site_label
 _atom_site_symmetry_multiplicity
 _atom_site_fract_x
 _atom_site_fract_y
 _atom_site_fract_z
 _atom_site_occupancy
  Ac  Ac0  1  0.474810  0.493906  0.232383  1
  Ac  Ac1  1  0.761496  0.242397  0.267636  1
  Ac  Ac2  1  0.760620  0.018086  0.495166  1
  Ac  Ac3  1  0.234529  0.477075  0.495201  1
  Ac  Ac4  1  0.257598  0.738492  0.232361  1
  Ac  Ac5  1  0.022929  0.265474  0.004795  1
  Ac  Ac6  1  0.006094  0.025190  0.267615  1
  Ac  Ac7  1  0.481914  0.739377  0.004832  1
  Ac  Ac8  1  0.491593  0.241561  0.483141  1
  Ac  Ac9  1  0.015114  0.484886  0.749999  1
  Ac  Ac10  1  0.258435  0.008408  0.016857  1
  Ac  Ac11  1  0.234865  0.265132  0.749999  1
  Ga  Ga12  1  0.999822  0.249818  0.499624  1
  Ga  Ga13  1  0.250177  0.500169  0.000367  1
  Sn  Sn14  1  0.250302  0.249718  0.250012  1
  Sn  Sn15  1  0.499705  0.000303  0.250003  1
  I  I16  1  0.249749  0.758604  0.741538  1
  I  I17  1  0.517089  0.508237  0.758479  1
  I  I18  1  0.987443  0.744180  0.994084  1
  I  I19  1  0.741400  0.250252  0.758467  1
  I  I20  1  0.991765  0.982910  0.741523  1
  I  I21  1  0.250082  0.993351  0.505900  1
  I  I22  1  0.755821  0.512562  0.505919  1
  I  I23  1  0.506646  0.249916  0.994098  1
  I  I24  1  0.757538  0.742460  0.250000  1
  I  I25  1  0.743140  0.993130  0.986287  1
  I  I26  1  0.992454  0.507544  0.250000  1
  I  I27  1  0.506871  0.756861  0.513713  1
