# generated using pymatgen
data_LaPa(InCu5)2
_symmetry_space_group_name_H-M   'P 1'
_cell_length_a   5.07870400
_cell_length_b   8.33390972
_cell_length_c   10.60777725
_cell_angle_alpha   89.86587752
_cell_angle_beta   90.00000000
_cell_angle_gamma   90.00000000
_symmetry_Int_Tables_number   1
_chemical_formula_structural   LaPa(InCu5)2
_chemical_formula_sum   'La2 Pa2 In4 Cu20'
_cell_volume   448.97782829
_cell_formula_units_Z   2
loop_
 _symmetry_equiv_pos_site_id
 _symmetry_equiv_pos_as_xyz
  1  'x, y, z'
loop_
 _atom_site_type_symbol
 _atom_site_label
 _atom_site_symmetry_multiplicity
 _atom_site_fract_x
 _atom_site_fract_y
 _atom_site_fract_z
 _atom_site_occupancy
  La  La0  1  0.250000  0.756403  0.059318  1
  La  La1  1  0.750000  0.243597  0.940682  1
  Pa  Pa2  1  0.750000  0.749112  0.561109  1
  Pa  Pa3  1  0.250000  0.250888  0.438891  1
  In  In4  1  0.250000  0.637397  0.363697  1
  In  In5  1  0.750000  0.362603  0.636303  1
  In  In6  1  0.750000  0.859816  0.859791  1
  In  In7  1  0.250000  0.140184  0.140209  1
  Cu  Cu8  1  0.250000  0.816271  0.738880  1
  Cu  Cu9  1  0.750000  0.183729  0.261120  1
  Cu  Cu10  1  0.750000  0.681327  0.248283  1
  Cu  Cu11  1  0.250000  0.318673  0.751717  1
  Cu  Cu12  1  0.501325  0.568437  0.808754  1
  Cu  Cu13  1  0.498675  0.431563  0.191246  1
  Cu  Cu14  1  0.500070  0.933092  0.315282  1
  Cu  Cu15  1  0.001325  0.431563  0.191246  1
  Cu  Cu16  1  0.499930  0.066908  0.684718  1
  Cu  Cu17  1  0.998675  0.568437  0.808754  1
  Cu  Cu18  1  0.000070  0.066908  0.684718  1
  Cu  Cu19  1  0.999930  0.933092  0.315282  1
  Cu  Cu20  1  0.250000  0.560101  0.602803  1
  Cu  Cu21  1  0.750000  0.439899  0.397197  1
  Cu  Cu22  1  0.750000  0.941018  0.108434  1
  Cu  Cu23  1  0.250000  0.058982  0.891566  1
  Cu  Cu24  1  0.250000  0.915710  0.515216  1
  Cu  Cu25  1  0.750000  0.084290  0.484784  1
  Cu  Cu26  1  0.750000  0.583299  0.016274  1
  Cu  Cu27  1  0.250000  0.416701  0.983726  1
