# generated using pymatgen
data_Er4Ga24Pd8Rh
_symmetry_space_group_name_H-M   'P 1'
_cell_length_a   7.53748125
_cell_length_b   7.56478980
_cell_length_c   13.21077200
_cell_angle_alpha   84.57493651
_cell_angle_beta   79.11197027
_cell_angle_gamma   59.92727717
_symmetry_Int_Tables_number   1
_chemical_formula_structural   Er4Ga24Pd8Rh
_chemical_formula_sum   'Er4 Ga24 Pd8 Rh1'
_cell_volume   640.13843953
_cell_formula_units_Z   1
loop_
 _symmetry_equiv_pos_site_id
 _symmetry_equiv_pos_as_xyz
  1  'x, y, z'
loop_
 _atom_site_type_symbol
 _atom_site_label
 _atom_site_symmetry_multiplicity
 _atom_site_fract_x
 _atom_site_fract_y
 _atom_site_fract_z
 _atom_site_occupancy
  Er  Er0  1  0.395953  0.166533  0.810247  1
  Er  Er1  1  0.604047  0.833467  0.189753  1
  Er  Er2  1  0.729555  0.499609  0.810427  1
  Er  Er3  1  0.270445  0.500391  0.189573  1
  Ga  Ga4  1  0.686830  0.830982  0.940324  1
  Ga  Ga5  1  0.313170  0.169018  0.059676  1
  Ga  Ga6  1  0.145175  0.834065  0.561148  1
  Ga  Ga7  1  0.854825  0.165935  0.438852  1
  Ga  Ga8  1  0.479944  0.166278  0.558289  1
  Ga  Ga9  1  0.520056  0.833722  0.441711  1
  Ga  Ga10  1  0.221526  0.165363  0.323235  1
  Ga  Ga11  1  0.778474  0.834637  0.676765  1
  Ga  Ga12  1  0.434721  0.505484  0.676201  1
  Ga  Ga13  1  0.565279  0.494516  0.323799  1
  Ga  Ga14  1  0.106030  0.162292  0.675861  1
  Ga  Ga15  1  0.893970  0.837708  0.324139  1
  Ga  Ga16  1  0.353556  0.497512  0.940608  1
  Ga  Ga17  1  0.646444  0.502488  0.059392  1
  Ga  Ga18  1  0.018394  0.174132  0.945784  1
  Ga  Ga19  1  0.981606  0.825868  0.054216  1
  Ga  Ga20  1  0.186382  0.500117  0.442149  1
  Ga  Ga21  1  0.813618  0.499883  0.557851  1
  Ga  Ga22  1  0.735395  0.164379  0.182606  1
  Ga  Ga23  1  0.264605  0.835621  0.817394  1
  Ga  Ga24  1  0.060254  0.627558  0.818416  1
  Ga  Ga25  1  0.939746  0.372442  0.181584  1
  Ga  Ga26  1  0.856192  0.040767  0.817318  1
  Ga  Ga27  1  0.143808  0.959233  0.182682  1
  Pd  Pd28  1  0.117641  0.493331  0.640199  1
  Pd  Pd29  1  0.882359  0.506669  0.359801  1
  Pd  Pd30  1  0.659860  0.169999  0.999684  1
  Pd  Pd31  1  0.340140  0.830001  0.000316  1
  Pd  Pd32  1  0.539821  0.166964  0.360621  1
  Pd  Pd33  1  0.460179  0.833036  0.639379  1
  Pd  Pd34  1  0.777861  0.174254  0.638572  1
  Pd  Pd35  1  0.222139  0.825746  0.361428  1
  Rh  Rh36  1  0.000000  0.500000  0.000000  1
