# generated using pymatgen
data_Tb4TmLu11(CdNi)4
_symmetry_space_group_name_H-M   'P 1'
_cell_length_a   9.40089431
_cell_length_b   9.40089535
_cell_length_c   9.41301500
_cell_angle_alpha   59.95734086
_cell_angle_beta   59.95733720
_cell_angle_gamma   59.90509882
_symmetry_Int_Tables_number   1
_chemical_formula_structural   Tb4TmLu11(CdNi)4
_chemical_formula_sum   'Tb4 Tm1 Lu11 Cd4 Ni4'
_cell_volume   587.43490554
_cell_formula_units_Z   1
loop_
 _symmetry_equiv_pos_site_id
 _symmetry_equiv_pos_as_xyz
  1  'x, y, z'
loop_
 _atom_site_type_symbol
 _atom_site_label
 _atom_site_symmetry_multiplicity
 _atom_site_fract_x
 _atom_site_fract_y
 _atom_site_fract_z
 _atom_site_occupancy
  Tb  Tb0  1  0.350147  0.350147  0.349362  1
  Tb  Tb1  1  0.350147  0.350147  0.950344  1
  Tb  Tb2  1  0.351435  0.948477  0.350044  1
  Tb  Tb3  1  0.948477  0.351435  0.350044  1
  Tm  Tm4  1  0.935591  0.935591  0.564409  1
  Lu  Lu5  1  0.812702  0.187362  0.187078  1
  Lu  Lu6  1  0.187362  0.812702  0.812859  1
  Lu  Lu7  1  0.187362  0.812702  0.187078  1
  Lu  Lu8  1  0.812702  0.187362  0.812859  1
  Lu  Lu9  1  0.187550  0.187550  0.812450  1
  Lu  Lu10  1  0.813166  0.813166  0.186834  1
  Lu  Lu11  1  0.935341  0.564265  0.564684  1
  Lu  Lu12  1  0.564265  0.935341  0.935710  1
  Lu  Lu13  1  0.564265  0.935341  0.564684  1
  Lu  Lu14  1  0.935341  0.564265  0.935710  1
  Lu  Lu15  1  0.564816  0.564816  0.935184  1
  Cd  Cd16  1  0.582261  0.582261  0.582467  1
  Cd  Cd17  1  0.582261  0.582261  0.253014  1
  Cd  Cd18  1  0.582108  0.253059  0.582417  1
  Cd  Cd19  1  0.253059  0.582108  0.582417  1
  Ni  Ni20  1  0.141300  0.141300  0.141625  1
  Ni  Ni21  1  0.141300  0.141300  0.575777  1
  Ni  Ni22  1  0.141005  0.576042  0.141478  1
  Ni  Ni23  1  0.576042  0.141005  0.141478  1
