# generated using pymatgen
data_Zr3Sc(CoB4)4
_symmetry_space_group_name_H-M   'P 1'
_cell_length_a   5.79171851
_cell_length_b   11.24814898
_cell_length_c   3.24668700
_cell_angle_alpha   90.00000000
_cell_angle_beta   90.00000000
_cell_angle_gamma   89.95205132
_symmetry_Int_Tables_number   1
_chemical_formula_structural   Zr3Sc(CoB4)4
_chemical_formula_sum   'Zr3 Sc1 Co4 B16'
_cell_volume   211.50896296
_cell_formula_units_Z   1
loop_
 _symmetry_equiv_pos_site_id
 _symmetry_equiv_pos_as_xyz
  1  'x, y, z'
loop_
 _atom_site_type_symbol
 _atom_site_label
 _atom_site_symmetry_multiplicity
 _atom_site_fract_x
 _atom_site_fract_y
 _atom_site_fract_z
 _atom_site_occupancy
  Zr  Zr0  1  0.627891  0.348935  0.000000  1
  Zr  Zr1  1  0.372969  0.650408  0.000000  1
  Zr  Zr2  1  0.129387  0.150886  0.000000  1
  Sc  Sc3  1  0.870891  0.850014  0.000000  1
  Co  Co4  1  0.636479  0.089372  0.000000  1
  Co  Co5  1  0.363153  0.910354  0.000000  1
  Co  Co6  1  0.136588  0.410500  0.000000  1
  Co  Co7  1  0.863621  0.590093  0.000000  1
  B  B8  1  0.788230  0.186306  0.500000  1
  B  B9  1  0.210508  0.813762  0.500000  1
  B  B10  1  0.288735  0.313164  0.500000  1
  B  B11  1  0.711893  0.687150  0.500000  1
  B  B12  1  0.866469  0.031514  0.500000  1
  B  B13  1  0.133584  0.966814  0.500000  1
  B  B14  1  0.366220  0.466908  0.500000  1
  B  B15  1  0.633536  0.533771  0.500000  1
  B  B16  1  0.885997  0.452973  0.500000  1
  B  B17  1  0.112995  0.547968  0.500000  1
  B  B18  1  0.387189  0.046076  0.500000  1
  B  B19  1  0.616055  0.951948  0.500000  1
  B  B20  1  0.976039  0.306991  0.500000  1
  B  B21  1  0.021308  0.694010  0.500000  1
  B  B22  1  0.476974  0.192541  0.500000  1
  B  B23  1  0.523289  0.807542  0.500000  1
