# generated using pymatgen
data_Hf8Ta12Ga3Ge13
_symmetry_space_group_name_H-M   'P 1'
_cell_length_a   6.85184606
_cell_length_b   6.92482106
_cell_length_c   13.24407200
_cell_angle_alpha   90.00000000
_cell_angle_beta   90.00000000
_cell_angle_gamma   89.98511257
_symmetry_Int_Tables_number   1
_chemical_formula_structural   Hf8Ta12Ga3Ge13
_chemical_formula_sum   'Hf8 Ta12 Ga3 Ge13'
_cell_volume   628.40216247
_cell_formula_units_Z   1
loop_
 _symmetry_equiv_pos_site_id
 _symmetry_equiv_pos_as_xyz
  1  'x, y, z'
loop_
 _atom_site_type_symbol
 _atom_site_label
 _atom_site_symmetry_multiplicity
 _atom_site_fract_x
 _atom_site_fract_y
 _atom_site_fract_z
 _atom_site_occupancy
  Hf  Hf0  1  0.487329  0.677036  0.590194  1
  Hf  Hf1  1  0.987670  0.823101  0.909938  1
  Hf  Hf2  1  0.513270  0.323712  0.089362  1
  Hf  Hf3  1  0.012943  0.175195  0.409528  1
  Hf  Hf4  1  0.513270  0.323712  0.410638  1
  Hf  Hf5  1  0.012943  0.175195  0.090472  1
  Hf  Hf6  1  0.487329  0.677036  0.909806  1
  Hf  Hf7  1  0.987670  0.823101  0.590062  1
  Ta  Ta8  1  0.657010  0.166343  0.624931  1
  Ta  Ta9  1  0.156997  0.333503  0.874975  1
  Ta  Ta10  1  0.341355  0.834436  0.124980  1
  Ta  Ta11  1  0.842505  0.666263  0.375713  1
  Ta  Ta12  1  0.341355  0.834436  0.375020  1
  Ta  Ta13  1  0.842505  0.666263  0.124287  1
  Ta  Ta14  1  0.657010  0.166343  0.875069  1
  Ta  Ta15  1  0.156997  0.333503  0.625025  1
  Ta  Ta16  1  0.837725  0.490499  0.750000  1
  Ta  Ta17  1  0.337473  0.009585  0.750000  1
  Ta  Ta18  1  0.161581  0.509498  0.250000  1
  Ta  Ta19  1  0.664477  0.990083  0.250000  1
  Ga  Ga20  1  0.460709  0.392640  0.750000  1
  Ga  Ga21  1  0.960479  0.107437  0.750000  1
  Ga  Ga22  1  0.538808  0.607835  0.250000  1
  Ge  Ge23  1  0.683874  0.961447  0.460202  1
  Ge  Ge24  1  0.184712  0.537777  0.039941  1
  Ge  Ge25  1  0.314965  0.038458  0.959772  1
  Ge  Ge26  1  0.815172  0.461581  0.540443  1
  Ge  Ge27  1  0.314965  0.038458  0.540228  1
  Ge  Ge28  1  0.815172  0.461581  0.959557  1
  Ge  Ge29  1  0.683874  0.961447  0.039798  1
  Ge  Ge30  1  0.184712  0.537777  0.460059  1
  Ge  Ge31  1  0.039026  0.889955  0.250000  1
  Ge  Ge32  1  0.696427  0.848880  0.750000  1
  Ge  Ge33  1  0.196099  0.651146  0.750000  1
  Ge  Ge34  1  0.308296  0.155142  0.250000  1
  Ge  Ge35  1  0.803298  0.349596  0.250000  1
