# generated using pymatgen
data_HoPu(AlC)6
_symmetry_space_group_name_H-M   'P 1'
_cell_length_a   3.42525100
_cell_length_b   3.42525129
_cell_length_c   17.26975400
_cell_angle_alpha   90.00000000
_cell_angle_beta   90.00000000
_cell_angle_gamma   119.99998757
_symmetry_Int_Tables_number   1
_chemical_formula_structural   HoPu(AlC)6
_chemical_formula_sum   'Ho1 Pu1 Al6 C6'
_cell_volume   175.46951564
_cell_formula_units_Z   1
loop_
 _symmetry_equiv_pos_site_id
 _symmetry_equiv_pos_as_xyz
  1  'x, y, z'
loop_
 _atom_site_type_symbol
 _atom_site_label
 _atom_site_symmetry_multiplicity
 _atom_site_fract_x
 _atom_site_fract_y
 _atom_site_fract_z
 _atom_site_occupancy
  Ho  Ho0  1  0.000000  0.000000  0.500000  1
  Pu  Pu1  1  0.000000  0.000000  0.000000  1
  Al  Al2  1  0.333333  0.666667  0.134774  1
  Al  Al3  1  0.666667  0.333333  0.256898  1
  Al  Al4  1  0.333333  0.666667  0.368026  1
  Al  Al5  1  0.666667  0.333333  0.631974  1
  Al  Al6  1  0.333333  0.666667  0.743102  1
  Al  Al7  1  0.666667  0.333333  0.865226  1
  C  C8  1  0.666667  0.333333  0.091411  1
  C  C9  1  0.333333  0.666667  0.250941  1
  C  C10  1  0.666667  0.333333  0.405444  1
  C  C11  1  0.333333  0.666667  0.594556  1
  C  C12  1  0.666667  0.333333  0.749059  1
  C  C13  1  0.333333  0.666667  0.908589  1
