# generated using pymatgen
data_YNb6InCl18
_symmetry_space_group_name_H-M   'P 1'
_cell_length_a   10.22945112
_cell_length_b   10.22945081
_cell_length_c   10.22945111
_cell_angle_alpha   55.40119705
_cell_angle_beta   55.40119853
_cell_angle_gamma   55.40120254
_symmetry_Int_Tables_number   1
_chemical_formula_structural   YNb6InCl18
_chemical_formula_sum   'Y1 Nb6 In1 Cl18'
_cell_volume   676.05253827
_cell_formula_units_Z   1
loop_
 _symmetry_equiv_pos_site_id
 _symmetry_equiv_pos_as_xyz
  1  'x, y, z'
loop_
 _atom_site_type_symbol
 _atom_site_label
 _atom_site_symmetry_multiplicity
 _atom_site_fract_x
 _atom_site_fract_y
 _atom_site_fract_z
 _atom_site_occupancy
  Y  Y0  1  0.498443  0.498443  0.498443  1
  Nb  Nb1  1  0.800556  0.148968  0.912245  1
  Nb  Nb2  1  0.912245  0.800556  0.148968  1
  Nb  Nb3  1  0.148968  0.912245  0.800556  1
  Nb  Nb4  1  0.200493  0.851317  0.086817  1
  Nb  Nb5  1  0.086817  0.200493  0.851317  1
  Nb  Nb6  1  0.851317  0.086817  0.200493  1
  In  In7  1  0.220984  0.220984  0.220984  1
  Cl  Cl8  1  0.863888  0.412194  0.726632  1
  Cl  Cl9  1  0.726632  0.863888  0.412194  1
  Cl  Cl10  1  0.412194  0.726632  0.863888  1
  Cl  Cl11  1  0.135810  0.587372  0.274347  1
  Cl  Cl12  1  0.274347  0.135810  0.587372  1
  Cl  Cl13  1  0.587372  0.274347  0.135810  1
  Cl  Cl14  1  0.532422  0.341572  0.804227  1
  Cl  Cl15  1  0.804227  0.532422  0.341572  1
  Cl  Cl16  1  0.341572  0.804227  0.532422  1
  Cl  Cl17  1  0.462098  0.659654  0.199893  1
  Cl  Cl18  1  0.199893  0.462098  0.659654  1
  Cl  Cl19  1  0.659654  0.199893  0.462098  1
  Cl  Cl20  1  0.661544  0.939691  0.072182  1
  Cl  Cl21  1  0.072182  0.661544  0.939691  1
  Cl  Cl22  1  0.939691  0.072182  0.661544  1
  Cl  Cl23  1  0.337866  0.061428  0.928497  1
  Cl  Cl24  1  0.928497  0.337866  0.061428  1
  Cl  Cl25  1  0.061428  0.928497  0.337866  1
