# generated using pymatgen
data_Ti8Co7Si14Ru
_symmetry_space_group_name_H-M   'P 1'
_cell_length_a   9.23326133
_cell_length_b   9.23449572
_cell_length_c   9.24045174
_cell_angle_alpha   94.20453805
_cell_angle_beta   94.19721589
_cell_angle_gamma   148.58222963
_symmetry_Int_Tables_number   1
_chemical_formula_structural   Ti8Co7Si14Ru
_chemical_formula_sum   'Ti8 Co7 Si14 Ru1'
_cell_volume   395.38529191
_cell_formula_units_Z   1
loop_
 _symmetry_equiv_pos_site_id
 _symmetry_equiv_pos_as_xyz
  1  'x, y, z'
loop_
 _atom_site_type_symbol
 _atom_site_label
 _atom_site_symmetry_multiplicity
 _atom_site_fract_x
 _atom_site_fract_y
 _atom_site_fract_z
 _atom_site_occupancy
  Ti  Ti0  1  0.135479  0.135479  0.270959  1
  Ti  Ti1  1  0.864550  0.864549  0.729100  1
  Ti  Ti2  1  0.864161  0.134669  0.000483  1
  Ti  Ti3  1  0.136320  0.865813  0.000483  1
  Ti  Ti4  1  0.501522  0.692153  0.193641  1
  Ti  Ti5  1  0.499664  0.308396  0.807901  1
  Ti  Ti6  1  0.308233  0.499501  0.807899  1
  Ti  Ti7  1  0.692121  0.501488  0.193640  1
  Co  Co8  1  0.102282  0.602283  0.204566  1
  Co  Co9  1  0.099528  0.898928  0.499122  1
  Co  Co10  1  0.399594  0.600194  0.499122  1
  Co  Co11  1  0.598468  0.398754  0.498453  1
  Co  Co12  1  0.899987  0.099699  0.498453  1
  Co  Co13  1  0.899527  0.399528  0.799061  1
  Co  Co14  1  0.599611  0.099612  0.199222  1
  Si  Si15  1  0.293744  0.293744  0.587487  1
  Si  Si16  1  0.706265  0.706265  0.412532  1
  Si  Si17  1  0.719648  0.310312  0.004905  1
  Si  Si18  1  0.285256  0.694593  0.004906  1
  Si  Si19  1  0.999280  0.292532  0.292957  1
  Si  Si20  1  0.989952  0.701771  0.706013  1
  Si  Si21  1  0.716063  0.004243  0.706012  1
  Si  Si22  1  0.293676  0.000424  0.292955  1
  Si  Si23  1  0.502244  0.906861  0.404768  1
  Si  Si24  1  0.506830  0.102540  0.590051  1
  Si  Si25  1  0.083219  0.487509  0.590050  1
  Si  Si26  1  0.902524  0.497908  0.404767  1
  Si  Si27  1  0.749578  0.750137  0.000178  1
  Si  Si28  1  0.250600  0.250040  0.000178  1
  Ru  Ru29  1  0.400073  0.900072  0.800136  1
