# generated using pymatgen
data_LiNd8AlPd23
_symmetry_space_group_name_H-M   'P 1'
_cell_length_a   8.43864900
_cell_length_b   8.51101000
_cell_length_c   8.53953300
_cell_angle_alpha   90.00000000
_cell_angle_beta   90.00000000
_cell_angle_gamma   90.00000000
_symmetry_Int_Tables_number   1
_chemical_formula_structural   LiNd8AlPd23
_chemical_formula_sum   'Li1 Nd8 Al1 Pd23'
_cell_volume   613.32143765
_cell_formula_units_Z   1
loop_
 _symmetry_equiv_pos_site_id
 _symmetry_equiv_pos_as_xyz
  1  'x, y, z'
loop_
 _atom_site_type_symbol
 _atom_site_label
 _atom_site_symmetry_multiplicity
 _atom_site_fract_x
 _atom_site_fract_y
 _atom_site_fract_z
 _atom_site_occupancy
  Li  Li0  1  0.267839  0.500000  0.000000  1
  Nd  Nd1  1  0.251780  0.247293  0.257999  1
  Nd  Nd2  1  0.747753  0.747096  0.749430  1
  Nd  Nd3  1  0.747753  0.747096  0.250570  1
  Nd  Nd4  1  0.747753  0.252904  0.749430  1
  Nd  Nd5  1  0.251780  0.247293  0.742001  1
  Nd  Nd6  1  0.251780  0.752707  0.257999  1
  Nd  Nd7  1  0.251780  0.752707  0.742001  1
  Nd  Nd8  1  0.747753  0.252904  0.250570  1
  Al  Al9  1  0.997946  0.000000  0.000000  1
  Pd  Pd10  1  0.741040  0.500000  0.000000  1
  Pd  Pd11  1  0.998001  0.259515  0.500000  1
  Pd  Pd12  1  0.494661  0.263341  0.000000  1
  Pd  Pd13  1  0.998001  0.740485  0.500000  1
  Pd  Pd14  1  0.494661  0.736659  0.000000  1
  Pd  Pd15  1  0.500583  0.000000  0.259837  1
  Pd  Pd16  1  0.259130  0.000000  0.500000  1
  Pd  Pd17  1  0.500583  0.000000  0.740163  1
  Pd  Pd18  1  0.739723  0.000000  0.500000  1
  Pd  Pd19  1  0.002649  0.500000  0.260408  1
  Pd  Pd20  1  0.002649  0.500000  0.739592  1
  Pd  Pd21  1  0.253189  0.500000  0.500000  1
  Pd  Pd22  1  0.746898  0.500000  0.500000  1
  Pd  Pd23  1  0.501474  0.253624  0.500000  1
  Pd  Pd24  1  0.501474  0.746376  0.500000  1
  Pd  Pd25  1  0.496308  0.500000  0.252007  1
  Pd  Pd26  1  0.496308  0.500000  0.747993  1
  Pd  Pd27  1  0.289257  0.000000  0.000000  1
  Pd  Pd28  1  0.706184  0.000000  0.000000  1
  Pd  Pd29  1  0.008614  0.293709  0.000000  1
  Pd  Pd30  1  0.008614  0.706291  0.000000  1
  Pd  Pd31  1  0.998042  0.000000  0.288886  1
  Pd  Pd32  1  0.998042  0.000000  0.711114  1
