# generated using pymatgen
data_Nd6DyLuO12
_symmetry_space_group_name_H-M   'P 1'
_cell_length_a   6.98966455
_cell_length_b   6.98966494
_cell_length_c   6.98966500
_cell_angle_alpha   92.24305196
_cell_angle_beta   92.24305209
_cell_angle_gamma   92.24303571
_symmetry_Int_Tables_number   1
_chemical_formula_structural   Nd6DyLuO12
_chemical_formula_sum   'Nd6 Dy1 Lu1 O12'
_cell_volume   340.67690923
_cell_formula_units_Z   1
loop_
 _symmetry_equiv_pos_site_id
 _symmetry_equiv_pos_as_xyz
  1  'x, y, z'
loop_
 _atom_site_type_symbol
 _atom_site_label
 _atom_site_symmetry_multiplicity
 _atom_site_fract_x
 _atom_site_fract_y
 _atom_site_fract_z
 _atom_site_occupancy
  Nd  Nd0  1  0.558475  0.065941  0.254544  1
  Nd  Nd1  1  0.065941  0.254544  0.558475  1
  Nd  Nd2  1  0.745456  0.441525  0.934059  1
  Nd  Nd3  1  0.254544  0.558475  0.065941  1
  Nd  Nd4  1  0.934059  0.745456  0.441525  1
  Nd  Nd5  1  0.441525  0.934059  0.745456  1
  Dy  Dy6  1  0.000000  0.000000  0.000000  1
  Lu  Lu7  1  0.500000  0.500000  0.500000  1
  O  O8  1  0.689270  0.090308  0.935532  1
  O  O9  1  0.909692  0.064468  0.310730  1
  O  O10  1  0.406013  0.194709  0.534120  1
  O  O11  1  0.064468  0.310730  0.909692  1
  O  O12  1  0.534120  0.406013  0.194709  1
  O  O13  1  0.805291  0.465880  0.593987  1
  O  O14  1  0.194709  0.534120  0.406013  1
  O  O15  1  0.465880  0.593987  0.805291  1
  O  O16  1  0.935532  0.689270  0.090308  1
  O  O17  1  0.593987  0.805291  0.465880  1
  O  O18  1  0.090308  0.935532  0.689270  1
  O  O19  1  0.310730  0.909692  0.064468  1
