# generated using pymatgen
data_NdSb12(OsRu)2
_symmetry_space_group_name_H-M   'P 1'
_cell_length_a   8.13454831
_cell_length_b   8.14811422
_cell_length_c   8.14701403
_cell_angle_alpha   109.51677988
_cell_angle_beta   109.50526881
_cell_angle_gamma   109.45032088
_symmetry_Int_Tables_number   1
_chemical_formula_structural   NdSb12(OsRu)2
_chemical_formula_sum   'Nd1 Sb12 Os2 Ru2'
_cell_volume   415.38608059
_cell_formula_units_Z   1
loop_
 _symmetry_equiv_pos_site_id
 _symmetry_equiv_pos_as_xyz
  1  'x, y, z'
loop_
 _atom_site_type_symbol
 _atom_site_label
 _atom_site_symmetry_multiplicity
 _atom_site_fract_x
 _atom_site_fract_y
 _atom_site_fract_z
 _atom_site_occupancy
  Nd  Nd0  1  0.000000  0.000000  0.000000  1
  Sb  Sb1  1  0.337866  0.181346  0.842024  1
  Sb  Sb2  1  0.662134  0.818654  0.157976  1
  Sb  Sb3  1  0.662066  0.504144  0.843447  1
  Sb  Sb4  1  0.337934  0.495856  0.156553  1
  Sb  Sb5  1  0.180848  0.842441  0.338429  1
  Sb  Sb6  1  0.819152  0.157559  0.661571  1
  Sb  Sb7  1  0.504060  0.843041  0.661026  1
  Sb  Sb8  1  0.495940  0.156959  0.338974  1
  Sb  Sb9  1  0.843749  0.339465  0.181540  1
  Sb  Sb10  1  0.156251  0.660535  0.818460  1
  Sb  Sb11  1  0.843802  0.662277  0.504294  1
  Sb  Sb12  1  0.156198  0.337723  0.495706  1
  Os  Os13  1  0.500000  0.000000  0.000000  1
  Os  Os14  1  0.500000  0.500000  0.500000  1
  Ru  Ru15  1  0.000000  0.000000  0.500000  1
  Ru  Ru16  1  0.000000  0.500000  0.000000  1
