# generated using pymatgen
data_ErTh2(GeRh)3
_symmetry_space_group_name_H-M   'P 1'
_cell_length_a   7.25429662
_cell_length_b   7.30344397
_cell_length_c   3.93035700
_cell_angle_alpha   90.00000000
_cell_angle_beta   90.00000000
_cell_angle_gamma   120.22437238
_symmetry_Int_Tables_number   1
_chemical_formula_structural   ErTh2(GeRh)3
_chemical_formula_sum   'Er1 Th2 Ge3 Rh3'
_cell_volume   179.92822214
_cell_formula_units_Z   1
loop_
 _symmetry_equiv_pos_site_id
 _symmetry_equiv_pos_as_xyz
  1  'x, y, z'
loop_
 _atom_site_type_symbol
 _atom_site_label
 _atom_site_symmetry_multiplicity
 _atom_site_fract_x
 _atom_site_fract_y
 _atom_site_fract_z
 _atom_site_occupancy
  Er  Er0  1  0.000000  0.594789  0.500001  1
  Th  Th1  1  0.587526  0.001148  0.500001  1
  Th  Th2  1  0.412475  0.413623  0.500001  1
  Ge  Ge3  1  0.241778  0.991199  0.000000  1
  Ge  Ge4  1  0.000000  0.255471  0.000000  1
  Ge  Ge5  1  0.758222  0.749420  0.000000  1
  Rh  Rh6  1  0.663160  0.329233  0.000000  1
  Rh  Rh7  1  0.336839  0.666073  0.000000  1
  Rh  Rh8  1  0.000000  0.999043  0.500001  1
