# generated using pymatgen
data_LiY8GePd23
_symmetry_space_group_name_H-M   'P 1'
_cell_length_a   8.30611600
_cell_length_b   8.38398700
_cell_length_c   8.41888900
_cell_angle_alpha   90.00000000
_cell_angle_beta   90.00000000
_cell_angle_gamma   90.00000000
_symmetry_Int_Tables_number   1
_chemical_formula_structural   LiY8GePd23
_chemical_formula_sum   'Li1 Y8 Ge1 Pd23'
_cell_volume   586.27769509
_cell_formula_units_Z   1
loop_
 _symmetry_equiv_pos_site_id
 _symmetry_equiv_pos_as_xyz
  1  'x, y, z'
loop_
 _atom_site_type_symbol
 _atom_site_label
 _atom_site_symmetry_multiplicity
 _atom_site_fract_x
 _atom_site_fract_y
 _atom_site_fract_z
 _atom_site_occupancy
  Li  Li0  1  0.267002  0.500000  0.000000  1
  Y  Y1  1  0.252777  0.247848  0.260037  1
  Y  Y2  1  0.746963  0.746013  0.749031  1
  Y  Y3  1  0.746963  0.746013  0.250969  1
  Y  Y4  1  0.746963  0.253987  0.749031  1
  Y  Y5  1  0.252777  0.247848  0.739963  1
  Y  Y6  1  0.252777  0.752152  0.260037  1
  Y  Y7  1  0.252777  0.752152  0.739963  1
  Y  Y8  1  0.746963  0.253987  0.250969  1
  Ge  Ge9  1  0.996212  0.000000  0.000000  1
  Pd  Pd10  1  0.742344  0.500000  0.000000  1
  Pd  Pd11  1  0.997469  0.258488  0.500000  1
  Pd  Pd12  1  0.493383  0.264271  0.000000  1
  Pd  Pd13  1  0.997469  0.741512  0.500000  1
  Pd  Pd14  1  0.493383  0.735729  0.000000  1
  Pd  Pd15  1  0.500638  0.000000  0.261014  1
  Pd  Pd16  1  0.257921  0.000000  0.500000  1
  Pd  Pd17  1  0.500638  0.000000  0.738986  1
  Pd  Pd18  1  0.740508  0.000000  0.500000  1
  Pd  Pd19  1  0.002973  0.500000  0.261359  1
  Pd  Pd20  1  0.002973  0.500000  0.738641  1
  Pd  Pd21  1  0.252996  0.500000  0.500000  1
  Pd  Pd22  1  0.747082  0.500000  0.500000  1
  Pd  Pd23  1  0.502021  0.253406  0.500000  1
  Pd  Pd24  1  0.502021  0.746594  0.500000  1
  Pd  Pd25  1  0.495906  0.500000  0.252739  1
  Pd  Pd26  1  0.495906  0.500000  0.747261  1
  Pd  Pd27  1  0.288421  0.000000  0.000000  1
  Pd  Pd28  1  0.704853  0.000000  0.000000  1
  Pd  Pd29  1  0.011806  0.293685  0.000000  1
  Pd  Pd30  1  0.011806  0.706315  0.000000  1
  Pd  Pd31  1  0.997655  0.000000  0.287127  1
  Pd  Pd32  1  0.997655  0.000000  0.712873  1
