# generated using pymatgen
data_PrLu(Si2Rh3)2
_symmetry_space_group_name_H-M   'P 1'
_cell_length_a   6.65251664
_cell_length_b   6.65251769
_cell_length_c   6.65251817
_cell_angle_alpha   130.40294891
_cell_angle_beta   114.31361587
_cell_angle_gamma   86.56650251
_symmetry_Int_Tables_number   1
_chemical_formula_structural   PrLu(Si2Rh3)2
_chemical_formula_sum   'Pr1 Lu1 Si4 Rh6'
_cell_volume   195.01348215
_cell_formula_units_Z   1
loop_
 _symmetry_equiv_pos_site_id
 _symmetry_equiv_pos_as_xyz
  1  'x, y, z'
loop_
 _atom_site_type_symbol
 _atom_site_label
 _atom_site_symmetry_multiplicity
 _atom_site_fract_x
 _atom_site_fract_y
 _atom_site_fract_z
 _atom_site_occupancy
  Pr  Pr0  1  0.250000  0.965135  0.715135  1
  Lu  Lu1  1  0.750000  0.054166  0.304166  1
  Si  Si2  1  0.579129  0.384948  0.805819  1
  Si  Si3  1  0.422157  0.618524  0.196367  1
  Si  Si4  1  0.077843  0.274209  0.196367  1
  Si  Si5  1  0.920871  0.726689  0.805819  1
  Rh  Rh6  1  0.209363  0.488086  0.707478  1
  Rh  Rh7  1  0.719392  0.998114  0.707478  1
  Rh  Rh8  1  0.780608  0.488086  0.278722  1
  Rh  Rh9  1  0.290637  0.998114  0.278722  1
  Rh  Rh10  1  0.503911  0.501963  0.505876  1
  Rh  Rh11  1  0.996089  0.501963  0.998052  1
