# generated using pymatgen
data_DyBi3Ru2(RhO7)2
_symmetry_space_group_name_H-M   'P 1'
_cell_length_a   7.30004216
_cell_length_b   7.30630045
_cell_length_c   7.33955325
_cell_angle_alpha   60.10464614
_cell_angle_beta   60.17792056
_cell_angle_gamma   60.02832984
_symmetry_Int_Tables_number   1
_chemical_formula_structural   DyBi3Ru2(RhO7)2
_chemical_formula_sum   'Dy1 Bi3 Ru2 Rh2 O14'
_cell_volume   277.45630723
_cell_formula_units_Z   1
loop_
 _symmetry_equiv_pos_site_id
 _symmetry_equiv_pos_as_xyz
  1  'x, y, z'
loop_
 _atom_site_type_symbol
 _atom_site_label
 _atom_site_symmetry_multiplicity
 _atom_site_fract_x
 _atom_site_fract_y
 _atom_site_fract_z
 _atom_site_occupancy
  Dy  Dy0  1  0.125000  0.625000  0.125000  1
  Bi  Bi1  1  0.125000  0.125000  0.125000  1
  Bi  Bi2  1  0.625000  0.125000  0.125000  1
  Bi  Bi3  1  0.125000  0.125000  0.625000  1
  Ru  Ru4  1  0.625000  0.625000  0.125000  1
  Ru  Ru5  1  0.625000  0.125000  0.625000  1
  Rh  Rh6  1  0.625000  0.625000  0.625000  1
  Rh  Rh7  1  0.125000  0.625000  0.625000  1
  O  O8  1  0.247230  0.257998  0.247544  1
  O  O9  1  0.294758  0.708302  0.288735  1
  O  O10  1  0.952574  0.957867  0.542550  1
  O  O11  1  0.547010  0.957867  0.542550  1
  O  O12  1  0.708205  0.708302  0.288735  1
  O  O13  1  0.963970  0.542100  0.529959  1
  O  O14  1  0.702990  0.292133  0.707450  1
  O  O15  1  0.297426  0.292133  0.707450  1
  O  O16  1  0.702243  0.296845  0.298667  1
  O  O17  1  0.286030  0.707900  0.720041  1
  O  O18  1  0.955242  0.541698  0.961265  1
  O  O19  1  0.541795  0.541698  0.961265  1
  O  O20  1  0.002770  0.992002  0.002456  1
  O  O21  1  0.547757  0.953155  0.951333  1
