# generated using pymatgen
data_FeTcIr6
_symmetry_space_group_name_H-M   'P 1'
_cell_length_a   5.47974300
_cell_length_b   5.47974356
_cell_length_c   4.39842400
_cell_angle_alpha   90.00000000
_cell_angle_beta   90.00000000
_cell_angle_gamma   120.00000267
_symmetry_Int_Tables_number   1
_chemical_formula_structural   FeTcIr6
_chemical_formula_sum   'Fe1 Tc1 Ir6'
_cell_volume   114.37948521
_cell_formula_units_Z   1
loop_
 _symmetry_equiv_pos_site_id
 _symmetry_equiv_pos_as_xyz
  1  'x, y, z'
loop_
 _atom_site_type_symbol
 _atom_site_label
 _atom_site_symmetry_multiplicity
 _atom_site_fract_x
 _atom_site_fract_y
 _atom_site_fract_z
 _atom_site_occupancy
  Fe  Fe0  1  0.666667  0.333333  0.250000  1
  Tc  Tc1  1  0.333333  0.666667  0.750000  1
  Ir  Ir2  1  0.167833  0.335666  0.250000  1
  Ir  Ir3  1  0.664334  0.832167  0.250000  1
  Ir  Ir4  1  0.167833  0.832167  0.250000  1
  Ir  Ir5  1  0.832629  0.665258  0.750000  1
  Ir  Ir6  1  0.334742  0.167371  0.750000  1
  Ir  Ir7  1  0.832629  0.167371  0.750000  1
