# generated using pymatgen
data_DyMgGa3Ru
_symmetry_space_group_name_H-M   'P 1'
_cell_length_a   5.32140703
_cell_length_b   5.32082726
_cell_length_c   8.76731717
_cell_angle_alpha   89.98305661
_cell_angle_beta   89.99133049
_cell_angle_gamma   120.00538253
_symmetry_Int_Tables_number   1
_chemical_formula_structural   DyMgGa3Ru
_chemical_formula_sum   'Dy2 Mg2 Ga6 Ru2'
_cell_volume   214.97075697
_cell_formula_units_Z   2
loop_
 _symmetry_equiv_pos_site_id
 _symmetry_equiv_pos_as_xyz
  1  'x, y, z'
loop_
 _atom_site_type_symbol
 _atom_site_label
 _atom_site_symmetry_multiplicity
 _atom_site_fract_x
 _atom_site_fract_y
 _atom_site_fract_z
 _atom_site_occupancy
  Dy  Dy0  1  0.333614  0.667151  0.551390  1
  Dy  Dy1  1  0.333040  0.666483  0.948481  1
  Mg  Mg2  1  0.666368  0.333259  0.047296  1
  Mg  Mg3  1  0.667040  0.333597  0.452827  1
  Ga  Ga4  1  0.164286  0.328120  0.249926  1
  Ga  Ga5  1  0.163963  0.835645  0.250032  1
  Ga  Ga6  1  0.671881  0.835695  0.250028  1
  Ga  Ga7  1  0.331628  0.165847  0.749804  1
  Ga  Ga8  1  0.834346  0.166238  0.749866  1
  Ga  Ga9  1  0.833658  0.668160  0.750365  1
  Ru  Ru10  1  0.999881  0.999692  0.009054  1
  Ru  Ru11  1  0.000295  0.000111  0.490929  1
