# generated using pymatgen
data_ErTm3Nb2(B2Ru5)2
_symmetry_space_group_name_H-M   'P 1'
_cell_length_a   9.64392951
_cell_length_b   9.64393051
_cell_length_c   3.12014900
_cell_angle_alpha   90.00000000
_cell_angle_beta   90.00000000
_cell_angle_gamma   90.03720332
_symmetry_Int_Tables_number   1
_chemical_formula_structural   ErTm3Nb2(B2Ru5)2
_chemical_formula_sum   'Er1 Tm3 Nb2 B4 Ru10'
_cell_volume   290.19060096
_cell_formula_units_Z   1
loop_
 _symmetry_equiv_pos_site_id
 _symmetry_equiv_pos_as_xyz
  1  'x, y, z'
loop_
 _atom_site_type_symbol
 _atom_site_label
 _atom_site_symmetry_multiplicity
 _atom_site_fract_x
 _atom_site_fract_y
 _atom_site_fract_z
 _atom_site_occupancy
  Er  Er0  1  0.825259  0.674775  0.000000  1
  Tm  Tm1  1  0.174799  0.325244  0.000000  1
  Tm  Tm2  1  0.325261  0.825195  0.000000  1
  Tm  Tm3  1  0.674754  0.174788  0.000000  1
  Nb  Nb4  1  0.499909  0.499963  0.000000  1
  Nb  Nb5  1  0.000034  0.000092  0.000000  1
  B  B6  1  0.620108  0.879863  0.000000  1
  B  B7  1  0.379771  0.120243  0.000000  1
  B  B8  1  0.120330  0.620210  0.000000  1
  B  B9  1  0.879761  0.379684  0.000000  1
  Ru  Ru10  1  0.570839  0.718349  0.500000  1
  Ru  Ru11  1  0.428782  0.281701  0.500000  1
  Ru  Ru12  1  0.071512  0.781865  0.500000  1
  Ru  Ru13  1  0.928772  0.218209  0.500000  1
  Ru  Ru14  1  0.281777  0.571228  0.500000  1
  Ru  Ru15  1  0.718147  0.428481  0.500000  1
  Ru  Ru16  1  0.218281  0.071206  0.500000  1
  Ru  Ru17  1  0.781657  0.929162  0.500000  1
  Ru  Ru18  1  0.499967  0.000025  0.500000  1
  Ru  Ru19  1  0.000278  0.499718  0.500000  1
