# generated using pymatgen
data_Lu4Ga4NiRh3
_symmetry_space_group_name_H-M   'P 1'
_cell_length_a   4.23530400
_cell_length_b   6.71706060
_cell_length_c   7.64183279
_cell_angle_alpha   89.77426829
_cell_angle_beta   90.00000000
_cell_angle_gamma   90.00000000
_symmetry_Int_Tables_number   1
_chemical_formula_structural   Lu4Ga4NiRh3
_chemical_formula_sum   'Lu4 Ga4 Ni1 Rh3'
_cell_volume   217.39923678
_cell_formula_units_Z   1
loop_
 _symmetry_equiv_pos_site_id
 _symmetry_equiv_pos_as_xyz
  1  'x, y, z'
loop_
 _atom_site_type_symbol
 _atom_site_label
 _atom_site_symmetry_multiplicity
 _atom_site_fract_x
 _atom_site_fract_y
 _atom_site_fract_z
 _atom_site_occupancy
  Lu  Lu0  1  0.250000  0.024590  0.814383  1
  Lu  Lu1  1  0.250000  0.526112  0.688555  1
  Lu  Lu2  1  0.750000  0.973294  0.188165  1
  Lu  Lu3  1  0.750000  0.477974  0.310352  1
  Ga  Ga4  1  0.250000  0.154441  0.430494  1
  Ga  Ga5  1  0.250000  0.661355  0.060425  1
  Ga  Ga6  1  0.750000  0.841361  0.578890  1
  Ga  Ga7  1  0.750000  0.350731  0.928905  1
  Ni  Ni8  1  0.750000  0.725060  0.890995  1
  Rh  Rh9  1  0.250000  0.764759  0.389948  1
  Rh  Rh10  1  0.250000  0.267507  0.108291  1
  Rh  Rh11  1  0.750000  0.232813  0.610593  1
