# generated using pymatgen
data_Sr6TiTc3O14
_symmetry_space_group_name_H-M   'P 1'
_cell_length_a   10.78208761
_cell_length_b   10.78208195
_cell_length_c   5.60483702
_cell_angle_alpha   90.00270171
_cell_angle_beta   90.00261122
_cell_angle_gamma   149.80577095
_symmetry_Int_Tables_number   1
_chemical_formula_structural   Sr6TiTc3O14
_chemical_formula_sum   'Sr6 Ti1 Tc3 O14'
_cell_volume   327.70155843
_cell_formula_units_Z   1
loop_
 _symmetry_equiv_pos_site_id
 _symmetry_equiv_pos_as_xyz
  1  'x, y, z'
loop_
 _atom_site_type_symbol
 _atom_site_label
 _atom_site_symmetry_multiplicity
 _atom_site_fract_x
 _atom_site_fract_y
 _atom_site_fract_z
 _atom_site_occupancy
  Sr  Sr0  1  0.186531  0.813465  0.000000  1
  Sr  Sr1  1  0.815230  0.184769  0.999999  1
  Sr  Sr2  1  0.315384  0.684615  0.500001  1
  Sr  Sr3  1  0.998119  0.001888  0.000000  1
  Sr  Sr4  1  0.687068  0.312930  0.500000  1
  Sr  Sr5  1  0.498119  0.501881  0.500001  1
  Ti  Ti6  1  0.901543  0.098451  0.500000  1
  Tc  Tc7  1  0.402525  0.597477  0.000001  1
  Tc  Tc8  1  0.597025  0.402975  0.000000  1
  Tc  Tc9  1  0.097589  0.902413  0.500001  1
  O  O10  1  0.165003  0.358897  0.268185  1
  O  O11  1  0.314980  0.122017  0.218493  1
  O  O12  1  0.641103  0.834997  0.731814  1
  O  O13  1  0.377942  0.184748  0.718552  1
  O  O14  1  0.806438  0.193563  0.500000  1
  O  O15  1  0.815250  0.622056  0.281447  1
  O  O16  1  0.196969  0.803027  0.499999  1
  O  O17  1  0.696044  0.303959  0.000000  1
  O  O18  1  0.671539  0.865454  0.237771  1
  O  O19  1  0.304828  0.695174  0.000002  1
  O  O20  1  0.998568  0.001433  0.500000  1
  O  O21  1  0.877982  0.685020  0.781507  1
  O  O22  1  0.499674  0.500327  0.999999  1
  O  O23  1  0.134546  0.328463  0.762229  1
