# generated using pymatgen
data_Tm8Al2RuPt
_symmetry_space_group_name_H-M   'P 1'
_cell_length_a   9.41849471
_cell_length_b   9.41849668
_cell_length_c   9.45218700
_cell_angle_alpha   59.88160533
_cell_angle_beta   59.88159841
_cell_angle_gamma   59.56847473
_symmetry_Int_Tables_number   1
_chemical_formula_structural   Tm8Al2RuPt
_chemical_formula_sum   'Tm16 Al4 Ru2 Pt2'
_cell_volume   589.88795347
_cell_formula_units_Z   2
loop_
 _symmetry_equiv_pos_site_id
 _symmetry_equiv_pos_as_xyz
  1  'x, y, z'
loop_
 _atom_site_type_symbol
 _atom_site_label
 _atom_site_symmetry_multiplicity
 _atom_site_fract_x
 _atom_site_fract_y
 _atom_site_fract_z
 _atom_site_occupancy
  Tm  Tm0  1  0.352760  0.352760  0.356122  1
  Tm  Tm1  1  0.352760  0.352760  0.938358  1
  Tm  Tm2  1  0.350585  0.943574  0.352920  1
  Tm  Tm3  1  0.943574  0.350585  0.352920  1
  Tm  Tm4  1  0.810467  0.192247  0.194608  1
  Tm  Tm5  1  0.192247  0.810467  0.802679  1
  Tm  Tm6  1  0.192247  0.810467  0.194608  1
  Tm  Tm7  1  0.810467  0.192247  0.802679  1
  Tm  Tm8  1  0.192456  0.192456  0.807544  1
  Tm  Tm9  1  0.804409  0.804409  0.195591  1
  Tm  Tm10  1  0.936392  0.560125  0.565564  1
  Tm  Tm11  1  0.560125  0.936392  0.937918  1
  Tm  Tm12  1  0.560125  0.936392  0.565564  1
  Tm  Tm13  1  0.936392  0.560125  0.937918  1
  Tm  Tm14  1  0.562899  0.562899  0.937101  1
  Tm  Tm15  1  0.938421  0.938421  0.561579  1
  Al  Al16  1  0.578364  0.578364  0.578508  1
  Al  Al17  1  0.578364  0.578364  0.264765  1
  Al  Al18  1  0.578825  0.264107  0.578534  1
  Al  Al19  1  0.264107  0.578825  0.578534  1
  Ru  Ru20  1  0.143383  0.143383  0.140781  1
  Ru  Ru21  1  0.143383  0.143383  0.572455  1
  Pt  Pt22  1  0.144500  0.572752  0.141375  1
  Pt  Pt23  1  0.572752  0.144500  0.141375  1
