# generated using pymatgen
data_Lu3AlGaNi6
_symmetry_space_group_name_H-M   'P 1'
_cell_length_a   7.60614260
_cell_length_b   7.62125776
_cell_length_c   7.62125815
_cell_angle_alpha   109.55736691
_cell_angle_beta   109.46832949
_cell_angle_gamma   109.46833284
_symmetry_Int_Tables_number   1
_chemical_formula_structural   Lu3AlGaNi6
_chemical_formula_sum   'Lu6 Al2 Ga2 Ni12'
_cell_volume   339.75365196
_cell_formula_units_Z   2
loop_
 _symmetry_equiv_pos_site_id
 _symmetry_equiv_pos_as_xyz
  1  'x, y, z'
loop_
 _atom_site_type_symbol
 _atom_site_label
 _atom_site_symmetry_multiplicity
 _atom_site_fract_x
 _atom_site_fract_y
 _atom_site_fract_z
 _atom_site_occupancy
  Lu  Lu0  1  0.294647  0.293682  0.000965  1
  Lu  Lu1  1  0.000000  0.293658  0.293658  1
  Lu  Lu2  1  0.000000  0.706342  0.706342  1
  Lu  Lu3  1  0.705353  0.999035  0.706318  1
  Lu  Lu4  1  0.294647  0.000965  0.293682  1
  Lu  Lu5  1  0.705353  0.706318  0.999035  1
  Al  Al6  1  0.000000  0.000000  0.500000  1
  Al  Al7  1  0.000000  0.500000  0.000000  1
  Ga  Ga8  1  0.500000  0.500000  0.500000  1
  Ga  Ga9  1  0.500000  0.000000  0.000000  1
  Ni  Ni10  1  0.665223  0.665261  0.327473  1
  Ni  Ni11  1  0.000000  0.335766  0.664234  1
  Ni  Ni12  1  0.326485  0.663243  0.663243  1
  Ni  Ni13  1  0.665223  0.327473  0.665261  1
  Ni  Ni14  1  0.334777  0.000037  0.662249  1
  Ni  Ni15  1  0.665223  0.337751  0.999963  1
  Ni  Ni16  1  0.334777  0.662249  0.000037  1
  Ni  Ni17  1  0.334777  0.672527  0.334739  1
  Ni  Ni18  1  0.000000  0.664234  0.335766  1
  Ni  Ni19  1  0.665223  0.999963  0.337751  1
  Ni  Ni20  1  0.673515  0.336757  0.336757  1
  Ni  Ni21  1  0.334777  0.334739  0.672527  1
