# generated using pymatgen
data_Li2Nd3(MgSn2)2
_symmetry_space_group_name_H-M   'P 1'
_cell_length_a   8.80817370
_cell_length_b   9.03458147
_cell_length_c   9.03458203
_cell_angle_alpha   149.72897386
_cell_angle_beta   130.19708773
_cell_angle_gamma   59.63115661
_symmetry_Int_Tables_number   1
_chemical_formula_structural   Li2Nd3(MgSn2)2
_chemical_formula_sum   'Li2 Nd3 Mg2 Sn4'
_cell_volume   274.30443301
_cell_formula_units_Z   1
loop_
 _symmetry_equiv_pos_site_id
 _symmetry_equiv_pos_as_xyz
  1  'x, y, z'
loop_
 _atom_site_type_symbol
 _atom_site_label
 _atom_site_symmetry_multiplicity
 _atom_site_fract_x
 _atom_site_fract_y
 _atom_site_fract_z
 _atom_site_occupancy
  Li  Li0  1  0.016683  0.328291  0.688394  1
  Li  Li1  1  0.983317  0.671709  0.311606  1
  Nd  Nd2  1  0.361075  0.877542  0.483533  1
  Nd  Nd3  1  0.638925  0.122458  0.516467  1
  Nd  Nd4  1  0.000000  0.000000  0.000000  1
  Mg  Mg5  1  0.637103  0.328194  0.308909  1
  Mg  Mg6  1  0.362897  0.671806  0.691091  1
  Sn  Sn7  1  0.196707  0.217079  0.979628  1
  Sn  Sn8  1  0.803293  0.782921  0.020372  1
  Sn  Sn9  1  0.702495  0.503233  0.199262  1
  Sn  Sn10  1  0.297505  0.496767  0.800738  1
