# generated using pymatgen
data_YScBeB3Ru5
_symmetry_space_group_name_H-M   'P 1'
_cell_length_a   3.06790000
_cell_length_b   8.66475091
_cell_length_c   10.24355096
_cell_angle_alpha   90.66403935
_cell_angle_beta   90.00000000
_cell_angle_gamma   90.00000000
_symmetry_Int_Tables_number   1
_chemical_formula_structural   YScBeB3Ru5
_chemical_formula_sum   'Y2 Sc2 Be2 B6 Ru10'
_cell_volume   272.28182081
_cell_formula_units_Z   2
loop_
 _symmetry_equiv_pos_site_id
 _symmetry_equiv_pos_as_xyz
  1  'x, y, z'
loop_
 _atom_site_type_symbol
 _atom_site_label
 _atom_site_symmetry_multiplicity
 _atom_site_fract_x
 _atom_site_fract_y
 _atom_site_fract_z
 _atom_site_occupancy
  Y  Y0  1  0.500000  0.840358  0.184632  1
  Y  Y1  1  0.500000  0.159642  0.815368  1
  Sc  Sc2  1  0.500000  0.655780  0.677932  1
  Sc  Sc3  1  0.500000  0.344220  0.322068  1
  Be  Be4  1  0.500000  0.960187  0.592967  1
  Be  Be5  1  0.500000  0.039813  0.407033  1
  B  B6  1  0.500000  0.849433  0.897526  1
  B  B7  1  0.500000  0.150567  0.102474  1
  B  B8  1  0.500000  0.650493  0.405087  1
  B  B9  1  0.500000  0.349507  0.594913  1
  B  B10  1  0.500000  0.468023  0.909970  1
  B  B11  1  0.500000  0.531977  0.090030  1
  Ru  Ru12  1  0.000000  0.656161  0.957317  1
  Ru  Ru13  1  0.000000  0.343839  0.042683  1
  Ru  Ru14  1  0.000000  0.830313  0.451228  1
  Ru  Ru15  1  0.000000  0.169687  0.548772  1
  Ru  Ru16  1  0.000000  0.000000  0.000000  1
  Ru  Ru17  1  0.000000  0.415552  0.759379  1
  Ru  Ru18  1  0.000000  0.584448  0.240621  1
  Ru  Ru19  1  0.000000  0.500000  0.500000  1
  Ru  Ru20  1  0.000000  0.888632  0.747228  1
  Ru  Ru21  1  0.000000  0.111368  0.252772  1
