# generated using pymatgen
data_KCr3Se5
_symmetry_space_group_name_H-M   'P 1'
_cell_length_a   10.29743151
_cell_length_b   10.29743198
_cell_length_c   12.85855323
_cell_angle_alpha   57.24522310
_cell_angle_beta   57.24522128
_cell_angle_gamma   20.97106915
_symmetry_Int_Tables_number   1
_chemical_formula_structural   KCr3Se5
_chemical_formula_sum   'K2 Cr6 Se10'
_cell_volume   407.47379693
_cell_formula_units_Z   2
loop_
 _symmetry_equiv_pos_site_id
 _symmetry_equiv_pos_as_xyz
  1  'x, y, z'
loop_
 _atom_site_type_symbol
 _atom_site_label
 _atom_site_symmetry_multiplicity
 _atom_site_fract_x
 _atom_site_fract_y
 _atom_site_fract_z
 _atom_site_occupancy
  K  K0  1  0.745154  0.745154  0.171103  1
  K  K1  1  0.254846  0.254846  0.828897  1
  Cr  Cr2  1  0.016700  0.016700  0.228772  1
  Cr  Cr3  1  0.164485  0.164485  0.611336  1
  Cr  Cr4  1  0.500000  0.500000  0.000000  1
  Cr  Cr5  1  0.983300  0.983300  0.771228  1
  Cr  Cr6  1  0.835515  0.835515  0.388664  1
  Cr  Cr7  1  0.500000  0.500000  0.500000  1
  Se  Se8  1  0.594376  0.594376  0.078299  1
  Se  Se9  1  0.575031  0.575031  0.607651  1
  Se  Se10  1  0.924234  0.924234  0.150943  1
  Se  Se11  1  0.424969  0.424969  0.392349  1
  Se  Se12  1  0.082551  0.082551  0.346627  1
  Se  Se13  1  0.075766  0.075766  0.849057  1
  Se  Se14  1  0.743994  0.743994  0.618563  1
  Se  Se15  1  0.405624  0.405624  0.921701  1
  Se  Se16  1  0.256006  0.256006  0.381437  1
  Se  Se17  1  0.917449  0.917449  0.653373  1
