# generated using pymatgen
data_TbHo3Tm2GaCo2
_symmetry_space_group_name_H-M   'P 1'
_cell_length_a   8.20590846
_cell_length_b   8.22561310
_cell_length_c   8.22561351
_cell_angle_alpha   112.22703818
_cell_angle_beta   109.43959640
_cell_angle_gamma   106.88204452
_symmetry_Int_Tables_number   1
_chemical_formula_structural   TbHo3Tm2GaCo2
_chemical_formula_sum   'Tb2 Ho6 Tm4 Ga2 Co4'
_cell_volume   425.99604311
_cell_formula_units_Z   2
loop_
 _symmetry_equiv_pos_site_id
 _symmetry_equiv_pos_as_xyz
  1  'x, y, z'
loop_
 _atom_site_type_symbol
 _atom_site_label
 _atom_site_symmetry_multiplicity
 _atom_site_fract_x
 _atom_site_fract_y
 _atom_site_fract_z
 _atom_site_occupancy
  Tb  Tb0  1  0.958692  0.261234  0.697458  1
  Tb  Tb1  1  0.041308  0.738766  0.302542  1
  Ho  Ho2  1  0.563249  0.260931  0.302317  1
  Ho  Ho3  1  0.436751  0.739069  0.697683  1
  Ho  Ho4  1  0.180763  0.781013  0.961043  1
  Ho  Ho5  1  0.819237  0.780278  0.600251  1
  Ho  Ho6  1  0.180763  0.219722  0.399749  1
  Ho  Ho7  1  0.819237  0.218987  0.038957  1
  Tm  Tm8  1  0.672249  0.860310  0.186549  1
  Tm  Tm9  1  0.327751  0.514300  0.188061  1
  Tm  Tm10  1  0.327751  0.139690  0.813451  1
  Tm  Tm11  1  0.672249  0.485700  0.811939  1
  Ga  Ga12  1  0.000000  0.500000  0.500000  1
  Ga  Ga13  1  0.500000  0.000000  0.500000  1
  Co  Co14  1  0.116670  0.115540  0.001131  1
  Co  Co15  1  0.883330  0.884460  0.998869  1
  Co  Co16  1  0.662079  0.499624  0.162454  1
  Co  Co17  1  0.337921  0.500376  0.837546  1
