# generated using pymatgen
data_Sr(BrF6)2
_symmetry_space_group_name_H-M   'P 1'
_cell_length_a   11.94993513
_cell_length_b   5.93507683
_cell_length_c   5.96387600
_cell_angle_alpha   57.28454375
_cell_angle_beta   57.13098799
_cell_angle_gamma   57.36110400
_symmetry_Int_Tables_number   1
_chemical_formula_structural   Sr(BrF6)2
_chemical_formula_sum   'Sr1 Br2 F12'
_cell_volume   280.21057820
_cell_formula_units_Z   1
loop_
 _symmetry_equiv_pos_site_id
 _symmetry_equiv_pos_as_xyz
  1  'x, y, z'
loop_
 _atom_site_type_symbol
 _atom_site_label
 _atom_site_symmetry_multiplicity
 _atom_site_fract_x
 _atom_site_fract_y
 _atom_site_fract_z
 _atom_site_occupancy
  Sr  Sr0  1  0.750000  0.500000  0.500000  1
  Br  Br1  1  0.017139  0.992988  0.982535  1
  Br  Br2  1  0.482861  0.007012  0.017465  1
  F  F3  1  0.171576  0.097837  0.778939  1
  F  F4  1  0.658858  0.112699  0.787141  1
  F  F5  1  0.066754  0.788425  0.297104  1
  F  F6  1  0.541098  0.786495  0.356047  1
  F  F7  1  0.116947  0.678660  0.882677  1
  F  F8  1  0.596124  0.662155  0.904128  1
  F  F9  1  0.433246  0.211575  0.702896  1
  F  F10  1  0.958902  0.213505  0.643953  1
  F  F11  1  0.328424  0.902163  0.221061  1
  F  F12  1  0.841142  0.887301  0.212859  1
  F  F13  1  0.383053  0.321340  0.117323  1
  F  F14  1  0.903876  0.337845  0.095872  1
