# generated using pymatgen
data_Cs12NbTc3S16
_symmetry_space_group_name_H-M   'P 1'
_cell_length_a   9.99041277
_cell_length_b   10.13135585
_cell_length_c   11.79072500
_cell_angle_alpha   90.00000000
_cell_angle_beta   90.00000000
_cell_angle_gamma   90.01063664
_symmetry_Int_Tables_number   1
_chemical_formula_structural   Cs12NbTc3S16
_chemical_formula_sum   'Cs12 Nb1 Tc3 S16'
_cell_volume   1193.41503344
_cell_formula_units_Z   1
loop_
 _symmetry_equiv_pos_site_id
 _symmetry_equiv_pos_as_xyz
  1  'x, y, z'
loop_
 _atom_site_type_symbol
 _atom_site_label
 _atom_site_symmetry_multiplicity
 _atom_site_fract_x
 _atom_site_fract_y
 _atom_site_fract_z
 _atom_site_occupancy
  Cs  Cs0  1  0.852638  0.916435  0.750000  1
  Cs  Cs1  1  0.351029  0.584192  0.750000  1
  Cs  Cs2  1  0.148187  0.081621  0.250000  1
  Cs  Cs3  1  0.646553  0.419489  0.250000  1
  Cs  Cs4  1  0.050127  0.291660  0.541568  1
  Cs  Cs5  1  0.547501  0.205593  0.958482  1
  Cs  Cs6  1  0.952315  0.707253  0.043500  1
  Cs  Cs7  1  0.451063  0.793432  0.456372  1
  Cs  Cs8  1  0.952315  0.707253  0.456500  1
  Cs  Cs9  1  0.451063  0.793432  0.043628  1
  Cs  Cs10  1  0.050127  0.291660  0.958432  1
  Cs  Cs11  1  0.547501  0.205593  0.541518  1
  Nb  Nb12  1  0.775475  0.482057  0.750000  1
  Tc  Tc13  1  0.274700  0.018400  0.750000  1
  Tc  Tc14  1  0.224045  0.517561  0.250000  1
  Tc  Tc15  1  0.725807  0.982258  0.250000  1
  S  S16  1  0.794715  0.256011  0.750000  1
  S  S17  1  0.295039  0.237858  0.750000  1
  S  S18  1  0.204532  0.737180  0.250000  1
  S  S19  1  0.705556  0.763018  0.250000  1
  S  S20  1  0.986231  0.573068  0.750000  1
  S  S21  1  0.478878  0.929162  0.750000  1
  S  S22  1  0.019874  0.428315  0.250000  1
  S  S23  1  0.521468  0.071604  0.250000  1
  S  S24  1  0.833357  0.042615  0.406865  1
  S  S25  1  0.331458  0.456712  0.093364  1
  S  S26  1  0.167197  0.957877  0.906901  1
  S  S27  1  0.664621  0.545745  0.588578  1
  S  S28  1  0.167197  0.957877  0.593099  1
  S  S29  1  0.664621  0.545745  0.911422  1
  S  S30  1  0.833357  0.042615  0.093135  1
  S  S31  1  0.331458  0.456712  0.406636  1
