# generated using pymatgen
data_Y5Ho(ErAu2)2
_symmetry_space_group_name_H-M   'P 1'
_cell_length_a   4.93200800
_cell_length_b   7.17683331
_cell_length_c   8.93820801
_cell_angle_alpha   89.84146870
_cell_angle_beta   90.00000000
_cell_angle_gamma   90.00000000
_symmetry_Int_Tables_number   1
_chemical_formula_structural   Y5Ho(ErAu2)2
_chemical_formula_sum   'Y5 Ho1 Er2 Au4'
_cell_volume   316.37738083
_cell_formula_units_Z   1
loop_
 _symmetry_equiv_pos_site_id
 _symmetry_equiv_pos_as_xyz
  1  'x, y, z'
loop_
 _atom_site_type_symbol
 _atom_site_label
 _atom_site_symmetry_multiplicity
 _atom_site_fract_x
 _atom_site_fract_y
 _atom_site_fract_z
 _atom_site_occupancy
  Y  Y0  1  0.250000  0.485620  0.175155  1
  Y  Y1  1  0.750000  0.514376  0.823528  1
  Y  Y2  1  0.250000  0.986944  0.324013  1
  Y  Y3  1  0.750000  0.014798  0.677535  1
  Y  Y4  1  0.750000  0.648751  0.419901  1
  Ho  Ho5  1  0.750000  0.147812  0.079990  1
  Er  Er6  1  0.250000  0.351978  0.579916  1
  Er  Er7  1  0.250000  0.852536  0.920360  1
  Au  Au8  1  0.250000  0.252817  0.899370  1
  Au  Au9  1  0.750000  0.747325  0.097818  1
  Au  Au10  1  0.250000  0.753339  0.602625  1
  Au  Au11  1  0.750000  0.243704  0.399789  1
