# generated using pymatgen
data_Ba4ReW3F28
_symmetry_space_group_name_H-M   'P 1'
_cell_length_a   9.44933062
_cell_length_b   5.68062533
_cell_length_c   9.79033800
_cell_angle_alpha   87.43189607
_cell_angle_beta   89.87190292
_cell_angle_gamma   89.42658214
_symmetry_Int_Tables_number   1
_chemical_formula_structural   Ba4ReW3F28
_chemical_formula_sum   'Ba4 Re1 W3 F28'
_cell_volume   524.97187405
_cell_formula_units_Z   1
loop_
 _symmetry_equiv_pos_site_id
 _symmetry_equiv_pos_as_xyz
  1  'x, y, z'
loop_
 _atom_site_type_symbol
 _atom_site_label
 _atom_site_symmetry_multiplicity
 _atom_site_fract_x
 _atom_site_fract_y
 _atom_site_fract_z
 _atom_site_occupancy
  Ba  Ba0  1  0.302114  0.259240  0.507779  1
  Ba  Ba1  1  0.801971  0.741717  0.993669  1
  Ba  Ba2  1  0.697655  0.741608  0.488668  1
  Ba  Ba3  1  0.199680  0.258655  0.008325  1
  Re  Re4  1  0.612244  0.232431  0.218079  1
  W  W5  1  0.388255  0.765587  0.781599  1
  W  W6  1  0.885941  0.232393  0.718422  1
  W  W7  1  0.113068  0.768407  0.282293  1
  F  F8  1  0.418596  0.057168  0.873784  1
  F  F9  1  0.047876  0.361506  0.617423  1
  F  F10  1  0.720651  0.528144  0.232394  1
  F  F11  1  0.281451  0.468177  0.766741  1
  F  F12  1  0.494089  0.983484  0.645774  1
  F  F13  1  0.766215  0.274796  0.549309  1
  F  F14  1  0.776075  0.073233  0.304147  1
  F  F15  1  0.992475  0.011051  0.850581  1
  F  F16  1  0.452253  0.365746  0.114857  1
  F  F17  1  0.220333  0.468162  0.267320  1
  F  F18  1  0.082871  0.061001  0.375344  1
  F  F19  1  0.583064  0.944126  0.124152  1
  F  F20  1  0.275713  0.929589  0.196825  1
  F  F21  1  0.026505  0.572934  0.133537  1
  F  F22  1  0.505538  0.019422  0.348244  1
  F  F23  1  0.007456  0.987939  0.147451  1
  F  F24  1  0.225585  0.932616  0.696467  1
  F  F25  1  0.913792  0.939314  0.624434  1
  F  F26  1  0.526724  0.424277  0.364230  1
  F  F27  1  0.952929  0.638007  0.385480  1
  F  F28  1  0.972153  0.424293  0.870295  1
  F  F29  1  0.723169  0.073712  0.805998  1
  F  F30  1  0.475238  0.569207  0.632065  1
  F  F31  1  0.268342  0.729684  0.951473  1
  F  F32  1  0.232571  0.728140  0.452409  1
  F  F33  1  0.728148  0.267330  0.052292  1
  F  F34  1  0.548756  0.632952  0.884883  1
  F  F35  1  0.780506  0.533953  0.733256  1
