# generated using pymatgen
data_Ca6Al24Ir5Os3
_symmetry_space_group_name_H-M   'P 1'
_cell_length_a   8.86258099
_cell_length_b   8.85928116
_cell_length_c   9.62946241
_cell_angle_alpha   89.99999866
_cell_angle_beta   89.85738278
_cell_angle_gamma   119.98767268
_symmetry_Int_Tables_number   1
_chemical_formula_structural   Ca6Al24Ir5Os3
_chemical_formula_sum   'Ca6 Al24 Ir5 Os3'
_cell_volume   654.85253952
_cell_formula_units_Z   1
loop_
 _symmetry_equiv_pos_site_id
 _symmetry_equiv_pos_as_xyz
  1  'x, y, z'
loop_
 _atom_site_type_symbol
 _atom_site_label
 _atom_site_symmetry_multiplicity
 _atom_site_fract_x
 _atom_site_fract_y
 _atom_site_fract_z
 _atom_site_occupancy
  Ca  Ca0  1  0.192680  0.387275  0.250585  1
  Ca  Ca1  1  0.807320  0.612725  0.749415  1
  Ca  Ca2  1  0.613999  0.806999  0.250222  1
  Ca  Ca3  1  0.386001  0.193001  0.749778  1
  Ca  Ca4  1  0.192680  0.805407  0.250585  1
  Ca  Ca5  1  0.807320  0.194593  0.749415  1
  Al  Al6  1  0.333417  0.666709  0.005036  1
  Al  Al7  1  0.666583  0.333291  0.994964  1
  Al  Al8  1  0.668000  0.334000  0.506698  1
  Al  Al9  1  0.332000  0.666000  0.493302  1
  Al  Al10  1  0.160749  0.324469  0.577336  1
  Al  Al11  1  0.839251  0.675531  0.422664  1
  Al  Al12  1  0.676067  0.838033  0.577408  1
  Al  Al13  1  0.838053  0.676367  0.077728  1
  Al  Al14  1  0.323933  0.161967  0.422592  1
  Al  Al15  1  0.161947  0.323633  0.922272  1
  Al  Al16  1  0.160749  0.836281  0.577336  1
  Al  Al17  1  0.323439  0.161719  0.078099  1
  Al  Al18  1  0.839251  0.163719  0.422664  1
  Al  Al19  1  0.676561  0.838281  0.921901  1
  Al  Al20  1  0.838053  0.161686  0.077728  1
  Al  Al21  1  0.161947  0.838314  0.922272  1
  Al  Al22  1  0.561961  0.124289  0.249857  1
  Al  Al23  1  0.438039  0.875711  0.750143  1
  Al  Al24  1  0.875846  0.437923  0.250830  1
  Al  Al25  1  0.124154  0.562077  0.749170  1
  Al  Al26  1  0.561961  0.437670  0.249857  1
  Al  Al27  1  0.438039  0.562330  0.750143  1
  Al  Al28  1  0.000437  0.000219  0.250074  1
  Al  Al29  1  0.999563  0.999781  0.749926  1
  Ir  Ir30  1  0.500000  0.000000  0.000000  1
  Ir  Ir31  1  0.000000  0.500000  0.000000  1
  Ir  Ir32  1  0.500000  0.000000  0.500000  1
  Ir  Ir33  1  0.500000  0.500000  0.000000  1
  Ir  Ir34  1  0.500000  0.500000  0.500000  1
  Os  Os35  1  0.000000  0.500000  0.500000  1
  Os  Os36  1  0.000000  0.000000  0.000000  1
  Os  Os37  1  0.000000  0.000000  0.500000  1
