# generated using pymatgen
data_V5Ga(AsO4)6
_symmetry_space_group_name_H-M   'P 1'
_cell_length_a   9.40555335
_cell_length_b   9.40555216
_cell_length_c   9.39692137
_cell_angle_alpha   138.73595528
_cell_angle_beta   109.15138462
_cell_angle_gamma   85.48313005
_symmetry_Int_Tables_number   1
_chemical_formula_structural   V5Ga(AsO4)6
_chemical_formula_sum   'V5 Ga1 As6 O24'
_cell_volume   498.77030990
_cell_formula_units_Z   1
loop_
 _symmetry_equiv_pos_site_id
 _symmetry_equiv_pos_as_xyz
  1  'x, y, z'
loop_
 _atom_site_type_symbol
 _atom_site_label
 _atom_site_symmetry_multiplicity
 _atom_site_fract_x
 _atom_site_fract_y
 _atom_site_fract_z
 _atom_site_occupancy
  V  V0  1  0.000320  0.499188  0.499285  1
  V  V1  1  0.499904  0.001036  0.500715  1
  V  V2  1  0.885613  0.885613  0.500000  1
  V  V3  1  0.613896  0.113896  0.000000  1
  V  V4  1  0.115376  0.115376  0.500000  1
  Ga  Ga5  1  0.386522  0.886522  0.000000  1
  As  As6  1  0.249240  0.813650  0.565195  1
  As  As7  1  0.748455  0.184045  0.434805  1
  As  As8  1  0.823741  0.323741  0.000000  1
  As  As9  1  0.676321  0.676321  0.500000  1
  As  As10  1  0.178214  0.678214  0.000000  1
  As  As11  1  0.325147  0.325147  0.500000  1
  O  O12  1  0.122491  0.974771  0.597237  1
  O  O13  1  0.377529  0.968848  0.853003  1
  O  O14  1  0.615845  0.024526  0.146997  1
  O  O15  1  0.877536  0.025256  0.402763  1
  O  O16  1  0.144393  0.573145  0.427165  1
  O  O17  1  0.356725  0.787215  0.435742  1
  O  O18  1  0.851472  0.420983  0.564258  1
  O  O19  1  0.645980  0.217228  0.572835  1
  O  O20  1  0.140804  0.405722  0.827629  1
  O  O21  1  0.355438  0.184196  0.258117  1
  O  O22  1  0.426077  0.597319  0.741883  1
  O  O23  1  0.078093  0.813176  0.172371  1
  O  O24  1  0.652630  0.809923  0.429601  1
  O  O25  1  0.846889  0.275457  0.156124  1
  O  O26  1  0.619335  0.190766  0.843876  1
  O  O27  1  0.880323  0.723030  0.570399  1
  O  O28  1  0.347803  0.190796  0.570319  1
  O  O29  1  0.153787  0.727081  0.844416  1
  O  O30  1  0.382664  0.809371  0.155584  1
  O  O31  1  0.120478  0.277483  0.429681  1
  O  O32  1  0.924628  0.187627  0.828876  1
  O  O33  1  0.574907  0.404283  0.261607  1
  O  O34  1  0.642675  0.813300  0.738393  1
  O  O35  1  0.858751  0.595752  0.171124  1
