# generated using pymatgen
data_Zn22NiPt2
_symmetry_space_group_name_H-M   'P 1'
_cell_length_a   7.76623329
_cell_length_b   7.76623368
_cell_length_c   7.75520844
_cell_angle_alpha   71.91950703
_cell_angle_beta   71.91950557
_cell_angle_gamma   58.51495170
_symmetry_Int_Tables_number   1
_chemical_formula_structural   Zn22NiPt2
_chemical_formula_sum   'Zn22 Ni1 Pt2'
_cell_volume   372.79461542
_cell_formula_units_Z   1
loop_
 _symmetry_equiv_pos_site_id
 _symmetry_equiv_pos_as_xyz
  1  'x, y, z'
loop_
 _atom_site_type_symbol
 _atom_site_label
 _atom_site_symmetry_multiplicity
 _atom_site_fract_x
 _atom_site_fract_y
 _atom_site_fract_z
 _atom_site_occupancy
  Zn  Zn0  1  0.335421  0.742297  0.317228  1
  Zn  Zn1  1  0.664579  0.257703  0.682772  1
  Zn  Zn2  1  0.257703  0.664579  0.682772  1
  Zn  Zn3  1  0.742297  0.335421  0.317228  1
  Zn  Zn4  1  0.683695  0.316305  0.000000  1
  Zn  Zn5  1  0.316305  0.683695  0.000000  1
  Zn  Zn6  1  0.834564  0.834564  0.776639  1
  Zn  Zn7  1  0.165436  0.165436  0.223361  1
  Zn  Zn8  1  0.975868  0.975868  0.176067  1
  Zn  Zn9  1  0.024132  0.024132  0.823933  1
  Zn  Zn10  1  0.352077  0.352077  0.278496  1
  Zn  Zn11  1  0.647923  0.647923  0.721504  1
  Zn  Zn12  1  0.684256  0.684256  0.382199  1
  Zn  Zn13  1  0.315744  0.315744  0.617801  1
  Zn  Zn14  1  0.662575  0.022035  0.460315  1
  Zn  Zn15  1  0.337425  0.977965  0.539685  1
  Zn  Zn16  1  0.977965  0.337425  0.539685  1
  Zn  Zn17  1  0.022035  0.662575  0.460315  1
  Zn  Zn18  1  0.623830  0.997450  0.105757  1
  Zn  Zn19  1  0.376170  0.002550  0.894243  1
  Zn  Zn20  1  0.002550  0.376170  0.894243  1
  Zn  Zn21  1  0.997450  0.623830  0.105757  1
  Ni  Ni22  1  0.000000  0.000000  0.500000  1
  Pt  Pt23  1  0.657442  0.657442  0.054954  1
  Pt  Pt24  1  0.342558  0.342558  0.945046  1
