# generated using pymatgen
data_Tb4DyHoH18
_symmetry_space_group_name_H-M   'P 1'
_cell_length_a   6.35862300
_cell_length_b   6.35903384
_cell_length_c   6.61897300
_cell_angle_alpha   90.00328870
_cell_angle_beta   90.00181115
_cell_angle_gamma   120.00387106
_symmetry_Int_Tables_number   1
_chemical_formula_structural   Tb4DyHoH18
_chemical_formula_sum   'Tb4 Dy1 Ho1 H18'
_cell_volume   231.77068824
_cell_formula_units_Z   1
loop_
 _symmetry_equiv_pos_site_id
 _symmetry_equiv_pos_as_xyz
  1  'x, y, z'
loop_
 _atom_site_type_symbol
 _atom_site_label
 _atom_site_symmetry_multiplicity
 _atom_site_fract_x
 _atom_site_fract_y
 _atom_site_fract_z
 _atom_site_occupancy
  Tb  Tb0  1  0.670016  0.669974  0.750138  1
  Tb  Tb1  1  0.330095  0.999814  0.750215  1
  Tb  Tb2  1  0.999867  0.330158  0.750262  1
  Tb  Tb3  1  0.329970  0.329977  0.250264  1
  Dy  Dy4  1  0.670162  0.000012  0.250145  1
  Ho  Ho5  1  0.000029  0.670196  0.250046  1
  H  H6  1  0.304614  0.304608  0.592287  1
  H  H7  1  0.695171  0.999997  0.591258  1
  H  H8  1  0.000003  0.694954  0.590233  1
  H  H9  1  0.696552  0.696081  0.093398  1
  H  H10  1  0.303490  0.998899  0.093037  1
  H  H11  1  0.999370  0.303771  0.092602  1
  H  H12  1  0.355315  0.355334  0.907558  1
  H  H13  1  0.644803  0.000008  0.908553  1
  H  H14  1  0.999989  0.644961  0.909544  1
  H  H15  1  0.645129  0.645051  0.407171  1
  H  H16  1  0.355697  0.999606  0.406797  1
  H  H17  1  0.999681  0.356466  0.406364  1
  H  H18  1  0.000050  0.000021  0.819075  1
  H  H19  1  0.998721  0.997291  0.318439  1
  H  H20  1  0.333288  0.666613  0.704385  1
  H  H21  1  0.666639  0.333368  0.704386  1
  H  H22  1  0.669582  0.334823  0.204930  1
  H  H23  1  0.331770  0.668020  0.204927  1
