# generated using pymatgen
data_TbTi2GaAu3
_symmetry_space_group_name_H-M   'P 1'
_cell_length_a   5.67511604
_cell_length_b   5.67511630
_cell_length_c   5.62048763
_cell_angle_alpha   101.83765767
_cell_angle_beta   101.83765296
_cell_angle_gamma   126.41792108
_symmetry_Int_Tables_number   1
_chemical_formula_structural   TbTi2GaAu3
_chemical_formula_sum   'Tb1 Ti2 Ga1 Au3'
_cell_volume   129.70658827
_cell_formula_units_Z   1
loop_
 _symmetry_equiv_pos_site_id
 _symmetry_equiv_pos_as_xyz
  1  'x, y, z'
loop_
 _atom_site_type_symbol
 _atom_site_label
 _atom_site_symmetry_multiplicity
 _atom_site_fract_x
 _atom_site_fract_y
 _atom_site_fract_z
 _atom_site_occupancy
  Tb  Tb0  1  0.003523  0.996477  0.000000  1
  Ti  Ti1  1  0.247632  0.752368  0.500000  1
  Ti  Ti2  1  0.747632  0.252368  0.500000  1
  Ga  Ga3  1  0.303844  0.696156  0.000000  1
  Au  Au4  1  0.307761  0.316362  0.624123  1
  Au  Au5  1  0.683638  0.692239  0.375877  1
  Au  Au6  1  0.705970  0.294030  0.000000  1
