# generated using pymatgen
data_LiFe(BrO3)4
_symmetry_space_group_name_H-M   'P 1'
_cell_length_a   4.90020539
_cell_length_b   6.50818203
_cell_length_c   8.49440503
_cell_angle_alpha   83.17865286
_cell_angle_beta   88.04259392
_cell_angle_gamma   88.61088020
_symmetry_Int_Tables_number   1
_chemical_formula_structural   LiFe(BrO3)4
_chemical_formula_sum   'Li1 Fe1 Br4 O12'
_cell_volume   268.76853543
_cell_formula_units_Z   1
loop_
 _symmetry_equiv_pos_site_id
 _symmetry_equiv_pos_as_xyz
  1  'x, y, z'
loop_
 _atom_site_type_symbol
 _atom_site_label
 _atom_site_symmetry_multiplicity
 _atom_site_fract_x
 _atom_site_fract_y
 _atom_site_fract_z
 _atom_site_occupancy
  Li  Li0  1  0.500000  0.000000  0.500000  1
  Fe  Fe1  1  0.500000  0.500000  0.500000  1
  Br  Br2  1  0.568020  0.803166  0.158877  1
  Br  Br3  1  0.027484  0.289568  0.272839  1
  Br  Br4  1  0.972516  0.710432  0.727161  1
  Br  Br5  1  0.431980  0.196834  0.841123  1
  O  O6  1  0.753678  0.624776  0.077822  1
  O  O7  1  0.722054  0.027721  0.112387  1
  O  O8  1  0.220175  0.485478  0.326478  1
  O  O9  1  0.199420  0.074201  0.330444  1
  O  O10  1  0.638776  0.752015  0.366801  1
  O  O11  1  0.749625  0.280866  0.404474  1
  O  O12  1  0.250375  0.719134  0.595526  1
  O  O13  1  0.361224  0.247985  0.633199  1
  O  O14  1  0.800580  0.925799  0.669556  1
  O  O15  1  0.779825  0.514522  0.673522  1
  O  O16  1  0.277946  0.972279  0.887613  1
  O  O17  1  0.246322  0.375224  0.922178  1
