# generated using pymatgen
data_Dy16Mg2CdAgPt4
_symmetry_space_group_name_H-M   'P 1'
_cell_length_a   9.68556584
_cell_length_b   9.67869089
_cell_length_c   9.67869066
_cell_angle_alpha   60.26464262
_cell_angle_beta   60.16065067
_cell_angle_gamma   60.16065366
_symmetry_Int_Tables_number   1
_chemical_formula_structural   Dy16Mg2CdAgPt4
_chemical_formula_sum   'Dy16 Mg2 Cd1 Ag1 Pt4'
_cell_volume   644.40491992
_cell_formula_units_Z   1
loop_
 _symmetry_equiv_pos_site_id
 _symmetry_equiv_pos_as_xyz
  1  'x, y, z'
loop_
 _atom_site_type_symbol
 _atom_site_label
 _atom_site_symmetry_multiplicity
 _atom_site_fract_x
 _atom_site_fract_y
 _atom_site_fract_z
 _atom_site_occupancy
  Dy  Dy0  1  0.347758  0.348290  0.348290  1
  Dy  Dy1  1  0.353537  0.355231  0.941237  1
  Dy  Dy2  1  0.353537  0.941237  0.355231  1
  Dy  Dy3  1  0.944106  0.353425  0.353425  1
  Dy  Dy4  1  0.812161  0.189787  0.189787  1
  Dy  Dy5  1  0.190560  0.809092  0.809092  1
  Dy  Dy6  1  0.191231  0.810869  0.190281  1
  Dy  Dy7  1  0.811198  0.188393  0.811320  1
  Dy  Dy8  1  0.191231  0.190281  0.810869  1
  Dy  Dy9  1  0.811198  0.811320  0.188393  1
  Dy  Dy10  1  0.933362  0.564230  0.564230  1
  Dy  Dy11  1  0.563892  0.934905  0.934905  1
  Dy  Dy12  1  0.565822  0.930989  0.564659  1
  Dy  Dy13  1  0.936701  0.562804  0.934041  1
  Dy  Dy14  1  0.565822  0.564659  0.930989  1
  Dy  Dy15  1  0.936701  0.934041  0.562804  1
  Mg  Mg16  1  0.576340  0.579866  0.267313  1
  Mg  Mg17  1  0.576340  0.267313  0.579866  1
  Cd  Cd18  1  0.253029  0.581798  0.581798  1
  Ag  Ag19  1  0.585869  0.582886  0.582886  1
  Pt  Pt20  1  0.145512  0.144483  0.144483  1
  Pt  Pt21  1  0.141753  0.141171  0.571480  1
  Pt  Pt22  1  0.141753  0.571480  0.141171  1
  Pt  Pt23  1  0.570591  0.141449  0.141449  1
