# generated using pymatgen
data_Tb3Sm4Zr(B6Os)4
_symmetry_space_group_name_H-M   'P 1'
_cell_length_a   3.67875900
_cell_length_b   9.19968815
_cell_length_c   11.59745571
_cell_angle_alpha   89.92168105
_cell_angle_beta   90.00000000
_cell_angle_gamma   90.00000000
_symmetry_Int_Tables_number   1
_chemical_formula_structural   Tb3Sm4Zr(B6Os)4
_chemical_formula_sum   'Tb3 Sm4 Zr1 B24 Os4'
_cell_volume   392.49737841
_cell_formula_units_Z   1
loop_
 _symmetry_equiv_pos_site_id
 _symmetry_equiv_pos_as_xyz
  1  'x, y, z'
loop_
 _atom_site_type_symbol
 _atom_site_label
 _atom_site_symmetry_multiplicity
 _atom_site_fract_x
 _atom_site_fract_y
 _atom_site_fract_z
 _atom_site_occupancy
  Tb  Tb0  1  0.000000  0.055335  0.625569  1
  Tb  Tb1  1  0.000000  0.443806  0.127893  1
  Tb  Tb2  1  0.000000  0.555297  0.873345  1
  Sm  Sm3  1  0.000000  0.321504  0.413316  1
  Sm  Sm4  1  0.000000  0.678477  0.586019  1
  Sm  Sm5  1  0.000000  0.822501  0.086849  1
  Sm  Sm6  1  0.000000  0.177210  0.913625  1
  Zr  Zr7  1  0.000000  0.943977  0.373044  1
  B  B8  1  0.500000  0.557161  0.432166  1
  B  B9  1  0.500000  0.445472  0.567692  1
  B  B10  1  0.500000  0.054017  0.069024  1
  B  B11  1  0.500000  0.945044  0.931586  1
  B  B12  1  0.500000  0.752313  0.418534  1
  B  B13  1  0.500000  0.251765  0.581236  1
  B  B14  1  0.500000  0.247039  0.082195  1
  B  B15  1  0.500000  0.751929  0.918649  1
  B  B16  1  0.500000  0.793773  0.266581  1
  B  B17  1  0.500000  0.209245  0.732849  1
  B  B18  1  0.500000  0.289546  0.234345  1
  B  B19  1  0.500000  0.709624  0.766670  1
  B  B20  1  0.500000  0.633202  0.185923  1
  B  B21  1  0.500000  0.367793  0.814112  1
  B  B22  1  0.500000  0.128347  0.315737  1
  B  B23  1  0.500000  0.869001  0.685875  1
  B  B24  1  0.500000  0.982074  0.214725  1
  B  B25  1  0.500000  0.015499  0.786366  1
  B  B26  1  0.500000  0.486354  0.287372  1
  B  B27  1  0.500000  0.514630  0.713368  1
  B  B28  1  0.500000  0.608589  0.030180  1
  B  B29  1  0.500000  0.391121  0.970913  1
  B  B30  1  0.500000  0.100587  0.468229  1
  B  B31  1  0.500000  0.896302  0.524420  1
  Os  Os32  1  0.000000  0.642783  0.321580  1
  Os  Os33  1  0.000000  0.361100  0.678155  1
  Os  Os34  1  0.000000  0.135701  0.182306  1
  Os  Os35  1  0.000000  0.861883  0.819553  1
