# generated using pymatgen
data_Sr4Si8IrOs7
_symmetry_space_group_name_H-M   'P 1'
_cell_length_a   6.14506150
_cell_length_b   8.10799278
_cell_length_c   8.10822782
_cell_angle_alpha   78.41705606
_cell_angle_beta   90.15958135
_cell_angle_gamma   89.83719446
_symmetry_Int_Tables_number   1
_chemical_formula_structural   Sr4Si8IrOs7
_chemical_formula_sum   'Sr4 Si8 Ir1 Os7'
_cell_volume   395.75421554
_cell_formula_units_Z   1
loop_
 _symmetry_equiv_pos_site_id
 _symmetry_equiv_pos_as_xyz
  1  'x, y, z'
loop_
 _atom_site_type_symbol
 _atom_site_label
 _atom_site_symmetry_multiplicity
 _atom_site_fract_x
 _atom_site_fract_y
 _atom_site_fract_z
 _atom_site_occupancy
  Sr  Sr0  1  0.375013  0.001412  0.251069  1
  Sr  Sr1  1  0.874950  0.501334  0.751691  1
  Sr  Sr2  1  0.124827  0.499984  0.247924  1
  Sr  Sr3  1  0.625236  0.997523  0.749583  1
  Si  Si4  1  0.376900  0.318935  0.930306  1
  Si  Si5  1  0.124564  0.179468  0.572087  1
  Si  Si6  1  0.626135  0.322206  0.429604  1
  Si  Si7  1  0.880002  0.816247  0.429899  1
  Si  Si8  1  0.869986  0.179978  0.066148  1
  Si  Si9  1  0.623206  0.681735  0.069801  1
  Si  Si10  1  0.126055  0.819696  0.931590  1
  Si  Si11  1  0.373084  0.680178  0.569013  1
  Ir  Ir12  1  0.875242  0.121122  0.370974  1
  Os  Os13  1  0.375210  0.377667  0.627806  1
  Os  Os14  1  0.625376  0.622561  0.371553  1
  Os  Os15  1  0.123830  0.879163  0.629157  1
  Os  Os16  1  0.124640  0.121476  0.872489  1
  Os  Os17  1  0.626173  0.379250  0.129267  1
  Os  Os18  1  0.874780  0.879124  0.129003  1
  Os  Os19  1  0.374794  0.620939  0.871037  1
