# generated using pymatgen
data_CoNiPdSe4
_symmetry_space_group_name_H-M   'P 1'
_cell_length_a   7.19597962
_cell_length_b   7.19597896
_cell_length_c   7.19597927
_cell_angle_alpha   120.46725603
_cell_angle_beta   119.42260802
_cell_angle_gamma   90.09778990
_symmetry_Int_Tables_number   1
_chemical_formula_structural   CoNiPdSe4
_chemical_formula_sum   'Co2 Ni2 Pd2 Se8'
_cell_volume   263.67582815
_cell_formula_units_Z   2
loop_
 _symmetry_equiv_pos_site_id
 _symmetry_equiv_pos_as_xyz
  1  'x, y, z'
loop_
 _atom_site_type_symbol
 _atom_site_label
 _atom_site_symmetry_multiplicity
 _atom_site_fract_x
 _atom_site_fract_y
 _atom_site_fract_z
 _atom_site_occupancy
  Co  Co0  1  0.500000  0.000000  0.000000  1
  Co  Co1  1  0.500000  0.500000  0.500000  1
  Ni  Ni2  1  0.500000  0.000000  0.500000  1
  Ni  Ni3  1  0.000000  0.000000  0.000000  1
  Pd  Pd4  1  0.877349  0.627349  0.250000  1
  Pd  Pd5  1  0.122651  0.372651  0.750000  1
  Se  Se6  1  0.733211  0.760571  0.527360  1
  Se  Se7  1  0.733211  0.205852  0.972640  1
  Se  Se8  1  0.728993  0.762253  0.966740  1
  Se  Se9  1  0.295512  0.762253  0.533260  1
  Se  Se10  1  0.266789  0.239429  0.472640  1
  Se  Se11  1  0.266789  0.794148  0.027360  1
  Se  Se12  1  0.271007  0.237747  0.033260  1
  Se  Se13  1  0.704488  0.237747  0.466740  1
