# generated using pymatgen
data_AcDy4(TcB3)2
_symmetry_space_group_name_H-M   'P 1'
_cell_length_a   5.53576363
_cell_length_b   5.53576535
_cell_length_c   8.90971947
_cell_angle_alpha   71.90106770
_cell_angle_beta   71.90106247
_cell_angle_gamma   59.99998601
_symmetry_Int_Tables_number   1
_chemical_formula_structural   AcDy4(TcB3)2
_chemical_formula_sum   'Ac1 Dy4 Tc2 B6'
_cell_volume   220.71865184
_cell_formula_units_Z   1
loop_
 _symmetry_equiv_pos_site_id
 _symmetry_equiv_pos_as_xyz
  1  'x, y, z'
loop_
 _atom_site_type_symbol
 _atom_site_label
 _atom_site_symmetry_multiplicity
 _atom_site_fract_x
 _atom_site_fract_y
 _atom_site_fract_z
 _atom_site_occupancy
  Ac  Ac0  1  0.000000  0.000000  0.000000  1
  Dy  Dy1  1  0.243404  0.243404  0.269787  1
  Dy  Dy2  1  0.756596  0.756596  0.730213  1
  Dy  Dy3  1  0.423435  0.423435  0.729695  1
  Dy  Dy4  1  0.576565  0.576565  0.270305  1
  Tc  Tc5  1  0.113699  0.113699  0.658904  1
  Tc  Tc6  1  0.886301  0.886301  0.341096  1
  B  B7  1  0.170581  0.829419  0.500000  1
  B  B8  1  0.829419  0.500000  0.500000  1
  B  B9  1  0.500000  0.170581  0.500000  1
  B  B10  1  0.170581  0.500000  0.500000  1
  B  B11  1  0.500000  0.829419  0.500000  1
  B  B12  1  0.829419  0.170581  0.500000  1
