# generated using pymatgen
data_K3Rb6AlSb4
_symmetry_space_group_name_H-M   'P 1'
_cell_length_a   10.91707800
_cell_length_b   10.91707760
_cell_length_c   11.31177100
_cell_angle_alpha   90.00000000
_cell_angle_beta   90.00000000
_cell_angle_gamma   119.99999515
_symmetry_Int_Tables_number   1
_chemical_formula_structural   K3Rb6AlSb4
_chemical_formula_sum   'K6 Rb12 Al2 Sb8'
_cell_volume   1167.54618224
_cell_formula_units_Z   2
loop_
 _symmetry_equiv_pos_site_id
 _symmetry_equiv_pos_as_xyz
  1  'x, y, z'
loop_
 _atom_site_type_symbol
 _atom_site_label
 _atom_site_symmetry_multiplicity
 _atom_site_fract_x
 _atom_site_fract_y
 _atom_site_fract_z
 _atom_site_occupancy
  K  K0  1  0.238138  0.119069  0.750000  1
  K  K1  1  0.880931  0.119069  0.750000  1
  K  K2  1  0.761862  0.880931  0.250000  1
  K  K3  1  0.119069  0.238138  0.250000  1
  K  K4  1  0.119069  0.880931  0.250000  1
  K  K5  1  0.880931  0.761862  0.750000  1
  Rb  Rb6  1  0.208460  0.791540  0.956607  1
  Rb  Rb7  1  0.208460  0.416919  0.956607  1
  Rb  Rb8  1  0.583081  0.791540  0.956607  1
  Rb  Rb9  1  0.416919  0.208460  0.456607  1
  Rb  Rb10  1  0.791540  0.583081  0.043393  1
  Rb  Rb11  1  0.791540  0.208460  0.456607  1
  Rb  Rb12  1  0.791540  0.583081  0.456607  1
  Rb  Rb13  1  0.208460  0.791540  0.543393  1
  Rb  Rb14  1  0.583081  0.791540  0.543393  1
  Rb  Rb15  1  0.416919  0.208460  0.043393  1
  Rb  Rb16  1  0.791540  0.208460  0.043393  1
  Rb  Rb17  1  0.208460  0.416919  0.543393  1
  Al  Al18  1  0.333333  0.666667  0.250000  1
  Al  Al19  1  0.666667  0.333333  0.750000  1
  Sb  Sb20  1  0.000000  0.000000  0.000000  1
  Sb  Sb21  1  0.049251  0.524626  0.250000  1
  Sb  Sb22  1  0.475374  0.950749  0.250000  1
  Sb  Sb23  1  0.524626  0.049251  0.750000  1
  Sb  Sb24  1  0.524626  0.475374  0.750000  1
  Sb  Sb25  1  0.000000  0.000000  0.500000  1
  Sb  Sb26  1  0.475374  0.524626  0.250000  1
  Sb  Sb27  1  0.950749  0.475374  0.750000  1
