# generated using pymatgen
data_LaZr(Re2Si)4
_symmetry_space_group_name_H-M   'P 1'
_cell_length_a   7.44358302
_cell_length_b   7.44358316
_cell_length_c   4.12826200
_cell_angle_alpha   90.00000000
_cell_angle_beta   90.00000000
_cell_angle_gamma   92.03821195
_symmetry_Int_Tables_number   1
_chemical_formula_structural   LaZr(Re2Si)4
_chemical_formula_sum   'La1 Zr1 Re8 Si4'
_cell_volume   228.58960690
_cell_formula_units_Z   1
loop_
 _symmetry_equiv_pos_site_id
 _symmetry_equiv_pos_as_xyz
  1  'x, y, z'
loop_
 _atom_site_type_symbol
 _atom_site_label
 _atom_site_symmetry_multiplicity
 _atom_site_fract_x
 _atom_site_fract_y
 _atom_site_fract_z
 _atom_site_occupancy
  La  La0  1  0.000000  0.000000  0.500000  1
  Zr  Zr1  1  0.500000  0.500000  0.000000  1
  Re  Re2  1  0.650709  0.898250  0.000000  1
  Re  Re3  1  0.161360  0.582464  0.500000  1
  Re  Re4  1  0.101750  0.349291  0.000000  1
  Re  Re5  1  0.898250  0.650709  0.000000  1
  Re  Re6  1  0.417536  0.838640  0.500000  1
  Re  Re7  1  0.582464  0.161360  0.500000  1
  Re  Re8  1  0.349291  0.101750  0.000000  1
  Re  Re9  1  0.838640  0.417536  0.500000  1
  Si  Si10  1  0.216261  0.783739  0.000000  1
  Si  Si11  1  0.783739  0.216261  0.000000  1
  Si  Si12  1  0.699859  0.699859  0.500000  1
  Si  Si13  1  0.300141  0.300141  0.500000  1
