# generated using pymatgen
data_Y20Cd6CuRe
_symmetry_space_group_name_H-M   'P 1'
_cell_length_a   9.65934800
_cell_length_b   9.65934821
_cell_length_c   9.90510100
_cell_angle_alpha   90.00000000
_cell_angle_beta   90.00000000
_cell_angle_gamma   119.99999926
_symmetry_Int_Tables_number   1
_chemical_formula_structural   Y20Cd6CuRe
_chemical_formula_sum   'Y20 Cd6 Cu1 Re1'
_cell_volume   800.35963679
_cell_formula_units_Z   1
loop_
 _symmetry_equiv_pos_site_id
 _symmetry_equiv_pos_as_xyz
  1  'x, y, z'
loop_
 _atom_site_type_symbol
 _atom_site_label
 _atom_site_symmetry_multiplicity
 _atom_site_fract_x
 _atom_site_fract_y
 _atom_site_fract_z
 _atom_site_occupancy
  Y  Y0  1  0.209563  0.790437  0.941083  1
  Y  Y1  1  0.209563  0.419127  0.941083  1
  Y  Y2  1  0.580873  0.790437  0.941083  1
  Y  Y3  1  0.790945  0.209055  0.057557  1
  Y  Y4  1  0.790945  0.581891  0.057557  1
  Y  Y5  1  0.418109  0.209055  0.057557  1
  Y  Y6  1  0.790945  0.209055  0.442443  1
  Y  Y7  1  0.790945  0.581891  0.442443  1
  Y  Y8  1  0.418109  0.209055  0.442443  1
  Y  Y9  1  0.209563  0.790437  0.558917  1
  Y  Y10  1  0.209563  0.419127  0.558917  1
  Y  Y11  1  0.580873  0.790437  0.558917  1
  Y  Y12  1  0.538268  0.461732  0.750000  1
  Y  Y13  1  0.538268  0.076536  0.750000  1
  Y  Y14  1  0.923464  0.461732  0.750000  1
  Y  Y15  1  0.456940  0.543060  0.250000  1
  Y  Y16  1  0.456940  0.913879  0.250000  1
  Y  Y17  1  0.086121  0.543060  0.250000  1
  Y  Y18  1  0.000000  0.000000  0.000643  1
  Y  Y19  1  0.000000  0.000000  0.499357  1
  Cd  Cd20  1  0.885403  0.114597  0.750000  1
  Cd  Cd21  1  0.885403  0.770807  0.750000  1
  Cd  Cd22  1  0.229193  0.114597  0.750000  1
  Cd  Cd23  1  0.114641  0.885359  0.250000  1
  Cd  Cd24  1  0.114641  0.229281  0.250000  1
  Cd  Cd25  1  0.770719  0.885359  0.250000  1
  Cu  Cu26  1  0.666667  0.333333  0.250000  1
  Re  Re27  1  0.333333  0.666667  0.750000  1
