# generated using pymatgen
data_CaFe3(NO3)8
_symmetry_space_group_name_H-M   'P 1'
_cell_length_a   7.83684448
_cell_length_b   7.83684497
_cell_length_c   7.83684480
_cell_angle_alpha   89.35524609
_cell_angle_beta   89.35524792
_cell_angle_gamma   89.35525260
_symmetry_Int_Tables_number   1
_chemical_formula_structural   CaFe3(NO3)8
_chemical_formula_sum   'Ca1 Fe3 N8 O24'
_cell_volume   481.21797841
_cell_formula_units_Z   1
loop_
 _symmetry_equiv_pos_site_id
 _symmetry_equiv_pos_as_xyz
  1  'x, y, z'
loop_
 _atom_site_type_symbol
 _atom_site_label
 _atom_site_symmetry_multiplicity
 _atom_site_fract_x
 _atom_site_fract_y
 _atom_site_fract_z
 _atom_site_occupancy
  Ca  Ca0  1  0.000000  0.000000  0.000000  1
  Fe  Fe1  1  0.500000  0.500000  0.000000  1
  Fe  Fe2  1  0.000000  0.500000  0.500000  1
  Fe  Fe3  1  0.500000  0.000000  0.500000  1
  N  N4  1  0.344363  0.180482  0.823703  1
  N  N5  1  0.823703  0.344363  0.180482  1
  N  N6  1  0.180482  0.823703  0.344363  1
  N  N7  1  0.672949  0.672949  0.672949  1
  N  N8  1  0.655637  0.819518  0.176297  1
  N  N9  1  0.176297  0.655637  0.819518  1
  N  N10  1  0.819518  0.176297  0.655637  1
  N  N11  1  0.327051  0.327051  0.327051  1
  O  O12  1  0.462497  0.288409  0.817218  1
  O  O13  1  0.817218  0.462497  0.288409  1
  O  O14  1  0.288409  0.817218  0.462497  1
  O  O15  1  0.232039  0.186498  0.939594  1
  O  O16  1  0.336742  0.063770  0.712137  1
  O  O17  1  0.712137  0.336742  0.063770  1
  O  O18  1  0.675081  0.557074  0.786572  1
  O  O19  1  0.186498  0.939594  0.232039  1
  O  O20  1  0.786572  0.675081  0.557074  1
  O  O21  1  0.939594  0.232039  0.186498  1
  O  O22  1  0.557074  0.786572  0.675081  1
  O  O23  1  0.063770  0.712137  0.336742  1
  O  O24  1  0.537503  0.711591  0.182782  1
  O  O25  1  0.182782  0.537503  0.711591  1
  O  O26  1  0.711591  0.182782  0.537503  1
  O  O27  1  0.767961  0.813502  0.060406  1
  O  O28  1  0.663258  0.936230  0.287863  1
  O  O29  1  0.287863  0.663258  0.936230  1
  O  O30  1  0.324919  0.442926  0.213428  1
  O  O31  1  0.813502  0.060406  0.767961  1
  O  O32  1  0.213428  0.324919  0.442926  1
  O  O33  1  0.060406  0.767961  0.813502  1
  O  O34  1  0.442926  0.213428  0.324919  1
  O  O35  1  0.936230  0.287863  0.663258  1
