# generated using pymatgen
data_TbCe3As3O4
_symmetry_space_group_name_H-M   'P 1'
_cell_length_a   6.76693954
_cell_length_b   6.76693923
_cell_length_c   7.98537235
_cell_angle_alpha   89.93875690
_cell_angle_beta   90.06124157
_cell_angle_gamma   145.51886441
_symmetry_Int_Tables_number   1
_chemical_formula_structural   TbCe3As3O4
_chemical_formula_sum   'Tb1 Ce3 As3 O4'
_cell_volume   207.01383657
_cell_formula_units_Z   1
loop_
 _symmetry_equiv_pos_site_id
 _symmetry_equiv_pos_as_xyz
  1  'x, y, z'
loop_
 _atom_site_type_symbol
 _atom_site_label
 _atom_site_symmetry_multiplicity
 _atom_site_fract_x
 _atom_site_fract_y
 _atom_site_fract_z
 _atom_site_occupancy
  Tb  Tb0  1  0.315792  0.684208  0.239658  1
  Ce  Ce1  1  0.990987  0.009013  0.498280  1
  Ce  Ce2  1  0.004259  0.995741  0.004622  1
  Ce  Ce3  1  0.311967  0.688033  0.760527  1
  As  As4  1  0.636391  0.363609  0.677909  1
  As  As5  1  0.637010  0.362990  0.319224  1
  As  As6  1  0.686696  0.313304  0.997945  1
  O  O7  1  0.414385  0.585615  0.001617  1
  O  O8  1  0.907158  0.092842  0.753268  1
  O  O9  1  0.906393  0.093607  0.247157  1
  O  O10  1  0.386854  0.613146  0.499791  1
