# generated using pymatgen
data_Hf3TaRh2N
_symmetry_space_group_name_H-M   'P 1'
_cell_length_a   8.63236032
_cell_length_b   8.63236006
_cell_length_c   8.63236100
_cell_angle_alpha   60.00000789
_cell_angle_beta   60.00000889
_cell_angle_gamma   60.00000493
_symmetry_Int_Tables_number   1
_chemical_formula_structural   Hf3TaRh2N
_chemical_formula_sum   'Hf12 Ta4 Rh8 N4'
_cell_volume   454.85583867
_cell_formula_units_Z   4
loop_
 _symmetry_equiv_pos_site_id
 _symmetry_equiv_pos_as_xyz
  1  'x, y, z'
loop_
 _atom_site_type_symbol
 _atom_site_label
 _atom_site_symmetry_multiplicity
 _atom_site_fract_x
 _atom_site_fract_y
 _atom_site_fract_z
 _atom_site_occupancy
  Hf  Hf0  1  0.815238  0.815238  0.184762  1
  Hf  Hf1  1  0.184762  0.184762  0.815238  1
  Hf  Hf2  1  0.815238  0.184762  0.815238  1
  Hf  Hf3  1  0.184762  0.815238  0.184762  1
  Hf  Hf4  1  0.184762  0.815238  0.815238  1
  Hf  Hf5  1  0.815238  0.184762  0.184762  1
  Hf  Hf6  1  0.434762  0.434762  0.065238  1
  Hf  Hf7  1  0.065238  0.065238  0.434762  1
  Hf  Hf8  1  0.434762  0.065238  0.434762  1
  Hf  Hf9  1  0.065238  0.434762  0.065238  1
  Hf  Hf10  1  0.065238  0.434762  0.434762  1
  Hf  Hf11  1  0.434762  0.065238  0.065238  1
  Ta  Ta12  1  0.125000  0.625000  0.625000  1
  Ta  Ta13  1  0.625000  0.125000  0.625000  1
  Ta  Ta14  1  0.625000  0.625000  0.125000  1
  Ta  Ta15  1  0.625000  0.625000  0.625000  1
  Rh  Rh16  1  0.765621  0.411459  0.411459  1
  Rh  Rh17  1  0.411459  0.765621  0.411459  1
  Rh  Rh18  1  0.411459  0.411459  0.765621  1
  Rh  Rh19  1  0.411459  0.411459  0.411459  1
  Rh  Rh20  1  0.484379  0.838541  0.838541  1
  Rh  Rh21  1  0.838541  0.484379  0.838541  1
  Rh  Rh22  1  0.838541  0.838541  0.484379  1
  Rh  Rh23  1  0.838541  0.838541  0.838541  1
  N  N24  1  0.625000  0.125000  0.125000  1
  N  N25  1  0.125000  0.625000  0.125000  1
  N  N26  1  0.125000  0.125000  0.625000  1
  N  N27  1  0.125000  0.125000  0.125000  1
