# generated using pymatgen
data_Tb8Ta12Si15Sn
_symmetry_space_group_name_H-M   'P 1'
_cell_length_a   7.11930633
_cell_length_b   7.08312840
_cell_length_c   13.10323074
_cell_angle_alpha   90.05543636
_cell_angle_beta   89.77496262
_cell_angle_gamma   89.87178058
_symmetry_Int_Tables_number   1
_chemical_formula_structural   Tb8Ta12Si15Sn
_chemical_formula_sum   'Tb8 Ta12 Si15 Sn1'
_cell_volume   660.74903743
_cell_formula_units_Z   1
loop_
 _symmetry_equiv_pos_site_id
 _symmetry_equiv_pos_as_xyz
  1  'x, y, z'
loop_
 _atom_site_type_symbol
 _atom_site_label
 _atom_site_symmetry_multiplicity
 _atom_site_fract_x
 _atom_site_fract_y
 _atom_site_fract_z
 _atom_site_occupancy
  Tb  Tb0  1  0.343732  0.999949  0.463215  1
  Tb  Tb1  1  0.504350  0.836725  0.720444  1
  Tb  Tb2  1  0.503108  0.158392  0.217880  1
  Tb  Tb3  1  0.841288  0.497644  0.280922  1
  Tb  Tb4  1  0.159367  0.509809  0.784635  1
  Tb  Tb5  1  0.659889  0.996422  0.970125  1
  Tb  Tb6  1  0.993351  0.347928  0.525649  1
  Tb  Tb7  1  0.998450  0.658275  0.033156  1
  Ta  Ta8  1  0.329380  0.329085  0.001509  1
  Ta  Ta9  1  0.170955  0.828617  0.249578  1
  Ta  Ta10  1  0.819705  0.172012  0.751830  1
  Ta  Ta11  1  0.670774  0.670713  0.499751  1
  Ta  Ta12  1  0.153366  0.005469  0.880849  1
  Ta  Ta13  1  0.493513  0.652853  0.124805  1
  Ta  Ta14  1  0.515896  0.353654  0.623436  1
  Ta  Ta15  1  0.655398  0.493169  0.877660  1
  Ta  Ta16  1  0.345724  0.507810  0.374897  1
  Ta  Ta17  1  0.844719  0.992448  0.373127  1
  Ta  Ta18  1  0.007860  0.153876  0.125303  1
  Ta  Ta19  1  0.980106  0.833914  0.621354  1
  Si  Si20  1  0.368946  0.704022  0.934380  1
  Si  Si21  1  0.630596  0.297135  0.430844  1
  Si  Si22  1  0.704409  0.366626  0.068404  1
  Si  Si23  1  0.294985  0.633000  0.567226  1
  Si  Si24  1  0.797472  0.867277  0.182371  1
  Si  Si25  1  0.132144  0.203000  0.316782  1
  Si  Si26  1  0.868443  0.799324  0.818371  1
  Si  Si27  1  0.294986  0.954413  0.065873  1
  Si  Si28  1  0.546891  0.791399  0.312911  1
  Si  Si29  1  0.459986  0.207083  0.818695  1
  Si  Si30  1  0.796329  0.541939  0.688189  1
  Si  Si31  1  0.207093  0.454489  0.186268  1
  Si  Si32  1  0.704264  0.046548  0.563298  1
  Si  Si33  1  0.955013  0.294195  0.936219  1
  Si  Si34  1  0.046093  0.708289  0.433466  1
  Sn  Sn35  1  0.201418  0.132495  0.676575  1
