# generated using pymatgen
data_Eu2ZnCuSb3H
_symmetry_space_group_name_H-M   'P 1'
_cell_length_a   4.36118800
_cell_length_b   4.35373503
_cell_length_c   18.89101221
_cell_angle_alpha   89.52196390
_cell_angle_beta   90.00000000
_cell_angle_gamma   90.00000000
_symmetry_Int_Tables_number   1
_chemical_formula_structural   Eu2ZnCuSb3H
_chemical_formula_sum   'Eu4 Zn2 Cu2 Sb6 H2'
_cell_volume   358.67979702
_cell_formula_units_Z   2
loop_
 _symmetry_equiv_pos_site_id
 _symmetry_equiv_pos_as_xyz
  1  'x, y, z'
loop_
 _atom_site_type_symbol
 _atom_site_label
 _atom_site_symmetry_multiplicity
 _atom_site_fract_x
 _atom_site_fract_y
 _atom_site_fract_z
 _atom_site_occupancy
  Eu  Eu0  1  0.250000  0.761881  0.638246  1
  Eu  Eu1  1  0.750000  0.238119  0.361754  1
  Eu  Eu2  1  0.750000  0.252513  0.939139  1
  Eu  Eu3  1  0.250000  0.747487  0.060861  1
  Zn  Zn4  1  0.750000  0.760127  0.783584  1
  Zn  Zn5  1  0.250000  0.239873  0.216416  1
  Cu  Cu6  1  0.250000  0.262666  0.782810  1
  Cu  Cu7  1  0.750000  0.737334  0.217190  1
  Sb  Sb8  1  0.750000  0.728969  0.499099  1
  Sb  Sb9  1  0.250000  0.271031  0.500901  1
  Sb  Sb10  1  0.250000  0.738546  0.305382  1
  Sb  Sb11  1  0.750000  0.261454  0.694618  1
  Sb  Sb12  1  0.750000  0.243028  0.130352  1
  Sb  Sb13  1  0.250000  0.756972  0.869648  1
  H  H14  1  0.250000  0.249770  0.000465  1
  H  H15  1  0.750000  0.750230  0.999535  1
