# generated using pymatgen
data_Tb(NiH3)2
_symmetry_space_group_name_H-M   'P 1'
_cell_length_a   4.37711002
_cell_length_b   4.38130103
_cell_length_c   4.13170557
_cell_angle_alpha   89.99014939
_cell_angle_beta   89.99427586
_cell_angle_gamma   120.00965334
_symmetry_Int_Tables_number   1
_chemical_formula_structural   Tb(NiH3)2
_chemical_formula_sum   'Tb1 Ni2 H6'
_cell_volume   68.61329630
_cell_formula_units_Z   1
loop_
 _symmetry_equiv_pos_site_id
 _symmetry_equiv_pos_as_xyz
  1  'x, y, z'
loop_
 _atom_site_type_symbol
 _atom_site_label
 _atom_site_symmetry_multiplicity
 _atom_site_fract_x
 _atom_site_fract_y
 _atom_site_fract_z
 _atom_site_occupancy
  Tb  Tb0  1  0.474711  0.394073  0.508197  1
  Ni  Ni1  1  0.141297  0.727833  0.008239  1
  Ni  Ni2  1  0.808420  0.060834  0.007738  1
  H  H3  1  0.977890  0.394170  0.260393  1
  H  H4  1  0.474744  0.892043  0.755600  1
  H  H5  1  0.971554  0.891191  0.260530  1
  H  H6  1  0.976841  0.896147  0.755488  1
  H  H7  1  0.475012  0.897248  0.260444  1
  H  H8  1  0.972666  0.394349  0.755642  1
