# generated using pymatgen
data_Dy3Er17Co3Bi8Os
_symmetry_space_group_name_H-M   'P 1'
_cell_length_a   7.95000916
_cell_length_b   8.91352000
_cell_length_c   12.41560313
_cell_angle_alpha   90.00000000
_cell_angle_beta   90.25283337
_cell_angle_gamma   90.00000000
_symmetry_Int_Tables_number   1
_chemical_formula_structural   Dy3Er17Co3Bi8Os
_chemical_formula_sum   'Dy3 Er17 Co3 Bi8 Os1'
_cell_volume   879.79292635
_cell_formula_units_Z   1
loop_
 _symmetry_equiv_pos_site_id
 _symmetry_equiv_pos_as_xyz
  1  'x, y, z'
loop_
 _atom_site_type_symbol
 _atom_site_label
 _atom_site_symmetry_multiplicity
 _atom_site_fract_x
 _atom_site_fract_y
 _atom_site_fract_z
 _atom_site_occupancy
  Dy  Dy0  1  0.881178  0.250000  0.812410  1
  Dy  Dy1  1  0.054822  0.250000  0.496702  1
  Dy  Dy2  1  0.448126  0.250000  0.997354  1
  Er  Er3  1  0.846305  0.750000  0.800182  1
  Er  Er4  1  0.151970  0.250000  0.197713  1
  Er  Er5  1  0.347787  0.250000  0.699374  1
  Er  Er6  1  0.655346  0.750000  0.294055  1
  Er  Er7  1  0.379047  0.750000  0.693071  1
  Er  Er8  1  0.617505  0.250000  0.312416  1
  Er  Er9  1  0.117742  0.750000  0.185263  1
  Er  Er10  1  0.942575  0.750000  0.503652  1
  Er  Er11  1  0.551510  0.750000  0.002232  1
  Er  Er12  1  0.674524  0.041875  0.564860  1
  Er  Er13  1  0.326510  0.962611  0.436226  1
  Er  Er14  1  0.173333  0.963289  0.936988  1
  Er  Er15  1  0.326510  0.537389  0.436226  1
  Er  Er16  1  0.825978  0.035664  0.063510  1
  Er  Er17  1  0.674524  0.458125  0.564860  1
  Er  Er18  1  0.825978  0.464336  0.063510  1
  Er  Er19  1  0.173333  0.536711  0.936988  1
  Co  Co20  1  0.432972  0.250000  0.491600  1
  Co  Co21  1  0.060694  0.250000  0.993047  1
  Co  Co22  1  0.936875  0.750000  0.006810  1
  Bi  Bi23  1  0.569001  0.492578  0.827326  1
  Bi  Bi24  1  0.430262  0.507973  0.173373  1
  Bi  Bi25  1  0.070227  0.508638  0.674104  1
  Bi  Bi26  1  0.430262  0.992027  0.173373  1
  Bi  Bi27  1  0.932180  0.492849  0.325894  1
  Bi  Bi28  1  0.569001  0.007422  0.827326  1
  Bi  Bi29  1  0.932180  0.007151  0.325894  1
  Bi  Bi30  1  0.070227  0.991362  0.674104  1
  Os  Os31  1  0.571514  0.750000  0.509554  1
