# generated using pymatgen
data_La10AlZn2CuRu6
_symmetry_space_group_name_H-M   'P 1'
_cell_length_a   8.55697362
_cell_length_b   8.66022605
_cell_length_c   8.51025223
_cell_angle_alpha   109.67721978
_cell_angle_beta   109.05070611
_cell_angle_gamma   109.84689788
_symmetry_Int_Tables_number   1
_chemical_formula_structural   La10AlZn2CuRu6
_chemical_formula_sum   'La10 Al1 Zn2 Cu1 Ru6'
_cell_volume   484.49103411
_cell_formula_units_Z   1
loop_
 _symmetry_equiv_pos_site_id
 _symmetry_equiv_pos_as_xyz
  1  'x, y, z'
loop_
 _atom_site_type_symbol
 _atom_site_label
 _atom_site_symmetry_multiplicity
 _atom_site_fract_x
 _atom_site_fract_y
 _atom_site_fract_z
 _atom_site_occupancy
  La  La0  1  0.255392  0.693855  0.448533  1
  La  La1  1  0.746993  0.810149  0.056587  1
  La  La2  1  0.441355  0.247661  0.691237  1
  La  La3  1  0.689903  0.434120  0.246499  1
  La  La4  1  0.061379  0.748255  0.810143  1
  La  La5  1  0.804924  0.060163  0.751900  1
  La  La6  1  0.216764  0.219550  0.216978  1
  La  La7  1  0.500192  0.001293  0.276309  1
  La  La8  1  0.281548  0.499744  0.998828  1
  La  La9  1  0.000921  0.282675  0.500096  1
  Al  Al10  1  0.996774  0.910982  0.499048  1
  Zn  Zn11  1  0.587864  0.583816  0.584191  1
  Zn  Zn12  1  0.917795  0.504072  0.004890  1
  Cu  Cu13  1  0.498146  0.000455  0.915607  1
  Ru  Ru14  1  0.240778  0.120299  0.864118  1
  Ru  Ru15  1  0.749065  0.372107  0.622284  1
  Ru  Ru16  1  0.880088  0.252649  0.127521  1
  Ru  Ru17  1  0.122356  0.879053  0.256660  1
  Ru  Ru18  1  0.632596  0.755161  0.376633  1
  Ru  Ru19  1  0.375169  0.623944  0.751941  1
