# generated using pymatgen
data_Dy8Y2Cd3Ni
_symmetry_space_group_name_H-M   'P 1'
_cell_length_a   9.61173700
_cell_length_b   9.60890112
_cell_length_c   9.80108600
_cell_angle_alpha   90.00000000
_cell_angle_beta   90.00000000
_cell_angle_gamma   119.99450707
_symmetry_Int_Tables_number   1
_chemical_formula_structural   Dy8Y2Cd3Ni
_chemical_formula_sum   'Dy16 Y4 Cd6 Ni2'
_cell_volume   783.97907378
_cell_formula_units_Z   2
loop_
 _symmetry_equiv_pos_site_id
 _symmetry_equiv_pos_as_xyz
  1  'x, y, z'
loop_
 _atom_site_type_symbol
 _atom_site_label
 _atom_site_symmetry_multiplicity
 _atom_site_fract_x
 _atom_site_fract_y
 _atom_site_fract_z
 _atom_site_occupancy
  Dy  Dy0  1  0.000138  0.000066  0.499883  1
  Dy  Dy1  1  0.000138  0.000066  0.000117  1
  Dy  Dy2  1  0.543261  0.456485  0.250000  1
  Dy  Dy3  1  0.543253  0.086767  0.250000  1
  Dy  Dy4  1  0.211053  0.789858  0.436910  1
  Dy  Dy5  1  0.211054  0.421193  0.436910  1
  Dy  Dy6  1  0.578951  0.789472  0.436740  1
  Dy  Dy7  1  0.789005  0.210305  0.562497  1
  Dy  Dy8  1  0.789009  0.578709  0.562498  1
  Dy  Dy9  1  0.421541  0.210772  0.562177  1
  Dy  Dy10  1  0.789005  0.210305  0.937503  1
  Dy  Dy11  1  0.789009  0.578709  0.937502  1
  Dy  Dy12  1  0.421541  0.210772  0.937823  1
  Dy  Dy13  1  0.211053  0.789858  0.063090  1
  Dy  Dy14  1  0.211054  0.421193  0.063090  1
  Dy  Dy15  1  0.578951  0.789472  0.063260  1
  Y  Y16  1  0.912563  0.456286  0.250000  1
  Y  Y17  1  0.456662  0.543187  0.750000  1
  Y  Y18  1  0.456666  0.913486  0.750000  1
  Y  Y19  1  0.086310  0.543153  0.750000  1
  Cd  Cd20  1  0.884159  0.114632  0.250000  1
  Cd  Cd21  1  0.884156  0.769519  0.250000  1
  Cd  Cd22  1  0.231081  0.115543  0.250000  1
  Cd  Cd23  1  0.114986  0.885193  0.750000  1
  Cd  Cd24  1  0.114990  0.229799  0.750000  1
  Cd  Cd25  1  0.770119  0.885057  0.750000  1
  Ni  Ni26  1  0.333577  0.666804  0.250000  1
  Ni  Ni27  1  0.666716  0.333338  0.750000  1
