# generated using pymatgen
data_TbEr9(Ir2Os)2
_symmetry_space_group_name_H-M   'P 1'
_cell_length_a   10.76493102
_cell_length_b   10.76444300
_cell_length_c   6.36506700
_cell_angle_alpha   90.00000000
_cell_angle_beta   90.00351282
_cell_angle_gamma   90.00000000
_symmetry_Int_Tables_number   1
_chemical_formula_structural   TbEr9(Ir2Os)2
_chemical_formula_sum   'Tb2 Er18 Ir8 Os4'
_cell_volume   737.57432819
_cell_formula_units_Z   2
loop_
 _symmetry_equiv_pos_site_id
 _symmetry_equiv_pos_as_xyz
  1  'x, y, z'
loop_
 _atom_site_type_symbol
 _atom_site_label
 _atom_site_symmetry_multiplicity
 _atom_site_fract_x
 _atom_site_fract_y
 _atom_site_fract_z
 _atom_site_occupancy
  Tb  Tb0  1  0.292896  0.086671  0.375389  1
  Tb  Tb1  1  0.292888  0.913337  0.875399  1
  Er  Er2  1  0.706516  0.086149  0.876150  1
  Er  Er3  1  0.706521  0.913833  0.376143  1
  Er  Er4  1  0.586533  0.793366  0.876345  1
  Er  Er5  1  0.586537  0.206634  0.376340  1
  Er  Er6  1  0.414414  0.793040  0.376258  1
  Er  Er7  1  0.414409  0.206969  0.876253  1
  Er  Er8  1  0.206296  0.414053  0.623979  1
  Er  Er9  1  0.206290  0.585944  0.123966  1
  Er  Er10  1  0.793623  0.413896  0.123855  1
  Er  Er11  1  0.793622  0.586107  0.623845  1
  Er  Er12  1  0.913849  0.706368  0.123677  1
  Er  Er13  1  0.913860  0.293631  0.623677  1
  Er  Er14  1  0.085740  0.706096  0.623527  1
  Er  Er15  1  0.085750  0.293897  0.123539  1
  Er  Er16  1  0.999471  0.999851  0.500056  1
  Er  Er17  1  0.999470  0.000144  0.000084  1
  Er  Er18  1  0.500127  0.500035  0.000091  1
  Er  Er19  1  0.500127  0.499966  0.500112  1
  Ir  Ir20  1  0.847655  0.152291  0.250036  1
  Ir  Ir21  1  0.847666  0.847717  0.750046  1
  Ir  Ir22  1  0.151457  0.153034  0.751072  1
  Ir  Ir23  1  0.151465  0.846956  0.251076  1
  Ir  Ir24  1  0.652215  0.347772  0.750029  1
  Ir  Ir25  1  0.652202  0.652240  0.250028  1
  Ir  Ir26  1  0.347840  0.348548  0.249557  1
  Ir  Ir27  1  0.347842  0.651447  0.749543  1
  Os  Os28  1  0.501411  0.000021  0.123179  1
  Os  Os29  1  0.501421  0.999989  0.623150  1
  Os  Os30  1  0.999935  0.499917  0.876839  1
  Os  Os31  1  0.999946  0.500083  0.376759  1
