# generated using pymatgen
data_TaGaI10
_symmetry_space_group_name_H-M   'P 1'
_cell_length_a   9.47009813
_cell_length_b   8.99997936
_cell_length_c   10.57926195
_cell_angle_alpha   102.11558331
_cell_angle_beta   93.64380576
_cell_angle_gamma   121.66951128
_symmetry_Int_Tables_number   1
_chemical_formula_structural   TaGaI10
_chemical_formula_sum   'Ta1 Ga1 I10'
_cell_volume   733.77865377
_cell_formula_units_Z   1
loop_
 _symmetry_equiv_pos_site_id
 _symmetry_equiv_pos_as_xyz
  1  'x, y, z'
loop_
 _atom_site_type_symbol
 _atom_site_label
 _atom_site_symmetry_multiplicity
 _atom_site_fract_x
 _atom_site_fract_y
 _atom_site_fract_z
 _atom_site_occupancy
  Ta  Ta0  1  0.848246  0.771829  0.807338  1
  Ga  Ga1  1  0.203414  0.238003  0.239119  1
  I  I2  1  0.954865  0.438409  0.092745  1
  I  I3  1  0.732934  0.739408  0.028133  1
  I  I4  1  0.247543  0.019633  0.326265  1
  I  I5  1  0.748497  0.967040  0.725756  1
  I  I6  1  0.166315  0.136196  0.975764  1
  I  I7  1  0.038781  0.618447  0.891647  1
  I  I8  1  0.448713  0.572391  0.315640  1
  I  I9  1  0.929460  0.224072  0.297876  1
  I  I10  1  0.602363  0.449844  0.650986  1
  I  I11  1  0.078868  0.824728  0.648729  1
