# generated using pymatgen
data_EuMn(CoP4)3
_symmetry_space_group_name_H-M   'P 1'
_cell_length_a   6.77011194
_cell_length_b   6.77011149
_cell_length_c   6.77011176
_cell_angle_alpha   109.54961915
_cell_angle_beta   109.54962857
_cell_angle_gamma   109.54961268
_symmetry_Int_Tables_number   1
_chemical_formula_structural   EuMn(CoP4)3
_chemical_formula_sum   'Eu1 Mn1 Co3 P12'
_cell_volume   238.17631553
_cell_formula_units_Z   1
loop_
 _symmetry_equiv_pos_site_id
 _symmetry_equiv_pos_as_xyz
  1  'x, y, z'
loop_
 _atom_site_type_symbol
 _atom_site_label
 _atom_site_symmetry_multiplicity
 _atom_site_fract_x
 _atom_site_fract_y
 _atom_site_fract_z
 _atom_site_occupancy
  Eu  Eu0  1  0.000000  0.000000  0.000000  1
  Mn  Mn1  1  0.500000  0.500000  0.500000  1
  Co  Co2  1  0.500000  0.000000  0.000000  1
  Co  Co3  1  0.000000  0.000000  0.500000  1
  Co  Co4  1  0.000000  0.500000  0.000000  1
  P  P5  1  0.498734  0.847536  0.645610  1
  P  P6  1  0.202811  0.851204  0.352307  1
  P  P7  1  0.797189  0.148796  0.647693  1
  P  P8  1  0.152464  0.354390  0.501266  1
  P  P9  1  0.354390  0.501266  0.152464  1
  P  P10  1  0.501266  0.152464  0.354390  1
  P  P11  1  0.148796  0.647693  0.797189  1
  P  P12  1  0.352307  0.202811  0.851204  1
  P  P13  1  0.847536  0.645610  0.498734  1
  P  P14  1  0.647693  0.797189  0.148796  1
  P  P15  1  0.851204  0.352307  0.202811  1
  P  P16  1  0.645610  0.498734  0.847536  1
