# generated using pymatgen
data_ErCrFe4P3
_symmetry_space_group_name_H-M   'P 1'
_cell_length_a   3.64559300
_cell_length_b   10.33696100
_cell_length_c   11.83012100
_cell_angle_alpha   90.00000000
_cell_angle_beta   90.00000000
_cell_angle_gamma   90.00000000
_symmetry_Int_Tables_number   1
_chemical_formula_structural   ErCrFe4P3
_chemical_formula_sum   'Er4 Cr4 Fe16 P12'
_cell_volume   445.81045181
_cell_formula_units_Z   4
loop_
 _symmetry_equiv_pos_site_id
 _symmetry_equiv_pos_as_xyz
  1  'x, y, z'
loop_
 _atom_site_type_symbol
 _atom_site_label
 _atom_site_symmetry_multiplicity
 _atom_site_fract_x
 _atom_site_fract_y
 _atom_site_fract_z
 _atom_site_occupancy
  Er  Er0  1  0.250000  0.581211  0.704700  1
  Er  Er1  1  0.250000  0.918789  0.204700  1
  Er  Er2  1  0.750000  0.418789  0.295300  1
  Er  Er3  1  0.750000  0.081211  0.795300  1
  Cr  Cr4  1  0.250000  0.703044  0.989252  1
  Cr  Cr5  1  0.250000  0.796956  0.489252  1
  Cr  Cr6  1  0.750000  0.296956  0.010748  1
  Cr  Cr7  1  0.750000  0.203044  0.510748  1
  Fe  Fe8  1  0.250000  0.405683  0.490572  1
  Fe  Fe9  1  0.250000  0.094318  0.990572  1
  Fe  Fe10  1  0.750000  0.594317  0.509428  1
  Fe  Fe11  1  0.750000  0.905683  0.009428  1
  Fe  Fe12  1  0.250000  0.217948  0.176346  1
  Fe  Fe13  1  0.250000  0.282052  0.676346  1
  Fe  Fe14  1  0.750000  0.782052  0.823654  1
  Fe  Fe15  1  0.750000  0.717948  0.323654  1
  Fe  Fe16  1  0.250000  0.875045  0.701806  1
  Fe  Fe17  1  0.250000  0.624955  0.201806  1
  Fe  Fe18  1  0.750000  0.124955  0.298194  1
  Fe  Fe19  1  0.750000  0.375045  0.798194  1
  Fe  Fe20  1  0.250000  0.463668  0.932327  1
  Fe  Fe21  1  0.250000  0.036332  0.432327  1
  Fe  Fe22  1  0.750000  0.536332  0.067673  1
  Fe  Fe23  1  0.750000  0.963668  0.567673  1
  P  P24  1  0.250000  0.422558  0.113260  1
  P  P25  1  0.250000  0.077442  0.613260  1
  P  P26  1  0.750000  0.577442  0.886740  1
  P  P27  1  0.750000  0.922558  0.386740  1
  P  P28  1  0.250000  0.264645  0.870916  1
  P  P29  1  0.250000  0.235355  0.370916  1
  P  P30  1  0.750000  0.735355  0.129084  1
  P  P31  1  0.750000  0.764645  0.629084  1
  P  P32  1  0.250000  0.596962  0.394173  1
  P  P33  1  0.250000  0.903038  0.894173  1
  P  P34  1  0.750000  0.403038  0.605827  1
  P  P35  1  0.750000  0.096962  0.105827  1
