# generated using pymatgen
data_Dy5Y5(CoTe)4
_symmetry_space_group_name_H-M   'P 1'
_cell_length_a   7.79237066
_cell_length_b   7.79237137
_cell_length_c   14.94571263
_cell_angle_alpha   90.05166614
_cell_angle_beta   89.94833453
_cell_angle_gamma   150.36075810
_symmetry_Int_Tables_number   1
_chemical_formula_structural   Dy5Y5(CoTe)4
_chemical_formula_sum   'Dy5 Y5 Co4 Te4'
_cell_volume   448.80192250
_cell_formula_units_Z   1
loop_
 _symmetry_equiv_pos_site_id
 _symmetry_equiv_pos_as_xyz
  1  'x, y, z'
loop_
 _atom_site_type_symbol
 _atom_site_label
 _atom_site_symmetry_multiplicity
 _atom_site_fract_x
 _atom_site_fract_y
 _atom_site_fract_z
 _atom_site_occupancy
  Dy  Dy0  1  0.959915  0.040085  0.125997  1
  Dy  Dy1  1  0.040080  0.959920  0.874024  1
  Dy  Dy2  1  0.040222  0.959778  0.625826  1
  Dy  Dy3  1  0.959914  0.040086  0.374146  1
  Dy  Dy4  1  0.741293  0.258707  0.630516  1
  Y  Y5  1  0.257878  0.742122  0.370758  1
  Y  Y6  1  0.257834  0.742166  0.129294  1
  Y  Y7  1  0.742123  0.257877  0.870704  1
  Y  Y8  1  0.604782  0.395218  0.249993  1
  Y  Y9  1  0.394956  0.605044  0.749823  1
  Co  Co10  1  0.410881  0.589119  0.249969  1
  Co  Co11  1  0.589346  0.410654  0.749738  1
  Co  Co12  1  0.821136  0.178864  0.249989  1
  Co  Co13  1  0.179418  0.820582  0.749366  1
  Te  Te14  1  0.617057  0.382943  0.038620  1
  Te  Te15  1  0.383026  0.616974  0.961384  1
  Te  Te16  1  0.382979  0.617021  0.538500  1
  Te  Te17  1  0.617163  0.382837  0.461352  1
