# generated using pymatgen
data_LaPr3Al18Rh5Au
_symmetry_space_group_name_H-M   'P 1'
_cell_length_a   7.68787730
_cell_length_b   7.68693761
_cell_length_c   9.64917603
_cell_angle_alpha   90.00673183
_cell_angle_beta   89.99390068
_cell_angle_gamma   119.52407679
_symmetry_Int_Tables_number   1
_chemical_formula_structural   LaPr3Al18Rh5Au
_chemical_formula_sum   'La1 Pr3 Al18 Rh5 Au1'
_cell_volume   496.18484735
_cell_formula_units_Z   1
loop_
 _symmetry_equiv_pos_site_id
 _symmetry_equiv_pos_as_xyz
  1  'x, y, z'
loop_
 _atom_site_type_symbol
 _atom_site_label
 _atom_site_symmetry_multiplicity
 _atom_site_fract_x
 _atom_site_fract_y
 _atom_site_fract_z
 _atom_site_occupancy
  La  La0  1  0.992358  0.666602  0.749892  1
  Pr  Pr1  1  0.002109  0.329482  0.250971  1
  Pr  Pr2  1  0.670754  0.998013  0.749059  1
  Pr  Pr3  1  0.333381  0.007819  0.250204  1
  Al  Al4  1  0.129893  0.128220  0.751420  1
  Al  Al5  1  0.873240  0.871136  0.248574  1
  Al  Al6  1  0.014408  0.334545  0.576906  1
  Al  Al7  1  0.006490  0.675714  0.423412  1
  Al  Al8  1  0.000420  0.666145  0.072650  1
  Al  Al9  1  0.334635  0.000256  0.928489  1
  Al  Al10  1  0.002789  0.333771  0.927624  1
  Al  Al11  1  0.665510  0.997264  0.072867  1
  Al  Al12  1  0.664769  0.985657  0.422642  1
  Al  Al13  1  0.325069  0.994160  0.575583  1
  Al  Al14  1  0.332328  0.333147  0.044500  1
  Al  Al15  1  0.666103  0.667609  0.956143  1
  Al  Al16  1  0.663371  0.671310  0.551526  1
  Al  Al17  1  0.328644  0.335886  0.447869  1
  Al  Al18  1  0.342420  0.549260  0.751427  1
  Al  Al19  1  0.659585  0.460028  0.240089  1
  Al  Al20  1  0.538294  0.339503  0.759874  1
  Al  Al21  1  0.450235  0.658349  0.248523  1
  Rh  Rh22  1  0.329639  0.670360  0.499875  1
  Rh  Rh23  1  0.329357  0.670638  0.000061  1
  Rh  Rh24  1  0.671373  0.328359  0.999944  1
  Rh  Rh25  1  0.999797  0.000194  0.500015  1
  Rh  Rh26  1  0.000205  0.999804  0.999920  1
  Au  Au27  1  0.672825  0.326772  0.499941  1
