# generated using pymatgen
data_Ga4I11Br
_symmetry_space_group_name_H-M   'P 1'
_cell_length_a   6.79502048
_cell_length_b   10.22507704
_cell_length_c   12.77589476
_cell_angle_alpha   71.59714630
_cell_angle_beta   90.20585126
_cell_angle_gamma   90.01395146
_symmetry_Int_Tables_number   1
_chemical_formula_structural   Ga4I11Br
_chemical_formula_sum   'Ga4 I11 Br1'
_cell_volume   842.26346217
_cell_formula_units_Z   1
loop_
 _symmetry_equiv_pos_site_id
 _symmetry_equiv_pos_as_xyz
  1  'x, y, z'
loop_
 _atom_site_type_symbol
 _atom_site_label
 _atom_site_symmetry_multiplicity
 _atom_site_fract_x
 _atom_site_fract_y
 _atom_site_fract_z
 _atom_site_occupancy
  Ga  Ga0  1  0.003898  0.189058  0.953876  1
  Ga  Ga1  1  0.504041  0.814936  0.545213  1
  Ga  Ga2  1  0.996378  0.810844  0.045812  1
  Ga  Ga3  1  0.496369  0.185003  0.455291  1
  I  I4  1  0.781174  0.322145  0.799541  1
  I  I5  1  0.288213  0.681827  0.701391  1
  I  I6  1  0.219133  0.677848  0.200719  1
  I  I7  1  0.723406  0.318164  0.304642  1
  I  I8  1  0.232425  0.312154  0.046888  1
  I  I9  1  0.736805  0.691967  0.456143  1
  I  I10  1  0.767719  0.688034  0.953154  1
  I  I11  1  0.274676  0.308134  0.549702  1
  I  I12  1  0.791749  0.000356  0.109644  1
  I  I13  1  0.288183  0.999675  0.388762  1
  I  I14  1  0.208281  0.999558  0.890376  1
  Br  Br15  1  0.687551  0.000298  0.598846  1
