# generated using pymatgen
data_Na2Sc3Mn2P12Ir17
_symmetry_space_group_name_H-M   'P 1'
_cell_length_a   12.67134590
_cell_length_b   12.67134574
_cell_length_c   3.91792200
_cell_angle_alpha   90.00000000
_cell_angle_beta   90.00000000
_cell_angle_gamma   120.74632326
_symmetry_Int_Tables_number   1
_chemical_formula_structural   Na2Sc3Mn2P12Ir17
_chemical_formula_sum   'Na2 Sc3 Mn2 P12 Ir17'
_cell_volume   540.65029170
_cell_formula_units_Z   1
loop_
 _symmetry_equiv_pos_site_id
 _symmetry_equiv_pos_as_xyz
  1  'x, y, z'
loop_
 _atom_site_type_symbol
 _atom_site_label
 _atom_site_symmetry_multiplicity
 _atom_site_fract_x
 _atom_site_fract_y
 _atom_site_fract_z
 _atom_site_occupancy
  Na  Na0  1  0.815549  0.998828  0.500000  1
  Na  Na1  1  0.998828  0.815549  0.500000  1
  Sc  Sc2  1  0.329035  0.665482  0.000000  1
  Sc  Sc3  1  0.665482  0.329035  0.000000  1
  Sc  Sc4  1  0.182779  0.182779  0.500000  1
  Mn  Mn5  1  0.459525  0.004083  0.000000  1
  Mn  Mn6  1  0.004083  0.459525  0.000000  1
  P  P7  1  0.177860  0.999791  0.000000  1
  P  P8  1  0.999791  0.177860  0.000000  1
  P  P9  1  0.820909  0.820909  0.000000  1
  P  P10  1  0.170365  0.484115  0.500000  1
  P  P11  1  0.515194  0.693158  0.500000  1
  P  P12  1  0.312196  0.832364  0.500000  1
  P  P13  1  0.693158  0.515194  0.500000  1
  P  P14  1  0.832364  0.312196  0.500000  1
  P  P15  1  0.484115  0.170365  0.500000  1
  P  P16  1  0.635648  0.000980  0.000000  1
  P  P17  1  0.000980  0.635648  0.000000  1
  P  P18  1  0.355268  0.355268  0.000000  1
  Ir  Ir19  1  0.538285  0.538285  0.000000  1
  Ir  Ir20  1  0.361222  0.497467  0.500000  1
  Ir  Ir21  1  0.504354  0.869788  0.500000  1
  Ir  Ir22  1  0.134811  0.638774  0.500000  1
  Ir  Ir23  1  0.869788  0.504354  0.500000  1
  Ir  Ir24  1  0.638774  0.134811  0.500000  1
  Ir  Ir25  1  0.497467  0.361222  0.500000  1
  Ir  Ir26  1  0.183427  0.376298  0.000000  1
  Ir  Ir27  1  0.619127  0.801534  0.000000  1
  Ir  Ir28  1  0.200286  0.820678  0.000000  1
  Ir  Ir29  1  0.801534  0.619127  0.000000  1
  Ir  Ir30  1  0.820678  0.200286  0.000000  1
  Ir  Ir31  1  0.376298  0.183427  0.000000  1
  Ir  Ir32  1  0.282412  0.003218  0.500000  1
  Ir  Ir33  1  0.003218  0.282412  0.500000  1
  Ir  Ir34  1  0.710409  0.710409  0.500000  1
  Ir  Ir35  1  0.004782  0.004782  0.000000  1
