# generated using pymatgen
data_Cu4Ni
_symmetry_space_group_name_H-M   'P 1'
_cell_length_a   10.47992310
_cell_length_b   10.47992301
_cell_length_c   10.47992369
_cell_angle_alpha   13.88484625
_cell_angle_beta   13.88484725
_cell_angle_gamma   13.88484678
_symmetry_Int_Tables_number   1
_chemical_formula_structural   Cu4Ni
_chemical_formula_sum   'Cu4 Ni1'
_cell_volume   57.68244295
_cell_formula_units_Z   1
loop_
 _symmetry_equiv_pos_site_id
 _symmetry_equiv_pos_as_xyz
  1  'x, y, z'
loop_
 _atom_site_type_symbol
 _atom_site_label
 _atom_site_symmetry_multiplicity
 _atom_site_fract_x
 _atom_site_fract_y
 _atom_site_fract_z
 _atom_site_occupancy
  Cu  Cu0  1  0.600848  0.600848  0.600848  1
  Cu  Cu1  1  0.200335  0.200335  0.200335  1
  Cu  Cu2  1  0.799665  0.799665  0.799665  1
  Cu  Cu3  1  0.399152  0.399152  0.399152  1
  Ni  Ni4  1  0.000000  0.000000  0.000000  1
