# generated using pymatgen
data_Eu4SiPN6
_symmetry_space_group_name_H-M   'P 1'
_cell_length_a   6.02815325
_cell_length_b   6.02815379
_cell_length_c   11.75492763
_cell_angle_alpha   90.03378607
_cell_angle_beta   89.96621451
_cell_angle_gamma   126.91236164
_symmetry_Int_Tables_number   1
_chemical_formula_structural   Eu4SiPN6
_chemical_formula_sum   'Eu8 Si2 P2 N12'
_cell_volume   341.53630091
_cell_formula_units_Z   2
loop_
 _symmetry_equiv_pos_site_id
 _symmetry_equiv_pos_as_xyz
  1  'x, y, z'
loop_
 _atom_site_type_symbol
 _atom_site_label
 _atom_site_symmetry_multiplicity
 _atom_site_fract_x
 _atom_site_fract_y
 _atom_site_fract_z
 _atom_site_occupancy
  Eu  Eu0  1  0.053654  0.946346  0.855918  1
  Eu  Eu1  1  0.946346  0.053654  0.144082  1
  Eu  Eu2  1  0.445922  0.554078  0.360588  1
  Eu  Eu3  1  0.554078  0.445922  0.639412  1
  Eu  Eu4  1  0.639331  0.360669  0.076515  1
  Eu  Eu5  1  0.360669  0.639331  0.923485  1
  Eu  Eu6  1  0.859347  0.140653  0.574913  1
  Eu  Eu7  1  0.140653  0.859347  0.425087  1
  Si  Si8  1  0.760750  0.239250  0.334002  1
  Si  Si9  1  0.239250  0.760750  0.665998  1
  P  P10  1  0.740770  0.259230  0.834384  1
  P  P11  1  0.259230  0.740770  0.165616  1
  N  N12  1  0.589440  0.410560  0.863897  1
  N  N13  1  0.410560  0.589440  0.136103  1
  N  N14  1  0.919764  0.080236  0.363347  1
  N  N15  1  0.080236  0.919764  0.636653  1
  N  N16  1  0.531032  0.978643  0.754681  1
  N  N17  1  0.978643  0.531032  0.245319  1
  N  N18  1  0.468968  0.021357  0.245319  1
  N  N19  1  0.021357  0.468968  0.754681  1
  N  N20  1  0.834378  0.165622  0.946007  1
  N  N21  1  0.165622  0.834378  0.053993  1
  N  N22  1  0.658794  0.341206  0.448587  1
  N  N23  1  0.341206  0.658794  0.551413  1
