# generated using pymatgen
data_YHO
_symmetry_space_group_name_H-M   'P 1'
_cell_length_a   3.76040503
_cell_length_b   3.76040527
_cell_length_c   3.76040500
_cell_angle_alpha   59.99999359
_cell_angle_beta   59.99999143
_cell_angle_gamma   60.00000153
_symmetry_Int_Tables_number   1
_chemical_formula_structural   YHO
_chemical_formula_sum   'Y1 H1 O1'
_cell_volume   37.60008760
_cell_formula_units_Z   1
loop_
 _symmetry_equiv_pos_site_id
 _symmetry_equiv_pos_as_xyz
  1  'x, y, z'
loop_
 _atom_site_type_symbol
 _atom_site_label
 _atom_site_symmetry_multiplicity
 _atom_site_fract_x
 _atom_site_fract_y
 _atom_site_fract_z
 _atom_site_occupancy
  Y  Y0  1  0.000000  0.000000  0.000000  1
  H  H1  1  0.750000  0.750000  0.750000  1
  O  O2  1  0.250000  0.250000  0.250000  1
