# generated using pymatgen
data_DyYCuSi2Ru
_symmetry_space_group_name_H-M   'P 1'
_cell_length_a   4.21693700
_cell_length_b   6.97021426
_cell_length_c   7.35573912
_cell_angle_alpha   91.48955856
_cell_angle_beta   90.00000000
_cell_angle_gamma   90.00000000
_symmetry_Int_Tables_number   1
_chemical_formula_structural   DyYCuSi2Ru
_chemical_formula_sum   'Dy2 Y2 Cu2 Si4 Ru2'
_cell_volume   216.13384366
_cell_formula_units_Z   2
loop_
 _symmetry_equiv_pos_site_id
 _symmetry_equiv_pos_as_xyz
  1  'x, y, z'
loop_
 _atom_site_type_symbol
 _atom_site_label
 _atom_site_symmetry_multiplicity
 _atom_site_fract_x
 _atom_site_fract_y
 _atom_site_fract_z
 _atom_site_occupancy
  Dy  Dy0  1  0.250000  0.492035  0.687630  1
  Dy  Dy1  1  0.750000  0.507965  0.312370  1
  Y  Y2  1  0.250000  0.992731  0.797534  1
  Y  Y3  1  0.750000  0.007269  0.202466  1
  Cu  Cu4  1  0.750000  0.833347  0.573035  1
  Cu  Cu5  1  0.250000  0.166653  0.426965  1
  Si  Si6  1  0.250000  0.299979  0.089109  1
  Si  Si7  1  0.750000  0.700021  0.910891  1
  Si  Si8  1  0.250000  0.796535  0.388645  1
  Si  Si9  1  0.750000  0.203465  0.611355  1
  Ru  Ru10  1  0.750000  0.348158  0.933851  1
  Ru  Ru11  1  0.250000  0.651842  0.066149  1
