# generated using pymatgen
data_Hf8ZrTa(Si3N)2
_symmetry_space_group_name_H-M   'P 1'
_cell_length_a   7.82190501
_cell_length_b   7.81148752
_cell_length_c   5.51742400
_cell_angle_alpha   89.99815522
_cell_angle_beta   89.99825607
_cell_angle_gamma   120.04789311
_symmetry_Int_Tables_number   1
_chemical_formula_structural   Hf8ZrTa(Si3N)2
_chemical_formula_sum   'Hf8 Zr1 Ta1 Si6 N2'
_cell_volume   291.81222187
_cell_formula_units_Z   1
loop_
 _symmetry_equiv_pos_site_id
 _symmetry_equiv_pos_as_xyz
  1  'x, y, z'
loop_
 _atom_site_type_symbol
 _atom_site_label
 _atom_site_symmetry_multiplicity
 _atom_site_fract_x
 _atom_site_fract_y
 _atom_site_fract_z
 _atom_site_occupancy
  Hf  Hf0  1  0.763378  0.999552  0.750006  1
  Hf  Hf1  1  0.000711  0.235210  0.249942  1
  Hf  Hf2  1  0.999854  0.764879  0.750210  1
  Hf  Hf3  1  0.765018  0.765252  0.249943  1
  Hf  Hf4  1  0.234451  0.235550  0.750131  1
  Hf  Hf5  1  0.667221  0.333800  0.999997  1
  Hf  Hf6  1  0.667242  0.333806  0.499975  1
  Hf  Hf7  1  0.333402  0.666300  0.500066  1
  Zr  Zr8  1  0.238187  0.999458  0.250094  1
  Ta  Ta9  1  0.333496  0.666179  0.000033  1
  Si  Si10  1  0.594562  0.997640  0.244993  1
  Si  Si11  1  0.404892  0.997652  0.754894  1
  Si  Si12  1  0.002088  0.594273  0.244999  1
  Si  Si13  1  0.002459  0.407433  0.754939  1
  Si  Si14  1  0.405408  0.408145  0.244920  1
  Si  Si15  1  0.592642  0.594882  0.754896  1
  N  N16  1  0.997429  0.999982  0.998294  1
  N  N17  1  0.997561  0.000008  0.501667  1
