# generated using pymatgen
data_DyTm7Mg2(SiB4)4
_symmetry_space_group_name_H-M   'P 1'
_cell_length_a   7.11787500
_cell_length_b   7.11787500
_cell_length_c   7.73363100
_cell_angle_alpha   89.99721458
_cell_angle_beta   90.00278542
_cell_angle_gamma   90.00128796
_symmetry_Int_Tables_number   1
_chemical_formula_structural   DyTm7Mg2(SiB4)4
_chemical_formula_sum   'Dy1 Tm7 Mg2 Si4 B16'
_cell_volume   391.81779810
_cell_formula_units_Z   1
loop_
 _symmetry_equiv_pos_site_id
 _symmetry_equiv_pos_as_xyz
  1  'x, y, z'
loop_
 _atom_site_type_symbol
 _atom_site_label
 _atom_site_symmetry_multiplicity
 _atom_site_fract_x
 _atom_site_fract_y
 _atom_site_fract_z
 _atom_site_occupancy
  Dy  Dy0  1  0.182265  0.317735  0.234046  1
  Tm  Tm1  1  0.682116  0.182003  0.231416  1
  Tm  Tm2  1  0.317967  0.817824  0.768748  1
  Tm  Tm3  1  0.317997  0.817884  0.231416  1
  Tm  Tm4  1  0.817704  0.682296  0.231387  1
  Tm  Tm5  1  0.817752  0.682248  0.768572  1
  Tm  Tm6  1  0.682176  0.182033  0.768748  1
  Tm  Tm7  1  0.182069  0.317931  0.768508  1
  Mg  Mg8  1  0.999649  0.999412  0.500506  1
  Mg  Mg9  1  0.500588  0.500351  0.500506  1
  Si  Si10  1  0.115020  0.616624  0.501022  1
  Si  Si11  1  0.883376  0.384980  0.501022  1
  Si  Si12  1  0.385274  0.114726  0.501282  1
  Si  Si13  1  0.616042  0.883958  0.500224  1
  B  B14  1  0.173899  0.038884  0.999608  1
  B  B15  1  0.825657  0.960458  0.999649  1
  B  B16  1  0.960176  0.173836  0.999428  1
  B  B17  1  0.326164  0.539824  0.999428  1
  B  B18  1  0.039127  0.825704  0.999576  1
  B  B19  1  0.674296  0.460873  0.999576  1
  B  B20  1  0.539542  0.674343  0.999649  1
  B  B21  1  0.461116  0.326101  0.999608  1
  B  B22  1  0.088666  0.588938  0.999125  1
  B  B23  1  0.911062  0.411334  0.999125  1
  B  B24  1  0.411361  0.088639  0.999795  1
  B  B25  1  0.588699  0.911301  0.999742  1
  B  B26  1  0.999515  0.999138  0.165485  1
  B  B27  1  0.999824  0.999961  0.833660  1
  B  B28  1  0.500039  0.500176  0.833660  1
  B  B29  1  0.500862  0.500485  0.165485  1
