# generated using pymatgen
data_KTm6Co2Sn23Rh4
_symmetry_space_group_name_H-M   'P 1'
_cell_length_a   9.81904763
_cell_length_b   9.81569134
_cell_length_c   10.01964252
_cell_angle_alpha   90.00000042
_cell_angle_beta   89.87554118
_cell_angle_gamma   119.98870225
_symmetry_Int_Tables_number   1
_chemical_formula_structural   KTm6Co2Sn23Rh4
_chemical_formula_sum   'K1 Tm6 Co2 Sn23 Rh4'
_cell_volume   836.41378797
_cell_formula_units_Z   1
loop_
 _symmetry_equiv_pos_site_id
 _symmetry_equiv_pos_as_xyz
  1  'x, y, z'
loop_
 _atom_site_type_symbol
 _atom_site_label
 _atom_site_symmetry_multiplicity
 _atom_site_fract_x
 _atom_site_fract_y
 _atom_site_fract_z
 _atom_site_occupancy
  K  K0  1  0.000000  0.000000  0.000000  1
  Tm  Tm1  1  0.482995  0.518917  0.305698  1
  Tm  Tm2  1  0.517005  0.481083  0.694302  1
  Tm  Tm3  1  0.482995  0.964078  0.305698  1
  Tm  Tm4  1  0.517005  0.035922  0.694302  1
  Tm  Tm5  1  0.034208  0.517104  0.304454  1
  Tm  Tm6  1  0.965792  0.482896  0.695546  1
  Co  Co7  1  0.346016  0.173008  0.204399  1
  Co  Co8  1  0.653984  0.826992  0.795601  1
  Sn  Sn9  1  0.351346  0.004553  0.004447  1
  Sn  Sn10  1  0.648654  0.995447  0.995553  1
  Sn  Sn11  1  0.000000  0.351098  0.000000  1
  Sn  Sn12  1  0.000000  0.648902  0.000000  1
  Sn  Sn13  1  0.648654  0.653207  0.995553  1
  Sn  Sn14  1  0.351346  0.346793  0.004447  1
  Sn  Sn15  1  0.339672  0.669836  0.818614  1
  Sn  Sn16  1  0.660328  0.330164  0.181386  1
  Sn  Sn17  1  0.000000  0.000000  0.500000  1
  Sn  Sn18  1  0.776825  0.222374  0.461271  1
  Sn  Sn19  1  0.223175  0.777626  0.538729  1
  Sn  Sn20  1  0.776825  0.554450  0.461271  1
  Sn  Sn21  1  0.223175  0.445550  0.538729  1
  Sn  Sn22  1  0.440149  0.220075  0.453913  1
  Sn  Sn23  1  0.559851  0.779925  0.546087  1
  Sn  Sn24  1  0.332961  0.666482  0.124226  1
  Sn  Sn25  1  0.667039  0.333518  0.875774  1
  Sn  Sn26  1  0.123791  0.886323  0.278085  1
  Sn  Sn27  1  0.876209  0.113677  0.721915  1
  Sn  Sn28  1  0.123791  0.237469  0.278085  1
  Sn  Sn29  1  0.876209  0.762531  0.721915  1
  Sn  Sn30  1  0.758250  0.879126  0.282680  1
  Sn  Sn31  1  0.241750  0.120874  0.717320  1
  Rh  Rh32  1  0.826625  0.171737  0.204118  1
  Rh  Rh33  1  0.173375  0.828263  0.795882  1
  Rh  Rh34  1  0.826625  0.654888  0.204118  1
  Rh  Rh35  1  0.173375  0.345112  0.795882  1
