# generated using pymatgen
data_U2TaI15
_symmetry_space_group_name_H-M   'P 1'
_cell_length_a   15.99454514
_cell_length_b   16.00010266
_cell_length_c   7.44200326
_cell_angle_alpha   89.51953487
_cell_angle_beta   89.43612375
_cell_angle_gamma   86.81249562
_symmetry_Int_Tables_number   1
_chemical_formula_structural   U2TaI15
_chemical_formula_sum   'U4 Ta2 I30'
_cell_volume   1901.41839695
_cell_formula_units_Z   2
loop_
 _symmetry_equiv_pos_site_id
 _symmetry_equiv_pos_as_xyz
  1  'x, y, z'
loop_
 _atom_site_type_symbol
 _atom_site_label
 _atom_site_symmetry_multiplicity
 _atom_site_fract_x
 _atom_site_fract_y
 _atom_site_fract_z
 _atom_site_occupancy
  U  U0  1  0.434373  0.232176  0.474885  1
  U  U1  1  0.772231  0.561674  0.525306  1
  U  U2  1  0.561651  0.771667  0.524436  1
  U  U3  1  0.100836  0.898903  0.000336  1
  Ta  Ta4  1  0.225375  0.441065  0.475109  1
  Ta  Ta5  1  0.892292  0.107716  0.000228  1
  I  I6  1  0.531230  0.336232  0.241518  1
  I  I7  1  0.667463  0.466145  0.756680  1
  I  I8  1  0.466082  0.666837  0.756547  1
  I  I9  1  0.332112  0.521246  0.258354  1
  I  I10  1  0.575958  0.199350  0.706077  1
  I  I11  1  0.804558  0.420449  0.294344  1
  I  I12  1  0.868152  0.236496  0.775329  1
  I  I13  1  0.763524  0.132447  0.224571  1
  I  I14  1  0.133788  0.757079  0.234740  1
  I  I15  1  0.242229  0.866438  0.765719  1
  I  I16  1  0.999586  0.187750  0.210358  1
  I  I17  1  0.812267  0.001037  0.789823  1
  I  I18  1  0.996961  0.801926  0.773646  1
  I  I19  1  0.197730  0.002732  0.225958  1
  I  I20  1  0.046328  0.054954  0.782757  1
  I  I21  1  0.944991  0.954102  0.218114  1
  I  I22  1  0.278173  0.287171  0.261139  1
  I  I23  1  0.719493  0.718472  0.746648  1
  I  I24  1  0.096727  0.465314  0.254196  1
  I  I25  1  0.530328  0.912033  0.756636  1
  I  I26  1  0.913230  0.529158  0.756444  1
  I  I27  1  0.466663  0.091372  0.243282  1
  I  I28  1  0.145147  0.333766  0.691773  1
  I  I29  1  0.666867  0.867279  0.293184  1
  I  I30  1  0.867611  0.666249  0.293239  1
  I  I31  1  0.330143  0.135724  0.707228  1
  I  I32  1  0.379170  0.388269  0.688684  1
  I  I33  1  0.614913  0.614031  0.303635  1
  I  I34  1  0.200628  0.569430  0.695978  1
  I  I35  1  0.421186  0.803311  0.293095  1
