# generated using pymatgen
data_TbNd5(HoIn4)2
_symmetry_space_group_name_H-M   'P 1'
_cell_length_a   6.68881134
_cell_length_b   6.68881076
_cell_length_c   10.16536100
_cell_angle_alpha   90.00000000
_cell_angle_beta   90.00000000
_cell_angle_gamma   98.33160502
_symmetry_Int_Tables_number   1
_chemical_formula_structural   TbNd5(HoIn4)2
_chemical_formula_sum   'Tb1 Nd5 Ho2 In8'
_cell_volume   450.00025874
_cell_formula_units_Z   1
loop_
 _symmetry_equiv_pos_site_id
 _symmetry_equiv_pos_as_xyz
  1  'x, y, z'
loop_
 _atom_site_type_symbol
 _atom_site_label
 _atom_site_symmetry_multiplicity
 _atom_site_fract_x
 _atom_site_fract_y
 _atom_site_fract_z
 _atom_site_occupancy
  Tb  Tb0  1  0.532923  0.532923  0.250000  1
  Nd  Nd1  1  0.466742  0.466742  0.750000  1
  Nd  Nd2  1  0.246851  0.753404  0.499646  1
  Nd  Nd3  1  0.246851  0.753404  0.000354  1
  Nd  Nd4  1  0.753404  0.246851  0.499646  1
  Nd  Nd5  1  0.753404  0.246851  0.000354  1
  Ho  Ho6  1  0.975903  0.975902  0.250000  1
  Ho  Ho7  1  0.022900  0.022899  0.750000  1
  In  In8  1  0.250756  0.250756  0.023234  1
  In  In9  1  0.749557  0.749557  0.978193  1
  In  In10  1  0.250756  0.250756  0.476766  1
  In  In11  1  0.749557  0.749557  0.521807  1
  In  In12  1  0.478917  0.024582  0.250000  1
  In  In13  1  0.975475  0.521423  0.750000  1
  In  In14  1  0.521423  0.975475  0.750000  1
  In  In15  1  0.024582  0.478917  0.250000  1
