# generated using pymatgen
data_Dy6Al24Os7Ru
_symmetry_space_group_name_H-M   'P 1'
_cell_length_a   8.81725100
_cell_length_b   8.81725044
_cell_length_c   9.55597300
_cell_angle_alpha   90.00000000
_cell_angle_beta   90.00000000
_cell_angle_gamma   119.99999835
_symmetry_Int_Tables_number   1
_chemical_formula_structural   Dy6Al24Os7Ru
_chemical_formula_sum   'Dy6 Al24 Os7 Ru1'
_cell_volume   643.38648425
_cell_formula_units_Z   1
loop_
 _symmetry_equiv_pos_site_id
 _symmetry_equiv_pos_as_xyz
  1  'x, y, z'
loop_
 _atom_site_type_symbol
 _atom_site_label
 _atom_site_symmetry_multiplicity
 _atom_site_fract_x
 _atom_site_fract_y
 _atom_site_fract_z
 _atom_site_occupancy
  Dy  Dy0  1  0.193267  0.806733  0.249628  1
  Dy  Dy1  1  0.193267  0.386534  0.249628  1
  Dy  Dy2  1  0.613466  0.806733  0.249628  1
  Dy  Dy3  1  0.806733  0.193267  0.750372  1
  Dy  Dy4  1  0.806733  0.613466  0.750372  1
  Dy  Dy5  1  0.386534  0.193267  0.750372  1
  Al  Al6  1  0.560842  0.439158  0.249859  1
  Al  Al7  1  0.560842  0.121685  0.249859  1
  Al  Al8  1  0.878315  0.439158  0.249859  1
  Al  Al9  1  0.439158  0.560842  0.750141  1
  Al  Al10  1  0.439158  0.878315  0.750141  1
  Al  Al11  1  0.121685  0.560842  0.750141  1
  Al  Al12  1  0.324629  0.162314  0.423664  1
  Al  Al13  1  0.837686  0.162314  0.423664  1
  Al  Al14  1  0.837686  0.675371  0.423664  1
  Al  Al15  1  0.675371  0.837686  0.576336  1
  Al  Al16  1  0.162314  0.837686  0.576336  1
  Al  Al17  1  0.162314  0.324629  0.576336  1
  Al  Al18  1  0.675450  0.837725  0.923696  1
  Al  Al19  1  0.162275  0.837725  0.923696  1
  Al  Al20  1  0.162275  0.324550  0.923696  1
  Al  Al21  1  0.324550  0.162275  0.076304  1
  Al  Al22  1  0.837725  0.162275  0.076304  1
  Al  Al23  1  0.837725  0.675450  0.076304  1
  Al  Al24  1  0.666667  0.333333  0.515798  1
  Al  Al25  1  0.333333  0.666667  0.484202  1
  Al  Al26  1  0.333333  0.666667  0.015794  1
  Al  Al27  1  0.666667  0.333333  0.984206  1
  Al  Al28  1  0.000000  0.000000  0.248331  1
  Al  Al29  1  0.000000  0.000000  0.751669  1
  Os  Os30  1  0.000000  0.000000  0.500000  1
  Os  Os31  1  0.500000  0.500000  0.500000  1
  Os  Os32  1  0.500000  0.000000  0.500000  1
  Os  Os33  1  0.000000  0.500000  0.500000  1
  Os  Os34  1  0.500000  0.500000  0.000000  1
  Os  Os35  1  0.500000  0.000000  0.000000  1
  Os  Os36  1  0.000000  0.500000  0.000000  1
  Ru  Ru37  1  0.000000  0.000000  0.000000  1
