# generated using pymatgen
data_Sr2CdInAu2
_symmetry_space_group_name_H-M   'P 1'
_cell_length_a   4.57933000
_cell_length_b   7.90334500
_cell_length_c   8.99100900
_cell_angle_alpha   90.00000000
_cell_angle_beta   90.00000000
_cell_angle_gamma   90.00000000
_symmetry_Int_Tables_number   1
_chemical_formula_structural   Sr2CdInAu2
_chemical_formula_sum   'Sr4 Cd2 In2 Au4'
_cell_volume   325.40282123
_cell_formula_units_Z   2
loop_
 _symmetry_equiv_pos_site_id
 _symmetry_equiv_pos_as_xyz
  1  'x, y, z'
loop_
 _atom_site_type_symbol
 _atom_site_label
 _atom_site_symmetry_multiplicity
 _atom_site_fract_x
 _atom_site_fract_y
 _atom_site_fract_z
 _atom_site_occupancy
  Sr  Sr0  1  0.750000  0.970045  0.685293  1
  Sr  Sr1  1  0.250000  0.034470  0.314891  1
  Sr  Sr2  1  0.750000  0.465530  0.814891  1
  Sr  Sr3  1  0.250000  0.529955  0.185293  1
  Cd  Cd4  1  0.750000  0.354308  0.434911  1
  Cd  Cd5  1  0.250000  0.145692  0.934911  1
  In  In6  1  0.250000  0.646838  0.562327  1
  In  In7  1  0.750000  0.853162  0.062327  1
  Au  Au8  1  0.250000  0.762080  0.879464  1
  Au  Au9  1  0.250000  0.266691  0.623114  1
  Au  Au10  1  0.750000  0.737920  0.379464  1
  Au  Au11  1  0.750000  0.233309  0.123114  1
