# generated using pymatgen
data_Pr8Dy2GaSi4Ge
_symmetry_space_group_name_H-M   'P 1'
_cell_length_a   7.72522500
_cell_length_b   9.12587979
_cell_length_c   7.72522500
_cell_angle_alpha   115.04052901
_cell_angle_beta   90.00000000
_cell_angle_gamma   115.04052901
_symmetry_Int_Tables_number   1
_chemical_formula_structural   Pr8Dy2GaSi4Ge
_chemical_formula_sum   'Pr8 Dy2 Ga1 Si4 Ge1'
_cell_volume   436.27881830
_cell_formula_units_Z   1
loop_
 _symmetry_equiv_pos_site_id
 _symmetry_equiv_pos_as_xyz
  1  'x, y, z'
loop_
 _atom_site_type_symbol
 _atom_site_label
 _atom_site_symmetry_multiplicity
 _atom_site_fract_x
 _atom_site_fract_y
 _atom_site_fract_z
 _atom_site_occupancy
  Pr  Pr0  1  0.533396  0.714607  0.676612  1
  Pr  Pr1  1  0.181211  0.714607  0.037996  1
  Pr  Pr2  1  0.676612  0.714607  0.181211  1
  Pr  Pr3  1  0.037996  0.714607  0.533396  1
  Pr  Pr4  1  0.462004  0.285393  0.318789  1
  Pr  Pr5  1  0.823388  0.285393  0.966604  1
  Pr  Pr6  1  0.318789  0.285393  0.823388  1
  Pr  Pr7  1  0.966604  0.285393  0.462004  1
  Dy  Dy8  1  0.996199  0.992399  0.996199  1
  Dy  Dy9  1  0.503801  0.007601  0.503801  1
  Ga  Ga10  1  0.750000  0.500000  0.750000  1
  Si  Si11  1  0.882602  0.000000  0.617398  1
  Si  Si12  1  0.117398  0.000000  0.382602  1
  Si  Si13  1  0.617398  0.000000  0.117398  1
  Si  Si14  1  0.382602  0.000000  0.882602  1
  Ge  Ge15  1  0.250000  0.500000  0.250000  1
