# generated using pymatgen
data_DyEr9(InBi2)2
_symmetry_space_group_name_H-M   'P 1'
_cell_length_a   9.02866674
_cell_length_b   9.02866746
_cell_length_c   6.46470100
_cell_angle_alpha   90.00000000
_cell_angle_beta   90.00000000
_cell_angle_gamma   119.73908582
_symmetry_Int_Tables_number   1
_chemical_formula_structural   DyEr9(InBi2)2
_chemical_formula_sum   'Dy1 Er9 In2 Bi4'
_cell_volume   457.57489054
_cell_formula_units_Z   1
loop_
 _symmetry_equiv_pos_site_id
 _symmetry_equiv_pos_as_xyz
  1  'x, y, z'
loop_
 _atom_site_type_symbol
 _atom_site_label
 _atom_site_symmetry_multiplicity
 _atom_site_fract_x
 _atom_site_fract_y
 _atom_site_fract_z
 _atom_site_occupancy
  Dy  Dy0  1  0.762394  0.762394  0.750000  1
  Er  Er1  1  0.668998  0.329109  0.003878  1
  Er  Er2  1  0.329109  0.668998  0.003878  1
  Er  Er3  1  0.329109  0.668998  0.496122  1
  Er  Er4  1  0.668998  0.329109  0.496122  1
  Er  Er5  1  0.234121  0.997868  0.750000  1
  Er  Er6  1  0.997868  0.234121  0.750000  1
  Er  Er7  1  0.233561  0.233561  0.250000  1
  Er  Er8  1  0.766483  0.009056  0.250000  1
  Er  Er9  1  0.009056  0.766483  0.250000  1
  In  In10  1  0.396716  0.002042  0.250000  1
  In  In11  1  0.002042  0.396716  0.250000  1
  Bi  Bi12  1  0.393209  0.393209  0.750000  1
  Bi  Bi13  1  0.601888  0.997277  0.750000  1
  Bi  Bi14  1  0.997277  0.601888  0.750000  1
  Bi  Bi15  1  0.609169  0.609169  0.250000  1
