# generated using pymatgen
data_U4TaNb(TcC4)2
_symmetry_space_group_name_H-M   'P 1'
_cell_length_a   3.23857100
_cell_length_b   5.65711033
_cell_length_c   11.10569364
_cell_angle_alpha   90.03894711
_cell_angle_beta   90.00000000
_cell_angle_gamma   90.00000000
_symmetry_Int_Tables_number   1
_chemical_formula_structural   U4TaNb(TcC4)2
_chemical_formula_sum   'U4 Ta1 Nb1 Tc2 C8'
_cell_volume   203.46684921
_cell_formula_units_Z   1
loop_
 _symmetry_equiv_pos_site_id
 _symmetry_equiv_pos_as_xyz
  1  'x, y, z'
loop_
 _atom_site_type_symbol
 _atom_site_label
 _atom_site_symmetry_multiplicity
 _atom_site_fract_x
 _atom_site_fract_y
 _atom_site_fract_z
 _atom_site_occupancy
  U  U0  1  0.250000  0.079135  0.855576  1
  U  U1  1  0.250000  0.579544  0.644758  1
  U  U2  1  0.750000  0.918904  0.140708  1
  U  U3  1  0.750000  0.418871  0.359225  1
  Ta  Ta4  1  0.250000  0.420199  0.098213  1
  Nb  Nb5  1  0.250000  0.920201  0.401729  1
  Tc  Tc6  1  0.750000  0.579061  0.896088  1
  Tc  Tc7  1  0.750000  0.079221  0.603657  1
  C  C8  1  0.250000  0.162206  0.242289  1
  C  C9  1  0.250000  0.660189  0.256229  1
  C  C10  1  0.750000  0.843434  0.754548  1
  C  C11  1  0.750000  0.343006  0.745416  1
  C  C12  1  0.250000  0.752418  0.990484  1
  C  C13  1  0.250000  0.253584  0.510194  1
  C  C14  1  0.750000  0.245591  0.002082  1
  C  C15  1  0.750000  0.744434  0.498803  1
