# generated using pymatgen
data_Ta12Zn11CuN2
_symmetry_space_group_name_H-M   'P 1'
_cell_length_a   8.14935522
_cell_length_b   8.15313185
_cell_length_c   8.14935500
_cell_angle_alpha   60.01532672
_cell_angle_beta   60.00000496
_cell_angle_gamma   60.01532741
_symmetry_Int_Tables_number   1
_chemical_formula_structural   Ta12Zn11CuN2
_chemical_formula_sum   'Ta12 Zn11 Cu1 N2'
_cell_volume   382.96275902
_cell_formula_units_Z   1
loop_
 _symmetry_equiv_pos_site_id
 _symmetry_equiv_pos_as_xyz
  1  'x, y, z'
loop_
 _atom_site_type_symbol
 _atom_site_label
 _atom_site_symmetry_multiplicity
 _atom_site_fract_x
 _atom_site_fract_y
 _atom_site_fract_z
 _atom_site_occupancy
  Ta  Ta0  1  0.189159  0.810812  0.189159  1
  Ta  Ta1  1  0.439501  0.060929  0.439501  1
  Ta  Ta2  1  0.439501  0.060929  0.060070  1
  Ta  Ta3  1  0.439129  0.439188  0.060841  1
  Ta  Ta4  1  0.189159  0.810812  0.810871  1
  Ta  Ta5  1  0.060841  0.439188  0.060841  1
  Ta  Ta6  1  0.810871  0.810812  0.189159  1
  Ta  Ta7  1  0.060841  0.439188  0.439129  1
  Ta  Ta8  1  0.189930  0.189071  0.810499  1
  Ta  Ta9  1  0.810499  0.189071  0.189930  1
  Ta  Ta10  1  0.810499  0.189071  0.810499  1
  Ta  Ta11  1  0.060070  0.060929  0.439501  1
  Zn  Zn12  1  0.833408  0.499778  0.833408  1
  Zn  Zn13  1  0.419064  0.413401  0.748469  1
  Zn  Zn14  1  0.748469  0.413401  0.419064  1
  Zn  Zn15  1  0.419064  0.413401  0.419064  1
  Zn  Zn16  1  0.830936  0.836599  0.501531  1
  Zn  Zn17  1  0.416592  0.750222  0.416592  1
  Zn  Zn18  1  0.830936  0.836599  0.830936  1
  Zn  Zn19  1  0.501531  0.836599  0.830936  1
  Zn  Zn20  1  0.625000  0.625000  0.125000  1
  Zn  Zn21  1  0.125000  0.625000  0.625000  1
  Zn  Zn22  1  0.625000  0.625000  0.625000  1
  Cu  Cu23  1  0.625000  0.125000  0.625000  1
  N  N24  1  0.999823  0.000532  0.999823  1
  N  N25  1  0.250177  0.249468  0.250177  1
