# generated using pymatgen
data_LiDyNi9P7W3
_symmetry_space_group_name_H-M   'P 1'
_cell_length_a   9.17499300
_cell_length_b   9.17499287
_cell_length_c   3.67731700
_cell_angle_alpha   90.00000000
_cell_angle_beta   90.00000000
_cell_angle_gamma   120.00001129
_symmetry_Int_Tables_number   1
_chemical_formula_structural   LiDyNi9P7W3
_chemical_formula_sum   'Li1 Dy1 Ni9 P7 W3'
_cell_volume   268.08537894
_cell_formula_units_Z   1
loop_
 _symmetry_equiv_pos_site_id
 _symmetry_equiv_pos_as_xyz
  1  'x, y, z'
loop_
 _atom_site_type_symbol
 _atom_site_label
 _atom_site_symmetry_multiplicity
 _atom_site_fract_x
 _atom_site_fract_y
 _atom_site_fract_z
 _atom_site_occupancy
  Li  Li0  1  0.333333  0.666667  0.000000  1
  Dy  Dy1  1  0.666667  0.333333  0.500000  1
  Ni  Ni2  1  0.714585  0.874177  0.000000  1
  Ni  Ni3  1  0.159591  0.285415  0.000000  1
  Ni  Ni4  1  0.125823  0.840409  0.000000  1
  Ni  Ni5  1  0.628590  0.567500  0.000000  1
  Ni  Ni6  1  0.938910  0.371410  0.000000  1
  Ni  Ni7  1  0.432500  0.061090  0.000000  1
  Ni  Ni8  1  0.555917  0.941155  0.500000  1
  Ni  Ni9  1  0.385238  0.444083  0.500000  1
  Ni  Ni10  1  0.058845  0.614762  0.500000  1
  P  P11  1  0.584987  0.708705  0.500000  1
  P  P12  1  0.123718  0.415013  0.500000  1
  P  P13  1  0.291295  0.876282  0.500000  1
  P  P14  1  0.000000  0.000000  0.000000  1
  P  P15  1  0.886694  0.587805  0.000000  1
  P  P16  1  0.701111  0.113306  0.000000  1
  P  P17  1  0.412195  0.298889  0.000000  1
  W  W18  1  0.878327  0.779315  0.500000  1
  W  W19  1  0.900987  0.121673  0.500000  1
  W  W20  1  0.220685  0.099013  0.500000  1
