# generated using pymatgen
data_Ho4Al3ZnPt3Rh
_symmetry_space_group_name_H-M   'P 1'
_cell_length_a   4.34634500
_cell_length_b   6.79860318
_cell_length_c   7.89420390
_cell_angle_alpha   90.19246709
_cell_angle_beta   90.00000000
_cell_angle_gamma   90.00000000
_symmetry_Int_Tables_number   1
_chemical_formula_structural   Ho4Al3ZnPt3Rh
_chemical_formula_sum   'Ho4 Al3 Zn1 Pt3 Rh1'
_cell_volume   233.26510658
_cell_formula_units_Z   1
loop_
 _symmetry_equiv_pos_site_id
 _symmetry_equiv_pos_as_xyz
  1  'x, y, z'
loop_
 _atom_site_type_symbol
 _atom_site_label
 _atom_site_symmetry_multiplicity
 _atom_site_fract_x
 _atom_site_fract_y
 _atom_site_fract_z
 _atom_site_occupancy
  Ho  Ho0  1  0.250000  0.027392  0.684305  1
  Ho  Ho1  1  0.250000  0.529659  0.816899  1
  Ho  Ho2  1  0.750000  0.967925  0.319239  1
  Ho  Ho3  1  0.750000  0.466394  0.179497  1
  Al  Al4  1  0.250000  0.644798  0.439046  1
  Al  Al5  1  0.750000  0.856212  0.937299  1
  Al  Al6  1  0.750000  0.363670  0.560676  1
  Zn  Zn7  1  0.250000  0.146945  0.066202  1
  Pt  Pt8  1  0.250000  0.269361  0.389280  1
  Pt  Pt9  1  0.250000  0.759674  0.118626  1
  Pt  Pt10  1  0.750000  0.231968  0.872309  1
  Rh  Rh11  1  0.750000  0.736002  0.616621  1
