# generated using pymatgen
data_Tb2Nd18Si15Os
_symmetry_space_group_name_H-M   'P 1'
_cell_length_a   7.67563735
_cell_length_b   8.00039422
_cell_length_c   15.13592500
_cell_angle_alpha   90.00000000
_cell_angle_beta   90.00000000
_cell_angle_gamma   89.88144897
_symmetry_Int_Tables_number   1
_chemical_formula_structural   Tb2Nd18Si15Os
_chemical_formula_sum   'Tb2 Nd18 Si15 Os1'
_cell_volume   929.46678015
_cell_formula_units_Z   1
loop_
 _symmetry_equiv_pos_site_id
 _symmetry_equiv_pos_as_xyz
  1  'x, y, z'
loop_
 _atom_site_type_symbol
 _atom_site_label
 _atom_site_symmetry_multiplicity
 _atom_site_fract_x
 _atom_site_fract_y
 _atom_site_fract_z
 _atom_site_occupancy
  Tb  Tb0  1  0.844983  0.485328  0.250000  1
  Tb  Tb1  1  0.363844  0.016360  0.250000  1
  Nd  Nd2  1  0.139100  0.516911  0.750000  1
  Nd  Nd3  1  0.811428  0.320648  0.621158  1
  Nd  Nd4  1  0.461742  0.689472  0.900185  1
  Nd  Nd5  1  0.963093  0.812864  0.901773  1
  Nd  Nd6  1  0.198546  0.676065  0.127275  1
  Nd  Nd7  1  0.681431  0.813847  0.124570  1
  Nd  Nd8  1  0.311720  0.181790  0.877790  1
  Nd  Nd9  1  0.198546  0.676065  0.372725  1
  Nd  Nd10  1  0.036127  0.185397  0.099436  1
  Nd  Nd11  1  0.311720  0.181790  0.622210  1
  Nd  Nd12  1  0.531148  0.322946  0.400031  1
  Nd  Nd13  1  0.811428  0.320648  0.878842  1
  Nd  Nd14  1  0.963093  0.812864  0.598227  1
  Nd  Nd15  1  0.461742  0.689472  0.599815  1
  Nd  Nd16  1  0.036127  0.185397  0.400564  1
  Nd  Nd17  1  0.681431  0.813847  0.375430  1
  Nd  Nd18  1  0.638064  0.986452  0.750000  1
  Nd  Nd19  1  0.531148  0.322946  0.099969  1
  Si  Si20  1  0.246880  0.366997  0.250000  1
  Si  Si21  1  0.868410  0.524810  0.457820  1
  Si  Si22  1  0.518842  0.402162  0.750000  1
  Si  Si23  1  0.635722  0.027066  0.960289  1
  Si  Si24  1  0.015824  0.098958  0.750000  1
  Si  Si25  1  0.751289  0.621161  0.750000  1
  Si  Si26  1  0.752215  0.121547  0.250000  1
  Si  Si27  1  0.359907  0.976677  0.458426  1
  Si  Si28  1  0.987232  0.902903  0.250000  1
  Si  Si29  1  0.359907  0.976677  0.041574  1
  Si  Si30  1  0.635722  0.027066  0.539711  1
  Si  Si31  1  0.140908  0.473480  0.961754  1
  Si  Si32  1  0.140908  0.473480  0.538246  1
  Si  Si33  1  0.868410  0.524810  0.042180  1
  Si  Si34  1  0.250009  0.879524  0.750000  1
  Os  Os35  1  0.491352  0.591572  0.250000  1
