# generated using pymatgen
data_V(MoAs)4
_symmetry_space_group_name_H-M   'P 1'
_cell_length_a   6.98372648
_cell_length_b   6.98372616
_cell_length_c   6.97591882
_cell_angle_alpha   93.21053299
_cell_angle_beta   93.25085078
_cell_angle_gamma   152.55001191
_symmetry_Int_Tables_number   1
_chemical_formula_structural   V(MoAs)4
_chemical_formula_sum   'V1 Mo4 As4'
_cell_volume   152.34980344
_cell_formula_units_Z   1
loop_
 _symmetry_equiv_pos_site_id
 _symmetry_equiv_pos_as_xyz
  1  'x, y, z'
loop_
 _atom_site_type_symbol
 _atom_site_label
 _atom_site_symmetry_multiplicity
 _atom_site_fract_x
 _atom_site_fract_y
 _atom_site_fract_z
 _atom_site_occupancy
  V  V0  1  0.000000  0.000000  0.000000  1
  Mo  Mo1  1  0.380579  0.302538  0.683117  1
  Mo  Mo2  1  0.302558  0.619391  0.921949  1
  Mo  Mo3  1  0.697442  0.380609  0.078051  1
  Mo  Mo4  1  0.619421  0.697462  0.316883  1
  As  As5  1  0.284858  0.058423  0.343281  1
  As  As6  1  0.058302  0.715132  0.773435  1
  As  As7  1  0.941698  0.284868  0.226565  1
  As  As8  1  0.715142  0.941577  0.656719  1
