# generated using pymatgen
data_Th3In2SiRh3
_symmetry_space_group_name_H-M   'P 1'
_cell_length_a   7.60142700
_cell_length_b   7.59570956
_cell_length_c   3.97042500
_cell_angle_alpha   90.00000000
_cell_angle_beta   90.00000000
_cell_angle_gamma   120.02488980
_symmetry_Int_Tables_number   1
_chemical_formula_structural   Th3In2SiRh3
_chemical_formula_sum   'Th3 In2 Si1 Rh3'
_cell_volume   198.48245800
_cell_formula_units_Z   1
loop_
 _symmetry_equiv_pos_site_id
 _symmetry_equiv_pos_as_xyz
  1  'x, y, z'
loop_
 _atom_site_type_symbol
 _atom_site_label
 _atom_site_symmetry_multiplicity
 _atom_site_fract_x
 _atom_site_fract_y
 _atom_site_fract_z
 _atom_site_occupancy
  Th  Th0  1  0.434263  0.000000  0.500000  1
  Th  Th1  1  0.994243  0.404571  0.500000  1
  Th  Th2  1  0.589673  0.595429  0.500000  1
  In  In3  1  0.007723  0.759674  0.000000  1
  In  In4  1  0.248049  0.240326  0.000000  1
  Si  Si5  1  0.749994  0.000000  0.000000  1
  Rh  Rh6  1  0.356029  0.679886  0.000000  1
  Rh  Rh7  1  0.676144  0.320114  0.000000  1
  Rh  Rh8  1  0.943880  0.000000  0.500000  1
