# generated using pymatgen
data_Hf3Zr15CuRe8Ir
_symmetry_space_group_name_H-M   'P 1'
_cell_length_a   8.71641100
_cell_length_b   8.71641181
_cell_length_c   8.60091200
_cell_angle_alpha   90.00000000
_cell_angle_beta   90.00000000
_cell_angle_gamma   120.00000073
_symmetry_Int_Tables_number   1
_chemical_formula_structural   Hf3Zr15CuRe8Ir
_chemical_formula_sum   'Hf3 Zr15 Cu1 Re8 Ir1'
_cell_volume   565.91417618
_cell_formula_units_Z   1
loop_
 _symmetry_equiv_pos_site_id
 _symmetry_equiv_pos_as_xyz
  1  'x, y, z'
loop_
 _atom_site_type_symbol
 _atom_site_label
 _atom_site_symmetry_multiplicity
 _atom_site_fract_x
 _atom_site_fract_y
 _atom_site_fract_z
 _atom_site_occupancy
  Hf  Hf0  1  0.194589  0.805411  0.054865  1
  Hf  Hf1  1  0.194589  0.389176  0.054865  1
  Hf  Hf2  1  0.610824  0.805411  0.054865  1
  Zr  Zr3  1  0.196429  0.803571  0.446164  1
  Zr  Zr4  1  0.196429  0.392855  0.446164  1
  Zr  Zr5  1  0.607145  0.803571  0.446164  1
  Zr  Zr6  1  0.805113  0.194887  0.553944  1
  Zr  Zr7  1  0.805113  0.610228  0.553944  1
  Zr  Zr8  1  0.389772  0.194887  0.553944  1
  Zr  Zr9  1  0.805224  0.194776  0.945842  1
  Zr  Zr10  1  0.805224  0.610450  0.945842  1
  Zr  Zr11  1  0.389550  0.194776  0.945842  1
  Zr  Zr12  1  0.541858  0.458142  0.247533  1
  Zr  Zr13  1  0.541858  0.083718  0.247533  1
  Zr  Zr14  1  0.916282  0.458142  0.247533  1
  Zr  Zr15  1  0.457924  0.542076  0.752561  1
  Zr  Zr16  1  0.457924  0.915846  0.752561  1
  Zr  Zr17  1  0.084154  0.542076  0.752561  1
  Cu  Cu18  1  0.666667  0.333333  0.748953  1
  Re  Re19  1  0.891824  0.108176  0.249480  1
  Re  Re20  1  0.891824  0.783646  0.249480  1
  Re  Re21  1  0.216354  0.108176  0.249480  1
  Re  Re22  1  0.108405  0.891595  0.751237  1
  Re  Re23  1  0.108405  0.216812  0.751237  1
  Re  Re24  1  0.783188  0.891595  0.751237  1
  Re  Re25  1  0.000000  0.000000  0.499845  1
  Re  Re26  1  0.000000  0.000000  0.001272  1
  Ir  Ir27  1  0.333333  0.666667  0.245051  1
