# generated using pymatgen
data_Ce3NdY4(ReB6)4
_symmetry_space_group_name_H-M   'P 1'
_cell_length_a   3.73266700
_cell_length_b   9.23806849
_cell_length_c   11.63651581
_cell_angle_alpha   89.88440781
_cell_angle_beta   90.00000000
_cell_angle_gamma   90.00000000
_symmetry_Int_Tables_number   1
_chemical_formula_structural   Ce3NdY4(ReB6)4
_chemical_formula_sum   'Ce3 Nd1 Y4 Re4 B24'
_cell_volume   401.25689214
_cell_formula_units_Z   1
loop_
 _symmetry_equiv_pos_site_id
 _symmetry_equiv_pos_as_xyz
  1  'x, y, z'
loop_
 _atom_site_type_symbol
 _atom_site_label
 _atom_site_symmetry_multiplicity
 _atom_site_fract_x
 _atom_site_fract_y
 _atom_site_fract_z
 _atom_site_occupancy
  Ce  Ce0  1  0.000000  0.822441  0.085656  1
  Ce  Ce1  1  0.000000  0.177333  0.914092  1
  Ce  Ce2  1  0.000000  0.323805  0.413827  1
  Nd  Nd3  1  0.000000  0.677074  0.586424  1
  Y  Y4  1  0.000000  0.444251  0.126692  1
  Y  Y5  1  0.000000  0.556033  0.872472  1
  Y  Y6  1  0.000000  0.943253  0.371386  1
  Y  Y7  1  0.000000  0.056447  0.628590  1
  Re  Re8  1  0.000000  0.138385  0.178880  1
  Re  Re9  1  0.000000  0.863841  0.823220  1
  Re  Re10  1  0.000000  0.638507  0.318882  1
  Re  Re11  1  0.000000  0.359213  0.679831  1
  B  B12  1  0.500000  0.054448  0.068685  1
  B  B13  1  0.500000  0.946194  0.932035  1
  B  B14  1  0.500000  0.553421  0.430228  1
  B  B15  1  0.500000  0.443770  0.568191  1
  B  B16  1  0.500000  0.247924  0.081672  1
  B  B17  1  0.500000  0.751875  0.918869  1
  B  B18  1  0.500000  0.748319  0.416424  1
  B  B19  1  0.500000  0.251327  0.581678  1
  B  B20  1  0.500000  0.291088  0.233610  1
  B  B21  1  0.500000  0.709541  0.767851  1
  B  B22  1  0.500000  0.791185  0.265609  1
  B  B23  1  0.500000  0.208511  0.734058  1
  B  B24  1  0.500000  0.131655  0.313729  1
  B  B25  1  0.500000  0.869965  0.687409  1
  B  B26  1  0.500000  0.631855  0.185668  1
  B  B27  1  0.500000  0.367603  0.814140  1
  B  B28  1  0.500000  0.483652  0.286807  1
  B  B29  1  0.500000  0.514617  0.713715  1
  B  B30  1  0.500000  0.984042  0.212577  1
  B  B31  1  0.500000  0.016845  0.787814  1
  B  B32  1  0.500000  0.103112  0.471161  1
  B  B33  1  0.500000  0.898704  0.528518  1
  B  B34  1  0.500000  0.608120  0.029760  1
  B  B35  1  0.500000  0.391644  0.969838  1
