# generated using pymatgen
data_HfTa8ZnSe16
_symmetry_space_group_name_H-M   'P 1'
_cell_length_a   7.01223300
_cell_length_b   7.01223246
_cell_length_c   13.32507200
_cell_angle_alpha   90.00000000
_cell_angle_beta   90.00000000
_cell_angle_gamma   120.00000728
_symmetry_Int_Tables_number   1
_chemical_formula_structural   HfTa8ZnSe16
_chemical_formula_sum   'Hf1 Ta8 Zn1 Se16'
_cell_volume   567.43067142
_cell_formula_units_Z   1
loop_
 _symmetry_equiv_pos_site_id
 _symmetry_equiv_pos_as_xyz
  1  'x, y, z'
loop_
 _atom_site_type_symbol
 _atom_site_label
 _atom_site_symmetry_multiplicity
 _atom_site_fract_x
 _atom_site_fract_y
 _atom_site_fract_z
 _atom_site_occupancy
  Hf  Hf0  1  0.000000  0.000000  0.500000  1
  Ta  Ta1  1  0.507316  0.492684  0.751943  1
  Ta  Ta2  1  0.014632  0.507316  0.248057  1
  Ta  Ta3  1  0.492684  0.985368  0.248057  1
  Ta  Ta4  1  0.507316  0.014632  0.751943  1
  Ta  Ta5  1  0.985368  0.492684  0.751943  1
  Ta  Ta6  1  0.492684  0.507316  0.248057  1
  Ta  Ta7  1  0.000000  0.000000  0.749772  1
  Ta  Ta8  1  0.000000  0.000000  0.250228  1
  Zn  Zn9  1  0.000000  0.000000  0.000000  1
  Se  Se10  1  0.830053  0.169947  0.373647  1
  Se  Se11  1  0.830053  0.660107  0.373647  1
  Se  Se12  1  0.339893  0.169947  0.373647  1
  Se  Se13  1  0.662755  0.831378  0.874645  1
  Se  Se14  1  0.169947  0.339893  0.626353  1
  Se  Se15  1  0.168622  0.831378  0.874645  1
  Se  Se16  1  0.168622  0.337245  0.874645  1
  Se  Se17  1  0.831378  0.168622  0.125355  1
  Se  Se18  1  0.337245  0.168622  0.125355  1
  Se  Se19  1  0.660107  0.830053  0.626353  1
  Se  Se20  1  0.333333  0.666667  0.119319  1
  Se  Se21  1  0.666667  0.333333  0.622686  1
  Se  Se22  1  0.666667  0.333333  0.880681  1
  Se  Se23  1  0.333333  0.666667  0.377314  1
  Se  Se24  1  0.831378  0.662755  0.125355  1
  Se  Se25  1  0.169947  0.830053  0.626353  1
