# generated using pymatgen
data_Ti8Be(Al2Co)7
_symmetry_space_group_name_H-M   'P 1'
_cell_length_a   8.39021551
_cell_length_b   8.39017842
_cell_length_c   8.39026702
_cell_angle_alpha   120.17979139
_cell_angle_beta   119.86511108
_cell_angle_gamma   89.96072145
_symmetry_Int_Tables_number   1
_chemical_formula_structural   Ti8Be(Al2Co)7
_chemical_formula_sum   'Ti8 Be1 Al14 Co7'
_cell_volume   417.49935514
_cell_formula_units_Z   1
loop_
 _symmetry_equiv_pos_site_id
 _symmetry_equiv_pos_as_xyz
  1  'x, y, z'
loop_
 _atom_site_type_symbol
 _atom_site_label
 _atom_site_symmetry_multiplicity
 _atom_site_fract_x
 _atom_site_fract_y
 _atom_site_fract_z
 _atom_site_occupancy
  Ti  Ti0  1  0.801247  0.298137  0.092771  1
  Ti  Ti1  1  0.205384  0.298154  0.496893  1
  Ti  Ti2  1  0.198923  0.698917  0.500021  1
  Ti  Ti3  1  0.205383  0.708494  0.907232  1
  Ti  Ti4  1  0.801266  0.708484  0.503114  1
  Ti  Ti5  1  0.791961  0.291963  0.499986  1
  Ti  Ti6  1  0.379765  0.120092  0.740316  1
  Ti  Ti7  1  0.379768  0.639454  0.259679  1
  Be  Be8  1  0.994562  0.494552  0.500000  1
  Al  Al9  1  0.158767  0.339112  0.180300  1
  Al  Al10  1  0.158804  0.978487  0.819702  1
  Al  Al11  1  0.154429  0.343107  0.811344  1
  Al  Al12  1  0.531763  0.343096  0.188662  1
  Al  Al13  1  0.842014  0.657039  0.815041  1
  Al  Al14  1  0.842010  0.026967  0.184962  1
  Al  Al15  1  0.840876  0.658349  0.182503  1
  Al  Al16  1  0.475856  0.658372  0.817504  1
  Al  Al17  1  0.380559  0.119137  0.261438  1
  Al  Al18  1  0.857682  0.119134  0.738559  1
  Al  Al19  1  0.619995  0.879559  0.259577  1
  Al  Al20  1  0.619998  0.360412  0.740436  1
  Al  Al21  1  0.620656  0.879778  0.740879  1
  Al  Al22  1  0.138911  0.879760  0.259129  1
  Co  Co23  1  0.004141  0.001026  0.503028  1
  Co  Co24  1  0.498012  0.001031  0.996887  1
  Co  Co25  1  0.497415  0.497419  0.000000  1
  Co  Co26  1  0.497990  0.501126  0.496965  1
  Co  Co27  1  0.004104  0.501093  0.003076  1
  Co  Co28  1  0.000226  0.000221  0.000003  1
  Co  Co29  1  0.497525  0.997525  0.499993  1
