# generated using pymatgen
data_YbDy3(Ga2Cu)4
_symmetry_space_group_name_H-M   'P 1'
_cell_length_a   4.35050300
_cell_length_b   6.52280894
_cell_length_c   10.07655480
_cell_angle_alpha   90.09110959
_cell_angle_beta   90.00000000
_cell_angle_gamma   90.00000000
_symmetry_Int_Tables_number   1
_chemical_formula_structural   YbDy3(Ga2Cu)4
_chemical_formula_sum   'Yb1 Dy3 Ga8 Cu4'
_cell_volume   285.94707104
_cell_formula_units_Z   1
loop_
 _symmetry_equiv_pos_site_id
 _symmetry_equiv_pos_as_xyz
  1  'x, y, z'
loop_
 _atom_site_type_symbol
 _atom_site_label
 _atom_site_symmetry_multiplicity
 _atom_site_fract_x
 _atom_site_fract_y
 _atom_site_fract_z
 _atom_site_occupancy
  Yb  Yb0  1  0.250000  0.256403  0.657472  1
  Dy  Dy1  1  0.250000  0.763202  0.840643  1
  Dy  Dy2  1  0.750000  0.239364  0.159279  1
  Dy  Dy3  1  0.750000  0.738576  0.341238  1
  Ga  Ga4  1  0.250000  0.733928  0.543804  1
  Ga  Ga5  1  0.750000  0.266510  0.457014  1
  Ga  Ga6  1  0.750000  0.762910  0.045886  1
  Ga  Ga7  1  0.250000  0.234503  0.955584  1
  Ga  Ga8  1  0.250000  0.928923  0.156045  1
  Ga  Ga9  1  0.750000  0.073915  0.845700  1
  Ga  Ga10  1  0.750000  0.568202  0.652552  1
  Ga  Ga11  1  0.250000  0.429530  0.343883  1
  Cu  Cu12  1  0.250000  0.547669  0.104668  1
  Cu  Cu13  1  0.750000  0.453905  0.894955  1
  Cu  Cu14  1  0.750000  0.953484  0.605110  1
  Cu  Cu15  1  0.250000  0.048976  0.396163  1
