# generated using pymatgen
data_Li3Y4AlPt4
_symmetry_space_group_name_H-M   'P 1'
_cell_length_a   4.05805500
_cell_length_b   7.04516658
_cell_length_c   8.40275286
_cell_angle_alpha   90.80288530
_cell_angle_beta   90.00000000
_cell_angle_gamma   90.00000000
_symmetry_Int_Tables_number   1
_chemical_formula_structural   Li3Y4AlPt4
_chemical_formula_sum   'Li3 Y4 Al1 Pt4'
_cell_volume   240.20837445
_cell_formula_units_Z   1
loop_
 _symmetry_equiv_pos_site_id
 _symmetry_equiv_pos_as_xyz
  1  'x, y, z'
loop_
 _atom_site_type_symbol
 _atom_site_label
 _atom_site_symmetry_multiplicity
 _atom_site_fract_x
 _atom_site_fract_y
 _atom_site_fract_z
 _atom_site_occupancy
  Li  Li0  1  0.250000  0.135408  0.062632  1
  Li  Li1  1  0.250000  0.632344  0.437016  1
  Li  Li2  1  0.750000  0.869978  0.940499  1
  Y  Y3  1  0.250000  0.038103  0.685480  1
  Y  Y4  1  0.250000  0.540355  0.816779  1
  Y  Y5  1  0.750000  0.959722  0.318566  1
  Y  Y6  1  0.750000  0.459888  0.181703  1
  Al  Al7  1  0.750000  0.368007  0.559811  1
  Pt  Pt8  1  0.250000  0.256852  0.392833  1
  Pt  Pt9  1  0.250000  0.749635  0.121070  1
  Pt  Pt10  1  0.750000  0.737046  0.615683  1
  Pt  Pt11  1  0.750000  0.252661  0.867927  1
