# generated using pymatgen
data_TbTh2Zr(Al3Ir)6
_symmetry_space_group_name_H-M   'P 1'
_cell_length_a   7.60265603
_cell_length_b   7.59333171
_cell_length_c   9.45778800
_cell_angle_alpha   90.00000000
_cell_angle_beta   90.00000000
_cell_angle_gamma   119.53692661
_symmetry_Int_Tables_number   1
_chemical_formula_structural   TbTh2Zr(Al3Ir)6
_chemical_formula_sum   'Tb1 Th2 Zr1 Al18 Ir6'
_cell_volume   475.03497540
_cell_formula_units_Z   1
loop_
 _symmetry_equiv_pos_site_id
 _symmetry_equiv_pos_as_xyz
  1  'x, y, z'
loop_
 _atom_site_type_symbol
 _atom_site_label
 _atom_site_symmetry_multiplicity
 _atom_site_fract_x
 _atom_site_fract_y
 _atom_site_fract_z
 _atom_site_occupancy
  Tb  Tb0  1  0.671132  0.994517  0.250000  1
  Th  Th1  1  0.005503  0.329081  0.750000  1
  Th  Th2  1  0.329150  0.005894  0.750000  1
  Zr  Zr3  1  0.994404  0.671230  0.250000  1
  Al  Al4  1  0.124197  0.122268  0.250000  1
  Al  Al5  1  0.865268  0.863398  0.750000  1
  Al  Al6  1  0.999573  0.338684  0.082448  1
  Al  Al7  1  0.995515  0.664914  0.935485  1
  Al  Al8  1  0.995515  0.664914  0.564515  1
  Al  Al9  1  0.332138  0.997028  0.417554  1
  Al  Al10  1  0.999573  0.338684  0.417552  1
  Al  Al11  1  0.664315  0.993991  0.569234  1
  Al  Al12  1  0.664315  0.993991  0.930766  1
  Al  Al13  1  0.332138  0.997028  0.082446  1
  Al  Al14  1  0.337325  0.337586  0.541691  1
  Al  Al15  1  0.670432  0.667783  0.439873  1
  Al  Al16  1  0.670432  0.667783  0.060127  1
  Al  Al17  1  0.337325  0.337586  0.958309  1
  Al  Al18  1  0.336415  0.551782  0.250000  1
  Al  Al19  1  0.661649  0.457680  0.750000  1
  Al  Al20  1  0.556970  0.344602  0.250000  1
  Al  Al21  1  0.456852  0.659385  0.750000  1
  Ir  Ir22  1  0.671989  0.327043  0.000219  1
  Ir  Ir23  1  0.327387  0.672236  0.000627  1
  Ir  Ir24  1  0.327387  0.672236  0.499373  1
  Ir  Ir25  1  0.671989  0.327043  0.499781  1
  Ir  Ir26  1  0.000556  0.000815  0.999961  1
  Ir  Ir27  1  0.000556  0.000815  0.500039  1
