# generated using pymatgen
data_NdHoPa2(Al3Ir)6
_symmetry_space_group_name_H-M   'P 1'
_cell_length_a   7.61035544
_cell_length_b   7.61204044
_cell_length_c   9.39756400
_cell_angle_alpha   90.00000000
_cell_angle_beta   90.00000000
_cell_angle_gamma   119.64679738
_symmetry_Int_Tables_number   1
_chemical_formula_structural   NdHoPa2(Al3Ir)6
_chemical_formula_sum   'Nd1 Ho1 Pa2 Al18 Ir6'
_cell_volume   473.13674098
_cell_formula_units_Z   1
loop_
 _symmetry_equiv_pos_site_id
 _symmetry_equiv_pos_as_xyz
  1  'x, y, z'
loop_
 _atom_site_type_symbol
 _atom_site_label
 _atom_site_symmetry_multiplicity
 _atom_site_fract_x
 _atom_site_fract_y
 _atom_site_fract_z
 _atom_site_occupancy
  Nd  Nd0  1  0.330743  0.006461  0.750000  1
  Ho  Ho1  1  0.670293  0.993565  0.250000  1
  Pa  Pa2  1  0.997837  0.671535  0.250000  1
  Pa  Pa3  1  0.002193  0.328709  0.750000  1
  Al  Al4  1  0.129994  0.127660  0.250000  1
  Al  Al5  1  0.867525  0.872145  0.750000  1
  Al  Al6  1  0.000024  0.331506  0.077883  1
  Al  Al7  1  0.997941  0.666696  0.924245  1
  Al  Al8  1  0.997941  0.666696  0.575755  1
  Al  Al9  1  0.338859  0.003468  0.423079  1
  Al  Al10  1  0.000024  0.331506  0.422117  1
  Al  Al11  1  0.663334  0.996713  0.572544  1
  Al  Al12  1  0.663334  0.996713  0.927456  1
  Al  Al13  1  0.338859  0.003468  0.076921  1
  Al  Al14  1  0.334982  0.334459  0.550568  1
  Al  Al15  1  0.664808  0.666866  0.446053  1
  Al  Al16  1  0.664808  0.666866  0.053947  1
  Al  Al17  1  0.334982  0.334459  0.949432  1
  Al  Al18  1  0.341001  0.548418  0.250000  1
  Al  Al19  1  0.661147  0.454046  0.750000  1
  Al  Al20  1  0.549622  0.342120  0.250000  1
  Al  Al21  1  0.451035  0.656879  0.750000  1
  Ir  Ir22  1  0.676410  0.330313  0.000555  1
  Ir  Ir23  1  0.324139  0.669732  0.001272  1
  Ir  Ir24  1  0.324139  0.669732  0.498728  1
  Ir  Ir25  1  0.676410  0.330313  0.499445  1
  Ir  Ir26  1  0.998808  0.999478  0.001216  1
  Ir  Ir27  1  0.998808  0.999478  0.498784  1
