# generated using pymatgen
data_Ho(Ga3Pt)3
_symmetry_space_group_name_H-M   'P 1'
_cell_length_a   10.45410900
_cell_length_b   10.45410862
_cell_length_c   10.45410760
_cell_angle_alpha   42.54818190
_cell_angle_beta   42.54818459
_cell_angle_gamma   42.54818574
_symmetry_Int_Tables_number   1
_chemical_formula_structural   Ho(Ga3Pt)3
_chemical_formula_sum   'Ho2 Ga18 Pt6'
_cell_volume   473.09230258
_cell_formula_units_Z   2
loop_
 _symmetry_equiv_pos_site_id
 _symmetry_equiv_pos_as_xyz
  1  'x, y, z'
loop_
 _atom_site_type_symbol
 _atom_site_label
 _atom_site_symmetry_multiplicity
 _atom_site_fract_x
 _atom_site_fract_y
 _atom_site_fract_z
 _atom_site_occupancy
  Ho  Ho0  1  0.166886  0.166886  0.166886  1
  Ho  Ho1  1  0.833114  0.833114  0.833114  1
  Ga  Ga2  1  0.049264  0.049264  0.049264  1
  Ga  Ga3  1  0.703209  0.500000  0.296791  1
  Ga  Ga4  1  0.666233  0.333767  0.000000  1
  Ga  Ga5  1  0.107742  0.439116  0.771251  1
  Ga  Ga6  1  0.439116  0.771251  0.107742  1
  Ga  Ga7  1  0.384641  0.384641  0.384641  1
  Ga  Ga8  1  0.333767  0.000000  0.666233  1
  Ga  Ga9  1  0.615359  0.615359  0.615359  1
  Ga  Ga10  1  0.228749  0.560884  0.892258  1
  Ga  Ga11  1  0.560884  0.892258  0.228749  1
  Ga  Ga12  1  0.500000  0.296791  0.703209  1
  Ga  Ga13  1  0.771251  0.107742  0.439116  1
  Ga  Ga14  1  0.950736  0.950736  0.950736  1
  Ga  Ga15  1  0.296791  0.703209  0.500000  1
  Ga  Ga16  1  0.000000  0.666233  0.333767  1
  Ga  Ga17  1  0.715164  0.715164  0.715164  1
  Ga  Ga18  1  0.284836  0.284836  0.284836  1
  Ga  Ga19  1  0.892258  0.228749  0.560884  1
  Pt  Pt20  1  0.240273  0.921371  0.581182  1
  Pt  Pt21  1  0.921371  0.581182  0.240273  1
  Pt  Pt22  1  0.759727  0.418818  0.078629  1
  Pt  Pt23  1  0.078629  0.759727  0.418818  1
  Pt  Pt24  1  0.418818  0.078629  0.759727  1
  Pt  Pt25  1  0.581182  0.240273  0.921371  1
