# generated using pymatgen
data_Er9Mg(Cu2Bi)2
_symmetry_space_group_name_H-M   'P 1'
_cell_length_a   8.55029094
_cell_length_b   8.55029136
_cell_length_c   8.55029109
_cell_angle_alpha   126.35544956
_cell_angle_beta   126.35546581
_cell_angle_gamma   79.30470566
_symmetry_Int_Tables_number   1
_chemical_formula_structural   Er9Mg(Cu2Bi)2
_chemical_formula_sum   'Er9 Mg1 Cu4 Bi2'
_cell_volume   391.95795378
_cell_formula_units_Z   1
loop_
 _symmetry_equiv_pos_site_id
 _symmetry_equiv_pos_as_xyz
  1  'x, y, z'
loop_
 _atom_site_type_symbol
 _atom_site_label
 _atom_site_symmetry_multiplicity
 _atom_site_fract_x
 _atom_site_fract_y
 _atom_site_fract_z
 _atom_site_occupancy
  Er  Er0  1  0.500000  0.500000  0.000000  1
  Er  Er1  1  0.801851  0.288144  0.817442  1
  Er  Er2  1  0.198149  0.711856  0.182558  1
  Er  Er3  1  0.470700  0.984408  0.182558  1
  Er  Er4  1  0.288144  0.470700  0.486293  1
  Er  Er5  1  0.015592  0.198149  0.486293  1
  Er  Er6  1  0.529300  0.015592  0.817442  1
  Er  Er7  1  0.711856  0.529300  0.513707  1
  Er  Er8  1  0.984408  0.801851  0.513707  1
  Mg  Mg9  1  0.000000  0.000000  0.000000  1
  Cu  Cu10  1  0.131570  0.624640  0.756211  1
  Cu  Cu11  1  0.868430  0.375360  0.243789  1
  Cu  Cu12  1  0.624640  0.868430  0.493070  1
  Cu  Cu13  1  0.375360  0.131570  0.506930  1
  Bi  Bi14  1  0.254620  0.254620  0.000000  1
  Bi  Bi15  1  0.745380  0.745380  0.000000  1
