# generated using pymatgen
data_NaHf2(PaSb2)5
_symmetry_space_group_name_H-M   'P 1'
_cell_length_a   9.26511600
_cell_length_b   9.28135106
_cell_length_c   6.19953400
_cell_angle_alpha   90.00000000
_cell_angle_beta   90.00000000
_cell_angle_gamma   119.94215333
_symmetry_Int_Tables_number   1
_chemical_formula_structural   NaHf2(PaSb2)5
_chemical_formula_sum   'Na1 Hf2 Pa5 Sb10'
_cell_volume   461.96023626
_cell_formula_units_Z   1
loop_
 _symmetry_equiv_pos_site_id
 _symmetry_equiv_pos_as_xyz
  1  'x, y, z'
loop_
 _atom_site_type_symbol
 _atom_site_label
 _atom_site_symmetry_multiplicity
 _atom_site_fract_x
 _atom_site_fract_y
 _atom_site_fract_z
 _atom_site_occupancy
  Na  Na0  1  0.621128  0.000000  0.250000  1
  Hf  Hf1  1  0.999013  0.000000  0.003153  1
  Hf  Hf2  1  0.999013  0.000000  0.496847  1
  Pa  Pa3  1  0.388781  0.000000  0.750000  1
  Pa  Pa4  1  0.000889  0.612070  0.250000  1
  Pa  Pa5  1  0.993477  0.379281  0.750000  1
  Pa  Pa6  1  0.388819  0.387930  0.250000  1
  Pa  Pa7  1  0.614196  0.620719  0.750000  1
  Sb  Sb8  1  0.272288  0.000000  0.250000  1
  Sb  Sb9  1  0.731768  0.000000  0.750000  1
  Sb  Sb10  1  0.002111  0.271205  0.250000  1
  Sb  Sb11  1  0.001413  0.730675  0.750000  1
  Sb  Sb12  1  0.730906  0.728795  0.250000  1
  Sb  Sb13  1  0.270738  0.269325  0.750000  1
  Sb  Sb14  1  0.328221  0.663714  0.997884  1
  Sb  Sb15  1  0.664508  0.336286  0.997884  1
  Sb  Sb16  1  0.664508  0.336286  0.502116  1
  Sb  Sb17  1  0.328221  0.663714  0.502116  1
