# generated using pymatgen
data_TmTa5(B2Os5)2
_symmetry_space_group_name_H-M   'P 1'
_cell_length_a   9.57543511
_cell_length_b   9.57543466
_cell_length_c   3.06050200
_cell_angle_alpha   90.00000000
_cell_angle_beta   90.00000000
_cell_angle_gamma   90.38402439
_symmetry_Int_Tables_number   1
_chemical_formula_structural   TmTa5(B2Os5)2
_chemical_formula_sum   'Tm1 Ta5 B4 Os10'
_cell_volume   280.60792166
_cell_formula_units_Z   1
loop_
 _symmetry_equiv_pos_site_id
 _symmetry_equiv_pos_as_xyz
  1  'x, y, z'
loop_
 _atom_site_type_symbol
 _atom_site_label
 _atom_site_symmetry_multiplicity
 _atom_site_fract_x
 _atom_site_fract_y
 _atom_site_fract_z
 _atom_site_occupancy
  Tm  Tm0  1  0.824005  0.675995  0.000000  1
  Ta  Ta1  1  0.179719  0.320281  0.000000  1
  Ta  Ta2  1  0.323804  0.822386  0.000000  1
  Ta  Ta3  1  0.677614  0.176196  0.000000  1
  Ta  Ta4  1  0.501830  0.501080  0.000000  1
  Ta  Ta5  1  0.998920  0.998170  0.000000  1
  B  B6  1  0.620253  0.879747  0.000000  1
  B  B7  1  0.377905  0.122095  0.000000  1
  B  B8  1  0.121052  0.620047  0.000000  1
  B  B9  1  0.879953  0.378948  0.000000  1
  Os  Os10  1  0.558774  0.724743  0.500000  1
  Os  Os11  1  0.426660  0.283549  0.500000  1
  Os  Os12  1  0.080558  0.782270  0.500000  1
  Os  Os13  1  0.929765  0.216288  0.500000  1
  Os  Os14  1  0.283712  0.570235  0.500000  1
  Os  Os15  1  0.717730  0.419442  0.500000  1
  Os  Os16  1  0.216451  0.073340  0.500000  1
  Os  Os17  1  0.775257  0.941226  0.500000  1
  Os  Os18  1  0.496199  0.003801  0.500000  1
  Os  Os19  1  0.009839  0.490161  0.500000  1
