# generated using pymatgen
data_YMgCoB6
_symmetry_space_group_name_H-M   'P 1'
_cell_length_a   3.41618100
_cell_length_b   8.86897500
_cell_length_c   11.25142600
_cell_angle_alpha   90.00000000
_cell_angle_beta   90.00000000
_cell_angle_gamma   90.00000000
_symmetry_Int_Tables_number   1
_chemical_formula_structural   YMgCoB6
_chemical_formula_sum   'Y4 Mg4 Co4 B24'
_cell_volume   340.89597368
_cell_formula_units_Z   4
loop_
 _symmetry_equiv_pos_site_id
 _symmetry_equiv_pos_as_xyz
  1  'x, y, z'
loop_
 _atom_site_type_symbol
 _atom_site_label
 _atom_site_symmetry_multiplicity
 _atom_site_fract_x
 _atom_site_fract_y
 _atom_site_fract_z
 _atom_site_occupancy
  Y  Y0  1  0.000000  0.822316  0.086075  1
  Y  Y1  1  0.000000  0.177684  0.913925  1
  Y  Y2  1  0.000000  0.322316  0.413925  1
  Y  Y3  1  0.000000  0.677684  0.586075  1
  Mg  Mg4  1  0.000000  0.445551  0.125347  1
  Mg  Mg5  1  0.000000  0.554449  0.874653  1
  Mg  Mg6  1  0.000000  0.945551  0.374653  1
  Mg  Mg7  1  0.000000  0.054449  0.625347  1
  Co  Co8  1  0.000000  0.141740  0.182215  1
  Co  Co9  1  0.000000  0.858260  0.817785  1
  Co  Co10  1  0.000000  0.641740  0.317785  1
  Co  Co11  1  0.000000  0.358260  0.682215  1
  B  B12  1  0.500000  0.056838  0.069335  1
  B  B13  1  0.500000  0.943162  0.930665  1
  B  B14  1  0.500000  0.556838  0.430665  1
  B  B15  1  0.500000  0.443162  0.569335  1
  B  B16  1  0.500000  0.254099  0.082472  1
  B  B17  1  0.500000  0.745901  0.917528  1
  B  B18  1  0.500000  0.754099  0.417528  1
  B  B19  1  0.500000  0.245901  0.582472  1
  B  B20  1  0.500000  0.292358  0.234357  1
  B  B21  1  0.500000  0.707642  0.765643  1
  B  B22  1  0.500000  0.792358  0.265643  1
  B  B23  1  0.500000  0.207642  0.734357  1
  B  B24  1  0.500000  0.128297  0.317084  1
  B  B25  1  0.500000  0.871703  0.682916  1
  B  B26  1  0.500000  0.628297  0.182916  1
  B  B27  1  0.500000  0.371703  0.817084  1
  B  B28  1  0.500000  0.484441  0.285547  1
  B  B29  1  0.500000  0.515559  0.714453  1
  B  B30  1  0.500000  0.984441  0.214453  1
  B  B31  1  0.500000  0.015559  0.785547  1
  B  B32  1  0.500000  0.097178  0.473936  1
  B  B33  1  0.500000  0.902822  0.526064  1
  B  B34  1  0.500000  0.597178  0.026064  1
  B  B35  1  0.500000  0.402822  0.973936  1
