# generated using pymatgen
data_Tb2Ge4(PRh4)3
_symmetry_space_group_name_H-M   'P 1'
_cell_length_a   9.85997900
_cell_length_b   9.85997849
_cell_length_c   3.86699900
_cell_angle_alpha   90.00000000
_cell_angle_beta   90.00000000
_cell_angle_gamma   119.99999834
_symmetry_Int_Tables_number   1
_chemical_formula_structural   Tb2Ge4(PRh4)3
_chemical_formula_sum   'Tb2 Ge4 P3 Rh12'
_cell_volume   325.57920353
_cell_formula_units_Z   1
loop_
 _symmetry_equiv_pos_site_id
 _symmetry_equiv_pos_as_xyz
  1  'x, y, z'
loop_
 _atom_site_type_symbol
 _atom_site_label
 _atom_site_symmetry_multiplicity
 _atom_site_fract_x
 _atom_site_fract_y
 _atom_site_fract_z
 _atom_site_occupancy
  Tb  Tb0  1  0.333333  0.666667  0.744951  1
  Tb  Tb1  1  0.666667  0.333333  0.242733  1
  Ge  Ge2  1  0.000000  0.000000  0.620985  1
  Ge  Ge3  1  0.404455  0.286807  0.744777  1
  Ge  Ge4  1  0.713193  0.117648  0.744777  1
  Ge  Ge5  1  0.882352  0.595545  0.744777  1
  P  P6  1  0.597077  0.710199  0.243252  1
  P  P7  1  0.289801  0.886878  0.243252  1
  P  P8  1  0.113122  0.402923  0.243252  1
  Rh  Rh9  1  0.440094  0.054832  0.744381  1
  Rh  Rh10  1  0.945168  0.385262  0.744381  1
  Rh  Rh11  1  0.614738  0.559906  0.744381  1
  Rh  Rh12  1  0.547832  0.927914  0.243230  1
  Rh  Rh13  1  0.072086  0.619919  0.243230  1
  Rh  Rh14  1  0.380081  0.452168  0.243230  1
  Rh  Rh15  1  0.151552  0.279767  0.743697  1
  Rh  Rh16  1  0.720233  0.871786  0.743697  1
  Rh  Rh17  1  0.128214  0.848448  0.743697  1
  Rh  Rh18  1  0.852056  0.744222  0.244440  1
  Rh  Rh19  1  0.255778  0.107832  0.244440  1
  Rh  Rh20  1  0.892168  0.147944  0.244440  1
