# generated using pymatgen
data_YbPr2(LuSi2)2
_symmetry_space_group_name_H-M   'P 1'
_cell_length_a   7.43028700
_cell_length_b   7.80287700
_cell_length_c   14.71908400
_cell_angle_alpha   90.00000000
_cell_angle_beta   90.00000000
_cell_angle_gamma   90.00000000
_symmetry_Int_Tables_number   1
_chemical_formula_structural   YbPr2(LuSi2)2
_chemical_formula_sum   'Yb4 Pr8 Lu8 Si16'
_cell_volume   853.37739319
_cell_formula_units_Z   4
loop_
 _symmetry_equiv_pos_site_id
 _symmetry_equiv_pos_as_xyz
  1  'x, y, z'
loop_
 _atom_site_type_symbol
 _atom_site_label
 _atom_site_symmetry_multiplicity
 _atom_site_fract_x
 _atom_site_fract_y
 _atom_site_fract_z
 _atom_site_occupancy
  Yb  Yb0  1  0.347733  0.011827  0.750000  1
  Yb  Yb1  1  0.847733  0.488173  0.750000  1
  Yb  Yb2  1  0.152267  0.511827  0.250000  1
  Yb  Yb3  1  0.652267  0.988173  0.250000  1
  Pr  Pr4  1  0.975028  0.820823  0.401160  1
  Pr  Pr5  1  0.475028  0.679177  0.098840  1
  Pr  Pr6  1  0.524972  0.320823  0.598840  1
  Pr  Pr7  1  0.024972  0.179177  0.901160  1
  Pr  Pr8  1  0.024972  0.179177  0.598840  1
  Pr  Pr9  1  0.524972  0.320823  0.901160  1
  Pr  Pr10  1  0.475028  0.679177  0.401160  1
  Pr  Pr11  1  0.975028  0.820823  0.098840  1
  Lu  Lu12  1  0.321146  0.181373  0.123036  1
  Lu  Lu13  1  0.821146  0.318627  0.376964  1
  Lu  Lu14  1  0.178854  0.681373  0.876964  1
  Lu  Lu15  1  0.678854  0.818627  0.623036  1
  Lu  Lu16  1  0.321146  0.181373  0.376964  1
  Lu  Lu17  1  0.821146  0.318627  0.123036  1
  Lu  Lu18  1  0.178854  0.681373  0.623036  1
  Lu  Lu19  1  0.678854  0.818627  0.876964  1
  Si  Si20  1  0.851613  0.533278  0.535549  1
  Si  Si21  1  0.351613  0.966722  0.964451  1
  Si  Si22  1  0.648387  0.033278  0.464451  1
  Si  Si23  1  0.148387  0.466722  0.035549  1
  Si  Si24  1  0.148387  0.466722  0.464451  1
  Si  Si25  1  0.648387  0.033278  0.035549  1
  Si  Si26  1  0.351613  0.966722  0.535549  1
  Si  Si27  1  0.851613  0.533278  0.964451  1
  Si  Si28  1  0.969830  0.884172  0.750000  1
  Si  Si29  1  0.469830  0.615828  0.750000  1
  Si  Si30  1  0.530170  0.384172  0.250000  1
  Si  Si31  1  0.030170  0.115828  0.250000  1
  Si  Si32  1  0.234826  0.392799  0.750000  1
  Si  Si33  1  0.734826  0.107201  0.750000  1
  Si  Si34  1  0.265174  0.892799  0.250000  1
  Si  Si35  1  0.765174  0.607201  0.250000  1
