# generated using pymatgen
data_Yb4B16Os3W
_symmetry_space_group_name_H-M   'P 1'
_cell_length_a   3.53371900
_cell_length_b   5.98669194
_cell_length_c   11.57417284
_cell_angle_alpha   89.93549868
_cell_angle_beta   90.00000000
_cell_angle_gamma   90.00000000
_symmetry_Int_Tables_number   1
_chemical_formula_structural   Yb4B16Os3W
_chemical_formula_sum   'Yb4 B16 Os3 W1'
_cell_volume   244.85479391
_cell_formula_units_Z   1
loop_
 _symmetry_equiv_pos_site_id
 _symmetry_equiv_pos_as_xyz
  1  'x, y, z'
loop_
 _atom_site_type_symbol
 _atom_site_label
 _atom_site_symmetry_multiplicity
 _atom_site_fract_x
 _atom_site_fract_y
 _atom_site_fract_z
 _atom_site_occupancy
  Yb  Yb0  1  0.000000  0.128858  0.647580  1
  Yb  Yb1  1  0.000000  0.870674  0.350725  1
  Yb  Yb2  1  0.000000  0.629541  0.847733  1
  Yb  Yb3  1  0.000000  0.373653  0.152457  1
  B  B4  1  0.500000  0.476054  0.690463  1
  B  B5  1  0.500000  0.525228  0.308607  1
  B  B6  1  0.500000  0.972960  0.806010  1
  B  B7  1  0.500000  0.022577  0.193810  1
  B  B8  1  0.500000  0.289574  0.812474  1
  B  B9  1  0.500000  0.714760  0.185306  1
  B  B10  1  0.500000  0.783562  0.683689  1
  B  B11  1  0.500000  0.214514  0.315242  1
  B  B12  1  0.500000  0.368629  0.970077  1
  B  B13  1  0.500000  0.635174  0.033583  1
  B  B14  1  0.500000  0.863484  0.530086  1
  B  B15  1  0.500000  0.136132  0.469238  1
  B  B16  1  0.500000  0.386615  0.546781  1
  B  B17  1  0.500000  0.612997  0.452283  1
  B  B18  1  0.500000  0.880207  0.954579  1
  B  B19  1  0.500000  0.112049  0.051025  1
  Os  Os20  1  0.000000  0.870148  0.085788  1
  Os  Os21  1  0.000000  0.636316  0.586054  1
  Os  Os22  1  0.000000  0.363297  0.411603  1
  W  W23  1  0.000000  0.132999  0.914807  1
