# generated using pymatgen
data_ZnFeCoRh3O8
_symmetry_space_group_name_H-M   'P 1'
_cell_length_a   6.15716275
_cell_length_b   6.02017152
_cell_length_c   6.15716300
_cell_angle_alpha   59.24435278
_cell_angle_beta   59.99999330
_cell_angle_gamma   59.24435188
_symmetry_Int_Tables_number   1
_chemical_formula_structural   ZnFeCoRh3O8
_chemical_formula_sum   'Zn1 Fe1 Co1 Rh3 O8'
_cell_volume   159.51414083
_cell_formula_units_Z   1
loop_
 _symmetry_equiv_pos_site_id
 _symmetry_equiv_pos_as_xyz
  1  'x, y, z'
loop_
 _atom_site_type_symbol
 _atom_site_label
 _atom_site_symmetry_multiplicity
 _atom_site_fract_x
 _atom_site_fract_y
 _atom_site_fract_z
 _atom_site_occupancy
  Zn  Zn0  1  0.754315  0.737056  0.754315  1
  Fe  Fe1  1  0.374857  0.875429  0.374857  1
  Co  Co2  1  0.997328  0.008016  0.997328  1
  Rh  Rh3  1  0.875633  0.374714  0.374827  1
  Rh  Rh4  1  0.374827  0.374714  0.875633  1
  Rh  Rh5  1  0.374827  0.374714  0.374827  1
  O  O6  1  0.597021  0.132002  0.135489  1
  O  O7  1  0.135505  0.593487  0.135505  1
  O  O8  1  0.135489  0.132002  0.597021  1
  O  O9  1  0.135489  0.132002  0.135489  1
  O  O10  1  0.153871  0.619411  0.613359  1
  O  O11  1  0.614122  0.157634  0.614122  1
  O  O12  1  0.613359  0.619411  0.153871  1
  O  O13  1  0.613359  0.619411  0.613359  1
