# generated using pymatgen
data_Tb3TaZn2Ir3
_symmetry_space_group_name_H-M   'P 1'
_cell_length_a   7.05909713
_cell_length_b   6.92142156
_cell_length_c   4.25172600
_cell_angle_alpha   90.00000000
_cell_angle_beta   90.00000000
_cell_angle_gamma   119.35689462
_symmetry_Int_Tables_number   1
_chemical_formula_structural   Tb3TaZn2Ir3
_chemical_formula_sum   'Tb3 Ta1 Zn2 Ir3'
_cell_volume   181.05829342
_cell_formula_units_Z   1
loop_
 _symmetry_equiv_pos_site_id
 _symmetry_equiv_pos_as_xyz
  1  'x, y, z'
loop_
 _atom_site_type_symbol
 _atom_site_label
 _atom_site_symmetry_multiplicity
 _atom_site_fract_x
 _atom_site_fract_y
 _atom_site_fract_z
 _atom_site_occupancy
  Tb  Tb0  1  0.571111  0.581298  0.000000  1
  Tb  Tb1  1  0.428889  0.010186  0.000000  1
  Tb  Tb2  1  0.000000  0.393486  0.000000  1
  Ta  Ta3  1  0.000000  0.761473  0.500000  1
  Zn  Zn4  1  0.241102  0.243797  0.500000  1
  Zn  Zn5  1  0.758898  0.002695  0.500000  1
  Ir  Ir6  1  0.000000  0.969909  0.000000  1
  Ir  Ir7  1  0.681573  0.359364  0.500000  1
  Ir  Ir8  1  0.318427  0.677792  0.500000  1
