# generated using pymatgen
data_Nb12Al9Ni3C4
_symmetry_space_group_name_H-M   'P 1'
_cell_length_a   8.31398816
_cell_length_b   8.32642708
_cell_length_c   8.31398800
_cell_angle_alpha   60.04940643
_cell_angle_beta   60.00000064
_cell_angle_gamma   60.04941080
_symmetry_Int_Tables_number   1
_chemical_formula_structural   Nb12Al9Ni3C4
_chemical_formula_sum   'Nb12 Al9 Ni3 C4'
_cell_volume   407.27374555
_cell_formula_units_Z   1
loop_
 _symmetry_equiv_pos_site_id
 _symmetry_equiv_pos_as_xyz
  1  'x, y, z'
loop_
 _atom_site_type_symbol
 _atom_site_label
 _atom_site_symmetry_multiplicity
 _atom_site_fract_x
 _atom_site_fract_y
 _atom_site_fract_z
 _atom_site_occupancy
  Nb  Nb0  1  0.815275  0.818079  0.183323  1
  Nb  Nb1  1  0.192492  0.184178  0.811665  1
  Nb  Nb2  1  0.811665  0.184178  0.811665  1
  Nb  Nb3  1  0.183323  0.818079  0.183323  1
  Nb  Nb4  1  0.183323  0.818079  0.815275  1
  Nb  Nb5  1  0.811665  0.184178  0.192492  1
  Nb  Nb6  1  0.434725  0.431921  0.066677  1
  Nb  Nb7  1  0.057508  0.065822  0.438335  1
  Nb  Nb8  1  0.438335  0.065822  0.438335  1
  Nb  Nb9  1  0.066677  0.431921  0.066677  1
  Nb  Nb10  1  0.066677  0.431921  0.434725  1
  Nb  Nb11  1  0.438335  0.065822  0.057508  1
  Al  Al12  1  0.625000  0.125000  0.625000  1
  Al  Al13  1  0.749563  0.431814  0.409312  1
  Al  Al14  1  0.415321  0.754039  0.415321  1
  Al  Al15  1  0.409312  0.431814  0.749563  1
  Al  Al16  1  0.409312  0.431814  0.409312  1
  Al  Al17  1  0.500437  0.818186  0.840688  1
  Al  Al18  1  0.834679  0.495961  0.834679  1
  Al  Al19  1  0.840688  0.818186  0.500437  1
  Al  Al20  1  0.840688  0.818186  0.840688  1
  Ni  Ni21  1  0.125000  0.625000  0.625000  1
  Ni  Ni22  1  0.625000  0.625000  0.125000  1
  Ni  Ni23  1  0.625000  0.625000  0.625000  1
  C  C24  1  0.625000  0.125000  0.125000  1
  C  C25  1  0.125000  0.625000  0.125000  1
  C  C26  1  0.125000  0.125000  0.625000  1
  C  C27  1  0.125000  0.125000  0.125000  1
