# generated using pymatgen
data_YErIrRhO7
_symmetry_space_group_name_H-M   'P 1'
_cell_length_a   7.23316236
_cell_length_b   7.22214556
_cell_length_c   7.22214563
_cell_angle_alpha   59.89623763
_cell_angle_beta   59.94951847
_cell_angle_gamma   59.94952429
_symmetry_Int_Tables_number   1
_chemical_formula_structural   YErIrRhO7
_chemical_formula_sum   'Y2 Er2 Ir2 Rh2 O14'
_cell_volume   266.36227077
_cell_formula_units_Z   2
loop_
 _symmetry_equiv_pos_site_id
 _symmetry_equiv_pos_as_xyz
  1  'x, y, z'
loop_
 _atom_site_type_symbol
 _atom_site_label
 _atom_site_symmetry_multiplicity
 _atom_site_fract_x
 _atom_site_fract_y
 _atom_site_fract_z
 _atom_site_occupancy
  Y  Y0  1  0.625000  0.125000  0.125000  1
  Y  Y1  1  0.125000  0.125000  0.125000  1
  Er  Er2  1  0.125000  0.625000  0.125000  1
  Er  Er3  1  0.125000  0.125000  0.625000  1
  Ir  Ir4  1  0.125000  0.625000  0.625000  1
  Ir  Ir5  1  0.625000  0.625000  0.625000  1
  Rh  Rh6  1  0.625000  0.125000  0.625000  1
  Rh  Rh7  1  0.625000  0.625000  0.125000  1
  O  O8  1  0.717533  0.707473  0.290019  1
  O  O9  1  0.284976  0.290019  0.707473  1
  O  O10  1  0.717533  0.290019  0.707473  1
  O  O11  1  0.284976  0.707473  0.290019  1
  O  O12  1  0.290023  0.709977  0.709977  1
  O  O13  1  0.715864  0.284136  0.284136  1
  O  O14  1  0.532467  0.542527  0.959981  1
  O  O15  1  0.965024  0.959981  0.542527  1
  O  O16  1  0.532467  0.959981  0.542527  1
  O  O17  1  0.965024  0.542527  0.959981  1
  O  O18  1  0.959977  0.540023  0.540023  1
  O  O19  1  0.534136  0.965864  0.965864  1
  O  O20  1  0.246828  0.253172  0.253172  1
  O  O21  1  0.003172  0.996828  0.996828  1
