# generated using pymatgen
data_Ho8Si12AgIr3
_symmetry_space_group_name_H-M   'P 1'
_cell_length_a   8.19265000
_cell_length_b   8.19264001
_cell_length_c   7.87501500
_cell_angle_alpha   90.00002098
_cell_angle_beta   90.00001399
_cell_angle_gamma   119.99993534
_symmetry_Int_Tables_number   1
_chemical_formula_structural   Ho8Si12AgIr3
_chemical_formula_sum   'Ho8 Si12 Ag1 Ir3'
_cell_volume   457.75234561
_cell_formula_units_Z   1
loop_
 _symmetry_equiv_pos_site_id
 _symmetry_equiv_pos_as_xyz
  1  'x, y, z'
loop_
 _atom_site_type_symbol
 _atom_site_label
 _atom_site_symmetry_multiplicity
 _atom_site_fract_x
 _atom_site_fract_y
 _atom_site_fract_z
 _atom_site_occupancy
  Ho  Ho0  1  0.514139  0.028279  0.244708  1
  Ho  Ho1  1  0.491971  0.983943  0.753590  1
  Ho  Ho2  1  0.971721  0.485860  0.244707  1
  Ho  Ho3  1  0.016056  0.508028  0.753590  1
  Ho  Ho4  1  0.514139  0.485860  0.244707  1
  Ho  Ho5  1  0.491972  0.508029  0.753591  1
  Ho  Ho6  1  0.000001  0.999999  0.251507  1
  Ho  Ho7  1  0.000001  0.000000  0.752701  1
  Si  Si8  1  0.166937  0.333872  0.004988  1
  Si  Si9  1  0.834214  0.668428  0.996310  1
  Si  Si10  1  0.666128  0.833063  0.004988  1
  Si  Si11  1  0.831701  0.663403  0.500661  1
  Si  Si12  1  0.331573  0.165787  0.996310  1
  Si  Si13  1  0.160860  0.321722  0.503398  1
  Si  Si14  1  0.166937  0.833064  0.004988  1
  Si  Si15  1  0.336598  0.168299  0.500661  1
  Si  Si16  1  0.834214  0.165786  0.996310  1
  Si  Si17  1  0.678278  0.839140  0.503398  1
  Si  Si18  1  0.831701  0.168299  0.500661  1
  Si  Si19  1  0.160860  0.839140  0.503398  1
  Ag  Ag20  1  0.333333  0.666667  0.451441  1
  Ir  Ir21  1  0.333334  0.666667  0.027561  1
  Ir  Ir22  1  0.666667  0.333334  0.964883  1
  Ir  Ir23  1  0.666666  0.333333  0.540945  1
