# generated using pymatgen
data_YTmU(SnRh)3
_symmetry_space_group_name_H-M   'P 1'
_cell_length_a   7.49243102
_cell_length_b   7.60875256
_cell_length_c   3.86494400
_cell_angle_alpha   90.00000000
_cell_angle_beta   90.00000000
_cell_angle_gamma   120.63421264
_symmetry_Int_Tables_number   1
_chemical_formula_structural   YTmU(SnRh)3
_chemical_formula_sum   'Y1 Tm1 U1 Sn3 Rh3'
_cell_volume   189.58281089
_cell_formula_units_Z   1
loop_
 _symmetry_equiv_pos_site_id
 _symmetry_equiv_pos_as_xyz
  1  'x, y, z'
loop_
 _atom_site_type_symbol
 _atom_site_label
 _atom_site_symmetry_multiplicity
 _atom_site_fract_x
 _atom_site_fract_y
 _atom_site_fract_z
 _atom_site_occupancy
  Y  Y0  1  0.595081  0.593868  0.000000  1
  Tm  Tm1  1  0.404839  0.999321  0.000000  1
  U  U2  1  0.999758  0.414277  0.000000  1
  Sn  Sn3  1  0.272684  0.259101  0.500000  1
  Sn  Sn4  1  0.001250  0.755642  0.500000  1
  Sn  Sn5  1  0.726989  0.986816  0.500000  1
  Rh  Rh6  1  0.697344  0.334156  0.500000  1
  Rh  Rh7  1  0.300123  0.639404  0.500000  1
  Rh  Rh8  1  0.001933  0.017413  0.000000  1
