# generated using pymatgen
data_ErTm2Pa(Ga3Ir)6
_symmetry_space_group_name_H-M   'P 1'
_cell_length_a   7.60828601
_cell_length_b   7.59792812
_cell_length_c   9.42839500
_cell_angle_alpha   90.00000000
_cell_angle_beta   90.00000000
_cell_angle_gamma   119.92971677
_symmetry_Int_Tables_number   1
_chemical_formula_structural   ErTm2Pa(Ga3Ir)6
_chemical_formula_sum   'Er1 Tm2 Pa1 Ga18 Ir6'
_cell_volume   472.34307416
_cell_formula_units_Z   1
loop_
 _symmetry_equiv_pos_site_id
 _symmetry_equiv_pos_as_xyz
  1  'x, y, z'
loop_
 _atom_site_type_symbol
 _atom_site_label
 _atom_site_symmetry_multiplicity
 _atom_site_fract_x
 _atom_site_fract_y
 _atom_site_fract_z
 _atom_site_occupancy
  Er  Er0  1  0.669559  0.996603  0.750000  1
  Tm  Tm1  1  0.003824  0.331290  0.250000  1
  Tm  Tm2  1  0.330947  0.002879  0.250000  1
  Pa  Pa3  1  0.997298  0.668956  0.750000  1
  Ga  Ga4  1  0.130103  0.130204  0.750000  1
  Ga  Ga5  1  0.873391  0.874572  0.250000  1
  Ga  Ga6  1  0.998189  0.330253  0.579905  1
  Ga  Ga7  1  0.001974  0.665576  0.415279  1
  Ga  Ga8  1  0.001974  0.665576  0.084721  1
  Ga  Ga9  1  0.338611  0.002418  0.919992  1
  Ga  Ga10  1  0.998189  0.330253  0.920095  1
  Ga  Ga11  1  0.665789  0.002431  0.082264  1
  Ga  Ga12  1  0.665789  0.002431  0.417736  1
  Ga  Ga13  1  0.338611  0.002418  0.580008  1
  Ga  Ga14  1  0.330895  0.330845  0.069487  1
  Ga  Ga15  1  0.664104  0.668201  0.933722  1
  Ga  Ga16  1  0.664104  0.668201  0.566278  1
  Ga  Ga17  1  0.330895  0.330845  0.430513  1
  Ga  Ga18  1  0.339383  0.544947  0.750000  1
  Ga  Ga19  1  0.660224  0.451866  0.250000  1
  Ga  Ga20  1  0.543841  0.339213  0.750000  1
  Ga  Ga21  1  0.452241  0.661248  0.250000  1
  Ir  Ir22  1  0.674085  0.331434  0.501687  1
  Ir  Ir23  1  0.326035  0.671216  0.501678  1
  Ir  Ir24  1  0.326035  0.671216  0.998322  1
  Ir  Ir25  1  0.674085  0.331434  0.998313  1
  Ir  Ir26  1  0.999913  0.996737  0.502025  1
  Ir  Ir27  1  0.999913  0.996737  0.997975  1
