# generated using pymatgen
data_K7Rb9(SiSe4)4
_symmetry_space_group_name_H-M   'P 1'
_cell_length_a   8.36247178
_cell_length_b   10.06661775
_cell_length_c   15.26884000
_cell_angle_alpha   90.40834601
_cell_angle_beta   90.49870907
_cell_angle_gamma   90.41379741
_symmetry_Int_Tables_number   1
_chemical_formula_structural   K7Rb9(SiSe4)4
_chemical_formula_sum   'K7 Rb9 Si4 Se16'
_cell_volume   1285.24310399
_cell_formula_units_Z   1
loop_
 _symmetry_equiv_pos_site_id
 _symmetry_equiv_pos_as_xyz
  1  'x, y, z'
loop_
 _atom_site_type_symbol
 _atom_site_label
 _atom_site_symmetry_multiplicity
 _atom_site_fract_x
 _atom_site_fract_y
 _atom_site_fract_z
 _atom_site_occupancy
  K  K0  1  0.000000  0.000000  0.000000  1
  K  K1  1  0.500000  0.000000  0.500000  1
  K  K2  1  0.000000  0.500000  0.000000  1
  K  K3  1  0.981112  0.751298  0.425149  1
  K  K4  1  0.480199  0.249622  0.075528  1
  K  K5  1  0.018888  0.248702  0.574851  1
  K  K6  1  0.519801  0.750378  0.924472  1
  Rb  Rb7  1  0.500000  0.500000  0.500000  1
  Rb  Rb8  1  0.834391  0.051313  0.276057  1
  Rb  Rb9  1  0.337389  0.950062  0.224108  1
  Rb  Rb10  1  0.168665  0.551253  0.729586  1
  Rb  Rb11  1  0.666641  0.451081  0.776022  1
  Rb  Rb12  1  0.165609  0.948687  0.723943  1
  Rb  Rb13  1  0.662611  0.049938  0.775892  1
  Rb  Rb14  1  0.831335  0.448747  0.270414  1
  Rb  Rb15  1  0.333359  0.548919  0.223978  1
  Si  Si16  1  0.766043  0.751680  0.661645  1
  Si  Si17  1  0.233957  0.248320  0.338355  1
  Si  Si18  1  0.738821  0.750383  0.158913  1
  Si  Si19  1  0.261179  0.249617  0.841087  1
  Se  Se20  1  0.984874  0.250077  0.834171  1
  Se  Se21  1  0.510893  0.250162  0.332653  1
  Se  Se22  1  0.489107  0.749838  0.667347  1
  Se  Se23  1  0.015126  0.749923  0.165829  1
  Se  Se24  1  0.650525  0.564209  0.083796  1
  Se  Se25  1  0.141470  0.432572  0.411298  1
  Se  Se26  1  0.346856  0.063628  0.914368  1
  Se  Se27  1  0.846773  0.937942  0.586625  1
  Se  Se28  1  0.349475  0.435791  0.916204  1
  Se  Se29  1  0.858530  0.567428  0.588702  1
  Se  Se30  1  0.653144  0.936372  0.085632  1
  Se  Se31  1  0.153227  0.062058  0.413375  1
  Se  Se32  1  0.640678  0.750095  0.302084  1
  Se  Se33  1  0.136189  0.246620  0.194361  1
  Se  Se34  1  0.359322  0.249905  0.697916  1
  Se  Se35  1  0.863811  0.753380  0.805639  1
