# generated using pymatgen
data_TbY7(AlPd)2
_symmetry_space_group_name_H-M   'P 1'
_cell_length_a   9.64238353
_cell_length_b   9.64238437
_cell_length_c   9.65574900
_cell_angle_alpha   59.95413648
_cell_angle_beta   59.95413358
_cell_angle_gamma   59.92477106
_symmetry_Int_Tables_number   1
_chemical_formula_structural   TbY7(AlPd)2
_chemical_formula_sum   'Tb2 Y14 Al4 Pd4'
_cell_volume   634.00284702
_cell_formula_units_Z   2
loop_
 _symmetry_equiv_pos_site_id
 _symmetry_equiv_pos_as_xyz
  1  'x, y, z'
loop_
 _atom_site_type_symbol
 _atom_site_label
 _atom_site_symmetry_multiplicity
 _atom_site_fract_x
 _atom_site_fract_y
 _atom_site_fract_z
 _atom_site_occupancy
  Tb  Tb0  1  0.355012  0.355012  0.355963  1
  Tb  Tb1  1  0.355012  0.355012  0.934013  1
  Y  Y2  1  0.356064  0.930282  0.356827  1
  Y  Y3  1  0.930282  0.356064  0.356827  1
  Y  Y4  1  0.807175  0.193725  0.192855  1
  Y  Y5  1  0.193725  0.807175  0.806246  1
  Y  Y6  1  0.193725  0.807175  0.192855  1
  Y  Y7  1  0.807175  0.193725  0.806246  1
  Y  Y8  1  0.193157  0.193157  0.806843  1
  Y  Y9  1  0.806663  0.806663  0.193337  1
  Y  Y10  1  0.934100  0.565260  0.566060  1
  Y  Y11  1  0.565260  0.934100  0.934579  1
  Y  Y12  1  0.565260  0.934100  0.566060  1
  Y  Y13  1  0.934100  0.565260  0.934579  1
  Y  Y14  1  0.565436  0.565436  0.934564  1
  Y  Y15  1  0.934225  0.934225  0.565775  1
  Al  Al16  1  0.578625  0.578625  0.577705  1
  Al  Al17  1  0.578625  0.578625  0.265048  1
  Al  Al18  1  0.578356  0.266733  0.577456  1
  Al  Al19  1  0.266733  0.578356  0.577456  1
  Pd  Pd20  1  0.145175  0.145175  0.144402  1
  Pd  Pd21  1  0.145175  0.145175  0.565249  1
  Pd  Pd22  1  0.145025  0.565918  0.144529  1
  Pd  Pd23  1  0.565918  0.145025  0.144529  1
