# generated using pymatgen
data_BaPr2BeO5
_symmetry_space_group_name_H-M   'P 1'
_cell_length_a   7.51121028
_cell_length_b   6.80437900
_cell_length_c   9.91656138
_cell_angle_alpha   90.00000000
_cell_angle_beta   90.72508617
_cell_angle_gamma   90.00000000
_symmetry_Int_Tables_number   1
_chemical_formula_structural   BaPr2BeO5
_chemical_formula_sum   'Ba4 Pr8 Be4 O20'
_cell_volume   506.78615625
_cell_formula_units_Z   4
loop_
 _symmetry_equiv_pos_site_id
 _symmetry_equiv_pos_as_xyz
  1  'x, y, z'
loop_
 _atom_site_type_symbol
 _atom_site_label
 _atom_site_symmetry_multiplicity
 _atom_site_fract_x
 _atom_site_fract_y
 _atom_site_fract_z
 _atom_site_occupancy
  Ba  Ba0  1  0.979321  0.918005  0.173002  1
  Ba  Ba1  1  0.020680  0.418006  0.326998  1
  Ba  Ba2  1  0.979320  0.581994  0.673002  1
  Ba  Ba3  1  0.020680  0.081994  0.826998  1
  Pr  Pr4  1  0.743716  0.408014  0.021509  1
  Pr  Pr5  1  0.521673  0.917278  0.175863  1
  Pr  Pr6  1  0.478327  0.417278  0.324137  1
  Pr  Pr7  1  0.256285  0.908014  0.478491  1
  Pr  Pr8  1  0.743716  0.091986  0.521509  1
  Pr  Pr9  1  0.521672  0.582724  0.675863  1
  Pr  Pr10  1  0.478326  0.082724  0.824136  1
  Pr  Pr11  1  0.256284  0.591985  0.978491  1
  Be  Be12  1  0.260184  0.192017  0.096711  1
  Be  Be13  1  0.739815  0.692017  0.403288  1
  Be  Be14  1  0.260185  0.307983  0.596711  1
  Be  Be15  1  0.739816  0.807983  0.903289  1
  O  O16  1  0.278320  0.981839  0.010505  1
  O  O17  1  0.069679  0.306813  0.062298  1
  O  O18  1  0.440089  0.319108  0.065142  1
  O  O19  1  0.283718  0.665737  0.216895  1
  O  O20  1  0.721508  0.630704  0.232241  1
  O  O21  1  0.278491  0.130704  0.267759  1
  O  O22  1  0.716283  0.165737  0.283105  1
  O  O23  1  0.559912  0.819107  0.434858  1
  O  O24  1  0.930321  0.806813  0.437702  1
  O  O25  1  0.721681  0.481839  0.489495  1
  O  O26  1  0.278319  0.518160  0.510505  1
  O  O27  1  0.069680  0.193186  0.562298  1
  O  O28  1  0.440088  0.180892  0.565142  1
  O  O29  1  0.283717  0.834262  0.716895  1
  O  O30  1  0.721508  0.869295  0.732241  1
  O  O31  1  0.278492  0.369296  0.767759  1
  O  O32  1  0.716282  0.334263  0.783104  1
  O  O33  1  0.559911  0.680892  0.934858  1
  O  O34  1  0.930320  0.693186  0.937701  1
  O  O35  1  0.721680  0.018160  0.989495  1
