# generated using pymatgen
data_Y5Tm5AlSb5
_symmetry_space_group_name_H-M   'P 1'
_cell_length_a   6.33708700
_cell_length_b   8.89345110
_cell_length_c   8.88586866
_cell_angle_alpha   120.02822626
_cell_angle_beta   89.99998587
_cell_angle_gamma   90.00005217
_symmetry_Int_Tables_number   1
_chemical_formula_structural   Y5Tm5AlSb5
_chemical_formula_sum   'Y5 Tm5 Al1 Sb5'
_cell_volume   433.57767999
_cell_formula_units_Z   1
loop_
 _symmetry_equiv_pos_site_id
 _symmetry_equiv_pos_as_xyz
  1  'x, y, z'
loop_
 _atom_site_type_symbol
 _atom_site_label
 _atom_site_symmetry_multiplicity
 _atom_site_fract_x
 _atom_site_fract_y
 _atom_site_fract_z
 _atom_site_occupancy
  Y  Y0  1  0.749999  0.248247  0.000000  1
  Y  Y1  1  0.750003  0.752467  0.762349  1
  Y  Y2  1  0.750003  0.990118  0.237651  1
  Y  Y3  1  0.250000  0.245987  0.244608  1
  Y  Y4  1  0.250000  0.001379  0.755392  1
  Tm  Tm5  1  0.501270  0.338629  0.673166  1
  Tm  Tm6  1  0.501270  0.665463  0.326834  1
  Tm  Tm7  1  0.998729  0.665465  0.326837  1
  Tm  Tm8  1  0.998729  0.338628  0.673163  1
  Tm  Tm9  1  0.249998  0.756290  0.000000  1
  Al  Al10  1  0.750001  0.602870  0.000000  1
  Sb  Sb11  1  0.750000  0.389017  0.390979  1
  Sb  Sb12  1  0.750000  0.998036  0.609021  1
  Sb  Sb13  1  0.249996  0.394996  0.000000  1
  Sb  Sb14  1  0.250001  0.610608  0.608807  1
  Sb  Sb15  1  0.250001  0.001802  0.391193  1
