# generated using pymatgen
data_Sm3Y3NiBr10
_symmetry_space_group_name_H-M   'P 1'
_cell_length_a   7.36459147
_cell_length_b   9.27042669
_cell_length_c   9.32372933
_cell_angle_alpha   108.39248558
_cell_angle_beta   96.53158604
_cell_angle_gamma   105.71943643
_symmetry_Int_Tables_number   1
_chemical_formula_structural   Sm3Y3NiBr10
_chemical_formula_sum   'Sm3 Y3 Ni1 Br10'
_cell_volume   567.44993131
_cell_formula_units_Z   1
loop_
 _symmetry_equiv_pos_site_id
 _symmetry_equiv_pos_as_xyz
  1  'x, y, z'
loop_
 _atom_site_type_symbol
 _atom_site_label
 _atom_site_symmetry_multiplicity
 _atom_site_fract_x
 _atom_site_fract_y
 _atom_site_fract_z
 _atom_site_occupancy
  Sm  Sm0  1  0.875869  0.955571  0.246237  1
  Sm  Sm1  1  0.125141  0.044569  0.754306  1
  Sm  Sm2  1  0.027292  0.701541  0.905220  1
  Y  Y3  1  0.972207  0.294518  0.093427  1
  Y  Y4  1  0.643157  0.867918  0.825810  1
  Y  Y5  1  0.356748  0.134831  0.174953  1
  Ni  Ni6  1  0.000256  0.999498  0.000035  1
  Br  Br7  1  0.637277  0.546460  0.726158  1
  Br  Br8  1  0.353438  0.454079  0.271397  1
  Br  Br9  1  0.740595  0.914122  0.544940  1
  Br  Br10  1  0.260770  0.086204  0.454846  1
  Br  Br11  1  0.914141  0.626224  0.174942  1
  Br  Br12  1  0.085017  0.367924  0.828903  1
  Br  Br13  1  0.552142  0.178869  0.917525  1
  Br  Br14  1  0.451437  0.824423  0.084842  1
  Br  Br15  1  0.222489  0.741782  0.651194  1
  Br  Br16  1  0.782026  0.261467  0.345265  1
