# generated using pymatgen
data_LaYbTh2(Al3Ir)6
_symmetry_space_group_name_H-M   'P 1'
_cell_length_a   7.62968997
_cell_length_b   7.65122434
_cell_length_c   9.55078700
_cell_angle_alpha   90.00000000
_cell_angle_beta   90.00000000
_cell_angle_gamma   119.35818138
_symmetry_Int_Tables_number   1
_chemical_formula_structural   LaYbTh2(Al3Ir)6
_chemical_formula_sum   'La1 Yb1 Th2 Al18 Ir6'
_cell_volume   485.93725337
_cell_formula_units_Z   1
loop_
 _symmetry_equiv_pos_site_id
 _symmetry_equiv_pos_as_xyz
  1  'x, y, z'
loop_
 _atom_site_type_symbol
 _atom_site_label
 _atom_site_symmetry_multiplicity
 _atom_site_fract_x
 _atom_site_fract_y
 _atom_site_fract_z
 _atom_site_occupancy
  La  La0  1  0.996522  0.671614  0.250000  1
  Yb  Yb1  1  0.326998  0.005274  0.750000  1
  Th  Th2  1  0.002856  0.328201  0.750000  1
  Th  Th3  1  0.670110  0.994719  0.250000  1
  Al  Al4  1  0.134374  0.131742  0.250000  1
  Al  Al5  1  0.869052  0.869325  0.750000  1
  Al  Al6  1  0.006551  0.337102  0.075730  1
  Al  Al7  1  0.000480  0.670091  0.922073  1
  Al  Al8  1  0.000480  0.670091  0.577927  1
  Al  Al9  1  0.334411  0.004141  0.432122  1
  Al  Al10  1  0.006551  0.337102  0.424270  1
  Al  Al11  1  0.658118  0.994885  0.578880  1
  Al  Al12  1  0.658118  0.994885  0.921120  1
  Al  Al13  1  0.334411  0.004141  0.067878  1
  Al  Al14  1  0.336160  0.332376  0.552011  1
  Al  Al15  1  0.665093  0.663711  0.456601  1
  Al  Al16  1  0.665093  0.663711  0.043399  1
  Al  Al17  1  0.336160  0.332376  0.947989  1
  Al  Al18  1  0.342053  0.544366  0.250000  1
  Al  Al19  1  0.658300  0.451191  0.750000  1
  Al  Al20  1  0.544728  0.337404  0.250000  1
  Al  Al21  1  0.452233  0.659272  0.750000  1
  Ir  Ir22  1  0.673643  0.328177  0.999288  1
  Ir  Ir23  1  0.329341  0.671004  0.999851  1
  Ir  Ir24  1  0.329341  0.671004  0.500149  1
  Ir  Ir25  1  0.673643  0.328177  0.500712  1
  Ir  Ir26  1  0.997589  0.001957  0.999314  1
  Ir  Ir27  1  0.997589  0.001957  0.500686  1
