# generated using pymatgen
data_Gd2Br5
_symmetry_space_group_name_H-M   'P 1'
_cell_length_a   3.99342300
_cell_length_b   8.31571211
_cell_length_c   13.49666900
_cell_angle_alpha   86.86648428
_cell_angle_beta   90.00000000
_cell_angle_gamma   90.00000000
_symmetry_Int_Tables_number   1
_chemical_formula_structural   Gd2Br5
_chemical_formula_sum   'Gd4 Br10'
_cell_volume   447.52937103
_cell_formula_units_Z   2
loop_
 _symmetry_equiv_pos_site_id
 _symmetry_equiv_pos_as_xyz
  1  'x, y, z'
loop_
 _atom_site_type_symbol
 _atom_site_label
 _atom_site_symmetry_multiplicity
 _atom_site_fract_x
 _atom_site_fract_y
 _atom_site_fract_z
 _atom_site_occupancy
  Gd  Gd0  1  0.250000  0.909418  0.152121  1
  Gd  Gd1  1  0.750000  0.090582  0.847879  1
  Gd  Gd2  1  0.250000  0.422595  0.653815  1
  Gd  Gd3  1  0.750000  0.577405  0.346185  1
  Br  Br4  1  0.250000  0.358922  0.280988  1
  Br  Br5  1  0.750000  0.641078  0.719012  1
  Br  Br6  1  0.250000  0.858351  0.929408  1
  Br  Br7  1  0.750000  0.141649  0.070592  1
  Br  Br8  1  0.750000  0.313352  0.512966  1
  Br  Br9  1  0.250000  0.686648  0.487034  1
  Br  Br10  1  0.750000  0.937935  0.311243  1
  Br  Br11  1  0.250000  0.062065  0.688757  1
  Br  Br12  1  0.750000  0.656318  0.126211  1
  Br  Br13  1  0.250000  0.343682  0.873789  1
