# generated using pymatgen
data_U(Ti5Bi6)3
_symmetry_space_group_name_H-M   'P 1'
_cell_length_a   10.35728300
_cell_length_b   10.35728300
_cell_length_c   7.48621400
_cell_angle_alpha   90.00000000
_cell_angle_beta   90.00000000
_cell_angle_gamma   90.00000000
_symmetry_Int_Tables_number   1
_chemical_formula_structural   U(Ti5Bi6)3
_chemical_formula_sum   'U1 Ti15 Bi18'
_cell_volume   803.07096370
_cell_formula_units_Z   1
loop_
 _symmetry_equiv_pos_site_id
 _symmetry_equiv_pos_as_xyz
  1  'x, y, z'
loop_
 _atom_site_type_symbol
 _atom_site_label
 _atom_site_symmetry_multiplicity
 _atom_site_fract_x
 _atom_site_fract_y
 _atom_site_fract_z
 _atom_site_occupancy
  U  U0  1  0.250000  0.250000  0.077346  1
  Ti  Ti1  1  0.000499  0.000499  0.001409  1
  Ti  Ti2  1  0.499501  0.000499  0.001409  1
  Ti  Ti3  1  0.000499  0.499501  0.001409  1
  Ti  Ti4  1  0.499501  0.499501  0.001409  1
  Ti  Ti5  1  0.609627  0.250000  0.146510  1
  Ti  Ti6  1  0.890373  0.250000  0.146510  1
  Ti  Ti7  1  0.250000  0.609627  0.146510  1
  Ti  Ti8  1  0.250000  0.890373  0.146510  1
  Ti  Ti9  1  0.750000  0.750000  0.424790  1
  Ti  Ti10  1  0.250000  0.250000  0.568298  1
  Ti  Ti11  1  0.750000  0.108044  0.851464  1
  Ti  Ti12  1  0.750000  0.391956  0.851464  1
  Ti  Ti13  1  0.108044  0.750000  0.851464  1
  Ti  Ti14  1  0.391956  0.750000  0.851464  1
  Ti  Ti15  1  0.750000  0.750000  0.927223  1
  Bi  Bi16  1  0.750000  0.512742  0.192804  1
  Bi  Bi17  1  0.512742  0.750000  0.192804  1
  Bi  Bi18  1  0.987258  0.750000  0.192804  1
  Bi  Bi19  1  0.750000  0.987258  0.192804  1
  Bi  Bi20  1  0.079457  0.079457  0.354341  1
  Bi  Bi21  1  0.420543  0.079457  0.354341  1
  Bi  Bi22  1  0.079457  0.420543  0.354341  1
  Bi  Bi23  1  0.420543  0.420543  0.354341  1
  Bi  Bi24  1  0.750000  0.250000  0.494228  1
  Bi  Bi25  1  0.250000  0.750000  0.494228  1
  Bi  Bi26  1  0.585660  0.585660  0.655686  1
  Bi  Bi27  1  0.914340  0.585660  0.655686  1
  Bi  Bi28  1  0.585660  0.914340  0.655686  1
  Bi  Bi29  1  0.914340  0.914340  0.655686  1
  Bi  Bi30  1  0.250000  0.005873  0.801258  1
  Bi  Bi31  1  0.005873  0.250000  0.801258  1
  Bi  Bi32  1  0.494128  0.250000  0.801258  1
  Bi  Bi33  1  0.250000  0.494128  0.801258  1
