# generated using pymatgen
data_SrBr14
_symmetry_space_group_name_H-M   'P 1'
_cell_length_a   8.09612673
_cell_length_b   10.35686284
_cell_length_c   9.16645317
_cell_angle_alpha   106.47436643
_cell_angle_beta   108.16931895
_cell_angle_gamma   57.64173147
_symmetry_Int_Tables_number   1
_chemical_formula_structural   SrBr14
_chemical_formula_sum   'Sr1 Br14'
_cell_volume   610.33209576
_cell_formula_units_Z   1
loop_
 _symmetry_equiv_pos_site_id
 _symmetry_equiv_pos_as_xyz
  1  'x, y, z'
loop_
 _atom_site_type_symbol
 _atom_site_label
 _atom_site_symmetry_multiplicity
 _atom_site_fract_x
 _atom_site_fract_y
 _atom_site_fract_z
 _atom_site_occupancy
  Sr  Sr0  1  0.499914  0.500085  0.500011  1
  Br  Br1  1  0.740348  0.277137  0.056391  1
  Br  Br2  1  0.259718  0.722650  0.943770  1
  Br  Br3  1  0.722216  0.745911  0.289163  1
  Br  Br4  1  0.491639  0.060411  0.269074  1
  Br  Br5  1  0.056594  0.736996  0.297145  1
  Br  Br6  1  0.858840  0.260937  0.327527  1
  Br  Br7  1  0.389484  0.737719  0.284964  1
  Br  Br8  1  0.281786  0.335156  0.251242  1
  Br  Br9  1  0.718202  0.664914  0.748655  1
  Br  Br10  1  0.610647  0.262324  0.715026  1
  Br  Br11  1  0.141035  0.738809  0.672627  1
  Br  Br12  1  0.508337  0.939694  0.730846  1
  Br  Br13  1  0.943385  0.263085  0.702768  1
  Br  Br14  1  0.277855  0.254172  0.710790  1
