# generated using pymatgen
data_Hf3ScTi2(VSi2)4
_symmetry_space_group_name_H-M   'P 1'
_cell_length_a   6.67568435
_cell_length_b   6.68104795
_cell_length_c   12.33831000
_cell_angle_alpha   90.00000000
_cell_angle_beta   90.00000000
_cell_angle_gamma   89.95098262
_symmetry_Int_Tables_number   1
_chemical_formula_structural   Hf3ScTi2(VSi2)4
_chemical_formula_sum   'Hf6 Sc2 Ti4 V8 Si16'
_cell_volume   550.29542300
_cell_formula_units_Z   2
loop_
 _symmetry_equiv_pos_site_id
 _symmetry_equiv_pos_as_xyz
  1  'x, y, z'
loop_
 _atom_site_type_symbol
 _atom_site_label
 _atom_site_symmetry_multiplicity
 _atom_site_fract_x
 _atom_site_fract_y
 _atom_site_fract_z
 _atom_site_occupancy
  Hf  Hf0  1  0.003025  0.659953  0.029977  1
  Hf  Hf1  1  0.838577  0.502239  0.279734  1
  Hf  Hf2  1  0.161423  0.497761  0.779734  1
  Hf  Hf3  1  0.501962  0.838034  0.719535  1
  Hf  Hf4  1  0.498038  0.161966  0.219535  1
  Hf  Hf5  1  0.996975  0.340047  0.529977  1
  Sc  Sc6  1  0.662389  0.000606  0.970774  1
  Sc  Sc7  1  0.337611  0.999394  0.470774  1
  Ti  Ti8  1  0.331787  0.334397  0.000098  1
  Ti  Ti9  1  0.166524  0.833092  0.249811  1
  Ti  Ti10  1  0.833476  0.166908  0.749811  1
  Ti  Ti11  1  0.668213  0.665603  0.500098  1
  V  V12  1  0.004555  0.159863  0.127987  1
  V  V13  1  0.342183  0.504704  0.376706  1
  V  V14  1  0.657817  0.495296  0.876706  1
  V  V15  1  0.505342  0.342820  0.623169  1
  V  V16  1  0.494658  0.657180  0.123169  1
  V  V17  1  0.995445  0.840137  0.627987  1
  V  V18  1  0.157385  0.004525  0.872216  1
  V  V19  1  0.842615  0.995475  0.372216  1
  Si  Si20  1  0.293101  0.959158  0.061918  1
  Si  Si21  1  0.540642  0.793490  0.313169  1
  Si  Si22  1  0.459358  0.206510  0.813169  1
  Si  Si23  1  0.792727  0.541259  0.687369  1
  Si  Si24  1  0.207273  0.458741  0.187369  1
  Si  Si25  1  0.706899  0.040842  0.561918  1
  Si  Si26  1  0.957856  0.291425  0.937396  1
  Si  Si27  1  0.042144  0.708575  0.437396  1
  Si  Si28  1  0.706382  0.371554  0.072179  1
  Si  Si29  1  0.128900  0.206847  0.322699  1
  Si  Si30  1  0.871100  0.793153  0.822699  1
  Si  Si31  1  0.207110  0.127958  0.677914  1
  Si  Si32  1  0.792890  0.872042  0.177914  1
  Si  Si33  1  0.293618  0.628446  0.572179  1
  Si  Si34  1  0.372667  0.707345  0.927348  1
  Si  Si35  1  0.627333  0.292655  0.427348  1
