# generated using pymatgen
data_Tb5Y11(In3Ru)2
_symmetry_space_group_name_H-M   'P 1'
_cell_length_a   10.43344763
_cell_length_b   10.43344655
_cell_length_c   7.07952700
_cell_angle_alpha   89.98014256
_cell_angle_beta   90.01985744
_cell_angle_gamma   119.99542607
_symmetry_Int_Tables_number   1
_chemical_formula_structural   Tb5Y11(In3Ru)2
_chemical_formula_sum   'Tb5 Y11 In6 Ru2'
_cell_volume   667.43732470
_cell_formula_units_Z   1
loop_
 _symmetry_equiv_pos_site_id
 _symmetry_equiv_pos_as_xyz
  1  'x, y, z'
loop_
 _atom_site_type_symbol
 _atom_site_label
 _atom_site_symmetry_multiplicity
 _atom_site_fract_x
 _atom_site_fract_y
 _atom_site_fract_z
 _atom_site_occupancy
  Tb  Tb0  1  0.533777  0.067452  0.515082  1
  Tb  Tb1  1  0.932548  0.466223  0.515082  1
  Tb  Tb2  1  0.533784  0.466216  0.515628  1
  Tb  Tb3  1  0.466170  0.932200  0.015203  1
  Tb  Tb4  1  0.067800  0.533830  0.015203  1
  Y  Y5  1  0.466593  0.533407  0.016150  1
  Y  Y6  1  0.176637  0.353726  0.719821  1
  Y  Y7  1  0.646274  0.823363  0.719821  1
  Y  Y8  1  0.176694  0.823306  0.719969  1
  Y  Y9  1  0.823095  0.646273  0.219768  1
  Y  Y10  1  0.353727  0.176905  0.219768  1
  Y  Y11  1  0.823296  0.176704  0.219864  1
  Y  Y12  1  0.666668  0.333332  0.891904  1
  Y  Y13  1  0.333457  0.666543  0.392421  1
  Y  Y14  1  0.000097  0.999903  0.498715  1
  Y  Y15  1  0.999949  0.000051  0.998689  1
  In  In16  1  0.837346  0.674737  0.761333  1
  In  In17  1  0.325263  0.162654  0.761333  1
  In  In18  1  0.837248  0.162752  0.761507  1
  In  In19  1  0.162909  0.325603  0.261142  1
  In  In20  1  0.674397  0.837091  0.261142  1
  In  In21  1  0.162693  0.837307  0.261343  1
  Ru  Ru22  1  0.666676  0.333324  0.292059  1
  Ru  Ru23  1  0.332907  0.667093  0.791255  1
