# generated using pymatgen
data_Ba4Sr2Nd2V(GaO5)3
_symmetry_space_group_name_H-M   'P 1'
_cell_length_a   11.77403565
_cell_length_b   11.77403645
_cell_length_c   7.01831200
_cell_angle_alpha   89.78925546
_cell_angle_beta   89.78925544
_cell_angle_gamma   119.91265448
_symmetry_Int_Tables_number   1
_chemical_formula_structural   Ba4Sr2Nd2V(GaO5)3
_chemical_formula_sum   'Ba8 Sr4 Nd4 V2 Ga6 O30'
_cell_volume   843.30344960
_cell_formula_units_Z   2
loop_
 _symmetry_equiv_pos_site_id
 _symmetry_equiv_pos_as_xyz
  1  'x, y, z'
loop_
 _atom_site_type_symbol
 _atom_site_label
 _atom_site_symmetry_multiplicity
 _atom_site_fract_x
 _atom_site_fract_y
 _atom_site_fract_z
 _atom_site_occupancy
  Ba  Ba0  1  0.827208  0.172663  0.333012  1
  Ba  Ba1  1  0.831705  0.658101  0.327139  1
  Ba  Ba2  1  0.343998  0.169877  0.335385  1
  Ba  Ba3  1  0.172663  0.827208  0.833012  1
  Ba  Ba4  1  0.169877  0.343998  0.835385  1
  Ba  Ba5  1  0.658101  0.831705  0.827139  1
  Ba  Ba6  1  0.668583  0.333334  0.020655  1
  Ba  Ba7  1  0.333334  0.668583  0.520655  1
  Sr  Sr8  1  0.000351  0.000445  0.515706  1
  Sr  Sr9  1  0.000445  0.000351  0.015706  1
  Sr  Sr10  1  0.520578  0.041919  0.666803  1
  Sr  Sr11  1  0.041919  0.520578  0.166803  1
  Nd  Nd12  1  0.520593  0.479455  0.663071  1
  Nd  Nd13  1  0.958129  0.479024  0.667432  1
  Nd  Nd14  1  0.479455  0.520593  0.163071  1
  Nd  Nd15  1  0.479024  0.958129  0.167432  1
  V  V16  1  0.665710  0.333021  0.482636  1
  V  V17  1  0.333021  0.665710  0.982636  1
  Ga  Ga18  1  0.821860  0.174813  0.837632  1
  Ga  Ga19  1  0.822314  0.648405  0.833353  1
  Ga  Ga20  1  0.353499  0.177171  0.840871  1
  Ga  Ga21  1  0.174813  0.821860  0.337632  1
  Ga  Ga22  1  0.177171  0.353499  0.340871  1
  Ga  Ga23  1  0.648405  0.822314  0.333353  1
  O  O24  1  0.064068  0.673859  0.484274  1
  O  O25  1  0.331848  0.395721  0.471079  1
  O  O26  1  0.604083  0.932389  0.459109  1
  O  O27  1  0.066487  0.391502  0.483977  1
  O  O28  1  0.327524  0.935053  0.464177  1
  O  O29  1  0.604886  0.667882  0.467261  1
  O  O30  1  0.935053  0.327524  0.964177  1
  O  O31  1  0.667882  0.604886  0.967261  1
  O  O32  1  0.391502  0.066487  0.983977  1
  O  O33  1  0.932389  0.604083  0.959109  1
  O  O34  1  0.673859  0.064068  0.984274  1
  O  O35  1  0.395721  0.331848  0.971079  1
  O  O36  1  0.581332  0.418836  0.330300  1
  O  O37  1  0.583557  0.168197  0.326617  1
  O  O38  1  0.830113  0.416982  0.339454  1
  O  O39  1  0.418836  0.581332  0.830300  1
  O  O40  1  0.416982  0.830113  0.839454  1
  O  O41  1  0.168197  0.583557  0.826617  1
  O  O42  1  0.086414  0.902779  0.246130  1
  O  O43  1  0.093598  0.184735  0.249037  1
  O  O44  1  0.818994  0.904689  0.249461  1
  O  O45  1  0.902779  0.086414  0.746130  1
  O  O46  1  0.904689  0.818994  0.749461  1
  O  O47  1  0.184735  0.093598  0.749037  1
  O  O48  1  0.755446  0.251711  0.662160  1
  O  O49  1  0.748990  0.506709  0.656146  1
  O  O50  1  0.494722  0.254139  0.661319  1
  O  O51  1  0.251711  0.755446  0.162160  1
  O  O52  1  0.254139  0.494722  0.161319  1
  O  O53  1  0.506709  0.748990  0.156146  1
