# generated using pymatgen
data_Ho4Al4Ir2PdRh
_symmetry_space_group_name_H-M   'P 1'
_cell_length_a   4.28693900
_cell_length_b   6.84408367
_cell_length_c   7.88977455
_cell_angle_alpha   90.00452972
_cell_angle_beta   90.00000000
_cell_angle_gamma   90.00000000
_symmetry_Int_Tables_number   1
_chemical_formula_structural   Ho4Al4Ir2PdRh
_chemical_formula_sum   'Ho4 Al4 Ir2 Pd1 Rh1'
_cell_volume   231.48731964
_cell_formula_units_Z   1
loop_
 _symmetry_equiv_pos_site_id
 _symmetry_equiv_pos_as_xyz
  1  'x, y, z'
loop_
 _atom_site_type_symbol
 _atom_site_label
 _atom_site_symmetry_multiplicity
 _atom_site_fract_x
 _atom_site_fract_y
 _atom_site_fract_z
 _atom_site_occupancy
  Ho  Ho0  1  0.250000  0.026631  0.676984  1
  Ho  Ho1  1  0.250000  0.538167  0.818120  1
  Ho  Ho2  1  0.750000  0.968327  0.319909  1
  Ho  Ho3  1  0.750000  0.473248  0.183602  1
  Al  Al4  1  0.250000  0.138339  0.064066  1
  Al  Al5  1  0.250000  0.640564  0.437063  1
  Al  Al6  1  0.750000  0.854836  0.938116  1
  Al  Al7  1  0.750000  0.362047  0.559052  1
  Ir  Ir8  1  0.250000  0.766680  0.119521  1
  Ir  Ir9  1  0.750000  0.733747  0.620875  1
  Pd  Pd10  1  0.750000  0.230781  0.880863  1
  Rh  Rh11  1  0.250000  0.266634  0.381829  1
