# generated using pymatgen
data_Er16Sc4Ir11Rh
_symmetry_space_group_name_H-M   'P 1'
_cell_length_a   10.70025800
_cell_length_b   10.70025800
_cell_length_c   6.24316500
_cell_angle_alpha   90.00000000
_cell_angle_beta   90.00000000
_cell_angle_gamma   90.00000000
_symmetry_Int_Tables_number   1
_chemical_formula_structural   Er16Sc4Ir11Rh
_chemical_formula_sum   'Er16 Sc4 Ir11 Rh1'
_cell_volume   714.81443103
_cell_formula_units_Z   1
loop_
 _symmetry_equiv_pos_site_id
 _symmetry_equiv_pos_as_xyz
  1  'x, y, z'
loop_
 _atom_site_type_symbol
 _atom_site_label
 _atom_site_symmetry_multiplicity
 _atom_site_fract_x
 _atom_site_fract_y
 _atom_site_fract_z
 _atom_site_occupancy
  Er  Er0  1  0.288266  0.086321  0.377724  1
  Er  Er1  1  0.288113  0.913574  0.876431  1
  Er  Er2  1  0.711887  0.086426  0.876431  1
  Er  Er3  1  0.711734  0.913679  0.377724  1
  Er  Er4  1  0.586426  0.788113  0.876431  1
  Er  Er5  1  0.586321  0.211734  0.377724  1
  Er  Er6  1  0.413679  0.788266  0.377724  1
  Er  Er7  1  0.413574  0.211887  0.876431  1
  Er  Er8  1  0.211551  0.413684  0.623028  1
  Er  Er9  1  0.211514  0.586319  0.122978  1
  Er  Er10  1  0.788486  0.413681  0.122978  1
  Er  Er11  1  0.788449  0.586316  0.623028  1
  Er  Er12  1  0.913681  0.711514  0.122978  1
  Er  Er13  1  0.913684  0.288449  0.623028  1
  Er  Er14  1  0.086316  0.711551  0.623028  1
  Er  Er15  1  0.086319  0.288486  0.122978  1
  Sc  Sc16  1  0.000000  0.000000  0.500006  1
  Sc  Sc17  1  0.000000  0.000000  0.000137  1
  Sc  Sc18  1  0.500000  0.500000  0.000137  1
  Sc  Sc19  1  0.500000  0.500000  0.500006  1
  Ir  Ir20  1  0.851292  0.148180  0.249801  1
  Ir  Ir21  1  0.851424  0.851661  0.749923  1
  Ir  Ir22  1  0.148576  0.148339  0.749923  1
  Ir  Ir23  1  0.148708  0.851820  0.249801  1
  Ir  Ir24  1  0.648339  0.351424  0.749923  1
  Ir  Ir25  1  0.648180  0.648708  0.249801  1
  Ir  Ir26  1  0.351820  0.351292  0.249801  1
  Ir  Ir27  1  0.351661  0.648576  0.749923  1
  Ir  Ir28  1  0.500000  0.000000  0.622612  1
  Ir  Ir29  1  0.000000  0.500000  0.877745  1
  Ir  Ir30  1  0.000000  0.500000  0.377611  1
  Rh  Rh31  1  0.500000  0.000000  0.122207  1
