# generated using pymatgen
data_Hf8Ta12Si15P
_symmetry_space_group_name_H-M   'P 1'
_cell_length_a   6.65416523
_cell_length_b   6.81950793
_cell_length_c   13.04538700
_cell_angle_alpha   90.00000000
_cell_angle_beta   90.00000000
_cell_angle_gamma   90.18280058
_symmetry_Int_Tables_number   1
_chemical_formula_structural   Hf8Ta12Si15P
_chemical_formula_sum   'Hf8 Ta12 Si15 P1'
_cell_volume   591.97228751
_cell_formula_units_Z   1
loop_
 _symmetry_equiv_pos_site_id
 _symmetry_equiv_pos_as_xyz
  1  'x, y, z'
loop_
 _atom_site_type_symbol
 _atom_site_label
 _atom_site_symmetry_multiplicity
 _atom_site_fract_x
 _atom_site_fract_y
 _atom_site_fract_z
 _atom_site_occupancy
  Hf  Hf0  1  0.495148  0.672083  0.593162  1
  Hf  Hf1  1  0.994614  0.827829  0.906544  1
  Hf  Hf2  1  0.506700  0.329125  0.094023  1
  Hf  Hf3  1  0.005331  0.171974  0.406851  1
  Hf  Hf4  1  0.506700  0.329125  0.405977  1
  Hf  Hf5  1  0.005331  0.171974  0.093149  1
  Hf  Hf6  1  0.495148  0.672083  0.906838  1
  Hf  Hf7  1  0.994614  0.827829  0.593456  1
  Ta  Ta8  1  0.663310  0.170428  0.623641  1
  Ta  Ta9  1  0.163012  0.329708  0.876502  1
  Ta  Ta10  1  0.336747  0.829855  0.123642  1
  Ta  Ta11  1  0.835332  0.667338  0.375448  1
  Ta  Ta12  1  0.336747  0.829855  0.376358  1
  Ta  Ta13  1  0.835332  0.667338  0.124552  1
  Ta  Ta14  1  0.663310  0.170428  0.876359  1
  Ta  Ta15  1  0.163012  0.329708  0.623498  1
  Ta  Ta16  1  0.837281  0.497231  0.750000  1
  Ta  Ta17  1  0.336965  0.002971  0.750000  1
  Ta  Ta18  1  0.160369  0.499756  0.250000  1
  Ta  Ta19  1  0.664719  0.003195  0.250000  1
  Si  Si20  1  0.672839  0.963320  0.460650  1
  Si  Si21  1  0.172426  0.536250  0.039056  1
  Si  Si22  1  0.327615  0.036492  0.961238  1
  Si  Si23  1  0.827673  0.463749  0.538995  1
  Si  Si24  1  0.327615  0.036492  0.538762  1
  Si  Si25  1  0.827673  0.463749  0.961005  1
  Si  Si26  1  0.672839  0.963320  0.039350  1
  Si  Si27  1  0.172426  0.536250  0.460944  1
  Si  Si28  1  0.461779  0.387860  0.750000  1
  Si  Si29  1  0.962175  0.111790  0.750000  1
  Si  Si30  1  0.534735  0.615002  0.250000  1
  Si  Si31  1  0.038093  0.887858  0.250000  1
  Si  Si32  1  0.702233  0.860185  0.750000  1
  Si  Si33  1  0.202769  0.639496  0.750000  1
  Si  Si34  1  0.296880  0.138820  0.250000  1
  P  P35  1  0.800506  0.359527  0.250000  1
