# generated using pymatgen
data_Tm6MoO12
_symmetry_space_group_name_H-M   'P 1'
_cell_length_a   6.38642262
_cell_length_b   6.38642332
_cell_length_c   6.38642286
_cell_angle_alpha   98.72728304
_cell_angle_beta   98.72728313
_cell_angle_gamma   98.72729012
_symmetry_Int_Tables_number   1
_chemical_formula_structural   Tm6MoO12
_chemical_formula_sum   'Tm6 Mo1 O12'
_cell_volume   250.37811028
_cell_formula_units_Z   1
loop_
 _symmetry_equiv_pos_site_id
 _symmetry_equiv_pos_as_xyz
  1  'x, y, z'
loop_
 _atom_site_type_symbol
 _atom_site_label
 _atom_site_symmetry_multiplicity
 _atom_site_fract_x
 _atom_site_fract_y
 _atom_site_fract_z
 _atom_site_occupancy
  Tm  Tm0  1  0.682363  0.856061  0.389582  1
  Tm  Tm1  1  0.389582  0.682363  0.856061  1
  Tm  Tm2  1  0.856061  0.389582  0.682363  1
  Tm  Tm3  1  0.317637  0.143939  0.610418  1
  Tm  Tm4  1  0.610418  0.317637  0.143939  1
  Tm  Tm5  1  0.143939  0.610418  0.317637  1
  Mo  Mo6  1  0.000000  0.000000  0.000000  1
  O  O7  1  0.430050  0.589809  0.177352  1
  O  O8  1  0.177352  0.430050  0.589809  1
  O  O9  1  0.589809  0.177352  0.430050  1
  O  O10  1  0.569950  0.410191  0.822648  1
  O  O11  1  0.822648  0.569950  0.410191  1
  O  O12  1  0.410191  0.822648  0.569950  1
  O  O13  1  0.921243  0.037429  0.700366  1
  O  O14  1  0.962571  0.299634  0.078757  1
  O  O15  1  0.299634  0.078757  0.962571  1
  O  O16  1  0.078757  0.962571  0.299634  1
  O  O17  1  0.037429  0.700366  0.921243  1
  O  O18  1  0.700366  0.921243  0.037429  1
