# generated using pymatgen
data_LiPRh
_symmetry_space_group_name_H-M   'P 1'
_cell_length_a   3.86059800
_cell_length_b   6.53876600
_cell_length_c   6.73689600
_cell_angle_alpha   90.00000000
_cell_angle_beta   90.00000000
_cell_angle_gamma   90.00000000
_symmetry_Int_Tables_number   1
_chemical_formula_structural   LiPRh
_chemical_formula_sum   'Li4 P4 Rh4'
_cell_volume   170.06315042
_cell_formula_units_Z   4
loop_
 _symmetry_equiv_pos_site_id
 _symmetry_equiv_pos_as_xyz
  1  'x, y, z'
loop_
 _atom_site_type_symbol
 _atom_site_label
 _atom_site_symmetry_multiplicity
 _atom_site_fract_x
 _atom_site_fract_y
 _atom_site_fract_z
 _atom_site_occupancy
  Li  Li0  1  0.250000  0.021391  0.837239  1
  Li  Li1  1  0.250000  0.521391  0.662761  1
  Li  Li2  1  0.750000  0.978609  0.162761  1
  Li  Li3  1  0.750000  0.478609  0.337239  1
  P  P4  1  0.250000  0.786956  0.373202  1
  P  P5  1  0.250000  0.286956  0.126798  1
  P  P6  1  0.750000  0.213044  0.626798  1
  P  P7  1  0.750000  0.713044  0.873202  1
  Rh  Rh8  1  0.250000  0.144941  0.443288  1
  Rh  Rh9  1  0.250000  0.644941  0.056712  1
  Rh  Rh10  1  0.750000  0.855059  0.556712  1
  Rh  Rh11  1  0.750000  0.355059  0.943288  1
