# generated using pymatgen
data_Sr(S8Br)3
_symmetry_space_group_name_H-M   'P 1'
_cell_length_a   4.69338885
_cell_length_b   14.73709700
_cell_length_c   15.39359787
_cell_angle_alpha   120.46081213
_cell_angle_beta   94.56477250
_cell_angle_gamma   96.83181462
_symmetry_Int_Tables_number   1
_chemical_formula_structural   Sr(S8Br)3
_chemical_formula_sum   'Sr1 S24 Br3'
_cell_volume   898.99842503
_cell_formula_units_Z   1
loop_
 _symmetry_equiv_pos_site_id
 _symmetry_equiv_pos_as_xyz
  1  'x, y, z'
loop_
 _atom_site_type_symbol
 _atom_site_label
 _atom_site_symmetry_multiplicity
 _atom_site_fract_x
 _atom_site_fract_y
 _atom_site_fract_z
 _atom_site_occupancy
  Sr  Sr0  1  0.569859  0.999733  0.036296  1
  S  S1  1  0.363474  0.401285  0.993828  1
  S  S2  1  0.562804  0.735443  0.004976  1
  S  S3  1  0.263536  0.523783  0.125912  1
  S  S4  1  0.397127  0.757254  0.134023  1
  S  S5  1  0.566839  0.661302  0.177930  1
  S  S6  1  0.641601  0.376329  0.251122  1
  S  S7  1  0.826493  0.264915  0.269572  1
  S  S8  1  0.899774  0.525435  0.344240  1
  S  S9  1  0.130544  0.866384  0.393637  1
  S  S10  1  0.639294  0.242592  0.376689  1
  S  S11  1  0.373938  0.000380  0.408002  1
  S  S12  1  0.373739  0.810379  0.467771  1
  S  S13  1  0.730222  0.607449  0.477306  1
  S  S14  1  0.263122  0.133711  0.527137  1
  S  S15  1  0.905874  0.338385  0.516072  1
  S  S16  1  0.961279  0.598526  0.591604  1
  S  S17  1  0.263366  0.865389  0.611215  1
  S  S18  1  0.740026  0.475513  0.601493  1
  S  S19  1  0.562093  0.190109  0.657261  1
  S  S20  1  0.562646  0.999988  0.716760  1
  S  S21  1  0.397363  0.134430  0.745581  1
  S  S22  1  0.376625  0.475025  0.819752  1
  S  S23  1  0.267114  0.623912  0.875191  1
  S  S24  1  0.124412  0.392231  0.870450  1
  Br  Br25  1  0.102337  0.116390  0.981088  1
  Br  Br26  1  0.103429  0.999986  0.160039  1
  Br  Br27  1  0.983986  0.883742  0.865054  1
