# generated using pymatgen
data_Ta16Cu5Ni3N4
_symmetry_space_group_name_H-M   'P 1'
_cell_length_a   8.25995517
_cell_length_b   8.25978118
_cell_length_c   8.25978100
_cell_angle_alpha   59.99999672
_cell_angle_beta   60.00069351
_cell_angle_gamma   60.00069694
_symmetry_Int_Tables_number   1
_chemical_formula_structural   Ta16Cu5Ni3N4
_chemical_formula_sum   'Ta16 Cu5 Ni3 N4'
_cell_volume   398.47797341
_cell_formula_units_Z   1
loop_
 _symmetry_equiv_pos_site_id
 _symmetry_equiv_pos_as_xyz
  1  'x, y, z'
loop_
 _atom_site_type_symbol
 _atom_site_label
 _atom_site_symmetry_multiplicity
 _atom_site_fract_x
 _atom_site_fract_y
 _atom_site_fract_z
 _atom_site_occupancy
  Ta  Ta0  1  0.117528  0.627491  0.627491  1
  Ta  Ta1  1  0.631600  0.120122  0.624139  1
  Ta  Ta2  1  0.631600  0.624139  0.120122  1
  Ta  Ta3  1  0.631600  0.624139  0.624139  1
  Ta  Ta4  1  0.816017  0.815341  0.184321  1
  Ta  Ta5  1  0.182856  0.186833  0.815155  1
  Ta  Ta6  1  0.816017  0.184321  0.815341  1
  Ta  Ta7  1  0.182856  0.815155  0.186833  1
  Ta  Ta8  1  0.182856  0.815155  0.815155  1
  Ta  Ta9  1  0.816017  0.184321  0.184321  1
  Ta  Ta10  1  0.435494  0.436268  0.064119  1
  Ta  Ta11  1  0.066213  0.064665  0.434561  1
  Ta  Ta12  1  0.435494  0.064119  0.436268  1
  Ta  Ta13  1  0.066213  0.434561  0.064665  1
  Ta  Ta14  1  0.066213  0.434561  0.434561  1
  Ta  Ta15  1  0.435494  0.064119  0.064119  1
  Cu  Cu16  1  0.751450  0.416183  0.416183  1
  Cu  Cu17  1  0.416657  0.750508  0.416417  1
  Cu  Cu18  1  0.416657  0.416417  0.750508  1
  Cu  Cu19  1  0.416657  0.416417  0.416417  1
  Cu  Cu20  1  0.498107  0.833964  0.833964  1
  Ni  Ni21  1  0.828917  0.509877  0.830603  1
  Ni  Ni22  1  0.828917  0.830603  0.509877  1
  Ni  Ni23  1  0.828917  0.830603  0.830603  1
  N  N24  1  0.623165  0.125612  0.125612  1
  N  N25  1  0.125495  0.623764  0.125371  1
  N  N26  1  0.125495  0.125371  0.623764  1
  N  N27  1  0.125495  0.125371  0.125371  1
