# generated using pymatgen
data_Ho5As12Ru10Rh9
_symmetry_space_group_name_H-M   'P 1'
_cell_length_a   13.06616502
_cell_length_b   13.03014594
_cell_length_c   4.01139000
_cell_angle_alpha   90.00000000
_cell_angle_beta   90.00000000
_cell_angle_gamma   119.85305982
_symmetry_Int_Tables_number   1
_chemical_formula_structural   Ho5As12Ru10Rh9
_chemical_formula_sum   'Ho5 As12 Ru10 Rh9'
_cell_volume   592.33048001
_cell_formula_units_Z   1
loop_
 _symmetry_equiv_pos_site_id
 _symmetry_equiv_pos_as_xyz
  1  'x, y, z'
loop_
 _atom_site_type_symbol
 _atom_site_label
 _atom_site_symmetry_multiplicity
 _atom_site_fract_x
 _atom_site_fract_y
 _atom_site_fract_z
 _atom_site_occupancy
  Ho  Ho0  1  0.666747  0.332180  0.000000  1
  Ho  Ho1  1  0.333664  0.667047  0.000000  1
  Ho  Ho2  1  0.811875  0.001098  0.500000  1
  Ho  Ho3  1  0.185619  0.187906  0.500000  1
  Ho  Ho4  1  0.000189  0.812983  0.500000  1
  As  As5  1  0.632448  0.998151  0.000000  1
  As  As6  1  0.365874  0.369859  0.000000  1
  As  As7  1  0.004401  0.634002  0.000000  1
  As  As8  1  0.684956  0.518161  0.500000  1
  As  As9  1  0.831833  0.311473  0.500000  1
  As  As10  1  0.316883  0.833214  0.500000  1
  As  As11  1  0.516743  0.683442  0.500000  1
  As  As12  1  0.178846  0.001317  0.000000  1
  As  As13  1  0.821247  0.821077  0.000000  1
  As  As14  1  0.996486  0.178607  0.000000  1
  As  As15  1  0.480620  0.164746  0.500000  1
  As  As16  1  0.167493  0.484146  0.500000  1
  Ru  Ru17  1  0.126458  0.643135  0.500000  1
  Ru  Ru18  1  0.358292  0.484378  0.500000  1
  Ru  Ru19  1  0.515344  0.872562  0.500000  1
  Ru  Ru20  1  0.717439  0.716296  0.500000  1
  Ru  Ru21  1  0.001107  0.284658  0.500000  1
  Ru  Ru22  1  0.447972  0.002841  0.000000  1
  Ru  Ru23  1  0.555883  0.550679  0.000000  1
  Ru  Ru24  1  0.999829  0.446119  0.000000  1
  Ru  Ru25  1  0.817570  0.195128  0.000000  1
  Ru  Ru26  1  0.283048  0.000936  0.500000  1
  Rh  Rh27  1  0.624675  0.803737  0.000000  1
  Rh  Rh28  1  0.180129  0.374933  0.000000  1
  Rh  Rh29  1  0.374622  0.183158  0.000000  1
  Rh  Rh30  1  0.195862  0.821545  0.000000  1
  Rh  Rh31  1  0.808389  0.624671  0.000000  1
  Rh  Rh32  1  0.871827  0.511318  0.500000  1
  Rh  Rh33  1  0.487045  0.358188  0.500000  1
  Rh  Rh34  1  0.638956  0.126080  0.500000  1
  Rh  Rh35  1  0.999628  0.000229  0.000000  1
