# generated using pymatgen
data_Pa5ClO12
_symmetry_space_group_name_H-M   'P 1'
_cell_length_a   4.21412100
_cell_length_b   7.24904200
_cell_length_c   19.97638400
_cell_angle_alpha   90.00000000
_cell_angle_beta   90.00000000
_cell_angle_gamma   90.00000000
_symmetry_Int_Tables_number   1
_chemical_formula_structural   Pa5ClO12
_chemical_formula_sum   'Pa10 Cl2 O24'
_cell_volume   610.24537284
_cell_formula_units_Z   2
loop_
 _symmetry_equiv_pos_site_id
 _symmetry_equiv_pos_as_xyz
  1  'x, y, z'
loop_
 _atom_site_type_symbol
 _atom_site_label
 _atom_site_symmetry_multiplicity
 _atom_site_fract_x
 _atom_site_fract_y
 _atom_site_fract_z
 _atom_site_occupancy
  Pa  Pa0  1  0.000000  0.211610  0.854428  1
  Pa  Pa1  1  0.000000  0.788390  0.145572  1
  Pa  Pa2  1  0.000000  0.211610  0.645572  1
  Pa  Pa3  1  0.000000  0.788390  0.354428  1
  Pa  Pa4  1  0.000000  0.331340  0.430662  1
  Pa  Pa5  1  0.000000  0.668660  0.569338  1
  Pa  Pa6  1  0.000000  0.331340  0.069338  1
  Pa  Pa7  1  0.000000  0.668660  0.930662  1
  Pa  Pa8  1  0.000000  0.243902  0.250000  1
  Pa  Pa9  1  0.000000  0.756098  0.750000  1
  Cl  Cl10  1  0.000000  0.000000  0.500000  1
  Cl  Cl11  1  0.000000  0.000000  0.000000  1
  O  O12  1  0.000000  0.627011  0.048679  1
  O  O13  1  0.000000  0.372989  0.951321  1
  O  O14  1  0.000000  0.627011  0.451321  1
  O  O15  1  0.000000  0.372989  0.548679  1
  O  O16  1  0.000000  0.108004  0.147573  1
  O  O17  1  0.000000  0.891996  0.852427  1
  O  O18  1  0.000000  0.108004  0.352427  1
  O  O19  1  0.000000  0.891996  0.647573  1
  O  O20  1  0.500000  0.210057  0.856847  1
  O  O21  1  0.500000  0.789943  0.143153  1
  O  O22  1  0.500000  0.210057  0.643153  1
  O  O23  1  0.500000  0.789943  0.356847  1
  O  O24  1  0.500000  0.238110  0.250000  1
  O  O25  1  0.500000  0.761890  0.750000  1
  O  O26  1  0.000000  0.867889  0.250000  1
  O  O27  1  0.000000  0.132111  0.750000  1
  O  O28  1  0.500000  0.323909  0.432277  1
  O  O29  1  0.500000  0.676091  0.567723  1
  O  O30  1  0.500000  0.323909  0.067723  1
  O  O31  1  0.500000  0.676091  0.932277  1
  O  O32  1  0.000000  0.477414  0.171428  1
  O  O33  1  0.000000  0.522586  0.828572  1
  O  O34  1  0.000000  0.477414  0.328572  1
  O  O35  1  0.000000  0.522586  0.671428  1
