# generated using pymatgen
data_Ti3Fe4P4Rh
_symmetry_space_group_name_H-M   'P 1'
_cell_length_a   3.61223000
_cell_length_b   6.00237532
_cell_length_c   6.72298808
_cell_angle_alpha   89.53608878
_cell_angle_beta   90.00000000
_cell_angle_gamma   90.00000000
_symmetry_Int_Tables_number   1
_chemical_formula_structural   Ti3Fe4P4Rh
_chemical_formula_sum   'Ti3 Fe4 P4 Rh1'
_cell_volume   145.76278178
_cell_formula_units_Z   1
loop_
 _symmetry_equiv_pos_site_id
 _symmetry_equiv_pos_as_xyz
  1  'x, y, z'
loop_
 _atom_site_type_symbol
 _atom_site_label
 _atom_site_symmetry_multiplicity
 _atom_site_fract_x
 _atom_site_fract_y
 _atom_site_fract_z
 _atom_site_occupancy
  Ti  Ti0  1  0.250000  0.517950  0.678325  1
  Ti  Ti1  1  0.750000  0.977855  0.174394  1
  Ti  Ti2  1  0.750000  0.480333  0.321852  1
  Fe  Fe3  1  0.250000  0.141368  0.435915  1
  Fe  Fe4  1  0.250000  0.645831  0.059480  1
  Fe  Fe5  1  0.750000  0.858268  0.564324  1
  Fe  Fe6  1  0.750000  0.351069  0.938211  1
  P  P7  1  0.250000  0.772477  0.379686  1
  P  P8  1  0.250000  0.277183  0.120181  1
  P  P9  1  0.750000  0.224750  0.620351  1
  P  P10  1  0.750000  0.720435  0.876748  1
  Rh  Rh11  1  0.250000  0.032481  0.830532  1
