# generated using pymatgen
data_Ac12Os3Au
_symmetry_space_group_name_H-M   'P 1'
_cell_length_a   6.95556502
_cell_length_b   7.86989714
_cell_length_c   10.65774300
_cell_angle_alpha   90.00000000
_cell_angle_beta   90.00000000
_cell_angle_gamma   90.14028979
_symmetry_Int_Tables_number   1
_chemical_formula_structural   Ac12Os3Au
_chemical_formula_sum   'Ac12 Os3 Au1'
_cell_volume   583.39864047
_cell_formula_units_Z   1
loop_
 _symmetry_equiv_pos_site_id
 _symmetry_equiv_pos_as_xyz
  1  'x, y, z'
loop_
 _atom_site_type_symbol
 _atom_site_label
 _atom_site_symmetry_multiplicity
 _atom_site_fract_x
 _atom_site_fract_y
 _atom_site_fract_z
 _atom_site_occupancy
  Ac  Ac0  1  0.340358  0.663372  0.064983  1
  Ac  Ac1  1  0.174228  0.184762  0.436798  1
  Ac  Ac2  1  0.679065  0.326681  0.574453  1
  Ac  Ac3  1  0.821005  0.829726  0.923711  1
  Ac  Ac4  1  0.679065  0.326681  0.925547  1
  Ac  Ac5  1  0.821005  0.829726  0.576289  1
  Ac  Ac6  1  0.340358  0.663372  0.435017  1
  Ac  Ac7  1  0.174228  0.184762  0.063202  1
  Ac  Ac8  1  0.836700  0.528276  0.250000  1
  Ac  Ac9  1  0.635897  0.054475  0.250000  1
  Ac  Ac10  1  0.160945  0.454503  0.750000  1
  Ac  Ac11  1  0.337989  0.952533  0.750000  1
  Os  Os12  1  0.432380  0.382482  0.250000  1
  Os  Os13  1  0.945555  0.118036  0.750000  1
  Os  Os14  1  0.556041  0.618707  0.750000  1
  Au  Au15  1  0.065178  0.881905  0.250000  1
