# generated using pymatgen
data_Ca8Yb5Ho7Pt16
_symmetry_space_group_name_H-M   'P 1'
_cell_length_a   7.53549303
_cell_length_b   7.64497188
_cell_length_c   14.56053100
_cell_angle_alpha   90.02163683
_cell_angle_beta   89.99493610
_cell_angle_gamma   90.03384739
_symmetry_Int_Tables_number   1
_chemical_formula_structural   Ca8Yb5Ho7Pt16
_chemical_formula_sum   'Ca8 Yb5 Ho7 Pt16'
_cell_volume   838.81206709
_cell_formula_units_Z   1
loop_
 _symmetry_equiv_pos_site_id
 _symmetry_equiv_pos_as_xyz
  1  'x, y, z'
loop_
 _atom_site_type_symbol
 _atom_site_label
 _atom_site_symmetry_multiplicity
 _atom_site_fract_x
 _atom_site_fract_y
 _atom_site_fract_z
 _atom_site_occupancy
  Ca  Ca0  1  0.498840  0.324287  0.904233  1
  Ca  Ca1  1  0.996526  0.176683  0.596764  1
  Ca  Ca2  1  0.502627  0.677328  0.404271  1
  Ca  Ca3  1  0.002169  0.822033  0.093935  1
  Ca  Ca4  1  0.502509  0.677043  0.095000  1
  Ca  Ca5  1  0.002619  0.822686  0.404489  1
  Ca  Ca6  1  0.497641  0.322754  0.597042  1
  Ca  Ca7  1  0.997220  0.178620  0.903994  1
  Yb  Yb8  1  0.837836  0.665611  0.878308  1
  Yb  Yb9  1  0.176495  0.488402  0.751045  1
  Yb  Yb10  1  0.680323  0.010756  0.750877  1
  Yb  Yb11  1  0.821439  0.512916  0.249579  1
  Yb  Yb12  1  0.320722  0.986476  0.249664  1
  Ho  Ho13  1  0.337765  0.835410  0.877315  1
  Ho  Ho14  1  0.837637  0.664871  0.622472  1
  Ho  Ho15  1  0.661285  0.165298  0.377471  1
  Ho  Ho16  1  0.161657  0.333941  0.122801  1
  Ho  Ho17  1  0.662920  0.165755  0.122323  1
  Ho  Ho18  1  0.162069  0.334092  0.377684  1
  Ho  Ho19  1  0.338132  0.833731  0.622736  1
  Pt  Pt20  1  0.327711  0.038852  0.043020  1
  Pt  Pt21  1  0.829856  0.460469  0.456983  1
  Pt  Pt22  1  0.669849  0.960196  0.542766  1
  Pt  Pt23  1  0.174013  0.538485  0.958673  1
  Pt  Pt24  1  0.667863  0.967509  0.957466  1
  Pt  Pt25  1  0.169439  0.538782  0.542600  1
  Pt  Pt26  1  0.330285  0.038867  0.456960  1
  Pt  Pt27  1  0.833182  0.458937  0.043903  1
  Pt  Pt28  1  0.539643  0.629274  0.749099  1
  Pt  Pt29  1  0.044389  0.871651  0.746775  1
  Pt  Pt30  1  0.458533  0.370989  0.250072  1
  Pt  Pt31  1  0.958484  0.127945  0.250863  1
  Pt  Pt32  1  0.304619  0.128662  0.751008  1
  Pt  Pt33  1  0.799762  0.371434  0.747982  1
  Pt  Pt34  1  0.697019  0.872448  0.249872  1
  Pt  Pt35  1  0.196919  0.626808  0.249955  1
