# generated using pymatgen
data_Ca9Lu(Si3H)2
_symmetry_space_group_name_H-M   'P 1'
_cell_length_a   9.00301959
_cell_length_b   9.00301906
_cell_length_c   9.00301917
_cell_angle_alpha   130.08036266
_cell_angle_beta   130.08035820
_cell_angle_gamma   73.27832385
_symmetry_Int_Tables_number   1
_chemical_formula_structural   Ca9Lu(Si3H)2
_chemical_formula_sum   'Ca9 Lu1 Si6 H2'
_cell_volume   417.07080744
_cell_formula_units_Z   1
loop_
 _symmetry_equiv_pos_site_id
 _symmetry_equiv_pos_as_xyz
  1  'x, y, z'
loop_
 _atom_site_type_symbol
 _atom_site_label
 _atom_site_symmetry_multiplicity
 _atom_site_fract_x
 _atom_site_fract_y
 _atom_site_fract_z
 _atom_site_occupancy
  Ca  Ca0  1  0.000000  0.000000  0.000000  1
  Ca  Ca1  1  0.519188  0.018203  0.836501  1
  Ca  Ca2  1  0.181702  0.682686  0.163499  1
  Ca  Ca3  1  0.018203  0.181702  0.499016  1
  Ca  Ca4  1  0.682686  0.519188  0.500984  1
  Ca  Ca5  1  0.480812  0.981797  0.163499  1
  Ca  Ca6  1  0.818298  0.317314  0.836501  1
  Ca  Ca7  1  0.981797  0.818298  0.500984  1
  Ca  Ca8  1  0.317314  0.480812  0.499016  1
  Lu  Lu9  1  0.500000  0.500000  0.000000  1
  Si  Si10  1  0.254487  0.254487  0.000000  1
  Si  Si11  1  0.745513  0.745513  0.000000  1
  Si  Si12  1  0.877271  0.392985  0.270255  1
  Si  Si13  1  0.122729  0.607015  0.729745  1
  Si  Si14  1  0.392985  0.122729  0.515714  1
  Si  Si15  1  0.607015  0.877271  0.484286  1
  H  H16  1  0.250000  0.750000  0.500000  1
  H  H17  1  0.750000  0.250000  0.500000  1
