# generated using pymatgen
data_Zr6Ti3Al12CuPt7
_symmetry_space_group_name_H-M   'P 1'
_cell_length_a   8.81703523
_cell_length_b   8.81703612
_cell_length_c   8.82325612
_cell_angle_alpha   60.02332544
_cell_angle_beta   60.02332140
_cell_angle_gamma   59.99999859
_symmetry_Int_Tables_number   1
_chemical_formula_structural   Zr6Ti3Al12CuPt7
_chemical_formula_sum   'Zr6 Ti3 Al12 Cu1 Pt7'
_cell_volume   485.19028140
_cell_formula_units_Z   1
loop_
 _symmetry_equiv_pos_site_id
 _symmetry_equiv_pos_as_xyz
  1  'x, y, z'
loop_
 _atom_site_type_symbol
 _atom_site_label
 _atom_site_symmetry_multiplicity
 _atom_site_fract_x
 _atom_site_fract_y
 _atom_site_fract_z
 _atom_site_occupancy
  Zr  Zr0  1  0.689012  0.689012  0.314406  1
  Zr  Zr1  1  0.307571  0.689012  0.314406  1
  Zr  Zr2  1  0.689012  0.307571  0.314406  1
  Zr  Zr3  1  0.312428  0.312428  0.689009  1
  Zr  Zr4  1  0.686133  0.312428  0.689009  1
  Zr  Zr5  1  0.312428  0.686133  0.689009  1
  Ti  Ti6  1  0.879032  0.360731  0.881203  1
  Ti  Ti7  1  0.360731  0.879032  0.881203  1
  Ti  Ti8  1  0.879032  0.879032  0.881203  1
  Al  Al9  1  0.121532  0.121532  0.635404  1
  Al  Al10  1  0.113791  0.646028  0.126392  1
  Al  Al11  1  0.646028  0.113791  0.126392  1
  Al  Al12  1  0.113791  0.113791  0.126392  1
  Al  Al13  1  0.661679  0.661679  0.014966  1
  Al  Al14  1  0.670918  0.001098  0.657068  1
  Al  Al15  1  0.001098  0.670918  0.657068  1
  Al  Al16  1  0.670918  0.670918  0.657068  1
  Al  Al17  1  0.334396  0.334396  0.996809  1
  Al  Al18  1  0.337356  0.993250  0.332037  1
  Al  Al19  1  0.993250  0.337356  0.332037  1
  Al  Al20  1  0.337356  0.337356  0.332037  1
  Cu  Cu21  1  0.880395  0.880395  0.358815  1
  Pt  Pt22  1  0.005753  0.005753  0.982740  1
  Pt  Pt23  1  0.002503  0.002503  0.507419  1
  Pt  Pt24  1  0.487575  0.002503  0.507419  1
  Pt  Pt25  1  0.002503  0.487575  0.507419  1
  Pt  Pt26  1  0.502136  0.502136  0.996219  1
  Pt  Pt27  1  0.999507  0.502136  0.996219  1
  Pt  Pt28  1  0.502136  0.999507  0.996219  1
