# generated using pymatgen
data_Dy7HoSc12Si15Pt
_symmetry_space_group_name_H-M   'P 1'
_cell_length_a   7.08343006
_cell_length_b   7.43445772
_cell_length_c   13.98815502
_cell_angle_alpha   89.99395981
_cell_angle_beta   90.00201101
_cell_angle_gamma   90.26260803
_symmetry_Int_Tables_number   1
_chemical_formula_structural   Dy7HoSc12Si15Pt
_chemical_formula_sum   'Dy7 Ho1 Sc12 Si15 Pt1'
_cell_volume   736.62894223
_cell_formula_units_Z   1
loop_
 _symmetry_equiv_pos_site_id
 _symmetry_equiv_pos_as_xyz
  1  'x, y, z'
loop_
 _atom_site_type_symbol
 _atom_site_label
 _atom_site_symmetry_multiplicity
 _atom_site_fract_x
 _atom_site_fract_y
 _atom_site_fract_z
 _atom_site_occupancy
  Dy  Dy0  1  0.011626  0.177737  0.096240  1
  Dy  Dy1  1  0.990400  0.821873  0.905280  1
  Dy  Dy2  1  0.488901  0.676403  0.904746  1
  Dy  Dy3  1  0.990401  0.821852  0.594718  1
  Dy  Dy4  1  0.511032  0.322832  0.096705  1
  Dy  Dy5  1  0.011627  0.177732  0.403764  1
  Dy  Dy6  1  0.511031  0.322841  0.403314  1
  Ho  Ho7  1  0.488881  0.676482  0.595292  1
  Sc  Sc8  1  0.158747  0.502772  0.749983  1
  Sc  Sc9  1  0.838088  0.497089  0.249996  1
  Sc  Sc10  1  0.338852  0.004485  0.250000  1
  Sc  Sc11  1  0.666140  0.999399  0.749984  1
  Sc  Sc12  1  0.324684  0.174486  0.625000  1
  Sc  Sc13  1  0.671146  0.825039  0.373658  1
  Sc  Sc14  1  0.170436  0.676875  0.373919  1
  Sc  Sc15  1  0.671167  0.825061  0.126355  1
  Sc  Sc16  1  0.830509  0.324041  0.625008  1
  Sc  Sc17  1  0.324676  0.174467  0.874995  1
  Sc  Sc18  1  0.830517  0.324023  0.874985  1
  Sc  Sc19  1  0.170422  0.676865  0.126088  1
  Si  Si20  1  0.969071  0.885422  0.250001  1
  Si  Si21  1  0.467767  0.614661  0.250004  1
  Si  Si22  1  0.531680  0.387807  0.749975  1
  Si  Si23  1  0.287736  0.868745  0.749952  1
  Si  Si24  1  0.713670  0.129884  0.250001  1
  Si  Si25  1  0.212789  0.371359  0.250001  1
  Si  Si26  1  0.780644  0.626528  0.749952  1
  Si  Si27  1  0.159716  0.466692  0.538073  1
  Si  Si28  1  0.841379  0.535585  0.460632  1
  Si  Si29  1  0.344504  0.965184  0.460698  1
  Si  Si30  1  0.841433  0.535575  0.039381  1
  Si  Si31  1  0.658851  0.033705  0.538587  1
  Si  Si32  1  0.159576  0.466625  0.961955  1
  Si  Si33  1  0.658888  0.033803  0.961434  1
  Si  Si34  1  0.344482  0.965266  0.039328  1
  Pt  Pt35  1  0.028533  0.110802  0.749997  1
