# generated using pymatgen
data_Pr10InSi4Rh
_symmetry_space_group_name_H-M   'P 1'
_cell_length_a   7.77020900
_cell_length_b   9.29546429
_cell_length_c   7.77020900
_cell_angle_alpha   114.70567568
_cell_angle_beta   90.00000000
_cell_angle_gamma   114.70567568
_symmetry_Int_Tables_number   1
_chemical_formula_structural   Pr10InSi4Rh
_chemical_formula_sum   'Pr10 In1 Si4 Rh1'
_cell_volume   452.69057605
_cell_formula_units_Z   1
loop_
 _symmetry_equiv_pos_site_id
 _symmetry_equiv_pos_as_xyz
  1  'x, y, z'
loop_
 _atom_site_type_symbol
 _atom_site_label
 _atom_site_symmetry_multiplicity
 _atom_site_fract_x
 _atom_site_fract_y
 _atom_site_fract_z
 _atom_site_occupancy
  Pr  Pr0  1  0.973252  0.946505  0.973252  1
  Pr  Pr1  1  0.526748  0.053495  0.526748  1
  Pr  Pr2  1  0.517362  0.718954  0.664412  1
  Pr  Pr3  1  0.201594  0.718954  0.054543  1
  Pr  Pr4  1  0.664412  0.718954  0.201594  1
  Pr  Pr5  1  0.054543  0.718954  0.517362  1
  Pr  Pr6  1  0.445457  0.281046  0.298406  1
  Pr  Pr7  1  0.835588  0.281046  0.982638  1
  Pr  Pr8  1  0.298406  0.281046  0.835588  1
  Pr  Pr9  1  0.982638  0.281046  0.445457  1
  In  In10  1  0.750000  0.500000  0.750000  1
  Si  Si11  1  0.885550  0.000000  0.614450  1
  Si  Si12  1  0.114450  0.000000  0.385550  1
  Si  Si13  1  0.614450  0.000000  0.114450  1
  Si  Si14  1  0.385550  0.000000  0.885550  1
  Rh  Rh15  1  0.250000  0.500000  0.250000  1
