# generated using pymatgen
data_La4Hg2RuAu3
_symmetry_space_group_name_H-M   'P 1'
_cell_length_a   8.10687715
_cell_length_b   8.10687844
_cell_length_c   3.97030600
_cell_angle_alpha   90.00000000
_cell_angle_beta   90.00000000
_cell_angle_gamma   90.26562792
_symmetry_Int_Tables_number   1
_chemical_formula_structural   La4Hg2RuAu3
_chemical_formula_sum   'La4 Hg2 Ru1 Au3'
_cell_volume   260.93153287
_cell_formula_units_Z   1
loop_
 _symmetry_equiv_pos_site_id
 _symmetry_equiv_pos_as_xyz
  1  'x, y, z'
loop_
 _atom_site_type_symbol
 _atom_site_label
 _atom_site_symmetry_multiplicity
 _atom_site_fract_x
 _atom_site_fract_y
 _atom_site_fract_z
 _atom_site_occupancy
  La  La0  1  0.670315  0.170315  0.500000  1
  La  La1  1  0.305506  0.805506  0.500000  1
  La  La2  1  0.178787  0.349933  0.500000  1
  La  La3  1  0.849933  0.678787  0.500000  1
  Hg  Hg4  1  0.001123  0.996601  0.000000  1
  Hg  Hg5  1  0.496601  0.501123  0.000000  1
  Ru  Ru6  1  0.133731  0.633731  0.000000  1
  Au  Au7  1  0.875281  0.375281  0.000000  1
  Au  Au8  1  0.621264  0.867460  0.000000  1
  Au  Au9  1  0.367460  0.121264  0.000000  1
