# generated using pymatgen
data_Gd3Er17Cd3Hg3Ru2
_symmetry_space_group_name_H-M   'P 1'
_cell_length_a   9.53199900
_cell_length_b   9.53199901
_cell_length_c   9.71282300
_cell_angle_alpha   90.00000000
_cell_angle_beta   90.00000000
_cell_angle_gamma   120.00000345
_symmetry_Int_Tables_number   1
_chemical_formula_structural   Gd3Er17Cd3Hg3Ru2
_chemical_formula_sum   'Gd3 Er17 Cd3 Hg3 Ru2'
_cell_volume   764.26516948
_cell_formula_units_Z   1
loop_
 _symmetry_equiv_pos_site_id
 _symmetry_equiv_pos_as_xyz
  1  'x, y, z'
loop_
 _atom_site_type_symbol
 _atom_site_label
 _atom_site_symmetry_multiplicity
 _atom_site_fract_x
 _atom_site_fract_y
 _atom_site_fract_z
 _atom_site_occupancy
  Gd  Gd0  1  0.458600  0.541400  0.750000  1
  Gd  Gd1  1  0.458600  0.917201  0.750000  1
  Gd  Gd2  1  0.082799  0.541400  0.750000  1
  Er  Er3  1  0.000000  0.000000  0.491062  1
  Er  Er4  1  0.000000  0.000000  0.008938  1
  Er  Er5  1  0.209668  0.790332  0.439679  1
  Er  Er6  1  0.209668  0.419337  0.439679  1
  Er  Er7  1  0.580663  0.790332  0.439679  1
  Er  Er8  1  0.790091  0.209909  0.559194  1
  Er  Er9  1  0.790091  0.580183  0.559194  1
  Er  Er10  1  0.419817  0.209909  0.559194  1
  Er  Er11  1  0.790091  0.209909  0.940806  1
  Er  Er12  1  0.790091  0.580183  0.940806  1
  Er  Er13  1  0.419817  0.209909  0.940806  1
  Er  Er14  1  0.209668  0.790332  0.060321  1
  Er  Er15  1  0.209668  0.419337  0.060321  1
  Er  Er16  1  0.580663  0.790332  0.060321  1
  Er  Er17  1  0.541260  0.458740  0.250000  1
  Er  Er18  1  0.541260  0.082521  0.250000  1
  Er  Er19  1  0.917479  0.458740  0.250000  1
  Cd  Cd20  1  0.112475  0.887525  0.750000  1
  Cd  Cd21  1  0.112475  0.224949  0.750000  1
  Cd  Cd22  1  0.775051  0.887525  0.750000  1
  Hg  Hg23  1  0.879665  0.120335  0.250000  1
  Hg  Hg24  1  0.879665  0.759331  0.250000  1
  Hg  Hg25  1  0.240669  0.120335  0.250000  1
  Ru  Ru26  1  0.333333  0.666667  0.250000  1
  Ru  Ru27  1  0.666667  0.333333  0.750000  1
