# generated using pymatgen
data_Tb2CdGa7Ni2
_symmetry_space_group_name_H-M   'P 1'
_cell_length_a   4.16076265
_cell_length_b   6.55067945
_cell_length_c   8.05033474
_cell_angle_alpha   90.41490594
_cell_angle_beta   104.97644556
_cell_angle_gamma   89.99999528
_symmetry_Int_Tables_number   1
_chemical_formula_structural   Tb2CdGa7Ni2
_chemical_formula_sum   'Tb2 Cd1 Ga7 Ni2'
_cell_volume   211.95936303
_cell_formula_units_Z   1
loop_
 _symmetry_equiv_pos_site_id
 _symmetry_equiv_pos_as_xyz
  1  'x, y, z'
loop_
 _atom_site_type_symbol
 _atom_site_label
 _atom_site_symmetry_multiplicity
 _atom_site_fract_x
 _atom_site_fract_y
 _atom_site_fract_z
 _atom_site_occupancy
  Tb  Tb0  1  0.878277  0.758025  0.756554  1
  Tb  Tb1  1  0.121723  0.241975  0.243446  1
  Cd  Cd2  1  0.500000  0.500000  0.000000  1
  Ga  Ga3  1  0.500000  0.000000  0.000000  1
  Ga  Ga4  1  0.071954  0.754467  0.143909  1
  Ga  Ga5  1  0.928046  0.245533  0.856091  1
  Ga  Ga6  1  0.687733  0.548170  0.375465  1
  Ga  Ga7  1  0.312267  0.451830  0.624535  1
  Ga  Ga8  1  0.686539  0.947226  0.373077  1
  Ga  Ga9  1  0.313461  0.052774  0.626923  1
  Ni  Ni10  1  0.223428  0.752327  0.446856  1
  Ni  Ni11  1  0.776572  0.247673  0.553144  1
