# generated using pymatgen
data_Er3TmB12IrRu
_symmetry_space_group_name_H-M   'P 1'
_cell_length_a   3.62626200
_cell_length_b   9.12571422
_cell_length_c   11.44546019
_cell_angle_alpha   90.08262979
_cell_angle_beta   90.00000000
_cell_angle_gamma   90.00000000
_symmetry_Int_Tables_number   1
_chemical_formula_structural   Er3TmB12IrRu
_chemical_formula_sum   'Er6 Tm2 B24 Ir2 Ru2'
_cell_volume   378.75541536
_cell_formula_units_Z   2
loop_
 _symmetry_equiv_pos_site_id
 _symmetry_equiv_pos_as_xyz
  1  'x, y, z'
loop_
 _atom_site_type_symbol
 _atom_site_label
 _atom_site_symmetry_multiplicity
 _atom_site_fract_x
 _atom_site_fract_y
 _atom_site_fract_z
 _atom_site_occupancy
  Er  Er0  1  0.000000  0.318815  0.411883  1
  Er  Er1  1  0.000000  0.681185  0.588117  1
  Er  Er2  1  0.000000  0.822814  0.085157  1
  Er  Er3  1  0.000000  0.177186  0.914843  1
  Er  Er4  1  0.000000  0.945674  0.372913  1
  Er  Er5  1  0.000000  0.054326  0.627087  1
  Tm  Tm6  1  0.000000  0.442346  0.125421  1
  Tm  Tm7  1  0.000000  0.557654  0.874579  1
  B  B8  1  0.500000  0.553087  0.434080  1
  B  B9  1  0.500000  0.446913  0.565920  1
  B  B10  1  0.500000  0.053973  0.066629  1
  B  B11  1  0.500000  0.946027  0.933371  1
  B  B12  1  0.500000  0.750218  0.420568  1
  B  B13  1  0.500000  0.249782  0.579432  1
  B  B14  1  0.500000  0.248526  0.079714  1
  B  B15  1  0.500000  0.751474  0.920286  1
  B  B16  1  0.500000  0.792856  0.265386  1
  B  B17  1  0.500000  0.207144  0.734614  1
  B  B18  1  0.500000  0.292443  0.234182  1
  B  B19  1  0.500000  0.707557  0.765818  1
  B  B20  1  0.500000  0.631470  0.183705  1
  B  B21  1  0.500000  0.368530  0.816295  1
  B  B22  1  0.500000  0.132023  0.314818  1
  B  B23  1  0.500000  0.867977  0.685182  1
  B  B24  1  0.500000  0.983217  0.212732  1
  B  B25  1  0.500000  0.016783  0.787268  1
  B  B26  1  0.500000  0.481347  0.286450  1
  B  B27  1  0.500000  0.518653  0.713550  1
  B  B28  1  0.500000  0.608859  0.030245  1
  B  B29  1  0.500000  0.391141  0.969755  1
  B  B30  1  0.500000  0.109353  0.470301  1
  B  B31  1  0.500000  0.890647  0.529699  1
  Ir  Ir32  1  0.000000  0.637097  0.321646  1
  Ir  Ir33  1  0.000000  0.362903  0.678354  1
  Ru  Ru34  1  0.000000  0.138499  0.179051  1
  Ru  Ru35  1  0.000000  0.861501  0.820949  1
