# generated using pymatgen
data_Tb6Lu10Cd3InNi4
_symmetry_space_group_name_H-M   'P 1'
_cell_length_a   9.43631315
_cell_length_b   9.45320398
_cell_length_c   9.45320345
_cell_angle_alpha   59.90095450
_cell_angle_beta   59.85329196
_cell_angle_gamma   59.85329554
_symmetry_Int_Tables_number   1
_chemical_formula_structural   Tb6Lu10Cd3InNi4
_chemical_formula_sum   'Tb6 Lu10 Cd3 In1 Ni4'
_cell_volume   594.50305182
_cell_formula_units_Z   1
loop_
 _symmetry_equiv_pos_site_id
 _symmetry_equiv_pos_as_xyz
  1  'x, y, z'
loop_
 _atom_site_type_symbol
 _atom_site_label
 _atom_site_symmetry_multiplicity
 _atom_site_fract_x
 _atom_site_fract_y
 _atom_site_fract_z
 _atom_site_occupancy
  Tb  Tb0  1  0.346285  0.348754  0.348754  1
  Tb  Tb1  1  0.352074  0.350721  0.949113  1
  Tb  Tb2  1  0.352074  0.949113  0.350721  1
  Tb  Tb3  1  0.949341  0.352067  0.352067  1
  Tb  Tb4  1  0.813944  0.186793  0.186793  1
  Tb  Tb5  1  0.186434  0.813316  0.813316  1
  Lu  Lu6  1  0.189312  0.810461  0.189197  1
  Lu  Lu7  1  0.810556  0.189945  0.811078  1
  Lu  Lu8  1  0.189312  0.189197  0.810461  1
  Lu  Lu9  1  0.810556  0.811078  0.189945  1
  Lu  Lu10  1  0.935102  0.566568  0.566568  1
  Lu  Lu11  1  0.564740  0.934915  0.934915  1
  Lu  Lu12  1  0.566624  0.935783  0.565848  1
  Lu  Lu13  1  0.936056  0.564291  0.935475  1
  Lu  Lu14  1  0.566624  0.565848  0.935783  1
  Lu  Lu15  1  0.936056  0.935475  0.564291  1
  Cd  Cd16  1  0.580993  0.581877  0.251829  1
  Cd  Cd17  1  0.580993  0.251829  0.581877  1
  Cd  Cd18  1  0.251627  0.581131  0.581131  1
  In  In19  1  0.583073  0.582478  0.582478  1
  Ni  Ni20  1  0.144174  0.140939  0.140939  1
  Ni  Ni21  1  0.139193  0.142475  0.575546  1
  Ni  Ni22  1  0.139193  0.575546  0.142475  1
  Ni  Ni23  1  0.575662  0.139396  0.139396  1
