# generated using pymatgen
data_Yb3Dy2Er(CoSn6)2
_symmetry_space_group_name_H-M   'P 1'
_cell_length_a   8.41545959
_cell_length_b   8.41546026
_cell_length_c   13.24398175
_cell_angle_alpha   90.06192450
_cell_angle_beta   89.93807503
_cell_angle_gamma   148.10648123
_symmetry_Int_Tables_number   1
_chemical_formula_structural   Yb3Dy2Er(CoSn6)2
_chemical_formula_sum   'Yb3 Dy2 Er1 Co2 Sn12'
_cell_volume   495.55218059
_cell_formula_units_Z   1
loop_
 _symmetry_equiv_pos_site_id
 _symmetry_equiv_pos_as_xyz
  1  'x, y, z'
loop_
 _atom_site_type_symbol
 _atom_site_label
 _atom_site_symmetry_multiplicity
 _atom_site_fract_x
 _atom_site_fract_y
 _atom_site_fract_z
 _atom_site_occupancy
  Yb  Yb0  1  0.101328  0.898672  0.598349  1
  Yb  Yb1  1  0.101232  0.898768  0.902625  1
  Yb  Yb2  1  0.899328  0.100672  0.401037  1
  Dy  Dy3  1  0.897419  0.102581  0.095529  1
  Dy  Dy4  1  0.900950  0.099050  0.754999  1
  Er  Er5  1  0.099032  0.900968  0.247256  1
  Co  Co6  1  0.299742  0.700258  0.249435  1
  Co  Co7  1  0.701862  0.298138  0.750138  1
  Sn  Sn8  1  0.760343  0.239657  0.573169  1
  Sn  Sn9  1  0.425065  0.574935  0.578107  1
  Sn  Sn10  1  0.574414  0.425586  0.422427  1
  Sn  Sn11  1  0.732919  0.267081  0.248604  1
  Sn  Sn12  1  0.267019  0.732981  0.750538  1
  Sn  Sn13  1  0.240041  0.759959  0.072864  1
  Sn  Sn14  1  0.240963  0.759037  0.426374  1
  Sn  Sn15  1  0.573231  0.426769  0.074972  1
  Sn  Sn16  1  0.456371  0.543629  0.248253  1
  Sn  Sn17  1  0.544465  0.455535  0.750262  1
  Sn  Sn18  1  0.757814  0.242186  0.928692  1
  Sn  Sn19  1  0.426463  0.573537  0.926369  1
