# generated using pymatgen
data_Tb5YIrPd7
_symmetry_space_group_name_H-M   'P 1'
_cell_length_a   7.88367854
_cell_length_b   7.88540210
_cell_length_c   7.88778715
_cell_angle_alpha   114.26257521
_cell_angle_beta   114.24872471
_cell_angle_gamma   114.21626464
_symmetry_Int_Tables_number   1
_chemical_formula_structural   Tb5YIrPd7
_chemical_formula_sum   'Tb5 Y1 Ir1 Pd7'
_cell_volume   292.47978379
_cell_formula_units_Z   1
loop_
 _symmetry_equiv_pos_site_id
 _symmetry_equiv_pos_as_xyz
  1  'x, y, z'
loop_
 _atom_site_type_symbol
 _atom_site_label
 _atom_site_symmetry_multiplicity
 _atom_site_fract_x
 _atom_site_fract_y
 _atom_site_fract_z
 _atom_site_occupancy
  Tb  Tb0  1  0.396798  0.023110  0.271357  1
  Tb  Tb1  1  0.023162  0.271202  0.396856  1
  Tb  Tb2  1  0.271245  0.396873  0.023029  1
  Tb  Tb3  1  0.603053  0.976837  0.728709  1
  Tb  Tb4  1  0.976885  0.728829  0.603180  1
  Y  Y5  1  0.728700  0.603115  0.977024  1
  Ir  Ir6  1  0.000140  0.000253  0.000085  1
  Pd  Pd7  1  0.499971  0.499986  0.500003  1
  Pd  Pd8  1  0.229965  0.063426  0.552444  1
  Pd  Pd9  1  0.063543  0.552267  0.229939  1
  Pd  Pd10  1  0.552326  0.229971  0.063337  1
  Pd  Pd11  1  0.769978  0.936360  0.447452  1
  Pd  Pd12  1  0.936536  0.447650  0.770085  1
  Pd  Pd13  1  0.447697  0.770122  0.936501  1
