# generated using pymatgen
data_Pr8Zn3Si12Pd
_symmetry_space_group_name_H-M   'P 1'
_cell_length_a   8.22815000
_cell_length_b   8.22815056
_cell_length_c   8.67797000
_cell_angle_alpha   90.00000000
_cell_angle_beta   90.00000000
_cell_angle_gamma   120.00000577
_symmetry_Int_Tables_number   1
_chemical_formula_structural   Pr8Zn3Si12Pd
_chemical_formula_sum   'Pr8 Zn3 Si12 Pd1'
_cell_volume   508.80712151
_cell_formula_units_Z   1
loop_
 _symmetry_equiv_pos_site_id
 _symmetry_equiv_pos_as_xyz
  1  'x, y, z'
loop_
 _atom_site_type_symbol
 _atom_site_label
 _atom_site_symmetry_multiplicity
 _atom_site_fract_x
 _atom_site_fract_y
 _atom_site_fract_z
 _atom_site_occupancy
  Pr  Pr0  1  0.499395  0.500605  0.750440  1
  Pr  Pr1  1  0.499880  0.500120  0.249400  1
  Pr  Pr2  1  0.001210  0.500605  0.750440  1
  Pr  Pr3  1  0.000239  0.500120  0.249400  1
  Pr  Pr4  1  0.499395  0.998790  0.750440  1
  Pr  Pr5  1  0.499880  0.999761  0.249400  1
  Pr  Pr6  1  0.000000  0.000000  0.749155  1
  Pr  Pr7  1  0.000000  0.000000  0.251273  1
  Zn  Zn8  1  0.666667  0.333333  0.996611  1
  Zn  Zn9  1  0.333333  0.666667  0.002545  1
  Zn  Zn10  1  0.333333  0.666667  0.498689  1
  Si  Si11  1  0.833516  0.166484  0.000793  1
  Si  Si12  1  0.166149  0.833851  0.999536  1
  Si  Si13  1  0.332967  0.166484  0.000793  1
  Si  Si14  1  0.163813  0.836187  0.499658  1
  Si  Si15  1  0.667702  0.833851  0.999536  1
  Si  Si16  1  0.831773  0.168227  0.500600  1
  Si  Si17  1  0.833516  0.667033  0.000793  1
  Si  Si18  1  0.672375  0.836187  0.499658  1
  Si  Si19  1  0.166149  0.332298  0.999536  1
  Si  Si20  1  0.336454  0.168227  0.500600  1
  Si  Si21  1  0.163813  0.327625  0.499658  1
  Si  Si22  1  0.831773  0.663546  0.500600  1
  Pd  Pd23  1  0.666667  0.333333  0.500449  1
