# generated using pymatgen
data_Nd11Zn(In3Ir)3
_symmetry_space_group_name_H-M   'P 1'
_cell_length_a   13.45350690
_cell_length_b   13.48292359
_cell_length_c   3.85117300
_cell_angle_alpha   90.00000000
_cell_angle_beta   90.00000000
_cell_angle_gamma   111.24407783
_symmetry_Int_Tables_number   1
_chemical_formula_structural   Nd11Zn(In3Ir)3
_chemical_formula_sum   'Nd11 Zn1 In9 Ir3'
_cell_volume   651.10291599
_cell_formula_units_Z   1
loop_
 _symmetry_equiv_pos_site_id
 _symmetry_equiv_pos_as_xyz
  1  'x, y, z'
loop_
 _atom_site_type_symbol
 _atom_site_label
 _atom_site_symmetry_multiplicity
 _atom_site_fract_x
 _atom_site_fract_y
 _atom_site_fract_z
 _atom_site_occupancy
  Nd  Nd0  1  0.077671  0.416870  0.000000  1
  Nd  Nd1  1  0.923336  0.580440  0.000000  1
  Nd  Nd2  1  0.420580  0.079536  0.000000  1
  Nd  Nd3  1  0.586647  0.934992  0.000000  1
  Nd  Nd4  1  0.623828  0.372781  0.000000  1
  Nd  Nd5  1  0.359987  0.616968  0.000000  1
  Nd  Nd6  1  0.841296  0.160468  0.000000  1
  Nd  Nd7  1  0.158514  0.839167  0.000000  1
  Nd  Nd8  1  0.998667  0.999636  0.000000  1
  Nd  Nd9  1  0.313080  0.311208  0.000000  1
  Nd  Nd10  1  0.696968  0.681830  0.000000  1
  Zn  Zn11  1  0.547736  0.750189  0.500000  1
  In  In12  1  0.836271  0.365518  0.500000  1
  In  In13  1  0.161400  0.635426  0.500000  1
  In  In14  1  0.369195  0.843075  0.500000  1
  In  In15  1  0.635065  0.164870  0.500000  1
  In  In16  1  0.078546  0.218944  0.500000  1
  In  In17  1  0.922775  0.780213  0.500000  1
  In  In18  1  0.218993  0.077519  0.500000  1
  In  In19  1  0.780729  0.926265  0.500000  1
  In  In20  1  0.498737  0.498970  0.500000  1
  Ir  Ir21  1  0.245373  0.450683  0.500000  1
  Ir  Ir22  1  0.756761  0.549991  0.500000  1
  Ir  Ir23  1  0.447849  0.244442  0.500000  1
