# generated using pymatgen
data_Er4As5Rh8
_symmetry_space_group_name_H-M   'P 1'
_cell_length_a   7.24881195
_cell_length_b   7.24881249
_cell_length_c   7.24881175
_cell_angle_alpha   107.14146265
_cell_angle_beta   110.64850740
_cell_angle_gamma   110.64851066
_symmetry_Int_Tables_number   1
_chemical_formula_structural   Er4As5Rh8
_chemical_formula_sum   'Er4 As5 Rh8'
_cell_volume   292.84815984
_cell_formula_units_Z   1
loop_
 _symmetry_equiv_pos_site_id
 _symmetry_equiv_pos_as_xyz
  1  'x, y, z'
loop_
 _atom_site_type_symbol
 _atom_site_label
 _atom_site_symmetry_multiplicity
 _atom_site_fract_x
 _atom_site_fract_y
 _atom_site_fract_z
 _atom_site_occupancy
  Er  Er0  1  0.000000  0.984060  0.497793  1
  Er  Er1  1  0.000000  0.497793  0.984060  1
  Er  Er2  1  0.486267  0.984060  0.984060  1
  Er  Er3  1  0.513733  0.497793  0.497793  1
  As  As4  1  0.685377  0.681807  0.996431  1
  As  As5  1  0.314623  0.996431  0.311054  1
  As  As6  1  0.000000  0.333597  0.333597  1
  As  As7  1  0.314623  0.311054  0.996431  1
  As  As8  1  0.685377  0.996431  0.681807  1
  Rh  Rh9  1  0.000000  0.717755  0.717755  1
  Rh  Rh10  1  0.749898  0.242512  0.492613  1
  Rh  Rh11  1  0.749898  0.492613  0.242512  1
  Rh  Rh12  1  0.500000  0.244994  0.744994  1
  Rh  Rh13  1  0.250102  0.492613  0.742715  1
  Rh  Rh14  1  0.250102  0.742715  0.492613  1
  Rh  Rh15  1  0.500000  0.744994  0.244994  1
  Rh  Rh16  1  0.000000  0.038778  0.038778  1
