# generated using pymatgen
data_Dy7Y3Cd3Ni
_symmetry_space_group_name_H-M   'P 1'
_cell_length_a   9.62445100
_cell_length_b   9.62445156
_cell_length_c   9.80660600
_cell_angle_alpha   90.00000000
_cell_angle_beta   90.00000000
_cell_angle_gamma   119.99999463
_symmetry_Int_Tables_number   1
_chemical_formula_structural   Dy7Y3Cd3Ni
_chemical_formula_sum   'Dy14 Y6 Cd6 Ni2'
_cell_volume   786.68585069
_cell_formula_units_Z   2
loop_
 _symmetry_equiv_pos_site_id
 _symmetry_equiv_pos_as_xyz
  1  'x, y, z'
loop_
 _atom_site_type_symbol
 _atom_site_label
 _atom_site_symmetry_multiplicity
 _atom_site_fract_x
 _atom_site_fract_y
 _atom_site_fract_z
 _atom_site_occupancy
  Dy  Dy0  1  0.000000  0.000000  0.500000  1
  Dy  Dy1  1  0.000000  0.000000  0.000000  1
  Dy  Dy2  1  0.210434  0.789566  0.436330  1
  Dy  Dy3  1  0.210434  0.420869  0.436330  1
  Dy  Dy4  1  0.579131  0.789566  0.436330  1
  Dy  Dy5  1  0.789566  0.210434  0.563670  1
  Dy  Dy6  1  0.789566  0.579131  0.563670  1
  Dy  Dy7  1  0.420869  0.210434  0.563670  1
  Dy  Dy8  1  0.789566  0.210434  0.936330  1
  Dy  Dy9  1  0.789566  0.579131  0.936330  1
  Dy  Dy10  1  0.420869  0.210434  0.936330  1
  Dy  Dy11  1  0.210434  0.789566  0.063670  1
  Dy  Dy12  1  0.210434  0.420869  0.063670  1
  Dy  Dy13  1  0.579131  0.789566  0.063670  1
  Y  Y14  1  0.543491  0.456509  0.250000  1
  Y  Y15  1  0.543491  0.086982  0.250000  1
  Y  Y16  1  0.913018  0.456509  0.250000  1
  Y  Y17  1  0.456509  0.543491  0.750000  1
  Y  Y18  1  0.456509  0.913018  0.750000  1
  Y  Y19  1  0.086982  0.543491  0.750000  1
  Cd  Cd20  1  0.884327  0.115673  0.250000  1
  Cd  Cd21  1  0.884327  0.768655  0.250000  1
  Cd  Cd22  1  0.231345  0.115673  0.250000  1
  Cd  Cd23  1  0.115673  0.884327  0.750000  1
  Cd  Cd24  1  0.115673  0.231345  0.750000  1
  Cd  Cd25  1  0.768655  0.884327  0.750000  1
  Ni  Ni26  1  0.333333  0.666667  0.250000  1
  Ni  Ni27  1  0.666667  0.333333  0.750000  1
