# generated using pymatgen
data_Tb12ZnCo2Ni2Bi
_symmetry_space_group_name_H-M   'P 1'
_cell_length_a   8.42789692
_cell_length_b   8.42789687
_cell_length_c   8.42789720
_cell_angle_alpha   109.09289838
_cell_angle_beta   111.79019785
_cell_angle_gamma   107.55915740
_symmetry_Int_Tables_number   1
_chemical_formula_structural   Tb12ZnCo2Ni2Bi
_chemical_formula_sum   'Tb12 Zn1 Co2 Ni2 Bi1'
_cell_volume   460.17694604
_cell_formula_units_Z   1
loop_
 _symmetry_equiv_pos_site_id
 _symmetry_equiv_pos_as_xyz
  1  'x, y, z'
loop_
 _atom_site_type_symbol
 _atom_site_label
 _atom_site_symmetry_multiplicity
 _atom_site_fract_x
 _atom_site_fract_y
 _atom_site_fract_z
 _atom_site_occupancy
  Tb  Tb0  1  0.284194  0.179097  0.463292  1
  Tb  Tb1  1  0.715806  0.820903  0.536708  1
  Tb  Tb2  1  0.284194  0.820903  0.105099  1
  Tb  Tb3  1  0.715806  0.179097  0.894901  1
  Tb  Tb4  1  0.626897  0.315207  0.311691  1
  Tb  Tb5  1  0.373103  0.684793  0.688309  1
  Tb  Tb6  1  0.003516  0.315207  0.688309  1
  Tb  Tb7  1  0.996484  0.684793  0.311691  1
  Tb  Tb8  1  0.225649  0.428644  0.202995  1
  Tb  Tb9  1  0.774351  0.571356  0.797005  1
  Tb  Tb10  1  0.225649  0.022655  0.797005  1
  Tb  Tb11  1  0.774351  0.977345  0.202995  1
  Zn  Zn12  1  0.000000  0.000000  0.000000  1
  Co  Co13  1  0.388361  0.888361  0.500000  1
  Co  Co14  1  0.611639  0.111639  0.500000  1
  Ni  Ni15  1  0.000000  0.358798  0.358798  1
  Ni  Ni16  1  0.000000  0.641202  0.641202  1
  Bi  Bi17  1  0.500000  0.500000  0.000000  1
