# generated using pymatgen
data_Th8Ni2Os5Rh
_symmetry_space_group_name_H-M   'P 1'
_cell_length_a   4.24042500
_cell_length_b   5.85808603
_cell_length_c   14.78343556
_cell_angle_alpha   90.32758521
_cell_angle_beta   90.00000000
_cell_angle_gamma   90.00000000
_symmetry_Int_Tables_number   1
_chemical_formula_structural   Th8Ni2Os5Rh
_chemical_formula_sum   'Th8 Ni2 Os5 Rh1'
_cell_volume   367.22598604
_cell_formula_units_Z   1
loop_
 _symmetry_equiv_pos_site_id
 _symmetry_equiv_pos_as_xyz
  1  'x, y, z'
loop_
 _atom_site_type_symbol
 _atom_site_label
 _atom_site_symmetry_multiplicity
 _atom_site_fract_x
 _atom_site_fract_y
 _atom_site_fract_z
 _atom_site_occupancy
  Th  Th0  1  0.250000  0.543823  0.285793  1
  Th  Th1  1  0.750000  0.457836  0.716218  1
  Th  Th2  1  0.250000  0.960594  0.783368  1
  Th  Th3  1  0.250000  0.754248  0.535088  1
  Th  Th4  1  0.250000  0.740455  0.037194  1
  Th  Th5  1  0.750000  0.255792  0.963984  1
  Th  Th6  1  0.750000  0.042437  0.215212  1
  Th  Th7  1  0.750000  0.242797  0.462220  1
  Ni  Ni8  1  0.250000  0.235971  0.100486  1
  Ni  Ni9  1  0.250000  0.254563  0.602163  1
  Os  Os10  1  0.250000  0.056058  0.347759  1
  Os  Os11  1  0.750000  0.539014  0.141917  1
  Os  Os12  1  0.750000  0.727613  0.404131  1
  Os  Os13  1  0.250000  0.445287  0.851384  1
  Os  Os14  1  0.750000  0.962869  0.648119  1
  Rh  Rh15  1  0.750000  0.780644  0.904967  1
