# generated using pymatgen
data_Ho11Er(OsRu)2
_symmetry_space_group_name_H-M   'P 1'
_cell_length_a   6.29910366
_cell_length_b   7.34281640
_cell_length_c   9.05125641
_cell_angle_alpha   90.00900686
_cell_angle_beta   90.05271497
_cell_angle_gamma   90.01305865
_symmetry_Int_Tables_number   1
_chemical_formula_structural   Ho11Er(OsRu)2
_chemical_formula_sum   'Ho11 Er1 Os2 Ru2'
_cell_volume   418.64903236
_cell_formula_units_Z   1
loop_
 _symmetry_equiv_pos_site_id
 _symmetry_equiv_pos_as_xyz
  1  'x, y, z'
loop_
 _atom_site_type_symbol
 _atom_site_label
 _atom_site_symmetry_multiplicity
 _atom_site_fract_x
 _atom_site_fract_y
 _atom_site_fract_z
 _atom_site_occupancy
  Ho  Ho0  1  0.333277  0.675522  0.062434  1
  Ho  Ho1  1  0.166509  0.175686  0.437224  1
  Ho  Ho2  1  0.669283  0.324039  0.564213  1
  Ho  Ho3  1  0.830938  0.824350  0.936061  1
  Ho  Ho4  1  0.669207  0.324127  0.936008  1
  Ho  Ho5  1  0.830940  0.824195  0.564194  1
  Ho  Ho6  1  0.333456  0.675486  0.437543  1
  Ho  Ho7  1  0.868673  0.539810  0.249876  1
  Ho  Ho8  1  0.631186  0.040098  0.249750  1
  Ho  Ho9  1  0.130481  0.461591  0.750217  1
  Ho  Ho10  1  0.369631  0.961695  0.750216  1
  Er  Er11  1  0.166458  0.175217  0.062425  1
  Os  Os12  1  0.960841  0.116391  0.750530  1
  Os  Os13  1  0.539590  0.616335  0.749795  1
  Ru  Ru14  1  0.038096  0.882943  0.249816  1
  Ru  Ru15  1  0.461434  0.382516  0.249698  1
