# generated using pymatgen
data_Cs3TbGe2O7
_symmetry_space_group_name_H-M   'P 1'
_cell_length_a   6.27875200
_cell_length_b   6.27875223
_cell_length_c   14.76184000
_cell_angle_alpha   90.00000000
_cell_angle_beta   90.00000000
_cell_angle_gamma   119.99999880
_symmetry_Int_Tables_number   1
_chemical_formula_structural   Cs3TbGe2O7
_chemical_formula_sum   'Cs6 Tb2 Ge4 O14'
_cell_volume   503.98522602
_cell_formula_units_Z   2
loop_
 _symmetry_equiv_pos_site_id
 _symmetry_equiv_pos_as_xyz
  1  'x, y, z'
loop_
 _atom_site_type_symbol
 _atom_site_label
 _atom_site_symmetry_multiplicity
 _atom_site_fract_x
 _atom_site_fract_y
 _atom_site_fract_z
 _atom_site_occupancy
  Cs  Cs0  1  0.333334  0.666667  0.108322  1
  Cs  Cs1  1  0.000000  0.000000  0.250000  1
  Cs  Cs2  1  0.333334  0.666667  0.391679  1
  Cs  Cs3  1  0.666666  0.333334  0.608322  1
  Cs  Cs4  1  0.000000  0.000000  0.750000  1
  Cs  Cs5  1  0.666666  0.333334  0.891679  1
  Tb  Tb6  1  0.000000  0.000000  0.000000  1
  Tb  Tb7  1  0.000000  0.000000  0.500000  1
  Ge  Ge8  1  0.666666  0.333334  0.125711  1
  Ge  Ge9  1  0.666666  0.333334  0.374289  1
  Ge  Ge10  1  0.333334  0.666667  0.625711  1
  Ge  Ge11  1  0.333334  0.666667  0.874289  1
  O  O12  1  0.354782  0.177391  0.088623  1
  O  O13  1  0.822608  0.177391  0.088623  1
  O  O14  1  0.822608  0.645217  0.088623  1
  O  O15  1  0.666666  0.333334  0.250000  1
  O  O16  1  0.354782  0.177391  0.411377  1
  O  O17  1  0.822608  0.177391  0.411377  1
  O  O18  1  0.822608  0.645217  0.411377  1
  O  O19  1  0.177391  0.354781  0.588623  1
  O  O20  1  0.177392  0.822609  0.588623  1
  O  O21  1  0.645218  0.822609  0.588623  1
  O  O22  1  0.333334  0.666667  0.750000  1
  O  O23  1  0.177391  0.354781  0.911378  1
  O  O24  1  0.177392  0.822609  0.911378  1
  O  O25  1  0.645218  0.822609  0.911378  1
