# generated using pymatgen
data_DyHo(B2Rh3)3
_symmetry_space_group_name_H-M   'P 1'
_cell_length_a   5.61043200
_cell_length_b   5.61043195
_cell_length_c   8.58397000
_cell_angle_alpha   90.00000000
_cell_angle_beta   90.00000000
_cell_angle_gamma   120.00001210
_symmetry_Int_Tables_number   1
_chemical_formula_structural   DyHo(B2Rh3)3
_chemical_formula_sum   'Dy1 Ho1 B6 Rh9'
_cell_volume   233.99758311
_cell_formula_units_Z   1
loop_
 _symmetry_equiv_pos_site_id
 _symmetry_equiv_pos_as_xyz
  1  'x, y, z'
loop_
 _atom_site_type_symbol
 _atom_site_label
 _atom_site_symmetry_multiplicity
 _atom_site_fract_x
 _atom_site_fract_y
 _atom_site_fract_z
 _atom_site_occupancy
  Dy  Dy0  1  0.000000  0.000000  0.706207  1
  Ho  Ho1  1  0.000000  0.000000  0.293335  1
  B  B2  1  0.666667  0.333333  0.000106  1
  B  B3  1  0.333333  0.666667  0.000106  1
  B  B4  1  0.666667  0.333333  0.667252  1
  B  B5  1  0.333333  0.666667  0.667252  1
  B  B6  1  0.333333  0.666667  0.332725  1
  B  B7  1  0.666667  0.333333  0.332725  1
  Rh  Rh8  1  0.500000  0.500000  0.835662  1
  Rh  Rh9  1  0.500000  0.000000  0.835662  1
  Rh  Rh10  1  0.000000  0.500000  0.835662  1
  Rh  Rh11  1  0.500000  0.500000  0.164459  1
  Rh  Rh12  1  0.500000  0.000000  0.164459  1
  Rh  Rh13  1  0.000000  0.500000  0.164459  1
  Rh  Rh14  1  0.500000  0.500000  0.499975  1
  Rh  Rh15  1  0.500000  0.000000  0.499975  1
  Rh  Rh16  1  0.000000  0.500000  0.499975  1
