# generated using pymatgen
data_ZnCrP4(PbO7)2
_symmetry_space_group_name_H-M   'P 1'
_cell_length_a   8.47127550
_cell_length_b   5.46384812
_cell_length_c   14.08143268
_cell_angle_alpha   67.59832993
_cell_angle_beta   90.08386855
_cell_angle_gamma   89.96284304
_symmetry_Int_Tables_number   1
_chemical_formula_structural   ZnCrP4(PbO7)2
_chemical_formula_sum   'Zn2 Cr2 P8 Pb4 O28'
_cell_volume   602.58283294
_cell_formula_units_Z   2
loop_
 _symmetry_equiv_pos_site_id
 _symmetry_equiv_pos_as_xyz
  1  'x, y, z'
loop_
 _atom_site_type_symbol
 _atom_site_label
 _atom_site_symmetry_multiplicity
 _atom_site_fract_x
 _atom_site_fract_y
 _atom_site_fract_z
 _atom_site_occupancy
  Zn  Zn0  1  0.151832  0.275858  0.896319  1
  Zn  Zn1  1  0.848168  0.724142  0.103681  1
  Cr  Cr2  1  0.355481  0.316525  0.390128  1
  Cr  Cr3  1  0.644519  0.683475  0.609872  1
  P  P4  1  0.800807  0.336108  0.980159  1
  P  P5  1  0.703377  0.335533  0.481914  1
  P  P6  1  0.199193  0.663892  0.019841  1
  P  P7  1  0.296623  0.664467  0.518086  1
  P  P8  1  0.536051  0.418234  0.834199  1
  P  P9  1  0.961366  0.417108  0.332804  1
  P  P10  1  0.463949  0.581766  0.165801  1
  P  P11  1  0.038634  0.582892  0.667196  1
  Pb  Pb12  1  0.325284  0.982941  0.722330  1
  Pb  Pb13  1  0.825240  0.021246  0.773935  1
  Pb  Pb14  1  0.674716  0.017059  0.277670  1
  Pb  Pb15  1  0.174760  0.978754  0.226065  1
  O  O16  1  0.560385  0.190322  0.797430  1
  O  O17  1  0.061375  0.812975  0.702660  1
  O  O18  1  0.439615  0.809678  0.202570  1
  O  O19  1  0.938625  0.187025  0.297340  1
  O  O20  1  0.362757  0.477524  0.846948  1
  O  O21  1  0.865198  0.522953  0.654424  1
  O  O22  1  0.637243  0.522476  0.153052  1
  O  O23  1  0.134802  0.477047  0.345576  1
  O  O24  1  0.617140  0.675659  0.760918  1
  O  O25  1  0.120717  0.326474  0.739071  1
  O  O26  1  0.382860  0.324341  0.239082  1
  O  O27  1  0.879283  0.673526  0.260929  1
  O  O28  1  0.902866  0.279934  0.900004  1
  O  O29  1  0.399719  0.733477  0.595246  1
  O  O30  1  0.097134  0.720066  0.099996  1
  O  O31  1  0.600281  0.266523  0.404754  1
  O  O32  1  0.696254  0.124848  0.590471  1
  O  O33  1  0.192574  0.893299  0.913949  1
  O  O34  1  0.303746  0.875152  0.409529  1
  O  O35  1  0.807426  0.106701  0.086051  1
  O  O36  1  0.885212  0.332078  0.445663  1
  O  O37  1  0.383123  0.664445  0.054455  1
  O  O38  1  0.114788  0.667922  0.554337  1
  O  O39  1  0.616877  0.335555  0.945545  1
  O  O40  1  0.669824  0.620198  0.474361  1
  O  O41  1  0.167762  0.388325  0.018922  1
  O  O42  1  0.330176  0.379802  0.525639  1
  O  O43  1  0.832238  0.611675  0.981078  1
