# generated using pymatgen
data_HoTm11Tl2ZnFe2
_symmetry_space_group_name_H-M   'P 1'
_cell_length_a   8.30310157
_cell_length_b   8.30302474
_cell_length_c   8.29966193
_cell_angle_alpha   109.66882672
_cell_angle_beta   109.66931281
_cell_angle_gamma   109.09314949
_symmetry_Int_Tables_number   1
_chemical_formula_structural   HoTm11Tl2ZnFe2
_chemical_formula_sum   'Ho1 Tm11 Tl2 Zn1 Fe2'
_cell_volume   440.36189209
_cell_formula_units_Z   1
loop_
 _symmetry_equiv_pos_site_id
 _symmetry_equiv_pos_as_xyz
  1  'x, y, z'
loop_
 _atom_site_type_symbol
 _atom_site_label
 _atom_site_symmetry_multiplicity
 _atom_site_fract_x
 _atom_site_fract_y
 _atom_site_fract_z
 _atom_site_occupancy
  Ho  Ho0  1  0.694406  0.305595  0.000002  1
  Tm  Tm1  1  0.444010  0.201692  0.242918  1
  Tm  Tm2  1  0.555172  0.797285  0.757299  1
  Tm  Tm3  1  0.960014  0.202133  0.757296  1
  Tm  Tm4  1  0.201093  0.958775  0.757083  1
  Tm  Tm5  1  0.041226  0.798907  0.242914  1
  Tm  Tm6  1  0.797874  0.039987  0.242699  1
  Tm  Tm7  1  0.202717  0.444837  0.242703  1
  Tm  Tm8  1  0.798311  0.555989  0.757086  1
  Tm  Tm9  1  0.306049  0.306526  0.612573  1
  Tm  Tm10  1  0.693477  0.693955  0.387429  1
  Tm  Tm11  1  0.306167  0.693833  0.999998  1
  Tl  Tl12  1  0.500152  0.999782  0.499937  1
  Tl  Tl13  1  0.000213  0.499845  0.500063  1
  Zn  Zn14  1  0.999933  0.000069  0.999997  1
  Fe  Fe15  1  0.385988  0.386803  0.000002  1
  Fe  Fe16  1  0.613197  0.613986  0.000001  1
