# generated using pymatgen
data_Zr6Zn19Pt4Se
_symmetry_space_group_name_H-M   'P 1'
_cell_length_a   8.83593896
_cell_length_b   8.83593676
_cell_length_c   8.83593804
_cell_angle_alpha   59.93750096
_cell_angle_beta   59.93751178
_cell_angle_gamma   59.93749900
_symmetry_Int_Tables_number   1
_chemical_formula_structural   Zr6Zn19Pt4Se
_chemical_formula_sum   'Zr6 Zn19 Pt4 Se1'
_cell_volume   487.10986144
_cell_formula_units_Z   1
loop_
 _symmetry_equiv_pos_site_id
 _symmetry_equiv_pos_as_xyz
  1  'x, y, z'
loop_
 _atom_site_type_symbol
 _atom_site_label
 _atom_site_symmetry_multiplicity
 _atom_site_fract_x
 _atom_site_fract_y
 _atom_site_fract_z
 _atom_site_occupancy
  Zr  Zr0  1  0.709729  0.288051  0.288051  1
  Zr  Zr1  1  0.290271  0.711949  0.711949  1
  Zr  Zr2  1  0.288051  0.709729  0.288051  1
  Zr  Zr3  1  0.711949  0.290271  0.711949  1
  Zr  Zr4  1  0.288051  0.288051  0.709729  1
  Zr  Zr5  1  0.711949  0.711949  0.290271  1
  Zn  Zn6  1  0.120943  0.120943  0.120943  1
  Zn  Zn7  1  0.879057  0.879057  0.879057  1
  Zn  Zn8  1  0.123478  0.123478  0.632084  1
  Zn  Zn9  1  0.123478  0.632084  0.123478  1
  Zn  Zn10  1  0.876522  0.876522  0.367916  1
  Zn  Zn11  1  0.876522  0.367916  0.876522  1
  Zn  Zn12  1  0.632084  0.123478  0.123478  1
  Zn  Zn13  1  0.367916  0.876522  0.876522  1
  Zn  Zn14  1  0.500000  0.000000  0.000000  1
  Zn  Zn15  1  0.000000  0.500000  0.000000  1
  Zn  Zn16  1  0.000000  0.000000  0.500000  1
  Zn  Zn17  1  0.336132  0.336132  0.336132  1
  Zn  Zn18  1  0.663868  0.663868  0.663868  1
  Zn  Zn19  1  0.335149  0.335149  0.990958  1
  Zn  Zn20  1  0.335149  0.990958  0.335149  1
  Zn  Zn21  1  0.664851  0.664851  0.009042  1
  Zn  Zn22  1  0.664851  0.009042  0.664851  1
  Zn  Zn23  1  0.990958  0.335149  0.335149  1
  Zn  Zn24  1  0.009042  0.664851  0.664851  1
  Pt  Pt25  1  0.000000  0.500000  0.500000  1
  Pt  Pt26  1  0.500000  0.000000  0.500000  1
  Pt  Pt27  1  0.500000  0.500000  0.000000  1
  Pt  Pt28  1  0.000000  0.000000  0.000000  1
  Se  Se29  1  0.500000  0.500000  0.500000  1
