# generated using pymatgen
data_Tb2Ho8In8NiRh3
_symmetry_space_group_name_H-M   'P 1'
_cell_length_a   8.05439320
_cell_length_b   18.21552811
_cell_length_c   3.59654400
_cell_angle_alpha   90.00000000
_cell_angle_beta   90.00000000
_cell_angle_gamma   89.92771756
_symmetry_Int_Tables_number   1
_chemical_formula_structural   Tb2Ho8In8NiRh3
_chemical_formula_sum   'Tb2 Ho8 In8 Ni1 Rh3'
_cell_volume   527.66662592
_cell_formula_units_Z   1
loop_
 _symmetry_equiv_pos_site_id
 _symmetry_equiv_pos_as_xyz
  1  'x, y, z'
loop_
 _atom_site_type_symbol
 _atom_site_label
 _atom_site_symmetry_multiplicity
 _atom_site_fract_x
 _atom_site_fract_y
 _atom_site_fract_z
 _atom_site_occupancy
  Tb  Tb0  1  0.500671  0.499449  0.000000  1
  Tb  Tb1  1  0.000594  0.001283  0.000000  1
  Ho  Ho2  1  0.745867  0.279029  0.000000  1
  Ho  Ho3  1  0.251763  0.721421  0.000000  1
  Ho  Ho4  1  0.751775  0.777989  0.000000  1
  Ho  Ho5  1  0.251239  0.222139  0.000000  1
  Ho  Ho6  1  0.618735  0.088543  0.000000  1
  Ho  Ho7  1  0.381018  0.911534  0.000000  1
  Ho  Ho8  1  0.881295  0.588150  0.000000  1
  Ho  Ho9  1  0.117704  0.409228  0.000000  1
  In  In10  1  0.705692  0.932108  0.500000  1
  In  In11  1  0.295636  0.069308  0.500000  1
  In  In12  1  0.796768  0.431061  0.500000  1
  In  In13  1  0.204369  0.566620  0.500000  1
  In  In14  1  0.567947  0.649660  0.500000  1
  In  In15  1  0.431185  0.349728  0.500000  1
  In  In16  1  0.929530  0.152900  0.500000  1
  In  In17  1  0.067751  0.850348  0.500000  1
  Ni  Ni18  1  0.020786  0.303930  0.500000  1
  Rh  Rh19  1  0.524942  0.195915  0.500000  1
  Rh  Rh20  1  0.477266  0.804793  0.500000  1
  Rh  Rh21  1  0.977468  0.694865  0.500000  1
