# generated using pymatgen
data_CaTb18YbIr12
_symmetry_space_group_name_H-M   'P 1'
_cell_length_a   10.93014699
_cell_length_b   10.96689511
_cell_length_c   6.41252261
_cell_angle_alpha   90.00151878
_cell_angle_beta   90.34018848
_cell_angle_gamma   89.98406019
_symmetry_Int_Tables_number   1
_chemical_formula_structural   CaTb18YbIr12
_chemical_formula_sum   'Ca1 Tb18 Yb1 Ir12'
_cell_volume   768.65406669
_cell_formula_units_Z   1
loop_
 _symmetry_equiv_pos_site_id
 _symmetry_equiv_pos_as_xyz
  1  'x, y, z'
loop_
 _atom_site_type_symbol
 _atom_site_label
 _atom_site_symmetry_multiplicity
 _atom_site_fract_x
 _atom_site_fract_y
 _atom_site_fract_z
 _atom_site_occupancy
  Ca  Ca0  1  0.289322  0.911669  0.876550  1
  Tb  Tb1  1  0.709132  0.087163  0.880105  1
  Tb  Tb2  1  0.709459  0.912650  0.380269  1
  Tb  Tb3  1  0.587124  0.792821  0.878767  1
  Tb  Tb4  1  0.586976  0.207301  0.378720  1
  Tb  Tb5  1  0.411622  0.794031  0.380632  1
  Tb  Tb6  1  0.411560  0.206112  0.880666  1
  Tb  Tb7  1  0.209725  0.412446  0.621877  1
  Tb  Tb8  1  0.209704  0.587379  0.121779  1
  Tb  Tb9  1  0.791295  0.411588  0.119396  1
  Tb  Tb10  1  0.791168  0.588304  0.619264  1
  Tb  Tb11  1  0.911534  0.708835  0.121830  1
  Tb  Tb12  1  0.911469  0.291321  0.621615  1
  Tb  Tb13  1  0.087975  0.707841  0.621752  1
  Tb  Tb14  1  0.088301  0.291729  0.121893  1
  Tb  Tb15  1  0.001355  0.000289  0.499607  1
  Tb  Tb16  1  0.001167  0.000050  0.999570  1
  Tb  Tb17  1  0.500138  0.500002  0.996547  1
  Tb  Tb18  1  0.500275  0.499785  0.496529  1
  Yb  Yb19  1  0.290249  0.088428  0.377329  1
  Ir  Ir20  1  0.848778  0.153532  0.249963  1
  Ir  Ir21  1  0.848783  0.846628  0.750366  1
  Ir  Ir22  1  0.146642  0.160817  0.753460  1
  Ir  Ir23  1  0.146549  0.839682  0.255718  1
  Ir  Ir24  1  0.651900  0.345633  0.750544  1
  Ir  Ir25  1  0.651803  0.654412  0.250360  1
  Ir  Ir26  1  0.347030  0.351458  0.245167  1
  Ir  Ir27  1  0.347070  0.647323  0.744146  1
  Ir  Ir28  1  0.505883  0.000934  0.124554  1
  Ir  Ir29  1  0.505899  0.999804  0.622194  1
  Ir  Ir30  1  0.000076  0.500292  0.879357  1
  Ir  Ir31  1  0.000035  0.499740  0.379471  1
