# generated using pymatgen
data_Ba4Mn2O7
_symmetry_space_group_name_H-M   'P 1'
_cell_length_a   5.81869400
_cell_length_b   7.23699752
_cell_length_c   11.49330600
_cell_angle_alpha   66.53707165
_cell_angle_beta   90.00000000
_cell_angle_gamma   90.00000000
_symmetry_Int_Tables_number   1
_chemical_formula_structural   Ba4Mn2O7
_chemical_formula_sum   'Ba8 Mn4 O14'
_cell_volume   443.96503844
_cell_formula_units_Z   2
loop_
 _symmetry_equiv_pos_site_id
 _symmetry_equiv_pos_as_xyz
  1  'x, y, z'
loop_
 _atom_site_type_symbol
 _atom_site_label
 _atom_site_symmetry_multiplicity
 _atom_site_fract_x
 _atom_site_fract_y
 _atom_site_fract_z
 _atom_site_occupancy
  Ba  Ba0  1  0.757940  0.291967  0.556590  1
  Ba  Ba1  1  0.735975  0.708148  0.202990  1
  Ba  Ba2  1  0.742060  0.291967  0.056590  1
  Ba  Ba3  1  0.235975  0.291852  0.297010  1
  Ba  Ba4  1  0.242060  0.708033  0.443410  1
  Ba  Ba5  1  0.764025  0.708148  0.702990  1
  Ba  Ba6  1  0.264025  0.291852  0.797010  1
  Ba  Ba7  1  0.257940  0.708033  0.943410  1
  Mn  Mn8  1  0.761164  0.999491  0.372400  1
  Mn  Mn9  1  0.238836  0.000509  0.627600  1
  Mn  Mn10  1  0.738836  0.999491  0.872400  1
  Mn  Mn11  1  0.261164  0.000509  0.127600  1
  O  O12  1  0.730711  0.297485  0.312900  1
  O  O13  1  0.736397  0.701545  0.461494  1
  O  O14  1  0.499713  0.998781  0.268778  1
  O  O15  1  0.000000  0.000000  0.500000  1
  O  O16  1  0.500000  0.000000  0.000000  1
  O  O17  1  0.999713  0.001219  0.231222  1
  O  O18  1  0.263603  0.298455  0.538506  1
  O  O19  1  0.500287  0.001219  0.731222  1
  O  O20  1  0.230711  0.702515  0.187100  1
  O  O21  1  0.763603  0.701545  0.961494  1
  O  O22  1  0.769289  0.297485  0.812900  1
  O  O23  1  0.236397  0.298455  0.038506  1
  O  O24  1  0.269289  0.702515  0.687100  1
  O  O25  1  0.000287  0.998781  0.768778  1
