# generated using pymatgen
data_Y2U2Ga12Pd
_symmetry_space_group_name_H-M   'P 1'
_cell_length_a   7.50106056
_cell_length_b   7.46697479
_cell_length_c   7.50106067
_cell_angle_alpha   109.38150416
_cell_angle_beta   109.83439162
_cell_angle_gamma   109.38150516
_symmetry_Int_Tables_number   1
_chemical_formula_structural   Y2U2Ga12Pd
_chemical_formula_sum   'Y2 U2 Ga12 Pd1'
_cell_volume   322.68043589
_cell_formula_units_Z   1
loop_
 _symmetry_equiv_pos_site_id
 _symmetry_equiv_pos_as_xyz
  1  'x, y, z'
loop_
 _atom_site_type_symbol
 _atom_site_label
 _atom_site_symmetry_multiplicity
 _atom_site_fract_x
 _atom_site_fract_y
 _atom_site_fract_z
 _atom_site_occupancy
  Y  Y0  1  0.000000  0.000000  0.500000  1
  Y  Y1  1  0.500000  0.000000  0.000000  1
  U  U2  1  0.500000  0.500000  0.500000  1
  U  U3  1  0.000000  0.500000  0.000000  1
  Ga  Ga4  1  0.750000  0.500000  0.250000  1
  Ga  Ga5  1  0.498987  0.749715  0.250729  1
  Ga  Ga6  1  0.501013  0.250285  0.749271  1
  Ga  Ga7  1  0.749271  0.250285  0.501013  1
  Ga  Ga8  1  0.250729  0.749715  0.498987  1
  Ga  Ga9  1  0.250000  0.500000  0.750000  1
  Ga  Ga10  1  0.295680  0.000000  0.295680  1
  Ga  Ga11  1  0.003299  0.298730  0.295430  1
  Ga  Ga12  1  0.996701  0.701270  0.704570  1
  Ga  Ga13  1  0.295430  0.298730  0.003299  1
  Ga  Ga14  1  0.704570  0.701270  0.996701  1
  Ga  Ga15  1  0.704320  0.000000  0.704320  1
  Pd  Pd16  1  0.000000  0.000000  0.000000  1
