# generated using pymatgen
data_In9Pd13
_symmetry_space_group_name_H-M   'P 1'
_cell_length_a   7.22294316
_cell_length_b   7.22294317
_cell_length_c   9.65531409
_cell_angle_alpha   62.60937380
_cell_angle_beta   62.60937192
_cell_angle_gamma   76.95158895
_symmetry_Int_Tables_number   1
_chemical_formula_structural   In9Pd13
_chemical_formula_sum   'In9 Pd13'
_cell_volume   397.04895767
_cell_formula_units_Z   1
loop_
 _symmetry_equiv_pos_site_id
 _symmetry_equiv_pos_as_xyz
  1  'x, y, z'
loop_
 _atom_site_type_symbol
 _atom_site_label
 _atom_site_symmetry_multiplicity
 _atom_site_fract_x
 _atom_site_fract_y
 _atom_site_fract_z
 _atom_site_occupancy
  In  In0  1  0.251494  0.830023  0.190391  1
  In  In1  1  0.174647  0.174647  0.385242  1
  In  In2  1  0.289578  0.289578  0.666873  1
  In  In3  1  0.830023  0.251494  0.190391  1
  In  In4  1  0.710422  0.710422  0.333127  1
  In  In5  1  0.500000  0.500000  0.000000  1
  In  In6  1  0.748506  0.169977  0.809609  1
  In  In7  1  0.169977  0.748506  0.809609  1
  In  In8  1  0.825353  0.825353  0.614758  1
  Pd  Pd9  1  0.543691  0.067219  0.158559  1
  Pd  Pd10  1  0.500000  0.000000  0.500000  1
  Pd  Pd11  1  0.546932  0.546932  0.679656  1
  Pd  Pd12  1  0.067219  0.543691  0.158559  1
  Pd  Pd13  1  0.453068  0.453068  0.320344  1
  Pd  Pd14  1  0.258434  0.741566  0.500000  1
  Pd  Pd15  1  0.258527  0.258527  0.987543  1
  Pd  Pd16  1  0.932781  0.456309  0.841441  1
  Pd  Pd17  1  0.741473  0.741473  0.012457  1
  Pd  Pd18  1  0.456309  0.932781  0.841441  1
  Pd  Pd19  1  0.741566  0.258434  0.500000  1
  Pd  Pd20  1  0.000000  0.000000  0.000000  1
  Pd  Pd21  1  0.000000  0.500000  0.500000  1
