# generated using pymatgen
data_U4Re3(Si3Ru2)2
_symmetry_space_group_name_H-M   'P 1'
_cell_length_a   7.11072327
_cell_length_b   7.11072438
_cell_length_c   7.11072391
_cell_angle_alpha   109.90479125
_cell_angle_beta   109.01899139
_cell_angle_gamma   109.49109505
_symmetry_Int_Tables_number   1
_chemical_formula_structural   U4Re3(Si3Ru2)2
_chemical_formula_sum   'U4 Re3 Si6 Ru4'
_cell_volume   276.75376924
_cell_formula_units_Z   1
loop_
 _symmetry_equiv_pos_site_id
 _symmetry_equiv_pos_as_xyz
  1  'x, y, z'
loop_
 _atom_site_type_symbol
 _atom_site_label
 _atom_site_symmetry_multiplicity
 _atom_site_fract_x
 _atom_site_fract_y
 _atom_site_fract_z
 _atom_site_occupancy
  U  U0  1  0.499092  0.500571  0.500151  1
  U  U1  1  0.000420  0.998940  0.499849  1
  U  U2  1  0.499092  0.998940  0.998520  1
  U  U3  1  0.000420  0.500571  0.001480  1
  Re  Re4  1  0.249954  0.499889  0.750065  1
  Re  Re5  1  0.749825  0.499889  0.249935  1
  Re  Re6  1  0.250268  0.750268  0.500000  1
  Si  Si7  1  0.308766  0.308766  0.000000  1
  Si  Si8  1  0.999581  0.307560  0.307979  1
  Si  Si9  1  0.999581  0.691602  0.692021  1
  Si  Si10  1  0.691141  0.000278  0.690863  1
  Si  Si11  1  0.309414  0.000278  0.309137  1
  Si  Si12  1  0.691428  0.691428  0.000000  1
  Ru  Ru13  1  0.749555  0.249555  0.500000  1
  Ru  Ru14  1  0.500733  0.250451  0.749718  1
  Ru  Ru15  1  0.500733  0.751016  0.250282  1
  Ru  Ru16  1  0.999997  0.999997  0.000000  1
