# generated using pymatgen
data_La3Co3Si7
_symmetry_space_group_name_H-M   'P 1'
_cell_length_a   13.23066991
_cell_length_b   13.23067038
_cell_length_c   4.20532200
_cell_angle_alpha   90.00000000
_cell_angle_beta   90.00000000
_cell_angle_gamma   161.88286954
_symmetry_Int_Tables_number   1
_chemical_formula_structural   La3Co3Si7
_chemical_formula_sum   'La3 Co3 Si7'
_cell_volume   228.91186842
_cell_formula_units_Z   1
loop_
 _symmetry_equiv_pos_site_id
 _symmetry_equiv_pos_as_xyz
  1  'x, y, z'
loop_
 _atom_site_type_symbol
 _atom_site_label
 _atom_site_symmetry_multiplicity
 _atom_site_fract_x
 _atom_site_fract_y
 _atom_site_fract_z
 _atom_site_occupancy
  La  La0  1  0.003203  0.996797  0.000000  1
  La  La1  1  0.685650  0.314350  0.500000  1
  La  La2  1  0.318539  0.681461  0.500000  1
  Co  Co3  1  0.865644  0.134356  0.000000  1
  Co  Co4  1  0.132989  0.867011  0.000000  1
  Co  Co5  1  0.450658  0.549342  0.500000  1
  Si  Si6  1  0.593928  0.406072  0.000000  1
  Si  Si7  1  0.408478  0.591522  0.000000  1
  Si  Si8  1  0.776293  0.223707  0.000000  1
  Si  Si9  1  0.225120  0.774880  0.000000  1
  Si  Si10  1  0.909344  0.090656  0.500000  1
  Si  Si11  1  0.093128  0.906872  0.500000  1
  Si  Si12  1  0.537028  0.462972  0.500000  1
