# generated using pymatgen
data_Pr8Dy9Tm3Ga16
_symmetry_space_group_name_H-M   'P 1'
_cell_length_a   7.71860300
_cell_length_b   8.00374930
_cell_length_c   15.22549000
_cell_angle_alpha   90.00000000
_cell_angle_beta   90.00000000
_cell_angle_gamma   89.98443001
_symmetry_Int_Tables_number   1
_chemical_formula_structural   Pr8Dy9Tm3Ga16
_chemical_formula_sum   'Pr8 Dy9 Tm3 Ga16'
_cell_volume   940.59668298
_cell_formula_units_Z   1
loop_
 _symmetry_equiv_pos_site_id
 _symmetry_equiv_pos_as_xyz
  1  'x, y, z'
loop_
 _atom_site_type_symbol
 _atom_site_label
 _atom_site_symmetry_multiplicity
 _atom_site_fract_x
 _atom_site_fract_y
 _atom_site_fract_z
 _atom_site_occupancy
  Pr  Pr0  1  0.975008  0.820599  0.095237  1
  Pr  Pr1  1  0.475086  0.679519  0.404650  1
  Pr  Pr2  1  0.525173  0.321178  0.904874  1
  Pr  Pr3  1  0.024710  0.180003  0.594866  1
  Pr  Pr4  1  0.024710  0.180003  0.905134  1
  Pr  Pr5  1  0.525173  0.321178  0.595126  1
  Pr  Pr6  1  0.475086  0.679519  0.095350  1
  Pr  Pr7  1  0.975008  0.820599  0.404763  1
  Dy  Dy8  1  0.347378  0.012706  0.750000  1
  Dy  Dy9  1  0.680957  0.823565  0.878478  1
  Dy  Dy10  1  0.180928  0.675031  0.621914  1
  Dy  Dy11  1  0.819333  0.324351  0.122377  1
  Dy  Dy12  1  0.319336  0.175869  0.377504  1
  Dy  Dy13  1  0.319336  0.175869  0.122496  1
  Dy  Dy14  1  0.819333  0.324351  0.377623  1
  Dy  Dy15  1  0.180928  0.675031  0.878086  1
  Dy  Dy16  1  0.680957  0.823565  0.621522  1
  Tm  Tm17  1  0.651637  0.988964  0.250000  1
  Tm  Tm18  1  0.152025  0.511164  0.250000  1
  Tm  Tm19  1  0.847177  0.489245  0.750000  1
  Ga  Ga20  1  0.768333  0.622921  0.250000  1
  Ga  Ga21  1  0.268055  0.877161  0.250000  1
  Ga  Ga22  1  0.734364  0.122528  0.750000  1
  Ga  Ga23  1  0.231287  0.379161  0.750000  1
  Ga  Ga24  1  0.022425  0.109615  0.250000  1
  Ga  Ga25  1  0.522702  0.390252  0.250000  1
  Ga  Ga26  1  0.477617  0.609218  0.750000  1
  Ga  Ga27  1  0.975584  0.888264  0.750000  1
  Ga  Ga28  1  0.851107  0.529504  0.958114  1
  Ga  Ga29  1  0.350896  0.969832  0.541208  1
  Ga  Ga30  1  0.649125  0.029928  0.042496  1
  Ga  Ga31  1  0.149051  0.470021  0.457430  1
  Ga  Ga32  1  0.149051  0.470021  0.042570  1
  Ga  Ga33  1  0.649125  0.029928  0.457504  1
  Ga  Ga34  1  0.350896  0.969832  0.958792  1
  Ga  Ga35  1  0.851107  0.529504  0.541886  1
