# generated using pymatgen
data_Gd4Si10Os5Pt
_symmetry_space_group_name_H-M   'P 1'
_cell_length_a   8.10766381
_cell_length_b   8.12300401
_cell_length_c   5.79416100
_cell_angle_alpha   71.13467548
_cell_angle_beta   70.78204113
_cell_angle_gamma   94.18316803
_symmetry_Int_Tables_number   1
_chemical_formula_structural   Gd4Si10Os5Pt
_chemical_formula_sum   'Gd4 Si10 Os5 Pt1'
_cell_volume   334.03243536
_cell_formula_units_Z   1
loop_
 _symmetry_equiv_pos_site_id
 _symmetry_equiv_pos_as_xyz
  1  'x, y, z'
loop_
 _atom_site_type_symbol
 _atom_site_label
 _atom_site_symmetry_multiplicity
 _atom_site_fract_x
 _atom_site_fract_y
 _atom_site_fract_z
 _atom_site_occupancy
  Gd  Gd0  1  0.866587  0.602144  0.755933  1
  Gd  Gd1  1  0.401372  0.133382  0.741275  1
  Gd  Gd2  1  0.130788  0.395777  0.252697  1
  Gd  Gd3  1  0.598543  0.869022  0.257544  1
  Si  Si4  1  0.057418  0.252657  0.843700  1
  Si  Si5  1  0.735449  0.933504  0.667291  1
  Si  Si6  1  0.933691  0.738875  0.163673  1
  Si  Si7  1  0.264965  0.064414  0.330968  1
  Si  Si8  1  0.215955  0.801797  0.732061  1
  Si  Si9  1  0.790685  0.204773  0.258382  1
  Si  Si10  1  0.519810  0.488054  0.751382  1
  Si  Si11  1  0.492317  0.513853  0.241209  1
  Si  Si12  1  0.772150  0.227846  0.750302  1
  Si  Si13  1  0.225394  0.781132  0.247092  1
  Os  Os14  1  0.452626  0.742076  0.874610  1
  Os  Os15  1  0.744058  0.459500  0.367238  1
  Os  Os16  1  0.544483  0.257955  0.131302  1
  Os  Os17  1  0.003717  0.992890  0.748489  1
  Os  Os18  1  0.996398  0.003072  0.250478  1
  Pt  Pt19  1  0.253596  0.537276  0.634373  1
