# generated using pymatgen
data_Pr16Tm(LuGa4)3
_symmetry_space_group_name_H-M   'P 1'
_cell_length_a   7.82392000
_cell_length_b   7.82392000
_cell_length_c   14.83022000
_cell_angle_alpha   90.00000000
_cell_angle_beta   90.00000000
_cell_angle_gamma   90.00000000
_symmetry_Int_Tables_number   1
_chemical_formula_structural   Pr16Tm(LuGa4)3
_chemical_formula_sum   'Pr16 Tm1 Lu3 Ga12'
_cell_volume   907.81299641
_cell_formula_units_Z   1
loop_
 _symmetry_equiv_pos_site_id
 _symmetry_equiv_pos_as_xyz
  1  'x, y, z'
loop_
 _atom_site_type_symbol
 _atom_site_label
 _atom_site_symmetry_multiplicity
 _atom_site_fract_x
 _atom_site_fract_y
 _atom_site_fract_z
 _atom_site_occupancy
  Pr  Pr0  1  0.815679  0.839067  0.604237  1
  Pr  Pr1  1  0.184198  0.839159  0.104368  1
  Pr  Pr2  1  0.160996  0.815747  0.395637  1
  Pr  Pr3  1  0.839004  0.184253  0.395637  1
  Pr  Pr4  1  0.684253  0.660996  0.395637  1
  Pr  Pr5  1  0.660933  0.315679  0.604237  1
  Pr  Pr6  1  0.339067  0.684321  0.604237  1
  Pr  Pr7  1  0.660841  0.684198  0.104368  1
  Pr  Pr8  1  0.684731  0.339638  0.895683  1
  Pr  Pr9  1  0.839638  0.815269  0.895683  1
  Pr  Pr10  1  0.315747  0.339004  0.395637  1
  Pr  Pr11  1  0.184321  0.160933  0.604237  1
  Pr  Pr12  1  0.815802  0.160841  0.104368  1
  Pr  Pr13  1  0.315269  0.660362  0.895683  1
  Pr  Pr14  1  0.339159  0.315802  0.104368  1
  Pr  Pr15  1  0.160362  0.184731  0.895683  1
  Tm  Tm16  1  0.500000  0.000000  0.776484  1
  Lu  Lu17  1  0.000000  0.500000  0.724741  1
  Lu  Lu18  1  0.000000  0.500000  0.224979  1
  Lu  Lu19  1  0.500000  0.000000  0.275037  1
  Ga  Ga20  1  0.622395  0.377600  0.250019  1
  Ga  Ga21  1  0.121418  0.877263  0.749584  1
  Ga  Ga22  1  0.377263  0.378582  0.749584  1
  Ga  Ga23  1  0.377605  0.622400  0.250019  1
  Ga  Ga24  1  0.877600  0.877605  0.250019  1
  Ga  Ga25  1  0.622737  0.621418  0.749584  1
  Ga  Ga26  1  0.000000  0.500000  0.515329  1
  Ga  Ga27  1  0.878582  0.122737  0.749584  1
  Ga  Ga28  1  0.500000  0.000000  0.484250  1
  Ga  Ga29  1  0.500000  0.000000  0.985794  1
  Ga  Ga30  1  0.122400  0.122395  0.250019  1
  Ga  Ga31  1  0.000000  0.500000  0.015271  1
