# generated using pymatgen
data_Yb2TmTaO6
_symmetry_space_group_name_H-M   'P 1'
_cell_length_a   5.77524300
_cell_length_b   5.54931950
_cell_length_c   9.74650244
_cell_angle_alpha   55.17709407
_cell_angle_beta   90.00000000
_cell_angle_gamma   90.00000000
_symmetry_Int_Tables_number   1
_chemical_formula_structural   Yb2TmTaO6
_chemical_formula_sum   'Yb4 Tm2 Ta2 O12'
_cell_volume   256.42486958
_cell_formula_units_Z   2
loop_
 _symmetry_equiv_pos_site_id
 _symmetry_equiv_pos_as_xyz
  1  'x, y, z'
loop_
 _atom_site_type_symbol
 _atom_site_label
 _atom_site_symmetry_multiplicity
 _atom_site_fract_x
 _atom_site_fract_y
 _atom_site_fract_z
 _atom_site_occupancy
  Yb  Yb0  1  0.444067  0.232044  0.751964  1
  Yb  Yb1  1  0.555933  0.767956  0.248036  1
  Yb  Yb2  1  0.944067  0.767956  0.748036  1
  Yb  Yb3  1  0.055933  0.232044  0.251964  1
  Tm  Tm4  1  0.000000  0.000000  0.000000  1
  Tm  Tm5  1  0.500000  0.000000  0.500000  1
  Ta  Ta6  1  0.000000  0.500000  0.500000  1
  Ta  Ta7  1  0.500000  0.500000  0.000000  1
  O  O8  1  0.046622  0.378952  0.736120  1
  O  O9  1  0.953378  0.621048  0.263880  1
  O  O10  1  0.546622  0.621048  0.763880  1
  O  O11  1  0.453378  0.378952  0.236120  1
  O  O12  1  0.684950  0.850508  0.942413  1
  O  O13  1  0.315050  0.149492  0.057587  1
  O  O14  1  0.184950  0.149492  0.557587  1
  O  O15  1  0.815050  0.850508  0.442413  1
  O  O16  1  0.209948  0.744689  0.935105  1
  O  O17  1  0.790052  0.255311  0.064895  1
  O  O18  1  0.709948  0.255311  0.564895  1
  O  O19  1  0.290052  0.744689  0.435105  1
