# generated using pymatgen
data_La18Ho2(Ir3Rh)3
_symmetry_space_group_name_H-M   'P 1'
_cell_length_a   11.37586889
_cell_length_b   11.37393389
_cell_length_c   6.64617900
_cell_angle_alpha   90.00000000
_cell_angle_beta   90.00000000
_cell_angle_gamma   89.95459616
_symmetry_Int_Tables_number   1
_chemical_formula_structural   La18Ho2(Ir3Rh)3
_chemical_formula_sum   'La18 Ho2 Ir9 Rh3'
_cell_volume   859.93806906
_cell_formula_units_Z   1
loop_
 _symmetry_equiv_pos_site_id
 _symmetry_equiv_pos_as_xyz
  1  'x, y, z'
loop_
 _atom_site_type_symbol
 _atom_site_label
 _atom_site_symmetry_multiplicity
 _atom_site_fract_x
 _atom_site_fract_y
 _atom_site_fract_z
 _atom_site_occupancy
  La  La0  1  0.291082  0.090514  0.385328  1
  La  La1  1  0.290915  0.909146  0.885331  1
  La  La2  1  0.709085  0.090854  0.885331  1
  La  La3  1  0.708918  0.909486  0.385328  1
  La  La4  1  0.589852  0.786819  0.886532  1
  La  La5  1  0.589492  0.213222  0.386649  1
  La  La6  1  0.410508  0.786778  0.386649  1
  La  La7  1  0.410148  0.213181  0.886532  1
  La  La8  1  0.212536  0.410528  0.612644  1
  La  La9  1  0.212905  0.589666  0.114947  1
  La  La10  1  0.787095  0.410334  0.114947  1
  La  La11  1  0.787464  0.589472  0.612644  1
  La  La12  1  0.909340  0.708506  0.116268  1
  La  La13  1  0.909462  0.291616  0.613500  1
  La  La14  1  0.090538  0.708384  0.613500  1
  La  La15  1  0.090660  0.291494  0.116268  1
  La  La16  1  0.000000  0.000000  0.500216  1
  La  La17  1  0.000000  0.000000  0.999955  1
  Ho  Ho18  1  0.500000  0.500000  0.999847  1
  Ho  Ho19  1  0.500000  0.500000  0.499949  1
  Ir  Ir20  1  0.844120  0.154292  0.249793  1
  Ir  Ir21  1  0.844658  0.845002  0.749481  1
  Ir  Ir22  1  0.155342  0.154998  0.749481  1
  Ir  Ir23  1  0.155880  0.845708  0.249793  1
  Ir  Ir24  1  0.648158  0.351659  0.749465  1
  Ir  Ir25  1  0.647434  0.649021  0.249936  1
  Ir  Ir26  1  0.352566  0.350979  0.249936  1
  Ir  Ir27  1  0.351842  0.648341  0.749465  1
  Ir  Ir28  1  0.000000  0.500000  0.380998  1
  Rh  Rh29  1  0.500000  0.000000  0.117096  1
  Rh  Rh30  1  0.500000  0.000000  0.617138  1
  Rh  Rh31  1  0.000000  0.500000  0.885057  1
