# generated using pymatgen
data_ErPa3(AlCo2)2
_symmetry_space_group_name_H-M   'P 1'
_cell_length_a   7.17502612
_cell_length_b   7.17502635
_cell_length_c   3.50116600
_cell_angle_alpha   90.00000000
_cell_angle_beta   90.00000000
_cell_angle_gamma   87.81586369
_symmetry_Int_Tables_number   1
_chemical_formula_structural   ErPa3(AlCo2)2
_chemical_formula_sum   'Er1 Pa3 Al2 Co4'
_cell_volume   180.11258635
_cell_formula_units_Z   1
loop_
 _symmetry_equiv_pos_site_id
 _symmetry_equiv_pos_as_xyz
  1  'x, y, z'
loop_
 _atom_site_type_symbol
 _atom_site_label
 _atom_site_symmetry_multiplicity
 _atom_site_fract_x
 _atom_site_fract_y
 _atom_site_fract_z
 _atom_site_occupancy
  Er  Er0  1  0.325022  0.825022  0.500000  1
  Pa  Pa1  1  0.674429  0.174429  0.500000  1
  Pa  Pa2  1  0.179129  0.328970  0.500000  1
  Pa  Pa3  1  0.828970  0.679129  0.500000  1
  Al  Al4  1  0.006252  0.002494  0.000000  1
  Al  Al5  1  0.502494  0.506252  0.000000  1
  Co  Co6  1  0.852665  0.352665  0.000000  1
  Co  Co7  1  0.372110  0.152291  0.000000  1
  Co  Co8  1  0.652291  0.872110  0.000000  1
  Co  Co9  1  0.106638  0.606638  0.000000  1
