# generated using pymatgen
data_YTm3Fe4(WO6)4
_symmetry_space_group_name_H-M   'P 1'
_cell_length_a   5.19282407
_cell_length_b   7.40926659
_cell_length_c   11.09400504
_cell_angle_alpha   90.07014927
_cell_angle_beta   90.06845971
_cell_angle_gamma   89.97396896
_symmetry_Int_Tables_number   1
_chemical_formula_structural   YTm3Fe4(WO6)4
_chemical_formula_sum   'Y1 Tm3 Fe4 W4 O24'
_cell_volume   426.84137324
_cell_formula_units_Z   1
loop_
 _symmetry_equiv_pos_site_id
 _symmetry_equiv_pos_as_xyz
  1  'x, y, z'
loop_
 _atom_site_type_symbol
 _atom_site_label
 _atom_site_symmetry_multiplicity
 _atom_site_fract_x
 _atom_site_fract_y
 _atom_site_fract_z
 _atom_site_occupancy
  Y  Y0  1  0.456766  0.750934  0.955439  1
  Tm  Tm1  1  0.546140  0.250833  0.045165  1
  Tm  Tm2  1  0.045049  0.750856  0.455013  1
  Tm  Tm3  1  0.954819  0.250901  0.544835  1
  Fe  Fe4  1  0.042863  0.996709  0.140132  1
  Fe  Fe5  1  0.543221  0.495566  0.360763  1
  Fe  Fe6  1  0.457265  0.995809  0.638717  1
  Fe  Fe7  1  0.957824  0.494365  0.860332  1
  W  W8  1  0.052081  0.506392  0.142737  1
  W  W9  1  0.551890  0.007161  0.358184  1
  W  W10  1  0.447985  0.506928  0.641156  1
  W  W11  1  0.948856  0.008652  0.857630  1
  O  O12  1  0.755304  0.962917  0.021068  1
  O  O13  1  0.763168  0.544567  0.028715  1
  O  O14  1  0.177097  0.748985  0.117170  1
  O  O15  1  0.928695  0.258236  0.144485  1
  O  O16  1  0.378752  0.431204  0.205501  1
  O  O17  1  0.394236  0.069777  0.212096  1
  O  O18  1  0.893358  0.569318  0.288557  1
  O  O19  1  0.877383  0.931157  0.294803  1
  O  O20  1  0.428594  0.758701  0.356970  1
  O  O21  1  0.681790  0.248877  0.385032  1
  O  O22  1  0.261248  0.047689  0.471654  1
  O  O23  1  0.252586  0.459439  0.478889  1
  O  O24  1  0.747459  0.959605  0.520650  1
  O  O25  1  0.738708  0.547615  0.527966  1
  O  O26  1  0.317810  0.749016  0.615077  1
  O  O27  1  0.571351  0.258666  0.642426  1
  O  O28  1  0.122827  0.431121  0.705244  1
  O  O29  1  0.107282  0.070669  0.711955  1
  O  O30  1  0.608346  0.568573  0.786522  1
  O  O31  1  0.623458  0.933877  0.793023  1
  O  O32  1  0.065087  0.758786  0.856407  1
  O  O33  1  0.816694  0.249570  0.884457  1
  O  O34  1  0.238238  0.049413  0.971548  1
  O  O35  1  0.245772  0.457516  0.979685  1
