# generated using pymatgen
data_Y6Th4In8PdPt3
_symmetry_space_group_name_H-M   'P 1'
_cell_length_a   3.80616200
_cell_length_b   8.13139643
_cell_length_c   18.29231242
_cell_angle_alpha   90.08840783
_cell_angle_beta   90.00000000
_cell_angle_gamma   90.00000000
_symmetry_Int_Tables_number   1
_chemical_formula_structural   Y6Th4In8PdPt3
_chemical_formula_sum   'Y6 Th4 In8 Pd1 Pt3'
_cell_volume   566.13564142
_cell_formula_units_Z   1
loop_
 _symmetry_equiv_pos_site_id
 _symmetry_equiv_pos_as_xyz
  1  'x, y, z'
loop_
 _atom_site_type_symbol
 _atom_site_label
 _atom_site_symmetry_multiplicity
 _atom_site_fract_x
 _atom_site_fract_y
 _atom_site_fract_z
 _atom_site_occupancy
  Y  Y0  1  0.500000  0.115071  0.583248  1
  Y  Y1  1  0.500000  0.884998  0.416580  1
  Y  Y2  1  0.500000  0.385030  0.083325  1
  Y  Y3  1  0.500000  0.615677  0.917572  1
  Y  Y4  1  0.500000  0.999938  0.000206  1
  Y  Y5  1  0.500000  0.499846  0.499856  1
  Th  Th6  1  0.500000  0.233950  0.782091  1
  Th  Th7  1  0.500000  0.762907  0.217644  1
  Th  Th8  1  0.500000  0.262733  0.282251  1
  Th  Th9  1  0.500000  0.740283  0.716904  1
  In  In10  1  0.000000  0.083463  0.144918  1
  In  In11  1  0.000000  0.915109  0.854917  1
  In  In12  1  0.000000  0.417217  0.645752  1
  In  In13  1  0.000000  0.583670  0.355094  1
  In  In14  1  0.000000  0.206271  0.437381  1
  In  In15  1  0.000000  0.793462  0.562736  1
  In  In16  1  0.000000  0.294213  0.936702  1
  In  In17  1  0.000000  0.706307  0.062503  1
  Pd  Pd18  1  0.000000  0.524597  0.802071  1
  Pt  Pt19  1  0.000000  0.024881  0.698177  1
  Pt  Pt20  1  0.000000  0.975186  0.301978  1
  Pt  Pt21  1  0.000000  0.475191  0.198094  1
