# generated using pymatgen
data_Ti20Ga7AsP4
_symmetry_space_group_name_H-M   'P 1'
_cell_length_a   6.63655972
_cell_length_b   7.80073241
_cell_length_c   9.82494976
_cell_angle_alpha   89.98457276
_cell_angle_beta   89.95837868
_cell_angle_gamma   90.03412757
_symmetry_Int_Tables_number   1
_chemical_formula_structural   Ti20Ga7AsP4
_chemical_formula_sum   'Ti20 Ga7 As1 P4'
_cell_volume   508.63766671
_cell_formula_units_Z   1
loop_
 _symmetry_equiv_pos_site_id
 _symmetry_equiv_pos_as_xyz
  1  'x, y, z'
loop_
 _atom_site_type_symbol
 _atom_site_label
 _atom_site_symmetry_multiplicity
 _atom_site_fract_x
 _atom_site_fract_y
 _atom_site_fract_z
 _atom_site_occupancy
  Ti  Ti0  1  0.817780  0.553830  0.057699  1
  Ti  Ti1  1  0.682355  0.943923  0.561477  1
  Ti  Ti2  1  0.183652  0.055063  0.938308  1
  Ti  Ti3  1  0.318479  0.444716  0.439791  1
  Ti  Ti4  1  0.181651  0.446711  0.938019  1
  Ti  Ti5  1  0.318153  0.055334  0.439683  1
  Ti  Ti6  1  0.817387  0.945127  0.060778  1
  Ti  Ti7  1  0.678612  0.553825  0.563233  1
  Ti  Ti8  1  0.170557  0.750279  0.223186  1
  Ti  Ti9  1  0.331641  0.746150  0.722343  1
  Ti  Ti10  1  0.829426  0.254244  0.778489  1
  Ti  Ti11  1  0.671265  0.249650  0.276114  1
  Ti  Ti12  1  0.476845  0.747917  0.003041  1
  Ti  Ti13  1  0.020394  0.749869  0.502799  1
  Ti  Ti14  1  0.523123  0.251891  0.997142  1
  Ti  Ti15  1  0.977952  0.250066  0.498099  1
  Ti  Ti16  1  0.653870  0.749598  0.288973  1
  Ti  Ti17  1  0.847360  0.748558  0.789853  1
  Ti  Ti18  1  0.346354  0.253168  0.709910  1
  Ti  Ti19  1  0.154208  0.249280  0.211092  1
  Ga  Ga20  1  0.934247  0.506449  0.324967  1
  Ga  Ga21  1  0.564232  0.993320  0.824952  1
  Ga  Ga22  1  0.065483  0.006824  0.675428  1
  Ga  Ga23  1  0.433873  0.493062  0.176411  1
  Ga  Ga24  1  0.065408  0.493667  0.672463  1
  Ga  Ga25  1  0.435372  0.006497  0.174218  1
  Ga  Ga26  1  0.935050  0.993149  0.325764  1
  As  As27  1  0.564936  0.509199  0.826307  1
  P  P28  1  0.398354  0.750060  0.471686  1
  P  P29  1  0.099704  0.750969  0.973482  1
  P  P30  1  0.600778  0.248473  0.526284  1
  P  P31  1  0.901499  0.249133  0.028007  1
