# generated using pymatgen
data_Tm4V3CoB16
_symmetry_space_group_name_H-M   'P 1'
_cell_length_a   3.40147100
_cell_length_b   5.95124102
_cell_length_c   11.50166595
_cell_angle_alpha   89.93314988
_cell_angle_beta   90.00000000
_cell_angle_gamma   90.00000000
_symmetry_Int_Tables_number   1
_chemical_formula_structural   Tm4V3CoB16
_chemical_formula_sum   'Tm4 V3 Co1 B16'
_cell_volume   232.82776322
_cell_formula_units_Z   1
loop_
 _symmetry_equiv_pos_site_id
 _symmetry_equiv_pos_as_xyz
  1  'x, y, z'
loop_
 _atom_site_type_symbol
 _atom_site_label
 _atom_site_symmetry_multiplicity
 _atom_site_fract_x
 _atom_site_fract_y
 _atom_site_fract_z
 _atom_site_occupancy
  Tm  Tm0  1  0.500000  0.375528  0.151132  1
  Tm  Tm1  1  0.500000  0.626586  0.848561  1
  Tm  Tm2  1  0.500000  0.125053  0.650395  1
  Tm  Tm3  1  0.500000  0.875346  0.349167  1
  V  V4  1  0.500000  0.373237  0.413881  1
  V  V5  1  0.500000  0.627302  0.583040  1
  V  V6  1  0.500000  0.129646  0.918531  1
  Co  Co7  1  0.500000  0.867655  0.084746  1
  B  B8  1  0.000000  0.109733  0.050509  1
  B  B9  1  0.000000  0.882221  0.954912  1
  B  B10  1  0.000000  0.384653  0.546731  1
  B  B11  1  0.000000  0.615539  0.451691  1
  B  B12  1  0.000000  0.134052  0.466879  1
  B  B13  1  0.000000  0.866118  0.532453  1
  B  B14  1  0.000000  0.366081  0.970288  1
  B  B15  1  0.000000  0.635828  0.031898  1
  B  B16  1  0.000000  0.023484  0.192346  1
  B  B17  1  0.000000  0.974820  0.808481  1
  B  B18  1  0.000000  0.475032  0.693086  1
  B  B19  1  0.000000  0.527658  0.304812  1
  B  B20  1  0.000000  0.211876  0.312051  1
  B  B21  1  0.000000  0.787414  0.686715  1
  B  B22  1  0.000000  0.285235  0.814770  1
  B  B23  1  0.000000  0.719904  0.182924  1
