# generated using pymatgen
data_Nd6IrPtCl6
_symmetry_space_group_name_H-M   'P 1'
_cell_length_a   10.28102857
_cell_length_b   10.27722003
_cell_length_c   10.24390969
_cell_angle_alpha   109.43885077
_cell_angle_beta   109.44580411
_cell_angle_gamma   109.70649557
_symmetry_Int_Tables_number   1
_chemical_formula_structural   Nd6IrPtCl6
_chemical_formula_sum   'Nd12 Ir2 Pt2 Cl12'
_cell_volume   831.37852767
_cell_formula_units_Z   2
loop_
 _symmetry_equiv_pos_site_id
 _symmetry_equiv_pos_as_xyz
  1  'x, y, z'
loop_
 _atom_site_type_symbol
 _atom_site_label
 _atom_site_symmetry_multiplicity
 _atom_site_fract_x
 _atom_site_fract_y
 _atom_site_fract_z
 _atom_site_occupancy
  Nd  Nd0  1  0.478762  0.492764  0.237555  1
  Nd  Nd1  1  0.755107  0.241479  0.262366  1
  Nd  Nd2  1  0.755543  0.013085  0.493047  1
  Nd  Nd3  1  0.237439  0.479836  0.493139  1
  Nd  Nd4  1  0.258533  0.744881  0.237764  1
  Nd  Nd5  1  0.019968  0.262438  0.006671  1
  Nd  Nd6  1  0.007359  0.021353  0.262571  1
  Nd  Nd7  1  0.486924  0.744398  0.006769  1
  Nd  Nd8  1  0.490424  0.240274  0.480522  1
  Nd  Nd9  1  0.010507  0.489680  0.750036  1
  Nd  Nd10  1  0.259755  0.009623  0.019548  1
  Nd  Nd11  1  0.239708  0.260198  0.750043  1
  Ir  Ir12  1  0.000173  0.250149  0.500269  1
  Ir  Ir13  1  0.249847  0.499822  0.999724  1
  Pt  Pt14  1  0.249937  0.250071  0.249992  1
  Pt  Pt15  1  0.500016  0.999954  0.249983  1
  Cl  Cl16  1  0.250511  0.752723  0.749921  1
  Cl  Cl17  1  0.502784  0.500506  0.750132  1
  Cl  Cl18  1  0.001357  0.751178  0.001143  1
  Cl  Cl19  1  0.747301  0.249550  0.750093  1
  Cl  Cl20  1  0.999445  0.997209  0.749883  1
  Cl  Cl21  1  0.250159  0.000247  0.498861  1
  Cl  Cl22  1  0.748769  0.498629  0.498876  1
  Cl  Cl23  1  0.499781  0.249906  0.001154  1
  Cl  Cl24  1  0.750473  0.749487  0.249938  1
  Cl  Cl25  1  0.749461  0.999521  0.999040  1
  Cl  Cl26  1  0.999449  0.500465  0.249937  1
  Cl  Cl27  1  0.500511  0.750573  0.501021  1
