# generated using pymatgen
data_DyPaB6Mo
_symmetry_space_group_name_H-M   'P 1'
_cell_length_a   3.76975400
_cell_length_b   9.20470700
_cell_length_c   11.55560600
_cell_angle_alpha   90.00000000
_cell_angle_beta   90.00000000
_cell_angle_gamma   90.00000000
_symmetry_Int_Tables_number   1
_chemical_formula_structural   DyPaB6Mo
_chemical_formula_sum   'Dy4 Pa4 B24 Mo4'
_cell_volume   400.97353121
_cell_formula_units_Z   4
loop_
 _symmetry_equiv_pos_site_id
 _symmetry_equiv_pos_as_xyz
  1  'x, y, z'
loop_
 _atom_site_type_symbol
 _atom_site_label
 _atom_site_symmetry_multiplicity
 _atom_site_fract_x
 _atom_site_fract_y
 _atom_site_fract_z
 _atom_site_occupancy
  Dy  Dy0  1  0.000000  0.945455  0.374030  1
  Dy  Dy1  1  0.000000  0.054545  0.625970  1
  Dy  Dy2  1  0.000000  0.445455  0.125970  1
  Dy  Dy3  1  0.000000  0.554545  0.874030  1
  Pa  Pa4  1  0.000000  0.322983  0.413248  1
  Pa  Pa5  1  0.000000  0.677017  0.586752  1
  Pa  Pa6  1  0.000000  0.822983  0.086752  1
  Pa  Pa7  1  0.000000  0.177017  0.913248  1
  B  B8  1  0.500000  0.552763  0.433088  1
  B  B9  1  0.500000  0.447237  0.566912  1
  B  B10  1  0.500000  0.052763  0.066912  1
  B  B11  1  0.500000  0.947237  0.933088  1
  B  B12  1  0.500000  0.747829  0.420845  1
  B  B13  1  0.500000  0.252171  0.579155  1
  B  B14  1  0.500000  0.247829  0.079155  1
  B  B15  1  0.500000  0.752171  0.920845  1
  B  B16  1  0.500000  0.793495  0.265383  1
  B  B17  1  0.500000  0.206505  0.734617  1
  B  B18  1  0.500000  0.293495  0.234617  1
  B  B19  1  0.500000  0.706505  0.765383  1
  B  B20  1  0.500000  0.633432  0.185611  1
  B  B21  1  0.500000  0.366568  0.814389  1
  B  B22  1  0.500000  0.133432  0.314389  1
  B  B23  1  0.500000  0.866568  0.685611  1
  B  B24  1  0.500000  0.982093  0.212709  1
  B  B25  1  0.500000  0.017907  0.787291  1
  B  B26  1  0.500000  0.482093  0.287291  1
  B  B27  1  0.500000  0.517907  0.712709  1
  B  B28  1  0.500000  0.614159  0.031789  1
  B  B29  1  0.500000  0.385841  0.968211  1
  B  B30  1  0.500000  0.114159  0.468211  1
  B  B31  1  0.500000  0.885841  0.531789  1
  Mo  Mo32  1  0.000000  0.638279  0.321969  1
  Mo  Mo33  1  0.000000  0.361721  0.678031  1
  Mo  Mo34  1  0.000000  0.138279  0.178031  1
  Mo  Mo35  1  0.000000  0.861721  0.821969  1
