# generated using pymatgen
data_Dy5Ho11Cd4Ir3Ru
_symmetry_space_group_name_H-M   'P 1'
_cell_length_a   9.62185735
_cell_length_b   9.62156798
_cell_length_c   9.62156735
_cell_angle_alpha   59.78918675
_cell_angle_beta   59.78860604
_cell_angle_gamma   59.78860947
_symmetry_Int_Tables_number   1
_chemical_formula_structural   Dy5Ho11Cd4Ir3Ru
_chemical_formula_sum   'Dy5 Ho11 Cd4 Ir3 Ru1'
_cell_volume   626.82781150
_cell_formula_units_Z   1
loop_
 _symmetry_equiv_pos_site_id
 _symmetry_equiv_pos_as_xyz
  1  'x, y, z'
loop_
 _atom_site_type_symbol
 _atom_site_label
 _atom_site_symmetry_multiplicity
 _atom_site_fract_x
 _atom_site_fract_y
 _atom_site_fract_z
 _atom_site_occupancy
  Dy  Dy0  1  0.810221  0.188311  0.188311  1
  Dy  Dy1  1  0.811919  0.188408  0.811755  1
  Dy  Dy2  1  0.188281  0.810302  0.188122  1
  Dy  Dy3  1  0.811919  0.811755  0.188408  1
  Dy  Dy4  1  0.188281  0.188122  0.810302  1
  Ho  Ho5  1  0.598683  0.598716  0.598716  1
  Ho  Ho6  1  0.598422  0.598552  0.205516  1
  Ho  Ho7  1  0.598422  0.205516  0.598552  1
  Ho  Ho8  1  0.205476  0.598464  0.598464  1
  Ho  Ho9  1  0.062024  0.438527  0.438527  1
  Ho  Ho10  1  0.438212  0.060621  0.060621  1
  Ho  Ho11  1  0.438431  0.061976  0.438677  1
  Ho  Ho12  1  0.060618  0.438395  0.060493  1
  Ho  Ho13  1  0.438431  0.438677  0.061976  1
  Ho  Ho14  1  0.060618  0.060493  0.438395  1
  Ho  Ho15  1  0.188615  0.811680  0.811680  1
  Cd  Cd16  1  0.830203  0.830034  0.830034  1
  Cd  Cd17  1  0.830626  0.830652  0.507299  1
  Cd  Cd18  1  0.830626  0.507299  0.830652  1
  Cd  Cd19  1  0.507203  0.830619  0.830619  1
  Ir  Ir20  1  0.392871  0.393074  0.825761  1
  Ir  Ir21  1  0.392871  0.825761  0.393074  1
  Ir  Ir22  1  0.825809  0.392934  0.392934  1
  Ru  Ru23  1  0.391215  0.391109  0.391109  1
