# generated using pymatgen
data_Hf5Sc(Be2Ir5)2
_symmetry_space_group_name_H-M   'P 1'
_cell_length_a   9.48593908
_cell_length_b   9.48593908
_cell_length_c   3.31768400
_cell_angle_alpha   90.00000000
_cell_angle_beta   90.00000000
_cell_angle_gamma   90.01502771
_symmetry_Int_Tables_number   1
_chemical_formula_structural   Hf5Sc(Be2Ir5)2
_chemical_formula_sum   'Hf5 Sc1 Be4 Ir10'
_cell_volume   298.53528267
_cell_formula_units_Z   1
loop_
 _symmetry_equiv_pos_site_id
 _symmetry_equiv_pos_as_xyz
  1  'x, y, z'
loop_
 _atom_site_type_symbol
 _atom_site_label
 _atom_site_symmetry_multiplicity
 _atom_site_fract_x
 _atom_site_fract_y
 _atom_site_fract_z
 _atom_site_occupancy
  Hf  Hf0  1  0.324122  0.174814  0.000000  1
  Hf  Hf1  1  0.826020  0.326020  0.000000  1
  Hf  Hf2  1  0.498898  0.500656  0.000000  1
  Hf  Hf3  1  0.674814  0.824122  0.000000  1
  Hf  Hf4  1  0.000656  0.998898  0.000000  1
  Sc  Sc5  1  0.174976  0.674976  0.000000  1
  Be  Be6  1  0.380005  0.880005  0.000000  1
  Be  Be7  1  0.119052  0.381626  0.000000  1
  Be  Be8  1  0.881626  0.619052  0.000000  1
  Be  Be9  1  0.619149  0.119149  0.000000  1
  Ir  Ir10  1  0.217544  0.930820  0.500000  1
  Ir  Ir11  1  0.924649  0.784005  0.500000  1
  Ir  Ir12  1  0.430820  0.717544  0.500000  1
  Ir  Ir13  1  0.573181  0.284138  0.500000  1
  Ir  Ir14  1  0.715561  0.572128  0.500000  1
  Ir  Ir15  1  0.284005  0.424649  0.500000  1
  Ir  Ir16  1  0.072128  0.215561  0.500000  1
  Ir  Ir17  1  0.997927  0.497927  0.500000  1
  Ir  Ir18  1  0.500728  0.000728  0.500000  1
  Ir  Ir19  1  0.784138  0.073181  0.500000  1
