# generated using pymatgen
data_Li2Tb3Pr2P12Ru17
_symmetry_space_group_name_H-M   'P 1'
_cell_length_a   3.99398300
_cell_length_b   12.56614448
_cell_length_c   12.56777736
_cell_angle_alpha   118.93043249
_cell_angle_beta   90.00000000
_cell_angle_gamma   90.00000000
_symmetry_Int_Tables_number   1
_chemical_formula_structural   Li2Tb3Pr2P12Ru17
_chemical_formula_sum   'Li2 Tb3 Pr2 P12 Ru17'
_cell_volume   552.04931310
_cell_formula_units_Z   1
loop_
 _symmetry_equiv_pos_site_id
 _symmetry_equiv_pos_as_xyz
  1  'x, y, z'
loop_
 _atom_site_type_symbol
 _atom_site_label
 _atom_site_symmetry_multiplicity
 _atom_site_fract_x
 _atom_site_fract_y
 _atom_site_fract_z
 _atom_site_occupancy
  Li  Li0  1  0.000000  0.997837  0.561483  1
  Li  Li1  1  0.000000  0.561613  0.997794  1
  Tb  Tb2  1  0.500000  0.817636  0.817686  1
  Tb  Tb3  1  0.000000  0.337240  0.663276  1
  Tb  Tb4  1  0.000000  0.663477  0.337392  1
  Pr  Pr5  1  0.500000  0.998251  0.181216  1
  Pr  Pr6  1  0.500000  0.181087  0.998282  1
  P  P7  1  0.000000  0.998873  0.806935  1
  P  P8  1  0.000000  0.806903  0.998885  1
  P  P9  1  0.000000  0.185945  0.185963  1
  P  P10  1  0.500000  0.307577  0.479341  1
  P  P11  1  0.500000  0.183842  0.699916  1
  P  P12  1  0.500000  0.521774  0.822214  1
  P  P13  1  0.500000  0.822272  0.521813  1
  P  P14  1  0.500000  0.479377  0.307576  1
  P  P15  1  0.500000  0.699939  0.183870  1
  P  P16  1  0.000000  0.996869  0.369872  1
  P  P17  1  0.000000  0.369872  0.996877  1
  P  P18  1  0.000000  0.624047  0.624036  1
  Ru  Ru19  1  0.000000  0.444812  0.444826  1
  Ru  Ru20  1  0.500000  0.000094  0.710315  1
  Ru  Ru21  1  0.500000  0.710247  0.000090  1
  Ru  Ru22  1  0.500000  0.286655  0.286642  1
  Ru  Ru23  1  0.000000  0.194286  0.380440  1
  Ru  Ru24  1  0.000000  0.186836  0.799857  1
  Ru  Ru25  1  0.000000  0.621625  0.812908  1
  Ru  Ru26  1  0.000000  0.812925  0.621641  1
  Ru  Ru27  1  0.000000  0.380498  0.194329  1
  Ru  Ru28  1  0.000000  0.799834  0.186800  1
  Ru  Ru29  1  0.500000  0.126457  0.494539  1
  Ru  Ru30  1  0.500000  0.371518  0.881507  1
  Ru  Ru31  1  0.500000  0.507923  0.631845  1
  Ru  Ru32  1  0.500000  0.631835  0.507929  1
  Ru  Ru33  1  0.500000  0.494518  0.126428  1
  Ru  Ru34  1  0.500000  0.881474  0.371510  1
  Ru  Ru35  1  0.000000  0.993930  0.993968  1
