# generated using pymatgen
data_Tb6YbIrBr12
_symmetry_space_group_name_H-M   'P 1'
_cell_length_a   9.35188583
_cell_length_b   9.35188490
_cell_length_c   9.35188700
_cell_angle_alpha   107.27686886
_cell_angle_beta   107.27687583
_cell_angle_gamma   107.27687579
_symmetry_Int_Tables_number   1
_chemical_formula_structural   Tb6YbIrBr12
_chemical_formula_sum   'Tb6 Yb1 Ir1 Br12'
_cell_volume   675.94027787
_cell_formula_units_Z   1
loop_
 _symmetry_equiv_pos_site_id
 _symmetry_equiv_pos_as_xyz
  1  'x, y, z'
loop_
 _atom_site_type_symbol
 _atom_site_label
 _atom_site_symmetry_multiplicity
 _atom_site_fract_x
 _atom_site_fract_y
 _atom_site_fract_z
 _atom_site_occupancy
  Tb  Tb0  1  0.102231  0.023870  0.312742  1
  Tb  Tb1  1  0.312742  0.102231  0.023870  1
  Tb  Tb2  1  0.023870  0.312742  0.102231  1
  Tb  Tb3  1  0.897769  0.976130  0.687258  1
  Tb  Tb4  1  0.687258  0.897769  0.976130  1
  Tb  Tb5  1  0.976130  0.687258  0.897769  1
  Yb  Yb6  1  0.500000  0.500000  0.500000  1
  Ir  Ir7  1  0.000000  0.000000  0.000000  1
  Br  Br8  1  0.072186  0.680585  0.219999  1
  Br  Br9  1  0.219999  0.072186  0.680585  1
  Br  Br10  1  0.680585  0.219999  0.072186  1
  Br  Br11  1  0.927814  0.319415  0.780001  1
  Br  Br12  1  0.780001  0.927814  0.319415  1
  Br  Br13  1  0.319415  0.780001  0.927814  1
  Br  Br14  1  0.454145  0.160957  0.377330  1
  Br  Br15  1  0.377330  0.454145  0.160957  1
  Br  Br16  1  0.160957  0.377330  0.454145  1
  Br  Br17  1  0.545855  0.839043  0.622670  1
  Br  Br18  1  0.622670  0.545855  0.839043  1
  Br  Br19  1  0.839043  0.622670  0.545855  1
