# generated using pymatgen
data_Tm16Al4NiIr3
_symmetry_space_group_name_H-M   'P 1'
_cell_length_a   9.37340215
_cell_length_b   9.37340252
_cell_length_c   9.37340193
_cell_angle_alpha   60.38134091
_cell_angle_beta   60.38134186
_cell_angle_gamma   60.38133842
_symmetry_Int_Tables_number   1
_chemical_formula_structural   Tm16Al4NiIr3
_chemical_formula_sum   'Tm16 Al4 Ni1 Ir3'
_cell_volume   587.36281238
_cell_formula_units_Z   1
loop_
 _symmetry_equiv_pos_site_id
 _symmetry_equiv_pos_as_xyz
  1  'x, y, z'
loop_
 _atom_site_type_symbol
 _atom_site_label
 _atom_site_symmetry_multiplicity
 _atom_site_fract_x
 _atom_site_fract_y
 _atom_site_fract_z
 _atom_site_occupancy
  Tm  Tm0  1  0.601308  0.601308  0.601308  1
  Tm  Tm1  1  0.602155  0.602155  0.192987  1
  Tm  Tm2  1  0.602155  0.192987  0.602155  1
  Tm  Tm3  1  0.192987  0.602155  0.602155  1
  Tm  Tm4  1  0.057378  0.443476  0.443476  1
  Tm  Tm5  1  0.445046  0.055411  0.055411  1
  Tm  Tm6  1  0.443476  0.057378  0.443476  1
  Tm  Tm7  1  0.055411  0.445046  0.055411  1
  Tm  Tm8  1  0.443476  0.443476  0.057378  1
  Tm  Tm9  1  0.055411  0.055411  0.445046  1
  Tm  Tm10  1  0.188557  0.811324  0.811324  1
  Tm  Tm11  1  0.815060  0.187283  0.187283  1
  Tm  Tm12  1  0.811324  0.188557  0.811324  1
  Tm  Tm13  1  0.187283  0.815060  0.187283  1
  Tm  Tm14  1  0.811324  0.811324  0.188557  1
  Tm  Tm15  1  0.187283  0.187283  0.815060  1
  Al  Al16  1  0.827902  0.827902  0.827902  1
  Al  Al17  1  0.828791  0.828791  0.515767  1
  Al  Al18  1  0.828791  0.515767  0.828791  1
  Al  Al19  1  0.515767  0.828791  0.828791  1
  Ni  Ni20  1  0.391674  0.391674  0.391674  1
  Ir  Ir21  1  0.391344  0.391344  0.824752  1
  Ir  Ir22  1  0.391344  0.824752  0.391344  1
  Ir  Ir23  1  0.824752  0.391344  0.391344  1
