# generated using pymatgen
data_Tm5CoRu
_symmetry_space_group_name_H-M   'P 1'
_cell_length_a   6.21929921
_cell_length_b   7.05162097
_cell_length_c   8.38351010
_cell_angle_alpha   96.54638286
_cell_angle_beta   111.77265174
_cell_angle_gamma   89.99999519
_symmetry_Int_Tables_number   1
_chemical_formula_structural   Tm5CoRu
_chemical_formula_sum   'Tm10 Co2 Ru2'
_cell_volume   338.85729262
_cell_formula_units_Z   2
loop_
 _symmetry_equiv_pos_site_id
 _symmetry_equiv_pos_as_xyz
  1  'x, y, z'
loop_
 _atom_site_type_symbol
 _atom_site_label
 _atom_site_symmetry_multiplicity
 _atom_site_fract_x
 _atom_site_fract_y
 _atom_site_fract_z
 _atom_site_occupancy
  Tm  Tm0  1  0.978008  0.911069  0.188945  1
  Tm  Tm1  1  0.789064  0.588931  0.811055  1
  Tm  Tm2  1  0.012921  0.083431  0.814598  1
  Tm  Tm3  1  0.198322  0.416569  0.185402  1
  Tm  Tm4  1  0.648013  0.812543  0.433306  1
  Tm  Tm5  1  0.214707  0.687457  0.566694  1
  Tm  Tm6  1  0.357381  0.180880  0.565710  1
  Tm  Tm7  1  0.791670  0.319120  0.434290  1
  Tm  Tm8  1  0.427732  0.750000  0.000000  1
  Tm  Tm9  1  0.578260  0.250000  0.000000  1
  Co  Co10  1  0.825996  0.576498  0.222087  1
  Co  Co11  1  0.603911  0.923502  0.777913  1
  Ru  Ru12  1  0.176488  0.427034  0.778963  1
  Ru  Ru13  1  0.397524  0.072966  0.221037  1
