# generated using pymatgen
data_HoErU(SnRu)3
_symmetry_space_group_name_H-M   'P 1'
_cell_length_a   7.81729602
_cell_length_b   7.43577164
_cell_length_c   3.80152900
_cell_angle_alpha   90.00000000
_cell_angle_beta   90.00000000
_cell_angle_gamma   121.70445254
_symmetry_Int_Tables_number   1
_chemical_formula_structural   HoErU(SnRu)3
_chemical_formula_sum   'Ho1 Er1 U1 Sn3 Ru3'
_cell_volume   187.99799394
_cell_formula_units_Z   1
loop_
 _symmetry_equiv_pos_site_id
 _symmetry_equiv_pos_as_xyz
  1  'x, y, z'
loop_
 _atom_site_type_symbol
 _atom_site_label
 _atom_site_symmetry_multiplicity
 _atom_site_fract_x
 _atom_site_fract_y
 _atom_site_fract_z
 _atom_site_occupancy
  Ho  Ho0  1  0.003084  0.404357  0.500000  1
  Er  Er1  1  0.599128  0.595824  0.500000  1
  U  U2  1  0.414904  0.000048  0.500000  1
  Sn  Sn3  1  0.984871  0.722983  0.000000  1
  Sn  Sn4  1  0.262382  0.277346  0.000000  1
  Sn  Sn5  1  0.757652  0.999481  0.000000  1
  Ru  Ru6  1  0.340935  0.717935  0.000000  1
  Ru  Ru7  1  0.622934  0.282605  0.000000  1
  Ru  Ru8  1  0.014112  0.999421  0.500000  1
