# generated using pymatgen
data_Tb8Ho10Sc2Si15Ru
_symmetry_space_group_name_H-M   'P 1'
_cell_length_a   7.27569968
_cell_length_b   7.74711454
_cell_length_c   14.48205800
_cell_angle_alpha   90.00000000
_cell_angle_beta   90.00000000
_cell_angle_gamma   90.08586742
_symmetry_Int_Tables_number   1
_chemical_formula_structural   Tb8Ho10Sc2Si15Ru
_chemical_formula_sum   'Tb8 Ho10 Sc2 Si15 Ru1'
_cell_volume   816.29011219
_cell_formula_units_Z   1
loop_
 _symmetry_equiv_pos_site_id
 _symmetry_equiv_pos_as_xyz
  1  'x, y, z'
loop_
 _atom_site_type_symbol
 _atom_site_label
 _atom_site_symmetry_multiplicity
 _atom_site_fract_x
 _atom_site_fract_y
 _atom_site_fract_z
 _atom_site_occupancy
  Tb  Tb0  1  0.016729  0.183931  0.098133  1
  Tb  Tb1  1  0.985914  0.824268  0.907516  1
  Tb  Tb2  1  0.484044  0.681714  0.906577  1
  Tb  Tb3  1  0.985914  0.824268  0.592484  1
  Tb  Tb4  1  0.516106  0.318256  0.097685  1
  Tb  Tb5  1  0.016729  0.183931  0.401867  1
  Tb  Tb6  1  0.516106  0.318256  0.402315  1
  Tb  Tb7  1  0.484044  0.681714  0.593423  1
  Ho  Ho8  1  0.155244  0.517012  0.750000  1
  Ho  Ho9  1  0.668995  0.987798  0.750000  1
  Ho  Ho10  1  0.312303  0.173265  0.626656  1
  Ho  Ho11  1  0.676705  0.823875  0.372563  1
  Ho  Ho12  1  0.175787  0.679799  0.372281  1
  Ho  Ho13  1  0.676705  0.823875  0.127437  1
  Ho  Ho14  1  0.834189  0.316571  0.624976  1
  Ho  Ho15  1  0.312303  0.173265  0.873344  1
  Ho  Ho16  1  0.834189  0.316571  0.875024  1
  Ho  Ho17  1  0.175787  0.679799  0.127719  1
  Sc  Sc18  1  0.839353  0.483095  0.250000  1
  Sc  Sc19  1  0.340954  0.018464  0.250000  1
  Si  Si20  1  0.978442  0.907753  0.250000  1
  Si  Si21  1  0.479661  0.594897  0.250000  1
  Si  Si22  1  0.528168  0.395978  0.750000  1
  Si  Si23  1  0.278596  0.865989  0.750000  1
  Si  Si24  1  0.716441  0.135747  0.250000  1
  Si  Si25  1  0.218341  0.365507  0.250000  1
  Si  Si26  1  0.768265  0.623469  0.750000  1
  Si  Si27  1  0.157375  0.472436  0.535521  1
  Si  Si28  1  0.846428  0.530828  0.459013  1
  Si  Si29  1  0.345782  0.970485  0.458370  1
  Si  Si30  1  0.846428  0.530828  0.040987  1
  Si  Si31  1  0.650288  0.031558  0.536112  1
  Si  Si32  1  0.157375  0.472436  0.964479  1
  Si  Si33  1  0.650288  0.031558  0.963888  1
  Si  Si34  1  0.345782  0.970485  0.041630  1
  Ru  Ru35  1  0.024242  0.090314  0.750000  1
