# generated using pymatgen
data_ErTm3(TiCo)4
_symmetry_space_group_name_H-M   'P 1'
_cell_length_a   4.16362700
_cell_length_b   6.57181603
_cell_length_c   8.11174910
_cell_angle_alpha   90.05863155
_cell_angle_beta   90.00000000
_cell_angle_gamma   90.00000000
_symmetry_Int_Tables_number   1
_chemical_formula_structural   ErTm3(TiCo)4
_chemical_formula_sum   'Er1 Tm3 Ti4 Co4'
_cell_volume   221.95835404
_cell_formula_units_Z   1
loop_
 _symmetry_equiv_pos_site_id
 _symmetry_equiv_pos_as_xyz
  1  'x, y, z'
loop_
 _atom_site_type_symbol
 _atom_site_label
 _atom_site_symmetry_multiplicity
 _atom_site_fract_x
 _atom_site_fract_y
 _atom_site_fract_z
 _atom_site_occupancy
  Er  Er0  1  0.750000  0.487967  0.319105  1
  Tm  Tm1  1  0.250000  0.512660  0.681150  1
  Tm  Tm2  1  0.250000  0.012353  0.819387  1
  Tm  Tm3  1  0.750000  0.987638  0.180705  1
  Ti  Ti4  1  0.750000  0.365208  0.934684  1
  Ti  Ti5  1  0.250000  0.133714  0.436219  1
  Ti  Ti6  1  0.250000  0.633987  0.063469  1
  Ti  Ti7  1  0.750000  0.866329  0.565098  1
  Co  Co8  1  0.750000  0.218371  0.586065  1
  Co  Co9  1  0.250000  0.782041  0.415213  1
  Co  Co10  1  0.750000  0.718155  0.914250  1
  Co  Co11  1  0.250000  0.281575  0.084656  1
