# generated using pymatgen
data_LiScTi3Pt11
_symmetry_space_group_name_H-M   'P 1'
_cell_length_a   5.62550200
_cell_length_b   5.58364690
_cell_length_c   9.10825500
_cell_angle_alpha   90.00000000
_cell_angle_beta   90.00000000
_cell_angle_gamma   120.24827754
_symmetry_Int_Tables_number   1
_chemical_formula_structural   LiScTi3Pt11
_chemical_formula_sum   'Li1 Sc1 Ti3 Pt11'
_cell_volume   247.14570913
_cell_formula_units_Z   1
loop_
 _symmetry_equiv_pos_site_id
 _symmetry_equiv_pos_as_xyz
  1  'x, y, z'
loop_
 _atom_site_type_symbol
 _atom_site_label
 _atom_site_symmetry_multiplicity
 _atom_site_fract_x
 _atom_site_fract_y
 _atom_site_fract_z
 _atom_site_occupancy
  Li  Li0  1  0.175371  0.350742  0.750000  1
  Sc  Sc1  1  0.332779  0.665558  0.250000  1
  Ti  Ti2  1  0.994763  0.989526  0.491167  1
  Ti  Ti3  1  0.994763  0.989526  0.008833  1
  Ti  Ti4  1  0.671993  0.343985  0.750000  1
  Pt  Pt5  1  0.493735  0.489900  0.511322  1
  Pt  Pt6  1  0.500630  0.001261  0.505846  1
  Pt  Pt7  1  0.996164  0.489900  0.511322  1
  Pt  Pt8  1  0.493735  0.489900  0.988678  1
  Pt  Pt9  1  0.500630  0.001261  0.994154  1
  Pt  Pt10  1  0.996164  0.489900  0.988678  1
  Pt  Pt11  1  0.834625  0.669249  0.250000  1
  Pt  Pt12  1  0.337628  0.169751  0.250000  1
  Pt  Pt13  1  0.832123  0.169751  0.250000  1
  Pt  Pt14  1  0.673044  0.844894  0.750000  1
  Pt  Pt15  1  0.171851  0.844894  0.750000  1
