# generated using pymatgen
data_Pu4F15
_symmetry_space_group_name_H-M   'P 1'
_cell_length_a   8.69398173
_cell_length_b   8.69398117
_cell_length_c   8.69398154
_cell_angle_alpha   100.68478996
_cell_angle_beta   100.68478481
_cell_angle_gamma   100.68478873
_symmetry_Int_Tables_number   1
_chemical_formula_structural   Pu4F15
_chemical_formula_sum   'Pu8 F30'
_cell_volume   617.89340299
_cell_formula_units_Z   2
loop_
 _symmetry_equiv_pos_site_id
 _symmetry_equiv_pos_as_xyz
  1  'x, y, z'
loop_
 _atom_site_type_symbol
 _atom_site_label
 _atom_site_symmetry_multiplicity
 _atom_site_fract_x
 _atom_site_fract_y
 _atom_site_fract_z
 _atom_site_occupancy
  Pu  Pu0  1  0.250000  0.250000  0.250000  1
  Pu  Pu1  1  0.179828  0.750000  0.320172  1
  Pu  Pu2  1  0.250000  0.679828  0.820172  1
  Pu  Pu3  1  0.679828  0.820172  0.250000  1
  Pu  Pu4  1  0.750000  0.750000  0.750000  1
  Pu  Pu5  1  0.320172  0.179828  0.750000  1
  Pu  Pu6  1  0.750000  0.320172  0.179828  1
  Pu  Pu7  1  0.820172  0.250000  0.679828  1
  F  F8  1  0.965437  0.534563  0.250000  1
  F  F9  1  0.815395  0.340822  0.448386  1
  F  F10  1  0.492950  0.722237  0.722285  1
  F  F11  1  0.340822  0.448386  0.815395  1
  F  F12  1  0.007050  0.777715  0.777763  1
  F  F13  1  0.750000  0.034563  0.465437  1
  F  F14  1  0.948386  0.840822  0.315395  1
  F  F15  1  0.222285  0.222237  0.992950  1
  F  F16  1  0.777763  0.007050  0.777715  1
  F  F17  1  0.315395  0.948386  0.840822  1
  F  F18  1  0.277763  0.277715  0.507050  1
  F  F19  1  0.448386  0.815395  0.340822  1
  F  F20  1  0.534563  0.250000  0.965437  1
  F  F21  1  0.277715  0.507050  0.277763  1
  F  F22  1  0.159178  0.684605  0.051614  1
  F  F23  1  0.840822  0.315395  0.948386  1
  F  F24  1  0.722285  0.492950  0.722237  1
  F  F25  1  0.465437  0.750000  0.034563  1
  F  F26  1  0.551614  0.184605  0.659178  1
  F  F27  1  0.722237  0.722285  0.492950  1
  F  F28  1  0.684605  0.051614  0.159178  1
  F  F29  1  0.222237  0.992950  0.222285  1
  F  F30  1  0.777715  0.777763  0.007050  1
  F  F31  1  0.051614  0.159178  0.684605  1
  F  F32  1  0.250000  0.965437  0.534563  1
  F  F33  1  0.992950  0.222285  0.222237  1
  F  F34  1  0.659178  0.551614  0.184605  1
  F  F35  1  0.507050  0.277763  0.277715  1
  F  F36  1  0.184605  0.659178  0.551614  1
  F  F37  1  0.034563  0.465437  0.750000  1
