# generated using pymatgen
data_Nd6Er3LuPb6
_symmetry_space_group_name_H-M   'P 1'
_cell_length_a   9.24166300
_cell_length_b   9.24166331
_cell_length_c   6.72928100
_cell_angle_alpha   90.00000000
_cell_angle_beta   90.00000000
_cell_angle_gamma   120.00000247
_symmetry_Int_Tables_number   1
_chemical_formula_structural   Nd6Er3LuPb6
_chemical_formula_sum   'Nd6 Er3 Lu1 Pb6'
_cell_volume   497.73657484
_cell_formula_units_Z   1
loop_
 _symmetry_equiv_pos_site_id
 _symmetry_equiv_pos_as_xyz
  1  'x, y, z'
loop_
 _atom_site_type_symbol
 _atom_site_label
 _atom_site_symmetry_multiplicity
 _atom_site_fract_x
 _atom_site_fract_y
 _atom_site_fract_z
 _atom_site_occupancy
  Nd  Nd0  1  0.759220  0.759138  0.749925  1
  Nd  Nd1  1  0.240862  0.000082  0.749925  1
  Nd  Nd2  1  0.999918  0.240780  0.749925  1
  Nd  Nd3  1  0.240862  0.240780  0.250075  1
  Nd  Nd4  1  0.759220  0.000082  0.250075  1
  Nd  Nd5  1  0.999918  0.759138  0.250075  1
  Er  Er6  1  0.666667  0.333333  0.000000  1
  Er  Er7  1  0.333333  0.666667  0.000000  1
  Er  Er8  1  0.333333  0.666667  0.500000  1
  Lu  Lu9  1  0.666667  0.333333  0.500000  1
  Pb  Pb10  1  0.398042  0.397825  0.749847  1
  Pb  Pb11  1  0.602175  0.000217  0.749847  1
  Pb  Pb12  1  0.999783  0.601958  0.749847  1
  Pb  Pb13  1  0.602175  0.601958  0.250153  1
  Pb  Pb14  1  0.398042  0.000217  0.250153  1
  Pb  Pb15  1  0.999783  0.397825  0.250153  1
