# generated using pymatgen
data_HoEr15In4NiIr3
_symmetry_space_group_name_H-M   'P 1'
_cell_length_a   9.56143205
_cell_length_b   9.57777899
_cell_length_c   9.58715453
_cell_angle_alpha   60.03234725
_cell_angle_beta   59.93432122
_cell_angle_gamma   59.94343117
_symmetry_Int_Tables_number   1
_chemical_formula_structural   HoEr15In4NiIr3
_chemical_formula_sum   'Ho1 Er15 In4 Ni1 Ir3'
_cell_volume   620.39241843
_cell_formula_units_Z   1
loop_
 _symmetry_equiv_pos_site_id
 _symmetry_equiv_pos_as_xyz
  1  'x, y, z'
loop_
 _atom_site_type_symbol
 _atom_site_label
 _atom_site_symmetry_multiplicity
 _atom_site_fract_x
 _atom_site_fract_y
 _atom_site_fract_z
 _atom_site_occupancy
  Ho  Ho0  1  0.438795  0.063200  0.434806  1
  Er  Er1  1  0.439604  0.436486  0.061767  1
  Er  Er2  1  0.648044  0.652409  0.047141  1
  Er  Er3  1  0.191157  0.809794  0.189254  1
  Er  Er4  1  0.058566  0.441151  0.059130  1
  Er  Er5  1  0.191672  0.809694  0.810278  1
  Er  Er6  1  0.058608  0.441210  0.440090  1
  Er  Er7  1  0.810628  0.190142  0.190957  1
  Er  Er8  1  0.649189  0.653489  0.652470  1
  Er  Er9  1  0.810598  0.190429  0.808544  1
  Er  Er10  1  0.191672  0.188355  0.810278  1
  Er  Er11  1  0.049467  0.650602  0.649329  1
  Er  Er12  1  0.439604  0.062142  0.061767  1
  Er  Er13  1  0.058608  0.060091  0.440090  1
  Er  Er14  1  0.649189  0.044855  0.652470  1
  Er  Er15  1  0.810628  0.808273  0.190957  1
  In  In16  1  0.418130  0.416100  0.416235  1
  In  In17  1  0.418271  0.416231  0.749268  1
  In  In18  1  0.418130  0.749536  0.416235  1
  In  In19  1  0.748157  0.417392  0.417062  1
  Ni  Ni20  1  0.422853  0.858504  0.860138  1
  Ir  Ir21  1  0.859237  0.857469  0.858484  1
  Ir  Ir22  1  0.859237  0.424809  0.858484  1
  Ir  Ir23  1  0.859955  0.857638  0.424767  1
