# generated using pymatgen
data_Dy20IrRu9Au2
_symmetry_space_group_name_H-M   'P 1'
_cell_length_a   11.00017379
_cell_length_b   10.89818438
_cell_length_c   6.38093422
_cell_angle_alpha   90.05671527
_cell_angle_beta   89.84310001
_cell_angle_gamma   89.99069486
_symmetry_Int_Tables_number   1
_chemical_formula_structural   Dy20IrRu9Au2
_chemical_formula_sum   'Dy20 Ir1 Ru9 Au2'
_cell_volume   764.95540659
_cell_formula_units_Z   1
loop_
 _symmetry_equiv_pos_site_id
 _symmetry_equiv_pos_as_xyz
  1  'x, y, z'
loop_
 _atom_site_type_symbol
 _atom_site_label
 _atom_site_symmetry_multiplicity
 _atom_site_fract_x
 _atom_site_fract_y
 _atom_site_fract_z
 _atom_site_occupancy
  Dy  Dy0  1  0.292304  0.087095  0.374936  1
  Dy  Dy1  1  0.292417  0.913519  0.875501  1
  Dy  Dy2  1  0.696063  0.091192  0.867277  1
  Dy  Dy3  1  0.696126  0.908327  0.366757  1
  Dy  Dy4  1  0.576596  0.790519  0.875114  1
  Dy  Dy5  1  0.576733  0.209530  0.375056  1
  Dy  Dy6  1  0.409255  0.791301  0.377915  1
  Dy  Dy7  1  0.409725  0.208645  0.878307  1
  Dy  Dy8  1  0.211289  0.411796  0.623123  1
  Dy  Dy9  1  0.210666  0.588391  0.119936  1
  Dy  Dy10  1  0.789749  0.421570  0.121598  1
  Dy  Dy11  1  0.789900  0.578197  0.624853  1
  Dy  Dy12  1  0.918136  0.706157  0.137874  1
  Dy  Dy13  1  0.918766  0.293439  0.641212  1
  Dy  Dy14  1  0.096469  0.703143  0.623770  1
  Dy  Dy15  1  0.096653  0.296803  0.121054  1
  Dy  Dy16  1  0.009429  0.996613  0.498922  1
  Dy  Dy17  1  0.009355  0.003064  0.998693  1
  Dy  Dy18  1  0.499999  0.498398  0.000392  1
  Dy  Dy19  1  0.500281  0.501486  0.500084  1
  Ir  Ir20  1  0.001136  0.499400  0.380244  1
  Ru  Ru21  1  0.151709  0.152671  0.747671  1
  Ru  Ru22  1  0.151494  0.847611  0.248310  1
  Ru  Ru23  1  0.655704  0.346161  0.747380  1
  Ru  Ru24  1  0.655763  0.654428  0.248285  1
  Ru  Ru25  1  0.347551  0.347240  0.250615  1
  Ru  Ru26  1  0.347940  0.652682  0.749653  1
  Ru  Ru27  1  0.499079  0.000363  0.121232  1
  Ru  Ru28  1  0.499196  0.999676  0.621170  1
  Ru  Ru29  1  0.001143  0.500222  0.880616  1
  Au  Au30  1  0.844958  0.155392  0.251686  1
  Au  Au31  1  0.844418  0.844967  0.750761  1
