# generated using pymatgen
data_TmLu3B12MoRh
_symmetry_space_group_name_H-M   'P 1'
_cell_length_a   3.60801100
_cell_length_b   9.09536604
_cell_length_c   11.49081979
_cell_angle_alpha   90.39383236
_cell_angle_beta   90.00000000
_cell_angle_gamma   90.00000000
_symmetry_Int_Tables_number   1
_chemical_formula_structural   TmLu3B12MoRh
_chemical_formula_sum   'Tm2 Lu6 B24 Mo2 Rh2'
_cell_volume   377.07591081
_cell_formula_units_Z   2
loop_
 _symmetry_equiv_pos_site_id
 _symmetry_equiv_pos_as_xyz
  1  'x, y, z'
loop_
 _atom_site_type_symbol
 _atom_site_label
 _atom_site_symmetry_multiplicity
 _atom_site_fract_x
 _atom_site_fract_y
 _atom_site_fract_z
 _atom_site_occupancy
  Tm  Tm0  1  0.500000  0.318662  0.411800  1
  Tm  Tm1  1  0.500000  0.681338  0.588200  1
  Lu  Lu2  1  0.500000  0.175088  0.916943  1
  Lu  Lu3  1  0.500000  0.824912  0.083057  1
  Lu  Lu4  1  0.500000  0.443643  0.126200  1
  Lu  Lu5  1  0.500000  0.556357  0.873800  1
  Lu  Lu6  1  0.500000  0.054430  0.628050  1
  Lu  Lu7  1  0.500000  0.945570  0.371950  1
  B  B8  1  0.000000  0.105522  0.472372  1
  B  B9  1  0.000000  0.894478  0.527628  1
  B  B10  1  0.000000  0.395315  0.970240  1
  B  B11  1  0.000000  0.604685  0.029760  1
  B  B12  1  0.000000  0.132490  0.317942  1
  B  B13  1  0.000000  0.867510  0.682058  1
  B  B14  1  0.000000  0.368190  0.816666  1
  B  B15  1  0.000000  0.631810  0.183334  1
  B  B16  1  0.000000  0.051706  0.065330  1
  B  B17  1  0.000000  0.948294  0.934670  1
  B  B18  1  0.000000  0.446104  0.565389  1
  B  B19  1  0.000000  0.553896  0.434611  1
  B  B20  1  0.000000  0.483181  0.287666  1
  B  B21  1  0.000000  0.516819  0.712334  1
  B  B22  1  0.000000  0.021214  0.786374  1
  B  B23  1  0.000000  0.978786  0.213626  1
  B  B24  1  0.000000  0.251143  0.078307  1
  B  B25  1  0.000000  0.748857  0.921693  1
  B  B26  1  0.000000  0.249632  0.579332  1
  B  B27  1  0.000000  0.750368  0.420668  1
  B  B28  1  0.000000  0.296805  0.236277  1
  B  B29  1  0.000000  0.703195  0.763723  1
  B  B30  1  0.000000  0.207770  0.734842  1
  B  B31  1  0.000000  0.792230  0.265158  1
  Mo  Mo32  1  0.500000  0.139542  0.180948  1
  Mo  Mo33  1  0.500000  0.860458  0.819052  1
  Rh  Rh34  1  0.500000  0.361389  0.678809  1
  Rh  Rh35  1  0.500000  0.638611  0.321191  1
