# generated using pymatgen
data_NaLaNd5NiBr12
_symmetry_space_group_name_H-M   'P 1'
_cell_length_a   9.43657079
_cell_length_b   9.59692126
_cell_length_c   9.61537544
_cell_angle_alpha   107.32438907
_cell_angle_beta   107.00129106
_cell_angle_gamma   107.14153775
_symmetry_Int_Tables_number   1
_chemical_formula_structural   NaLaNd5NiBr12
_chemical_formula_sum   'Na1 La1 Nd5 Ni1 Br12'
_cell_volume   722.09293990
_cell_formula_units_Z   1
loop_
 _symmetry_equiv_pos_site_id
 _symmetry_equiv_pos_as_xyz
  1  'x, y, z'
loop_
 _atom_site_type_symbol
 _atom_site_label
 _atom_site_symmetry_multiplicity
 _atom_site_fract_x
 _atom_site_fract_y
 _atom_site_fract_z
 _atom_site_occupancy
  Na  Na0  1  0.500322  0.499685  0.499256  1
  La  La1  1  0.688896  0.891154  0.972403  1
  Nd  Nd2  1  0.305333  0.107883  0.027579  1
  Nd  Nd3  1  0.028765  0.322400  0.115696  1
  Nd  Nd4  1  0.117077  0.030415  0.322382  1
  Nd  Nd5  1  0.885863  0.970343  0.678797  1
  Nd  Nd6  1  0.970964  0.677625  0.884465  1
  Ni  Ni7  1  0.997164  0.999294  0.000331  1
  Br  Br8  1  0.680889  0.219590  0.071755  1
  Br  Br9  1  0.370153  0.452123  0.156010  1
  Br  Br10  1  0.072061  0.684717  0.214042  1
  Br  Br11  1  0.786585  0.928857  0.319939  1
  Br  Br12  1  0.457241  0.157364  0.368604  1
  Br  Br13  1  0.154109  0.368689  0.454014  1
  Br  Br14  1  0.847178  0.631398  0.546556  1
  Br  Br15  1  0.542937  0.841929  0.625733  1
  Br  Br16  1  0.217877  0.072351  0.685580  1
  Br  Br17  1  0.928940  0.315635  0.786267  1
  Br  Br18  1  0.629537  0.542739  0.840926  1
  Br  Br19  1  0.318110  0.785807  0.929664  1
