# generated using pymatgen
data_HoErCo9P6Os
_symmetry_space_group_name_H-M   'P 1'
_cell_length_a   3.67358600
_cell_length_b   10.31891100
_cell_length_c   11.71771200
_cell_angle_alpha   90.00000000
_cell_angle_beta   90.00000000
_cell_angle_gamma   90.00000000
_symmetry_Int_Tables_number   1
_chemical_formula_structural   HoErCo9P6Os
_chemical_formula_sum   'Ho2 Er2 Co18 P12 Os2'
_cell_volume   444.18807772
_cell_formula_units_Z   2
loop_
 _symmetry_equiv_pos_site_id
 _symmetry_equiv_pos_as_xyz
  1  'x, y, z'
loop_
 _atom_site_type_symbol
 _atom_site_label
 _atom_site_symmetry_multiplicity
 _atom_site_fract_x
 _atom_site_fract_y
 _atom_site_fract_z
 _atom_site_occupancy
  Ho  Ho0  1  0.250000  0.582384  0.701992  1
  Ho  Ho1  1  0.250000  0.917616  0.201992  1
  Er  Er2  1  0.750000  0.413609  0.295317  1
  Er  Er3  1  0.750000  0.086391  0.795317  1
  Co  Co4  1  0.750000  0.283355  0.008821  1
  Co  Co5  1  0.750000  0.216645  0.508821  1
  Co  Co6  1  0.250000  0.406345  0.487655  1
  Co  Co7  1  0.250000  0.093655  0.987655  1
  Co  Co8  1  0.750000  0.591626  0.510134  1
  Co  Co9  1  0.750000  0.908374  0.010134  1
  Co  Co10  1  0.250000  0.220457  0.177140  1
  Co  Co11  1  0.250000  0.279543  0.677140  1
  Co  Co12  1  0.750000  0.777434  0.822714  1
  Co  Co13  1  0.750000  0.722566  0.322714  1
  Co  Co14  1  0.250000  0.887566  0.702023  1
  Co  Co15  1  0.250000  0.612434  0.202023  1
  Co  Co16  1  0.750000  0.115949  0.300937  1
  Co  Co17  1  0.750000  0.384051  0.800937  1
  Co  Co18  1  0.250000  0.465090  0.932658  1
  Co  Co19  1  0.250000  0.034910  0.432658  1
  Co  Co20  1  0.750000  0.533334  0.069100  1
  Co  Co21  1  0.750000  0.966666  0.569100  1
  P  P22  1  0.250000  0.416160  0.112739  1
  P  P23  1  0.250000  0.083840  0.612739  1
  P  P24  1  0.750000  0.578393  0.886398  1
  P  P25  1  0.750000  0.921607  0.386398  1
  P  P26  1  0.250000  0.269893  0.869432  1
  P  P27  1  0.250000  0.230107  0.369432  1
  P  P28  1  0.750000  0.729619  0.132474  1
  P  P29  1  0.750000  0.770381  0.632474  1
  P  P30  1  0.250000  0.593303  0.389885  1
  P  P31  1  0.250000  0.906697  0.889885  1
  P  P32  1  0.750000  0.397576  0.608780  1
  P  P33  1  0.750000  0.102424  0.108780  1
  Os  Os34  1  0.250000  0.715266  0.991802  1
  Os  Os35  1  0.250000  0.784734  0.491802  1
