# generated using pymatgen
data_Ho10Tl3Tc
_symmetry_space_group_name_H-M   'P 1'
_cell_length_a   9.73785700
_cell_length_b   9.73785678
_cell_length_c   9.70828600
_cell_angle_alpha   90.00000000
_cell_angle_beta   90.00000000
_cell_angle_gamma   120.00000414
_symmetry_Int_Tables_number   1
_chemical_formula_structural   Ho10Tl3Tc
_chemical_formula_sum   'Ho20 Tl6 Tc2'
_cell_volume   797.25995556
_cell_formula_units_Z   2
loop_
 _symmetry_equiv_pos_site_id
 _symmetry_equiv_pos_as_xyz
  1  'x, y, z'
loop_
 _atom_site_type_symbol
 _atom_site_label
 _atom_site_symmetry_multiplicity
 _atom_site_fract_x
 _atom_site_fract_y
 _atom_site_fract_z
 _atom_site_occupancy
  Ho  Ho0  1  0.000000  0.000000  0.500000  1
  Ho  Ho1  1  0.000000  0.000000  0.000000  1
  Ho  Ho2  1  0.210635  0.789365  0.438755  1
  Ho  Ho3  1  0.210635  0.421270  0.438755  1
  Ho  Ho4  1  0.578730  0.789365  0.438755  1
  Ho  Ho5  1  0.789365  0.210635  0.561245  1
  Ho  Ho6  1  0.789365  0.578730  0.561245  1
  Ho  Ho7  1  0.421270  0.210635  0.561245  1
  Ho  Ho8  1  0.789365  0.210635  0.938755  1
  Ho  Ho9  1  0.789365  0.578730  0.938755  1
  Ho  Ho10  1  0.421270  0.210635  0.938755  1
  Ho  Ho11  1  0.210635  0.789365  0.061245  1
  Ho  Ho12  1  0.210635  0.421270  0.061245  1
  Ho  Ho13  1  0.578730  0.789365  0.061245  1
  Ho  Ho14  1  0.537177  0.462823  0.250000  1
  Ho  Ho15  1  0.537177  0.074352  0.250000  1
  Ho  Ho16  1  0.925648  0.462823  0.250000  1
  Ho  Ho17  1  0.462823  0.537177  0.750000  1
  Ho  Ho18  1  0.462823  0.925648  0.750000  1
  Ho  Ho19  1  0.074352  0.537177  0.750000  1
  Tl  Tl20  1  0.882043  0.117957  0.250000  1
  Tl  Tl21  1  0.882043  0.764089  0.250000  1
  Tl  Tl22  1  0.235911  0.117957  0.250000  1
  Tl  Tl23  1  0.117957  0.882043  0.750000  1
  Tl  Tl24  1  0.117957  0.235911  0.750000  1
  Tl  Tl25  1  0.764089  0.882043  0.750000  1
  Tc  Tc26  1  0.333333  0.666667  0.250000  1
  Tc  Tc27  1  0.666667  0.333333  0.750000  1
