# generated using pymatgen
data_Er3Sc7Co6(Si10Ir)2
_symmetry_space_group_name_H-M   'P 1'
_cell_length_a   12.22864410
_cell_length_b   12.17645398
_cell_length_c   4.01105300
_cell_angle_alpha   90.00000000
_cell_angle_beta   90.00000000
_cell_angle_gamma   89.73611279
_symmetry_Int_Tables_number   1
_chemical_formula_structural   Er3Sc7Co6(Si10Ir)2
_chemical_formula_sum   'Er3 Sc7 Co6 Si20 Ir2'
_cell_volume   597.24556224
_cell_formula_units_Z   1
loop_
 _symmetry_equiv_pos_site_id
 _symmetry_equiv_pos_as_xyz
  1  'x, y, z'
loop_
 _atom_site_type_symbol
 _atom_site_label
 _atom_site_symmetry_multiplicity
 _atom_site_fract_x
 _atom_site_fract_y
 _atom_site_fract_z
 _atom_site_occupancy
  Er  Er0  1  0.117116  0.613608  0.500000  1
  Er  Er1  1  0.388629  0.112894  0.500000  1
  Er  Er2  1  0.611874  0.887974  0.500000  1
  Sc  Sc3  1  0.500985  0.500186  0.000000  1
  Sc  Sc4  1  0.000082  0.000528  0.000000  1
  Sc  Sc5  1  0.673265  0.176741  0.500000  1
  Sc  Sc6  1  0.327867  0.824989  0.500000  1
  Sc  Sc7  1  0.177774  0.325037  0.500000  1
  Sc  Sc8  1  0.820715  0.672262  0.500000  1
  Sc  Sc9  1  0.882770  0.386546  0.500000  1
  Co  Co10  1  0.743164  0.521473  0.000000  1
  Co  Co11  1  0.257792  0.477918  0.000000  1
  Co  Co12  1  0.246062  0.976481  0.000000  1
  Co  Co13  1  0.754123  0.024161  0.000000  1
  Co  Co14  1  0.477897  0.743152  0.000000  1
  Co  Co15  1  0.522859  0.257587  0.000000  1
  Si  Si16  1  0.569354  0.070998  0.000000  1
  Si  Si17  1  0.431431  0.930122  0.000000  1
  Si  Si18  1  0.072989  0.436159  0.000000  1
  Si  Si19  1  0.925965  0.561351  0.000000  1
  Si  Si20  1  0.656395  0.694033  0.000000  1
  Si  Si21  1  0.343883  0.305759  0.000000  1
  Si  Si22  1  0.168068  0.802850  0.000000  1
  Si  Si23  1  0.832177  0.198837  0.000000  1
  Si  Si24  1  0.308459  0.657481  0.000000  1
  Si  Si25  1  0.693377  0.343199  0.000000  1
  Si  Si26  1  0.203464  0.157312  0.000000  1
  Si  Si27  1  0.795792  0.842815  0.000000  1
  Si  Si28  1  0.662740  0.500282  0.500000  1
  Si  Si29  1  0.340300  0.492878  0.500000  1
  Si  Si30  1  0.162894  0.993662  0.500000  1
  Si  Si31  1  0.837112  0.007145  0.500000  1
  Si  Si32  1  0.495456  0.662080  0.500000  1
  Si  Si33  1  0.504925  0.338786  0.500000  1
  Si  Si34  1  0.002596  0.152309  0.500000  1
  Si  Si35  1  0.990831  0.849818  0.500000  1
  Ir  Ir36  1  0.021092  0.247300  0.000000  1
  Ir  Ir37  1  0.977725  0.753287  0.000000  1
