# generated using pymatgen
data_K2Rb3Tl(TcH9)3
_symmetry_space_group_name_H-M   'P 1'
_cell_length_a   9.78101700
_cell_length_b   9.75115915
_cell_length_c   5.77572300
_cell_angle_alpha   90.00000000
_cell_angle_beta   90.00000000
_cell_angle_gamma   120.10133787
_symmetry_Int_Tables_number   1
_chemical_formula_structural   K2Rb3Tl(TcH9)3
_chemical_formula_sum   'K2 Rb3 Tl1 Tc3 H27'
_cell_volume   476.57676139
_cell_formula_units_Z   1
loop_
 _symmetry_equiv_pos_site_id
 _symmetry_equiv_pos_as_xyz
  1  'x, y, z'
loop_
 _atom_site_type_symbol
 _atom_site_label
 _atom_site_symmetry_multiplicity
 _atom_site_fract_x
 _atom_site_fract_y
 _atom_site_fract_z
 _atom_site_occupancy
  K  K0  1  0.000371  0.260815  0.500000  1
  K  K1  1  0.739556  0.739185  0.500000  1
  Rb  Rb2  1  0.589376  0.000000  0.000000  1
  Rb  Rb3  1  0.000671  0.591908  0.000000  1
  Rb  Rb4  1  0.408762  0.408092  0.000000  1
  Tl  Tl5  1  0.264724  0.000000  0.500000  1
  Tc  Tc6  1  0.998049  0.000000  0.000000  1
  Tc  Tc7  1  0.333589  0.666687  0.500000  1
  Tc  Tc8  1  0.666903  0.333313  0.500000  1
  H  H9  1  0.875747  0.000000  0.208074  1
  H  H10  1  0.998991  0.876783  0.205751  1
  H  H11  1  0.875747  0.000000  0.791926  1
  H  H12  1  0.998991  0.876783  0.794249  1
  H  H13  1  0.122208  0.123217  0.205751  1
  H  H14  1  0.122208  0.123217  0.794249  1
  H  H15  1  0.168199  0.000000  0.000000  1
  H  H16  1  0.999572  0.171962  0.000000  1
  H  H17  1  0.827611  0.828038  0.000000  1
  H  H18  1  0.227078  0.534443  0.290406  1
  H  H19  1  0.465437  0.692088  0.290473  1
  H  H20  1  0.227078  0.534443  0.709594  1
  H  H21  1  0.535461  0.227823  0.711828  1
  H  H22  1  0.307639  0.772177  0.288172  1
  H  H23  1  0.465437  0.692088  0.709527  1
  H  H24  1  0.692634  0.465557  0.709594  1
  H  H25  1  0.535461  0.227823  0.288172  1
  H  H26  1  0.307639  0.772177  0.711828  1
  H  H27  1  0.692634  0.465557  0.290406  1
  H  H28  1  0.773348  0.307912  0.709527  1
  H  H29  1  0.773348  0.307912  0.290473  1
  H  H30  1  0.368384  0.516283  0.500000  1
  H  H31  1  0.485658  0.852106  0.500000  1
  H  H32  1  0.518214  0.370592  0.500000  1
  H  H33  1  0.147621  0.629408  0.500000  1
  H  H34  1  0.852100  0.483717  0.500000  1
  H  H35  1  0.633552  0.147894  0.500000  1
