# generated using pymatgen
data_Nd4YErCoBr10
_symmetry_space_group_name_H-M   'P 1'
_cell_length_a   7.46939513
_cell_length_b   9.35149853
_cell_length_c   9.49227073
_cell_angle_alpha   108.77528705
_cell_angle_beta   96.03489735
_cell_angle_gamma   105.23470220
_symmetry_Int_Tables_number   1
_chemical_formula_structural   Nd4YErCoBr10
_chemical_formula_sum   'Nd4 Y1 Er1 Co1 Br10'
_cell_volume   592.48854532
_cell_formula_units_Z   1
loop_
 _symmetry_equiv_pos_site_id
 _symmetry_equiv_pos_as_xyz
  1  'x, y, z'
loop_
 _atom_site_type_symbol
 _atom_site_label
 _atom_site_symmetry_multiplicity
 _atom_site_fract_x
 _atom_site_fract_y
 _atom_site_fract_z
 _atom_site_occupancy
  Nd  Nd0  1  0.470861  0.788398  0.591959  1
  Nd  Nd1  1  0.530333  0.212178  0.409388  1
  Nd  Nd2  1  0.374041  0.455223  0.749294  1
  Nd  Nd3  1  0.627902  0.546450  0.251875  1
  Y  Y4  1  0.144298  0.368304  0.326523  1
  Er  Er5  1  0.850449  0.629265  0.670886  1
  Co  Co6  1  0.499900  0.500197  0.499878  1
  Br  Br7  1  0.412902  0.130690  0.673758  1
  Br  Br8  1  0.587124  0.869596  0.326708  1
  Br  Br9  1  0.047933  0.674804  0.421823  1
  Br  Br10  1  0.951668  0.329249  0.583044  1
  Br  Br11  1  0.264006  0.752777  0.842069  1
  Br  Br12  1  0.731351  0.245510  0.155394  1
  Br  Br13  1  0.242443  0.413514  0.051108  1
  Br  Br14  1  0.761604  0.587951  0.946146  1
  Br  Br15  1  0.860160  0.943264  0.770567  1
  Br  Br16  1  0.143025  0.052630  0.229580  1
