# generated using pymatgen
data_Tb12Nd8Si15Sb
_symmetry_space_group_name_H-M   'P 1'
_cell_length_a   7.79576613
_cell_length_b   7.81479447
_cell_length_c   14.59957100
_cell_angle_alpha   89.80018860
_cell_angle_beta   89.94864097
_cell_angle_gamma   90.11916645
_symmetry_Int_Tables_number   1
_chemical_formula_structural   Tb12Nd8Si15Sb
_chemical_formula_sum   'Tb12 Nd8 Si15 Sb1'
_cell_volume   889.43189619
_cell_formula_units_Z   1
loop_
 _symmetry_equiv_pos_site_id
 _symmetry_equiv_pos_as_xyz
  1  'x, y, z'
loop_
 _atom_site_type_symbol
 _atom_site_label
 _atom_site_symmetry_multiplicity
 _atom_site_fract_x
 _atom_site_fract_y
 _atom_site_fract_z
 _atom_site_occupancy
  Tb  Tb0  1  0.489156  0.363812  0.124210  1
  Tb  Tb1  1  0.978116  0.146246  0.630755  1
  Tb  Tb2  1  0.863909  0.011960  0.875527  1
  Tb  Tb3  1  0.134971  0.985387  0.370522  1
  Tb  Tb4  1  0.513227  0.630355  0.625192  1
  Tb  Tb5  1  0.363913  0.489302  0.876472  1
  Tb  Tb6  1  0.639660  0.507868  0.373192  1
  Tb  Tb7  1  0.010977  0.864629  0.124589  1
  Tb  Tb8  1  0.312283  0.326021  0.497475  1
  Tb  Tb9  1  0.184063  0.814190  0.757145  1
  Tb  Tb10  1  0.814937  0.183954  0.249040  1
  Tb  Tb11  1  0.685379  0.685321  0.000210  1
  Nd  Nd12  1  0.641529  0.989947  0.452043  1
  Nd  Nd13  1  0.366112  0.008776  0.955976  1
  Nd  Nd14  1  0.989220  0.632082  0.545349  1
  Nd  Nd15  1  0.490670  0.863472  0.205836  1
  Nd  Nd16  1  0.515895  0.145631  0.712223  1
  Nd  Nd17  1  0.866174  0.493203  0.797354  1
  Nd  Nd18  1  0.134154  0.505435  0.292035  1
  Nd  Nd19  1  0.009192  0.363660  0.044232  1
  Si  Si20  1  0.711373  0.068288  0.061155  1
  Si  Si21  1  0.933029  0.285475  0.438481  1
  Si  Si22  1  0.431989  0.207485  0.310552  1
  Si  Si23  1  0.567397  0.789031  0.810728  1
  Si  Si24  1  0.210683  0.435578  0.689649  1
  Si  Si25  1  0.787845  0.567078  0.187471  1
  Si  Si26  1  0.067265  0.710745  0.940982  1
  Si  Si27  1  0.799086  0.841383  0.693090  1
  Si  Si28  1  0.202259  0.157282  0.191684  1
  Si  Si29  1  0.841602  0.798412  0.305151  1
  Si  Si30  1  0.344362  0.688436  0.431212  1
  Si  Si31  1  0.657436  0.298416  0.942512  1
  Si  Si32  1  0.695774  0.338492  0.554311  1
  Si  Si33  1  0.299151  0.657942  0.058047  1
  Si  Si34  1  0.158274  0.201708  0.809630  1
  Sb  Sb35  1  0.288935  0.943000  0.565966  1
