# generated using pymatgen
data_TbY2TmIn4
_symmetry_space_group_name_H-M   'P 1'
_cell_length_a   6.50000257
_cell_length_b   6.50000403
_cell_length_c   10.32985400
_cell_angle_alpha   90.00000000
_cell_angle_beta   90.00000000
_cell_angle_gamma   103.97464527
_symmetry_Int_Tables_number   1
_chemical_formula_structural   TbY2TmIn4
_chemical_formula_sum   'Tb2 Y4 Tm2 In8'
_cell_volume   423.51941856
_cell_formula_units_Z   2
loop_
 _symmetry_equiv_pos_site_id
 _symmetry_equiv_pos_as_xyz
  1  'x, y, z'
loop_
 _atom_site_type_symbol
 _atom_site_label
 _atom_site_symmetry_multiplicity
 _atom_site_fract_x
 _atom_site_fract_y
 _atom_site_fract_z
 _atom_site_occupancy
  Tb  Tb0  1  0.752214  0.247786  0.500000  1
  Tb  Tb1  1  0.752214  0.247786  0.000000  1
  Y  Y2  1  0.524073  0.524219  0.250000  1
  Y  Y3  1  0.475781  0.475927  0.750000  1
  Y  Y4  1  0.247822  0.752178  0.500000  1
  Y  Y5  1  0.247822  0.752178  0.000000  1
  Tm  Tm6  1  0.982281  0.982213  0.250000  1
  Tm  Tm7  1  0.017787  0.017719  0.750000  1
  In  In8  1  0.250603  0.250590  0.013342  1
  In  In9  1  0.749410  0.749397  0.986658  1
  In  In10  1  0.250603  0.250590  0.486658  1
  In  In11  1  0.749410  0.749397  0.513342  1
  In  In12  1  0.486564  0.014560  0.250000  1
  In  In13  1  0.985440  0.513436  0.750000  1
  In  In14  1  0.513266  0.985292  0.750000  1
  In  In15  1  0.014708  0.486734  0.250000  1
