# generated using pymatgen
data_Rb4Hf2Zr4CBr18
_symmetry_space_group_name_H-M   'P 1'
_cell_length_a   10.63501948
_cell_length_b   10.85034411
_cell_length_c   10.95406722
_cell_angle_alpha   118.38203782
_cell_angle_beta   100.26813011
_cell_angle_gamma   104.04109432
_symmetry_Int_Tables_number   1
_chemical_formula_structural   Rb4Hf2Zr4CBr18
_chemical_formula_sum   'Rb4 Hf2 Zr4 C1 Br18'
_cell_volume   1013.03121871
_cell_formula_units_Z   1
loop_
 _symmetry_equiv_pos_site_id
 _symmetry_equiv_pos_as_xyz
  1  'x, y, z'
loop_
 _atom_site_type_symbol
 _atom_site_label
 _atom_site_symmetry_multiplicity
 _atom_site_fract_x
 _atom_site_fract_y
 _atom_site_fract_z
 _atom_site_occupancy
  Rb  Rb0  1  0.188802  0.725082  0.562952  1
  Rb  Rb1  1  0.844305  0.962821  0.771701  1
  Rb  Rb2  1  0.155304  0.036621  0.228227  1
  Rb  Rb3  1  0.811209  0.274239  0.436391  1
  Hf  Hf4  1  0.359999  0.273017  0.957436  1
  Hf  Hf5  1  0.633158  0.381614  0.874537  1
  Zr  Zr6  1  0.356164  0.448148  0.781458  1
  Zr  Zr7  1  0.369372  0.620213  0.125265  1
  Zr  Zr8  1  0.637811  0.726800  0.043596  1
  Zr  Zr9  1  0.643925  0.555482  0.220206  1
  C  C10  1  0.499853  0.493227  0.996661  1
  Br  Br11  1  0.814242  0.424491  0.105076  1
  Br  Br12  1  0.514536  0.699981  0.399577  1
  Br  Br13  1  0.188102  0.993689  0.902557  1
  Br  Br14  1  0.183087  0.574287  0.891166  1
  Br  Br15  1  0.825347  0.827158  0.305259  1
  Br  Br16  1  0.501365  0.298554  0.200824  1
  Br  Br17  1  0.789139  0.235483  0.723120  1
  Br  Br18  1  0.177296  0.173781  0.698455  1
  Br  Br19  1  0.507940  0.901283  0.192552  1
  Br  Br20  1  0.810413  0.622193  0.905141  1
  Br  Br21  1  0.208255  0.765617  0.278872  1
  Br  Br22  1  0.174269  0.380039  0.509750  1
  Br  Br23  1  0.496298  0.700460  0.795176  1
  Br  Br24  1  0.814718  0.009340  0.097613  1
  Br  Br25  1  0.487785  0.300802  0.604368  1
  Br  Br26  1  0.189415  0.371886  0.091877  1
  Br  Br27  1  0.825712  0.618730  0.489682  1
  Br  Br28  1  0.492178  0.104962  0.810506  1
