# generated using pymatgen
data_VInBr14
_symmetry_space_group_name_H-M   'P 1'
_cell_length_a   10.74703900
_cell_length_b   11.29488840
_cell_length_c   12.13444929
_cell_angle_alpha   79.22827474
_cell_angle_beta   90.00000000
_cell_angle_gamma   90.00000000
_symmetry_Int_Tables_number   1
_chemical_formula_structural   VInBr14
_chemical_formula_sum   'V2 In2 Br28'
_cell_volume   1447.00548022
_cell_formula_units_Z   2
loop_
 _symmetry_equiv_pos_site_id
 _symmetry_equiv_pos_as_xyz
  1  'x, y, z'
loop_
 _atom_site_type_symbol
 _atom_site_label
 _atom_site_symmetry_multiplicity
 _atom_site_fract_x
 _atom_site_fract_y
 _atom_site_fract_z
 _atom_site_occupancy
  V  V0  1  0.758910  0.671255  0.919538  1
  V  V1  1  0.258910  0.328745  0.580462  1
  In  In2  1  0.244691  0.328846  0.079331  1
  In  In3  1  0.744691  0.671154  0.420669  1
  Br  Br4  1  0.236798  0.777315  0.373272  1
  Br  Br5  1  0.736798  0.222685  0.126728  1
  Br  Br6  1  0.734500  0.242333  0.640052  1
  Br  Br7  1  0.234500  0.757667  0.859948  1
  Br  Br8  1  0.583987  0.064751  0.055979  1
  Br  Br9  1  0.083987  0.935249  0.444021  1
  Br  Br10  1  0.426343  0.931426  0.985501  1
  Br  Br11  1  0.926343  0.068574  0.514499  1
  Br  Br12  1  0.820863  0.145867  0.315100  1
  Br  Br13  1  0.320863  0.854133  0.184900  1
  Br  Br14  1  0.175074  0.845365  0.674578  1
  Br  Br15  1  0.675074  0.154635  0.825422  1
  Br  Br16  1  0.371895  0.228933  0.247190  1
  Br  Br17  1  0.871895  0.771067  0.252810  1
  Br  Br18  1  0.639780  0.726878  0.766322  1
  Br  Br19  1  0.139780  0.273122  0.733678  1
  Br  Br20  1  0.394146  0.414797  0.920931  1
  Br  Br21  1  0.894146  0.585203  0.579069  1
  Br  Br22  1  0.640630  0.606941  0.071012  1
  Br  Br23  1  0.140630  0.393059  0.428988  1
  Br  Br24  1  0.886088  0.522586  0.891253  1
  Br  Br25  1  0.386088  0.477414  0.608747  1
  Br  Br26  1  0.116297  0.500016  0.132833  1
  Br  Br27  1  0.616297  0.499984  0.367167  1
  Br  Br28  1  0.098772  0.176542  0.014828  1
  Br  Br29  1  0.598772  0.823458  0.485172  1
  Br  Br30  1  0.871226  0.829107  0.951061  1
  Br  Br31  1  0.371226  0.170893  0.548939  1
