# generated using pymatgen
data_Na3La3ThAu10
_symmetry_space_group_name_H-M   'P 1'
_cell_length_a   8.88058428
_cell_length_b   8.88058515
_cell_length_c   10.52544300
_cell_angle_alpha   90.00000000
_cell_angle_beta   90.00000000
_cell_angle_gamma   107.90476848
_symmetry_Int_Tables_number   1
_chemical_formula_structural   Na3La3ThAu10
_chemical_formula_sum   'Na6 La6 Th2 Au20'
_cell_volume   789.88471557
_cell_formula_units_Z   2
loop_
 _symmetry_equiv_pos_site_id
 _symmetry_equiv_pos_as_xyz
  1  'x, y, z'
loop_
 _atom_site_type_symbol
 _atom_site_label
 _atom_site_symmetry_multiplicity
 _atom_site_fract_x
 _atom_site_fract_y
 _atom_site_fract_z
 _atom_site_occupancy
  Na  Na0  1  0.512695  0.013326  0.250610  1
  Na  Na1  1  0.986674  0.487305  0.749390  1
  Na  Na2  1  0.001467  0.998533  0.000000  1
  Na  Na3  1  0.012695  0.513326  0.249390  1
  Na  Na4  1  0.486674  0.987305  0.750610  1
  Na  Na5  1  0.501467  0.498533  0.500000  1
  La  La6  1  0.799915  0.800544  0.296897  1
  La  La7  1  0.299915  0.300544  0.203103  1
  La  La8  1  0.798550  0.201450  0.500000  1
  La  La9  1  0.298550  0.701450  0.000000  1
  La  La10  1  0.699456  0.700085  0.796897  1
  La  La11  1  0.199456  0.200085  0.703103  1
  Th  Th12  1  0.700266  0.299734  0.000000  1
  Th  Th13  1  0.200266  0.799734  0.500000  1
  Au  Au14  1  0.152267  0.434492  0.486287  1
  Au  Au15  1  0.902498  0.902944  0.593679  1
  Au  Au16  1  0.565508  0.847733  0.513713  1
  Au  Au17  1  0.879799  0.161805  0.207777  1
  Au  Au18  1  0.379799  0.661805  0.292223  1
  Au  Au19  1  0.660821  0.377260  0.286620  1
  Au  Au20  1  0.402498  0.402944  0.906321  1
  Au  Au21  1  0.928759  0.646666  0.009310  1
  Au  Au22  1  0.338195  0.620201  0.707777  1
  Au  Au23  1  0.353334  0.071241  0.990690  1
  Au  Au24  1  0.597056  0.597502  0.093679  1
  Au  Au25  1  0.652267  0.934492  0.013713  1
  Au  Au26  1  0.097056  0.097502  0.406321  1
  Au  Au27  1  0.622740  0.339179  0.713380  1
  Au  Au28  1  0.122740  0.839179  0.786620  1
  Au  Au29  1  0.065508  0.347733  0.986287  1
  Au  Au30  1  0.853334  0.571241  0.509310  1
  Au  Au31  1  0.160821  0.877260  0.213380  1
  Au  Au32  1  0.428759  0.146666  0.490690  1
  Au  Au33  1  0.838195  0.120201  0.792223  1
