# generated using pymatgen
data_TmPaNi2Hg
_symmetry_space_group_name_H-M   'P 1'
_cell_length_a   7.34775313
_cell_length_b   7.34775187
_cell_length_c   3.54830600
_cell_angle_alpha   90.00000000
_cell_angle_beta   90.00000000
_cell_angle_gamma   94.47701962
_symmetry_Int_Tables_number   1
_chemical_formula_structural   TmPaNi2Hg
_chemical_formula_sum   'Tm2 Pa2 Ni4 Hg2'
_cell_volume   190.98661226
_cell_formula_units_Z   2
loop_
 _symmetry_equiv_pos_site_id
 _symmetry_equiv_pos_as_xyz
  1  'x, y, z'
loop_
 _atom_site_type_symbol
 _atom_site_label
 _atom_site_symmetry_multiplicity
 _atom_site_fract_x
 _atom_site_fract_y
 _atom_site_fract_z
 _atom_site_occupancy
  Tm  Tm0  1  0.171752  0.328248  0.500000  1
  Tm  Tm1  1  0.828248  0.671752  0.500000  1
  Pa  Pa2  1  0.673527  0.173527  0.500000  1
  Pa  Pa3  1  0.326473  0.826473  0.500000  1
  Ni  Ni4  1  0.130930  0.630930  0.000000  1
  Ni  Ni5  1  0.869070  0.369070  0.000000  1
  Ni  Ni6  1  0.616355  0.883645  0.000000  1
  Ni  Ni7  1  0.383645  0.116355  0.000000  1
  Hg  Hg8  1  0.000000  0.000000  0.000000  1
  Hg  Hg9  1  0.500000  0.500000  0.000000  1
