# generated using pymatgen
data_Yb5Bi3H
_symmetry_space_group_name_H-M   'P 1'
_cell_length_a   6.90296700
_cell_length_b   9.17977258
_cell_length_c   9.17977300
_cell_angle_alpha   119.99999070
_cell_angle_beta   90.00000000
_cell_angle_gamma   90.00000000
_symmetry_Int_Tables_number   1
_chemical_formula_structural   Yb5Bi3H
_chemical_formula_sum   'Yb10 Bi6 H2'
_cell_volume   503.76771767
_cell_formula_units_Z   2
loop_
 _symmetry_equiv_pos_site_id
 _symmetry_equiv_pos_as_xyz
  1  'x, y, z'
loop_
 _atom_site_type_symbol
 _atom_site_label
 _atom_site_symmetry_multiplicity
 _atom_site_fract_x
 _atom_site_fract_y
 _atom_site_fract_z
 _atom_site_occupancy
  Yb  Yb0  1  0.500000  0.333333  0.666667  1
  Yb  Yb1  1  0.500000  0.666666  0.333333  1
  Yb  Yb2  1  0.000000  0.666667  0.333333  1
  Yb  Yb3  1  0.000000  0.333334  0.666667  1
  Yb  Yb4  1  0.750000  0.241197  0.000000  1
  Yb  Yb5  1  0.750000  0.758803  0.758803  1
  Yb  Yb6  1  0.750000  0.000000  0.241197  1
  Yb  Yb7  1  0.250000  0.758803  0.000000  1
  Yb  Yb8  1  0.250000  0.241197  0.241197  1
  Yb  Yb9  1  0.250000  0.000000  0.758803  1
  Bi  Bi10  1  0.750000  0.608129  0.000000  1
  Bi  Bi11  1  0.750000  0.391871  0.391871  1
  Bi  Bi12  1  0.750000  0.000000  0.608129  1
  Bi  Bi13  1  0.250000  0.391871  0.000000  1
  Bi  Bi14  1  0.250000  0.608129  0.608129  1
  Bi  Bi15  1  0.250000  0.000000  0.391871  1
  H  H16  1  0.500000  0.000000  0.000000  1
  H  H17  1  0.000000  0.000000  0.000000  1
