# generated using pymatgen
data_Ac2(CdAg3)3
_symmetry_space_group_name_H-M   'P 1'
_cell_length_a   5.96428914
_cell_length_b   5.96428918
_cell_length_c   10.37409500
_cell_angle_alpha   90.00000000
_cell_angle_beta   90.00000000
_cell_angle_gamma   122.66172800
_symmetry_Int_Tables_number   1
_chemical_formula_structural   Ac2(CdAg3)3
_chemical_formula_sum   'Ac2 Cd3 Ag9'
_cell_volume   310.68006631
_cell_formula_units_Z   1
loop_
 _symmetry_equiv_pos_site_id
 _symmetry_equiv_pos_as_xyz
  1  'x, y, z'
loop_
 _atom_site_type_symbol
 _atom_site_label
 _atom_site_symmetry_multiplicity
 _atom_site_fract_x
 _atom_site_fract_y
 _atom_site_fract_z
 _atom_site_occupancy
  Ac  Ac0  1  0.000000  0.500000  0.753130  1
  Ac  Ac1  1  0.500000  0.000000  0.246870  1
  Cd  Cd2  1  0.000000  0.000000  0.500000  1
  Cd  Cd3  1  0.000000  0.000000  0.000000  1
  Cd  Cd4  1  0.500000  0.500000  0.500000  1
  Ag  Ag5  1  0.000000  0.500000  0.058086  1
  Ag  Ag6  1  0.500000  0.000000  0.556491  1
  Ag  Ag7  1  0.500000  0.000000  0.941914  1
  Ag  Ag8  1  0.000000  0.500000  0.443509  1
  Ag  Ag9  1  0.191063  0.309657  0.249373  1
  Ag  Ag10  1  0.690343  0.808937  0.750627  1
  Ag  Ag11  1  0.309657  0.191063  0.750627  1
  Ag  Ag12  1  0.808937  0.690343  0.249373  1
  Ag  Ag13  1  0.500000  0.500000  0.000000  1
