# generated using pymatgen
data_Nd3Pa3(Sb4Pt3)2
_symmetry_space_group_name_H-M   'P 1'
_cell_length_a   8.53594130
_cell_length_b   8.53389219
_cell_length_c   8.53389192
_cell_angle_alpha   109.55942544
_cell_angle_beta   109.39200090
_cell_angle_gamma   109.45258421
_symmetry_Int_Tables_number   1
_chemical_formula_structural   Nd3Pa3(Sb4Pt3)2
_chemical_formula_sum   'Nd3 Pa3 Sb8 Pt6'
_cell_volume   478.60234778
_cell_formula_units_Z   1
loop_
 _symmetry_equiv_pos_site_id
 _symmetry_equiv_pos_as_xyz
  1  'x, y, z'
loop_
 _atom_site_type_symbol
 _atom_site_label
 _atom_site_symmetry_multiplicity
 _atom_site_fract_x
 _atom_site_fract_y
 _atom_site_fract_z
 _atom_site_occupancy
  Nd  Nd0  1  0.874481  0.249052  0.124812  1
  Nd  Nd1  1  0.625519  0.750331  0.374571  1
  Nd  Nd2  1  0.250000  0.125690  0.875690  1
  Pa  Pa3  1  0.750000  0.374215  0.624215  1
  Pa  Pa4  1  0.123200  0.874383  0.250023  1
  Pa  Pa5  1  0.376800  0.626823  0.751183  1
  Sb  Sb6  1  0.671719  0.498457  0.000616  1
  Sb  Sb7  1  0.497194  0.997019  0.671749  1
  Sb  Sb8  1  0.002806  0.674555  0.499825  1
  Sb  Sb9  1  0.828281  0.828897  0.826738  1
  Sb  Sb10  1  0.496287  0.998019  0.169165  1
  Sb  Sb11  1  0.175122  0.500269  0.002890  1
  Sb  Sb12  1  0.003713  0.172877  0.501732  1
  Sb  Sb13  1  0.324878  0.327768  0.325147  1
  Pt  Pt14  1  0.386175  0.254863  0.617748  1
  Pt  Pt15  1  0.113825  0.731572  0.868687  1
  Pt  Pt16  1  0.250000  0.628947  0.378947  1
  Pt  Pt17  1  0.750000  0.870220  0.120220  1
  Pt  Pt18  1  0.635715  0.378866  0.272890  1
  Pt  Pt19  1  0.864285  0.137175  0.743152  1
