# generated using pymatgen
data_Y4TmHf3(Ni4As3)4
_symmetry_space_group_name_H-M   'P 1'
_cell_length_a   12.73135842
_cell_length_b   12.73135750
_cell_length_c   3.91709600
_cell_angle_alpha   90.00000000
_cell_angle_beta   90.00000000
_cell_angle_gamma   120.02928083
_symmetry_Int_Tables_number   1
_chemical_formula_structural   Y4TmHf3(Ni4As3)4
_chemical_formula_sum   'Y4 Tm1 Hf3 Ni16 As12'
_cell_volume   549.68778916
_cell_formula_units_Z   1
loop_
 _symmetry_equiv_pos_site_id
 _symmetry_equiv_pos_as_xyz
  1  'x, y, z'
loop_
 _atom_site_type_symbol
 _atom_site_label
 _atom_site_symmetry_multiplicity
 _atom_site_fract_x
 _atom_site_fract_y
 _atom_site_fract_z
 _atom_site_occupancy
  Y  Y0  1  0.815445  0.000162  0.500000  1
  Y  Y1  1  0.000162  0.815445  0.500000  1
  Y  Y2  1  0.333271  0.666786  0.000000  1
  Y  Y3  1  0.666786  0.333271  0.000000  1
  Tm  Tm4  1  0.184677  0.184677  0.500000  1
  Hf  Hf5  1  0.564016  0.564016  0.000000  1
  Hf  Hf6  1  0.435296  0.000177  0.000000  1
  Hf  Hf7  1  0.000177  0.435296  0.000000  1
  Ni  Ni8  1  0.722420  0.722420  0.500000  1
  Ni  Ni9  1  0.277327  0.000900  0.500000  1
  Ni  Ni10  1  0.000900  0.277327  0.500000  1
  Ni  Ni11  1  0.182815  0.376007  0.000000  1
  Ni  Ni12  1  0.623004  0.805920  0.000000  1
  Ni  Ni13  1  0.194012  0.817412  0.000000  1
  Ni  Ni14  1  0.805920  0.623004  0.000000  1
  Ni  Ni15  1  0.817412  0.194012  0.000000  1
  Ni  Ni16  1  0.376007  0.182815  0.000000  1
  Ni  Ni17  1  0.363628  0.483609  0.500000  1
  Ni  Ni18  1  0.515813  0.879811  0.500000  1
  Ni  Ni19  1  0.120094  0.636073  0.500000  1
  Ni  Ni20  1  0.879811  0.515813  0.500000  1
  Ni  Ni21  1  0.636073  0.120094  0.500000  1
  Ni  Ni22  1  0.483609  0.363628  0.500000  1
  Ni  Ni23  1  0.000836  0.000836  0.000000  1
  As  As24  1  0.822377  0.822377  0.000000  1
  As  As25  1  0.178178  0.001100  0.000000  1
  As  As26  1  0.001100  0.178178  0.000000  1
  As  As27  1  0.172494  0.479123  0.500000  1
  As  As28  1  0.520879  0.693185  0.500000  1
  As  As29  1  0.306525  0.827943  0.500000  1
  As  As30  1  0.693185  0.520879  0.500000  1
  As  As31  1  0.827943  0.306525  0.500000  1
  As  As32  1  0.479123  0.172494  0.500000  1
  As  As33  1  0.355682  0.355682  0.000000  1
  As  As34  1  0.642945  0.000057  0.000000  1
  As  As35  1  0.000057  0.642945  0.000000  1
