# generated using pymatgen
data_Na3Yb(SnPt)4
_symmetry_space_group_name_H-M   'P 1'
_cell_length_a   4.45926900
_cell_length_b   7.54434053
_cell_length_c   7.96634915
_cell_angle_alpha   89.23386609
_cell_angle_beta   90.00000000
_cell_angle_gamma   90.00000000
_symmetry_Int_Tables_number   1
_chemical_formula_structural   Na3Yb(SnPt)4
_chemical_formula_sum   'Na3 Yb1 Sn4 Pt4'
_cell_volume   267.98190123
_cell_formula_units_Z   1
loop_
 _symmetry_equiv_pos_site_id
 _symmetry_equiv_pos_as_xyz
  1  'x, y, z'
loop_
 _atom_site_type_symbol
 _atom_site_label
 _atom_site_symmetry_multiplicity
 _atom_site_fract_x
 _atom_site_fract_y
 _atom_site_fract_z
 _atom_site_occupancy
  Na  Na0  1  0.750000  0.487357  0.820395  1
  Na  Na1  1  0.250000  0.014878  0.332095  1
  Na  Na2  1  0.750000  0.978609  0.670372  1
  Yb  Yb3  1  0.250000  0.522578  0.172824  1
  Sn  Sn4  1  0.250000  0.658268  0.576274  1
  Sn  Sn5  1  0.250000  0.159038  0.926270  1
  Sn  Sn6  1  0.750000  0.331449  0.429974  1
  Sn  Sn7  1  0.750000  0.851316  0.074531  1
  Pt  Pt8  1  0.250000  0.795012  0.890694  1
  Pt  Pt9  1  0.250000  0.296863  0.613375  1
  Pt  Pt10  1  0.750000  0.691195  0.380312  1
  Pt  Pt11  1  0.750000  0.213435  0.112885  1
