# generated using pymatgen
data_NdTh7TiSe17
_symmetry_space_group_name_H-M   'P 1'
_cell_length_a   8.49356965
_cell_length_b   8.45346558
_cell_length_c   11.24568100
_cell_angle_alpha   80.54545509
_cell_angle_beta   80.57469922
_cell_angle_gamma   65.00635150
_symmetry_Int_Tables_number   1
_chemical_formula_structural   NdTh7TiSe17
_chemical_formula_sum   'Nd1 Th7 Ti1 Se17'
_cell_volume   717.85526876
_cell_formula_units_Z   1
loop_
 _symmetry_equiv_pos_site_id
 _symmetry_equiv_pos_as_xyz
  1  'x, y, z'
loop_
 _atom_site_type_symbol
 _atom_site_label
 _atom_site_symmetry_multiplicity
 _atom_site_fract_x
 _atom_site_fract_y
 _atom_site_fract_z
 _atom_site_occupancy
  Nd  Nd0  1  0.813296  0.302111  0.297429  1
  Th  Th1  1  0.300464  0.814443  0.294313  1
  Th  Th2  1  0.185344  0.699533  0.703000  1
  Th  Th3  1  0.699641  0.186439  0.703107  1
  Th  Th4  1  0.203789  0.203567  0.541879  1
  Th  Th5  1  0.795313  0.796829  0.455815  1
  Th  Th6  1  0.682015  0.681375  0.982917  1
  Th  Th7  1  0.317996  0.316905  0.020416  1
  Ti  Ti8  1  0.000048  0.002104  0.001412  1
  Se  Se9  1  0.823801  0.432209  0.534612  1
  Se  Se10  1  0.431960  0.820544  0.531150  1
  Se  Se11  1  0.177775  0.567944  0.468610  1
  Se  Se12  1  0.568035  0.175647  0.471951  1
  Se  Se13  1  0.944341  0.322784  0.024968  1
  Se  Se14  1  0.323360  0.943456  0.026651  1
  Se  Se15  1  0.056955  0.677814  0.970933  1
  Se  Se16  1  0.677111  0.057622  0.971594  1
  Se  Se17  1  0.213384  0.205787  0.276897  1
  Se  Se18  1  0.791475  0.790786  0.724006  1
  Se  Se19  1  0.061226  0.059894  0.772961  1
  Se  Se20  1  0.940950  0.935767  0.227071  1
  Se  Se21  1  0.303754  0.304511  0.754435  1
  Se  Se22  1  0.692094  0.701140  0.244593  1
  Se  Se23  1  0.519427  0.521274  0.833140  1
  Se  Se24  1  0.475056  0.483271  0.163452  1
  Se  Se25  1  0.001391  0.996246  0.502690  1
