# generated using pymatgen
data_Hf4CoCu3Hg2
_symmetry_space_group_name_H-M   'P 1'
_cell_length_a   7.18094057
_cell_length_b   7.18094009
_cell_length_c   6.70998567
_cell_angle_alpha   90.14648346
_cell_angle_beta   90.14647971
_cell_angle_gamma   90.91183134
_symmetry_Int_Tables_number   1
_chemical_formula_structural   Hf4CoCu3Hg2
_chemical_formula_sum   'Hf8 Co2 Cu6 Hg4'
_cell_volume   345.96036354
_cell_formula_units_Z   2
loop_
 _symmetry_equiv_pos_site_id
 _symmetry_equiv_pos_as_xyz
  1  'x, y, z'
loop_
 _atom_site_type_symbol
 _atom_site_label
 _atom_site_symmetry_multiplicity
 _atom_site_fract_x
 _atom_site_fract_y
 _atom_site_fract_z
 _atom_site_occupancy
  Hf  Hf0  1  0.157293  0.157293  0.012174  1
  Hf  Hf1  1  0.842707  0.842707  0.987826  1
  Hf  Hf2  1  0.648125  0.351875  0.500000  1
  Hf  Hf3  1  0.351875  0.648125  0.500000  1
  Hf  Hf4  1  0.676407  0.323593  0.000000  1
  Hf  Hf5  1  0.323593  0.676407  0.000000  1
  Hf  Hf6  1  0.805228  0.805228  0.510521  1
  Hf  Hf7  1  0.194772  0.194772  0.489479  1
  Co  Co8  1  0.378484  0.378484  0.226892  1
  Co  Co9  1  0.621516  0.621516  0.773108  1
  Cu  Cu10  1  0.629181  0.629181  0.208440  1
  Cu  Cu11  1  0.878743  0.126290  0.710427  1
  Cu  Cu12  1  0.873710  0.121257  0.289573  1
  Cu  Cu13  1  0.370819  0.370819  0.791560  1
  Cu  Cu14  1  0.121257  0.873710  0.289573  1
  Cu  Cu15  1  0.126290  0.878743  0.710427  1
  Hg  Hg16  1  0.501054  0.001138  0.250756  1
  Hg  Hg17  1  0.498946  0.998862  0.749244  1
  Hg  Hg18  1  0.001138  0.501054  0.250756  1
  Hg  Hg19  1  0.998862  0.498946  0.749244  1
