# generated using pymatgen
data_Tb2Dy10Tc3Ni
_symmetry_space_group_name_H-M   'P 1'
_cell_length_a   6.28360501
_cell_length_b   7.31840943
_cell_length_c   9.24352600
_cell_angle_alpha   90.00000000
_cell_angle_beta   90.00000000
_cell_angle_gamma   90.18211310
_symmetry_Int_Tables_number   1
_chemical_formula_structural   Tb2Dy10Tc3Ni
_chemical_formula_sum   'Tb2 Dy10 Tc3 Ni1'
_cell_volume   425.07058549
_cell_formula_units_Z   1
loop_
 _symmetry_equiv_pos_site_id
 _symmetry_equiv_pos_as_xyz
  1  'x, y, z'
loop_
 _atom_site_type_symbol
 _atom_site_label
 _atom_site_symmetry_multiplicity
 _atom_site_fract_x
 _atom_site_fract_y
 _atom_site_fract_z
 _atom_site_occupancy
  Tb  Tb0  1  0.141703  0.455705  0.750000  1
  Tb  Tb1  1  0.370678  0.956339  0.750000  1
  Dy  Dy2  1  0.327801  0.677233  0.067770  1
  Dy  Dy3  1  0.164394  0.177033  0.436532  1
  Dy  Dy4  1  0.668117  0.323908  0.563020  1
  Dy  Dy5  1  0.833522  0.823457  0.937766  1
  Dy  Dy6  1  0.668117  0.323908  0.936980  1
  Dy  Dy7  1  0.833522  0.823457  0.562234  1
  Dy  Dy8  1  0.327801  0.677233  0.432230  1
  Dy  Dy9  1  0.164394  0.177033  0.063468  1
  Dy  Dy10  1  0.869358  0.542134  0.250000  1
  Dy  Dy11  1  0.626541  0.041597  0.250000  1
  Tc  Tc12  1  0.038650  0.887237  0.250000  1
  Tc  Tc13  1  0.459361  0.389142  0.250000  1
  Tc  Tc14  1  0.957229  0.111390  0.750000  1
  Ni  Ni15  1  0.548812  0.613192  0.750000  1
