# generated using pymatgen
data_Sb5Te2Mo3
_symmetry_space_group_name_H-M   'P 1'
_cell_length_a   8.37268010
_cell_length_b   8.37396046
_cell_length_c   8.37396135
_cell_angle_alpha   109.90627526
_cell_angle_beta   109.25719332
_cell_angle_gamma   109.25719463
_symmetry_Int_Tables_number   1
_chemical_formula_structural   Sb5Te2Mo3
_chemical_formula_sum   'Sb10 Te4 Mo6'
_cell_volume   451.91106537
_cell_formula_units_Z   2
loop_
 _symmetry_equiv_pos_site_id
 _symmetry_equiv_pos_as_xyz
  1  'x, y, z'
loop_
 _atom_site_type_symbol
 _atom_site_label
 _atom_site_symmetry_multiplicity
 _atom_site_fract_x
 _atom_site_fract_y
 _atom_site_fract_z
 _atom_site_occupancy
  Sb  Sb0  1  0.751910  0.501043  0.250867  1
  Sb  Sb1  1  0.248090  0.749133  0.498957  1
  Sb  Sb2  1  0.325292  0.326115  0.324805  1
  Sb  Sb3  1  0.000000  0.998146  0.324840  1
  Sb  Sb4  1  0.325292  0.000486  0.999177  1
  Sb  Sb5  1  0.000000  0.326218  0.002209  1
  Sb  Sb6  1  0.674708  0.000823  0.999514  1
  Sb  Sb7  1  0.000000  0.675160  0.001854  1
  Sb  Sb8  1  0.000000  0.997791  0.673782  1
  Sb  Sb9  1  0.674708  0.675195  0.673885  1
  Te  Te10  1  0.749874  0.250807  0.499067  1
  Te  Te11  1  0.500000  0.249045  0.750955  1
  Te  Te12  1  0.500000  0.749045  0.250955  1
  Te  Te13  1  0.250126  0.500933  0.749193  1
  Mo  Mo14  1  0.343892  0.344471  0.999421  1
  Mo  Mo15  1  0.000000  0.342456  0.343626  1
  Mo  Mo16  1  0.000000  0.656374  0.657544  1
  Mo  Mo17  1  0.656108  0.000579  0.655529  1
  Mo  Mo18  1  0.345135  0.000657  0.344478  1
  Mo  Mo19  1  0.654865  0.655522  0.999343  1
