# generated using pymatgen
data_YbLu(B4Ru)2
_symmetry_space_group_name_H-M   'P 1'
_cell_length_a   3.51823500
_cell_length_b   5.92582354
_cell_length_c   11.45793979
_cell_angle_alpha   89.84302541
_cell_angle_beta   90.00000000
_cell_angle_gamma   90.00000000
_symmetry_Int_Tables_number   1
_chemical_formula_structural   YbLu(B4Ru)2
_chemical_formula_sum   'Yb2 Lu2 B16 Ru4'
_cell_volume   238.87927120
_cell_formula_units_Z   2
loop_
 _symmetry_equiv_pos_site_id
 _symmetry_equiv_pos_as_xyz
  1  'x, y, z'
loop_
 _atom_site_type_symbol
 _atom_site_label
 _atom_site_symmetry_multiplicity
 _atom_site_fract_x
 _atom_site_fract_y
 _atom_site_fract_z
 _atom_site_occupancy
  Yb  Yb0  1  0.500000  0.129092  0.350183  1
  Yb  Yb1  1  0.500000  0.870908  0.649817  1
  Lu  Lu2  1  0.500000  0.629725  0.150372  1
  Lu  Lu3  1  0.500000  0.370275  0.849628  1
  B  B4  1  0.000000  0.974273  0.192221  1
  B  B5  1  0.000000  0.025727  0.807779  1
  B  B6  1  0.000000  0.476985  0.307399  1
  B  B7  1  0.000000  0.523015  0.692601  1
  B  B8  1  0.000000  0.788508  0.314640  1
  B  B9  1  0.000000  0.211492  0.685360  1
  B  B10  1  0.000000  0.289092  0.185727  1
  B  B11  1  0.000000  0.710908  0.814273  1
  B  B12  1  0.000000  0.864790  0.468971  1
  B  B13  1  0.000000  0.135210  0.531029  1
  B  B14  1  0.000000  0.365340  0.030168  1
  B  B15  1  0.000000  0.634660  0.969832  1
  B  B16  1  0.000000  0.886937  0.047694  1
  B  B17  1  0.000000  0.113063  0.952306  1
  B  B18  1  0.000000  0.386559  0.452978  1
  B  B19  1  0.000000  0.613441  0.547022  1
  Ru  Ru20  1  0.500000  0.636067  0.409524  1
  Ru  Ru21  1  0.500000  0.363933  0.590476  1
  Ru  Ru22  1  0.500000  0.141583  0.090747  1
  Ru  Ru23  1  0.500000  0.858417  0.909253  1
