# generated using pymatgen
data_La4Ti5Ir9
_symmetry_space_group_name_H-M   'P 1'
_cell_length_a   12.62937779
_cell_length_b   12.62937739
_cell_length_c   12.62937758
_cell_angle_alpha   26.04874278
_cell_angle_beta   26.04874704
_cell_angle_gamma   26.04873830
_symmetry_Int_Tables_number   1
_chemical_formula_structural   La4Ti5Ir9
_chemical_formula_sum   'La4 Ti5 Ir9'
_cell_volume   342.20362766
_cell_formula_units_Z   1
loop_
 _symmetry_equiv_pos_site_id
 _symmetry_equiv_pos_as_xyz
  1  'x, y, z'
loop_
 _atom_site_type_symbol
 _atom_site_label
 _atom_site_symmetry_multiplicity
 _atom_site_fract_x
 _atom_site_fract_y
 _atom_site_fract_z
 _atom_site_occupancy
  La  La0  1  0.950525  0.950525  0.950525  1
  La  La1  1  0.049475  0.049475  0.049475  1
  La  La2  1  0.853239  0.853239  0.853239  1
  La  La3  1  0.146761  0.146761  0.146761  1
  Ti  Ti4  1  0.500000  0.500000  0.500000  1
  Ti  Ti5  1  0.721811  0.721811  0.721811  1
  Ti  Ti6  1  0.278189  0.278189  0.278189  1
  Ti  Ti7  1  0.610069  0.610069  0.610069  1
  Ti  Ti8  1  0.389931  0.389931  0.389931  1
  Ir  Ir9  1  0.500000  0.500000  0.000000  1
  Ir  Ir10  1  0.000000  0.500000  0.500000  1
  Ir  Ir11  1  0.500000  0.000000  0.500000  1
  Ir  Ir12  1  0.388289  0.892735  0.388289  1
  Ir  Ir13  1  0.388289  0.388289  0.892735  1
  Ir  Ir14  1  0.892735  0.388289  0.388289  1
  Ir  Ir15  1  0.611711  0.107265  0.611711  1
  Ir  Ir16  1  0.611711  0.611711  0.107265  1
  Ir  Ir17  1  0.107265  0.611711  0.611711  1
