# generated using pymatgen
data_Li2Ac3Nd(AgAs4)2
_symmetry_space_group_name_H-M   'P 1'
_cell_length_a   4.11812500
_cell_length_b   4.17733430
_cell_length_c   22.08337144
_cell_angle_alpha   89.86763080
_cell_angle_beta   90.00000000
_cell_angle_gamma   90.00000000
_symmetry_Int_Tables_number   1
_chemical_formula_structural   Li2Ac3Nd(AgAs4)2
_chemical_formula_sum   'Li2 Ac3 Nd1 Ag2 As8'
_cell_volume   379.89447278
_cell_formula_units_Z   1
loop_
 _symmetry_equiv_pos_site_id
 _symmetry_equiv_pos_as_xyz
  1  'x, y, z'
loop_
 _atom_site_type_symbol
 _atom_site_label
 _atom_site_symmetry_multiplicity
 _atom_site_fract_x
 _atom_site_fract_y
 _atom_site_fract_z
 _atom_site_occupancy
  Li  Li0  1  0.250000  0.222541  0.245408  1
  Li  Li1  1  0.250000  0.278121  0.751650  1
  Ac  Ac2  1  0.250000  0.778983  0.617853  1
  Ac  Ac3  1  0.750000  0.221922  0.379794  1
  Ac  Ac4  1  0.750000  0.275110  0.886690  1
  Nd  Nd5  1  0.250000  0.724346  0.118111  1
  Ag  Ag6  1  0.750000  0.722426  0.244676  1
  Ag  Ag7  1  0.750000  0.778757  0.751417  1
  As  As8  1  0.250000  0.777542  0.830934  1
  As  As9  1  0.750000  0.222512  0.164936  1
  As  As10  1  0.750000  0.280021  0.673083  1
  As  As11  1  0.250000  0.720543  0.324652  1
  As  As12  1  0.250000  0.305634  0.500877  1
  As  As13  1  0.250000  0.194338  0.008574  1
  As  As14  1  0.750000  0.803423  0.004463  1
  As  As15  1  0.750000  0.693782  0.496884  1
