# generated using pymatgen
data_Pr4V3GeF28
_symmetry_space_group_name_H-M   'P 1'
_cell_length_a   5.63406209
_cell_length_b   9.14113761
_cell_length_c   12.17027800
_cell_angle_alpha   62.30939810
_cell_angle_beta   90.01971629
_cell_angle_gamma   90.00695455
_symmetry_Int_Tables_number   1
_chemical_formula_structural   Pr4V3GeF28
_chemical_formula_sum   'Pr4 V3 Ge1 F28'
_cell_volume   555.00402382
_cell_formula_units_Z   1
loop_
 _symmetry_equiv_pos_site_id
 _symmetry_equiv_pos_as_xyz
  1  'x, y, z'
loop_
 _atom_site_type_symbol
 _atom_site_label
 _atom_site_symmetry_multiplicity
 _atom_site_fract_x
 _atom_site_fract_y
 _atom_site_fract_z
 _atom_site_occupancy
  Pr  Pr0  1  0.758793  0.802770  0.768487  1
  Pr  Pr1  1  0.259170  0.192272  0.734123  1
  Pr  Pr2  1  0.241071  0.193940  0.232224  1
  Pr  Pr3  1  0.741804  0.810327  0.264917  1
  V  V4  1  0.254862  0.726171  0.542459  1
  V  V5  1  0.245409  0.726073  0.043343  1
  V  V6  1  0.745287  0.274122  0.457132  1
  Ge  Ge7  1  0.756032  0.273955  0.957106  1
  F  F8  1  0.436728  0.708557  0.922280  1
  F  F9  1  0.938321  0.290647  0.578555  1
  F  F10  1  0.568102  0.292036  0.072761  1
  F  F11  1  0.061779  0.709033  0.421748  1
  F  F12  1  0.464809  0.284141  0.542439  1
  F  F13  1  0.964307  0.715203  0.959754  1
  F  F14  1  0.534905  0.715789  0.457634  1
  F  F15  1  0.027454  0.285428  0.038167  1
  F  F16  1  0.765107  0.498498  0.866540  1
  F  F17  1  0.264856  0.498437  0.634371  1
  F  F18  1  0.236176  0.497975  0.133117  1
  F  F19  1  0.734744  0.501308  0.365985  1
  F  F20  1  0.760815  0.049414  0.045603  1
  F  F21  1  0.262011  0.952402  0.453169  1
  F  F22  1  0.238602  0.952009  0.954307  1
  F  F23  1  0.738787  0.048340  0.546011  1
  F  F24  1  0.980916  0.731401  0.630859  1
  F  F25  1  0.491636  0.268216  0.870821  1
  F  F26  1  0.019082  0.269096  0.368037  1
  F  F27  1  0.519878  0.730076  0.131851  1
  F  F28  1  0.055167  0.741227  0.166988  1
  F  F29  1  0.552859  0.257634  0.333590  1
  F  F30  1  0.943962  0.258811  0.838388  1
  F  F31  1  0.445624  0.742842  0.665667  1
  F  F32  1  0.401538  0.968723  0.227298  1
  F  F33  1  0.903834  0.034321  0.273648  1
  F  F34  1  0.592987  0.030117  0.772178  1
  F  F35  1  0.092586  0.968689  0.728441  1
