# generated using pymatgen
data_NaPrNd5PtBr12
_symmetry_space_group_name_H-M   'P 1'
_cell_length_a   9.64398901
_cell_length_b   9.55523602
_cell_length_c   9.66599997
_cell_angle_alpha   107.35211551
_cell_angle_beta   107.26618953
_cell_angle_gamma   107.41578059
_symmetry_Int_Tables_number   1
_chemical_formula_structural   NaPrNd5PtBr12
_chemical_formula_sum   'Na1 Pr1 Nd5 Pt1 Br12'
_cell_volume   734.71878644
_cell_formula_units_Z   1
loop_
 _symmetry_equiv_pos_site_id
 _symmetry_equiv_pos_as_xyz
  1  'x, y, z'
loop_
 _atom_site_type_symbol
 _atom_site_label
 _atom_site_symmetry_multiplicity
 _atom_site_fract_x
 _atom_site_fract_y
 _atom_site_fract_z
 _atom_site_occupancy
  Na  Na0  1  0.499991  0.500032  0.499958  1
  Pr  Pr1  1  0.887637  0.682486  0.970009  1
  Nd  Nd2  1  0.112045  0.316143  0.030093  1
  Nd  Nd3  1  0.327355  0.031575  0.117338  1
  Nd  Nd4  1  0.031907  0.117143  0.326585  1
  Nd  Nd5  1  0.968312  0.883575  0.673789  1
  Nd  Nd6  1  0.672657  0.968376  0.882626  1
  Pt  Pt7  1  0.000207  0.000445  0.000245  1
  Br  Br8  1  0.216031  0.684068  0.073136  1
  Br  Br9  1  0.454151  0.372193  0.157224  1
  Br  Br10  1  0.685262  0.072630  0.214056  1
  Br  Br11  1  0.927453  0.785603  0.316152  1
  Br  Br12  1  0.157649  0.455762  0.370890  1
  Br  Br13  1  0.370818  0.156660  0.453940  1
  Br  Br14  1  0.629202  0.843404  0.546095  1
  Br  Br15  1  0.842084  0.544070  0.626988  1
  Br  Br16  1  0.072922  0.215607  0.685823  1
  Br  Br17  1  0.314781  0.927444  0.786013  1
  Br  Br18  1  0.543561  0.627794  0.841682  1
  Br  Br19  1  0.785978  0.314993  0.927364  1
