# generated using pymatgen
data_Er2TmMg(Co4P3)2
_symmetry_space_group_name_H-M   'P 1'
_cell_length_a   3.71333500
_cell_length_b   10.59852700
_cell_length_c   12.23025300
_cell_angle_alpha   90.00000000
_cell_angle_beta   90.00000000
_cell_angle_gamma   90.00000000
_symmetry_Int_Tables_number   1
_chemical_formula_structural   Er2TmMg(Co4P3)2
_chemical_formula_sum   'Er4 Tm2 Mg2 Co16 P12'
_cell_volume   481.33238482
_cell_formula_units_Z   2
loop_
 _symmetry_equiv_pos_site_id
 _symmetry_equiv_pos_as_xyz
  1  'x, y, z'
loop_
 _atom_site_type_symbol
 _atom_site_label
 _atom_site_symmetry_multiplicity
 _atom_site_fract_x
 _atom_site_fract_y
 _atom_site_fract_z
 _atom_site_occupancy
  Er  Er0  1  0.000000  0.500000  0.526009  1
  Er  Er1  1  0.500000  0.000000  0.474159  1
  Er  Er2  1  0.500000  0.822317  0.206399  1
  Er  Er3  1  0.500000  0.177683  0.206399  1
  Tm  Tm4  1  0.000000  0.677531  0.793613  1
  Tm  Tm5  1  0.000000  0.322469  0.793613  1
  Mg  Mg6  1  0.500000  0.500000  0.156861  1
  Mg  Mg7  1  0.000000  0.000000  0.843101  1
  Co  Co8  1  0.500000  0.500000  0.704875  1
  Co  Co9  1  0.000000  0.000000  0.295386  1
  Co  Co10  1  0.000000  0.500000  0.988042  1
  Co  Co11  1  0.500000  0.000000  0.011509  1
  Co  Co12  1  0.500000  0.332719  0.996252  1
  Co  Co13  1  0.500000  0.667281  0.996252  1
  Co  Co14  1  0.000000  0.167550  0.003340  1
  Co  Co15  1  0.000000  0.832450  0.003340  1
  Co  Co16  1  0.500000  0.296408  0.432243  1
  Co  Co17  1  0.500000  0.703592  0.432243  1
  Co  Co18  1  0.000000  0.203712  0.568079  1
  Co  Co19  1  0.000000  0.796288  0.568079  1
  Co  Co20  1  0.500000  0.877075  0.705693  1
  Co  Co21  1  0.500000  0.122925  0.705693  1
  Co  Co22  1  0.000000  0.622658  0.294496  1
  Co  Co23  1  0.000000  0.377342  0.294496  1
  P  P24  1  0.500000  0.500000  0.884066  1
  P  P25  1  0.000000  0.000000  0.115514  1
  P  P26  1  0.500000  0.500000  0.356301  1
  P  P27  1  0.000000  0.000000  0.643736  1
  P  P28  1  0.500000  0.310600  0.616036  1
  P  P29  1  0.500000  0.689400  0.616036  1
  P  P30  1  0.000000  0.189567  0.384410  1
  P  P31  1  0.000000  0.810433  0.384410  1
  P  P32  1  0.500000  0.838239  0.892128  1
  P  P33  1  0.500000  0.161761  0.892128  1
  P  P34  1  0.000000  0.661425  0.107531  1
  P  P35  1  0.000000  0.338575  0.107531  1
