# generated using pymatgen
data_Ta12Al8MoIr3C4
_symmetry_space_group_name_H-M   'P 1'
_cell_length_a   8.33922236
_cell_length_b   8.31676855
_cell_length_c   8.31676800
_cell_angle_alpha   60.00000219
_cell_angle_beta   60.08903128
_cell_angle_gamma   60.08902875
_symmetry_Int_Tables_number   1
_chemical_formula_structural   Ta12Al8MoIr3C4
_chemical_formula_sum   'Ta12 Al8 Mo1 Ir3 C4'
_cell_volume   408.41612657
_cell_formula_units_Z   1
loop_
 _symmetry_equiv_pos_site_id
 _symmetry_equiv_pos_as_xyz
  1  'x, y, z'
loop_
 _atom_site_type_symbol
 _atom_site_label
 _atom_site_symmetry_multiplicity
 _atom_site_fract_x
 _atom_site_fract_y
 _atom_site_fract_z
 _atom_site_occupancy
  Ta  Ta0  1  0.564386  0.942426  0.550761  1
  Ta  Ta1  1  0.312523  0.687226  0.687226  1
  Ta  Ta2  1  0.685614  0.307574  0.307574  1
  Ta  Ta3  1  0.312523  0.687226  0.313024  1
  Ta  Ta4  1  0.685614  0.699239  0.307574  1
  Ta  Ta5  1  0.312523  0.313024  0.687226  1
  Ta  Ta6  1  0.564386  0.550761  0.942426  1
  Ta  Ta7  1  0.937477  0.562774  0.562774  1
  Ta  Ta8  1  0.564386  0.942426  0.942426  1
  Ta  Ta9  1  0.937477  0.936976  0.562774  1
  Ta  Ta10  1  0.685614  0.307574  0.699239  1
  Ta  Ta11  1  0.937477  0.562774  0.936976  1
  Al  Al12  1  0.921595  0.913852  0.913852  1
  Al  Al13  1  0.994828  0.335057  0.335057  1
  Al  Al14  1  0.328405  0.999296  0.336148  1
  Al  Al15  1  0.328405  0.336148  0.999296  1
  Al  Al16  1  0.921595  0.250704  0.913852  1
  Al  Al17  1  0.921595  0.913852  0.250704  1
  Al  Al18  1  0.255172  0.914943  0.914943  1
  Al  Al19  1  0.328405  0.336148  0.336148  1
  Mo  Mo20  1  0.625000  0.125000  0.125000  1
  Ir  Ir21  1  0.125000  0.125000  0.125000  1
  Ir  Ir22  1  0.125000  0.625000  0.125000  1
  Ir  Ir23  1  0.125000  0.125000  0.625000  1
  C  C24  1  0.625000  0.625000  0.625000  1
  C  C25  1  0.125000  0.625000  0.625000  1
  C  C26  1  0.625000  0.125000  0.625000  1
  C  C27  1  0.625000  0.625000  0.125000  1
