# generated using pymatgen
data_DyPu(AlB4)2
_symmetry_space_group_name_H-M   'P 1'
_cell_length_a   3.58104800
_cell_length_b   5.94977600
_cell_length_c   11.53481284
_cell_angle_alpha   90.01960352
_cell_angle_beta   90.00000000
_cell_angle_gamma   90.00000000
_symmetry_Int_Tables_number   1
_chemical_formula_structural   DyPu(AlB4)2
_chemical_formula_sum   'Dy2 Pu2 Al4 B16'
_cell_volume   245.76570794
_cell_formula_units_Z   2
loop_
 _symmetry_equiv_pos_site_id
 _symmetry_equiv_pos_as_xyz
  1  'x, y, z'
loop_
 _atom_site_type_symbol
 _atom_site_label
 _atom_site_symmetry_multiplicity
 _atom_site_fract_x
 _atom_site_fract_y
 _atom_site_fract_z
 _atom_site_occupancy
  Dy  Dy0  1  0.500000  0.128223  0.650267  1
  Dy  Dy1  1  0.500000  0.871777  0.349733  1
  Pu  Pu2  1  0.500000  0.370557  0.150225  1
  Pu  Pu3  1  0.500000  0.629443  0.849775  1
  Al  Al4  1  0.500000  0.362585  0.408620  1
  Al  Al5  1  0.500000  0.637415  0.591380  1
  Al  Al6  1  0.500000  0.139137  0.910107  1
  Al  Al7  1  0.500000  0.860863  0.089893  1
  B  B8  1  0.000000  0.113417  0.047207  1
  B  B9  1  0.000000  0.886583  0.952793  1
  B  B10  1  0.000000  0.385905  0.546116  1
  B  B11  1  0.000000  0.614095  0.453884  1
  B  B12  1  0.000000  0.133593  0.468865  1
  B  B13  1  0.000000  0.866407  0.531135  1
  B  B14  1  0.000000  0.366867  0.968577  1
  B  B15  1  0.000000  0.633133  0.031423  1
  B  B16  1  0.000000  0.027767  0.192579  1
  B  B17  1  0.000000  0.972233  0.807421  1
  B  B18  1  0.000000  0.473110  0.692571  1
  B  B19  1  0.000000  0.526890  0.307429  1
  B  B20  1  0.000000  0.211578  0.312226  1
  B  B21  1  0.000000  0.788422  0.687774  1
  B  B22  1  0.000000  0.290135  0.812478  1
  B  B23  1  0.000000  0.709865  0.187522  1
