# generated using pymatgen
data_YBiIr2O7
_symmetry_space_group_name_H-M   'P 1'
_cell_length_a   7.31632712
_cell_length_b   7.31628564
_cell_length_c   7.31626911
_cell_angle_alpha   119.73861619
_cell_angle_beta   120.28388709
_cell_angle_gamma   89.98109540
_symmetry_Int_Tables_number   1
_chemical_formula_structural   YBiIr2O7
_chemical_formula_sum   'Y2 Bi2 Ir4 O14'
_cell_volume   276.86783443
_cell_formula_units_Z   2
loop_
 _symmetry_equiv_pos_site_id
 _symmetry_equiv_pos_as_xyz
  1  'x, y, z'
loop_
 _atom_site_type_symbol
 _atom_site_label
 _atom_site_symmetry_multiplicity
 _atom_site_fract_x
 _atom_site_fract_y
 _atom_site_fract_z
 _atom_site_occupancy
  Y  Y0  1  0.000000  0.500000  0.500000  1
  Y  Y1  1  0.500000  0.500000  0.000000  1
  Bi  Bi2  1  0.000000  0.500000  0.000000  1
  Bi  Bi3  1  0.000000  0.000000  0.500000  1
  Ir  Ir4  1  0.500000  0.000000  0.000000  1
  Ir  Ir5  1  0.500000  0.500000  0.500000  1
  Ir  Ir6  1  0.500000  0.000000  0.500000  1
  Ir  Ir7  1  0.000000  0.000000  0.000000  1
  O  O8  1  0.869139  0.619139  0.250000  1
  O  O9  1  0.130861  0.380861  0.750000  1
  O  O10  1  0.831096  0.081088  0.750005  1
  O  O11  1  0.414237  0.664240  0.750004  1
  O  O12  1  0.834461  0.664720  0.744416  1
  O  O13  1  0.420304  0.090043  0.755582  1
  O  O14  1  0.834468  0.090049  0.169748  1
  O  O15  1  0.420304  0.664717  0.330251  1
  O  O16  1  0.168904  0.918912  0.249995  1
  O  O17  1  0.585763  0.335760  0.249996  1
  O  O18  1  0.165539  0.335280  0.255584  1
  O  O19  1  0.579696  0.909957  0.244418  1
  O  O20  1  0.165532  0.909951  0.830252  1
  O  O21  1  0.579696  0.335283  0.669749  1
