# generated using pymatgen
data_Ca6Si4Ni3Rh
_symmetry_space_group_name_H-M   'P 1'
_cell_length_a   5.65322300
_cell_length_b   7.82806101
_cell_length_c   12.83145300
_cell_angle_alpha   89.99683125
_cell_angle_beta   90.00000000
_cell_angle_gamma   90.00000000
_symmetry_Int_Tables_number   1
_chemical_formula_structural   Ca6Si4Ni3Rh
_chemical_formula_sum   'Ca12 Si8 Ni6 Rh2'
_cell_volume   567.84022713
_cell_formula_units_Z   2
loop_
 _symmetry_equiv_pos_site_id
 _symmetry_equiv_pos_as_xyz
  1  'x, y, z'
loop_
 _atom_site_type_symbol
 _atom_site_label
 _atom_site_symmetry_multiplicity
 _atom_site_fract_x
 _atom_site_fract_y
 _atom_site_fract_z
 _atom_site_occupancy
  Ca  Ca0  1  0.134791  0.613536  0.101172  1
  Ca  Ca1  1  0.134791  0.886464  0.898828  1
  Ca  Ca2  1  0.867559  0.114925  0.396852  1
  Ca  Ca3  1  0.867559  0.385075  0.603148  1
  Ca  Ca4  1  0.871138  0.389038  0.899330  1
  Ca  Ca5  1  0.871138  0.110962  0.100670  1
  Ca  Ca6  1  0.132556  0.890334  0.604483  1
  Ca  Ca7  1  0.132556  0.609666  0.395517  1
  Ca  Ca8  1  0.351087  0.262574  0.246613  1
  Ca  Ca9  1  0.351087  0.237426  0.753387  1
  Ca  Ca10  1  0.647886  0.763459  0.247658  1
  Ca  Ca11  1  0.647886  0.736541  0.752342  1
  Si  Si12  1  0.824639  0.413894  0.242625  1
  Si  Si13  1  0.824639  0.086106  0.757375  1
  Si  Si14  1  0.176514  0.913086  0.247949  1
  Si  Si15  1  0.176514  0.586914  0.752051  1
  Si  Si16  1  0.402910  0.250000  0.000000  1
  Si  Si17  1  0.593357  0.750000  0.500000  1
  Si  Si18  1  0.601815  0.750000  0.000000  1
  Si  Si19  1  0.391337  0.250000  0.500000  1
  Ni  Ni20  1  0.621167  0.474754  0.082931  1
  Ni  Ni21  1  0.621167  0.025246  0.917069  1
  Ni  Ni22  1  0.372854  0.972850  0.410105  1
  Ni  Ni23  1  0.372854  0.527150  0.589895  1
  Ni  Ni24  1  0.382014  0.524422  0.914919  1
  Ni  Ni25  1  0.382014  0.975578  0.085081  1
  Rh  Rh26  1  0.623086  0.025929  0.588299  1
  Rh  Rh27  1  0.623086  0.474071  0.411701  1
