# generated using pymatgen
data_Sm4Cd2Ag3Rh
_symmetry_space_group_name_H-M   'P 1'
_cell_length_a   8.01013262
_cell_length_b   8.01013262
_cell_length_c   3.86575800
_cell_angle_alpha   90.00000000
_cell_angle_beta   90.00000000
_cell_angle_gamma   90.37816088
_symmetry_Int_Tables_number   1
_chemical_formula_structural   Sm4Cd2Ag3Rh
_chemical_formula_sum   'Sm4 Cd2 Ag3 Rh1'
_cell_volume   248.03023038
_cell_formula_units_Z   1
loop_
 _symmetry_equiv_pos_site_id
 _symmetry_equiv_pos_as_xyz
  1  'x, y, z'
loop_
 _atom_site_type_symbol
 _atom_site_label
 _atom_site_symmetry_multiplicity
 _atom_site_fract_x
 _atom_site_fract_y
 _atom_site_fract_z
 _atom_site_occupancy
  Sm  Sm0  1  0.647103  0.183679  0.500000  1
  Sm  Sm1  1  0.316321  0.852897  0.500000  1
  Sm  Sm2  1  0.192548  0.307452  0.500000  1
  Sm  Sm3  1  0.829587  0.670413  0.500000  1
  Cd  Cd4  1  0.997589  0.000407  0.000000  1
  Cd  Cd5  1  0.499593  0.502411  0.000000  1
  Ag  Ag6  1  0.132638  0.619682  0.000000  1
  Ag  Ag7  1  0.880318  0.367362  0.000000  1
  Ag  Ag8  1  0.626991  0.873009  0.000000  1
  Rh  Rh9  1  0.377311  0.122689  0.000000  1
