# generated using pymatgen
data_TbSc2(Ni3P2)3
_symmetry_space_group_name_H-M   'P 1'
_cell_length_a   3.70233900
_cell_length_b   10.36703900
_cell_length_c   12.18125500
_cell_angle_alpha   90.00000000
_cell_angle_beta   90.00000000
_cell_angle_gamma   90.00000000
_symmetry_Int_Tables_number   1
_chemical_formula_structural   TbSc2(Ni3P2)3
_chemical_formula_sum   'Tb2 Sc4 Ni18 P12'
_cell_volume   467.54449613
_cell_formula_units_Z   2
loop_
 _symmetry_equiv_pos_site_id
 _symmetry_equiv_pos_as_xyz
  1  'x, y, z'
loop_
 _atom_site_type_symbol
 _atom_site_label
 _atom_site_symmetry_multiplicity
 _atom_site_fract_x
 _atom_site_fract_y
 _atom_site_fract_z
 _atom_site_occupancy
  Tb  Tb0  1  0.000000  0.500000  0.523697  1
  Tb  Tb1  1  0.500000  0.000000  0.476303  1
  Sc  Sc2  1  0.500000  0.819429  0.204552  1
  Sc  Sc3  1  0.500000  0.180571  0.204552  1
  Sc  Sc4  1  0.000000  0.680571  0.795448  1
  Sc  Sc5  1  0.000000  0.319429  0.795448  1
  Ni  Ni6  1  0.500000  0.500000  0.158712  1
  Ni  Ni7  1  0.000000  0.000000  0.841288  1
  Ni  Ni8  1  0.500000  0.500000  0.703440  1
  Ni  Ni9  1  0.000000  0.000000  0.296560  1
  Ni  Ni10  1  0.000000  0.500000  0.985512  1
  Ni  Ni11  1  0.500000  0.000000  0.014488  1
  Ni  Ni12  1  0.500000  0.332543  0.995846  1
  Ni  Ni13  1  0.500000  0.667457  0.995846  1
  Ni  Ni14  1  0.000000  0.167457  0.004154  1
  Ni  Ni15  1  0.000000  0.832543  0.004154  1
  Ni  Ni16  1  0.500000  0.299302  0.429324  1
  Ni  Ni17  1  0.500000  0.700698  0.429324  1
  Ni  Ni18  1  0.000000  0.200698  0.570676  1
  Ni  Ni19  1  0.000000  0.799302  0.570676  1
  Ni  Ni20  1  0.500000  0.876742  0.712376  1
  Ni  Ni21  1  0.500000  0.123258  0.712376  1
  Ni  Ni22  1  0.000000  0.623258  0.287624  1
  Ni  Ni23  1  0.000000  0.376742  0.287624  1
  P  P24  1  0.500000  0.500000  0.876781  1
  P  P25  1  0.000000  0.000000  0.123219  1
  P  P26  1  0.500000  0.500000  0.344584  1
  P  P27  1  0.000000  0.000000  0.655416  1
  P  P28  1  0.500000  0.313634  0.618735  1
  P  P29  1  0.500000  0.686366  0.618735  1
  P  P30  1  0.000000  0.186366  0.381265  1
  P  P31  1  0.000000  0.813634  0.381265  1
  P  P32  1  0.500000  0.843970  0.890132  1
  P  P33  1  0.500000  0.156030  0.890132  1
  P  P34  1  0.000000  0.656030  0.109868  1
  P  P35  1  0.000000  0.343970  0.109868  1
