# generated using pymatgen
data_Ru(Se4Cl)2
_symmetry_space_group_name_H-M   'P 1'
_cell_length_a   8.51633902
_cell_length_b   8.51633865
_cell_length_c   9.68608677
_cell_angle_alpha   78.18326265
_cell_angle_beta   78.18326489
_cell_angle_gamma   118.43411162
_symmetry_Int_Tables_number   1
_chemical_formula_structural   Ru(Se4Cl)2
_chemical_formula_sum   'Ru2 Se16 Cl4'
_cell_volume   566.15589800
_cell_formula_units_Z   2
loop_
 _symmetry_equiv_pos_site_id
 _symmetry_equiv_pos_as_xyz
  1  'x, y, z'
loop_
 _atom_site_type_symbol
 _atom_site_label
 _atom_site_symmetry_multiplicity
 _atom_site_fract_x
 _atom_site_fract_y
 _atom_site_fract_z
 _atom_site_occupancy
  Ru  Ru0  1  0.000000  0.000000  0.000000  1
  Ru  Ru1  1  0.000000  0.000000  0.500000  1
  Se  Se2  1  0.787027  0.067372  0.159073  1
  Se  Se3  1  0.932628  0.212973  0.340927  1
  Se  Se4  1  0.212973  0.932628  0.840927  1
  Se  Se5  1  0.067372  0.787027  0.659073  1
  Se  Se6  1  0.978512  0.769829  0.217574  1
  Se  Se7  1  0.230171  0.021488  0.282426  1
  Se  Se8  1  0.021488  0.230171  0.782426  1
  Se  Se9  1  0.769829  0.978512  0.717574  1
  Se  Se10  1  0.752782  0.715299  0.463744  1
  Se  Se11  1  0.284701  0.247218  0.036256  1
  Se  Se12  1  0.247218  0.284701  0.536256  1
  Se  Se13  1  0.715299  0.752782  0.963744  1
  Se  Se14  1  0.547593  0.789784  0.368872  1
  Se  Se15  1  0.210216  0.452407  0.131128  1
  Se  Se16  1  0.452407  0.210216  0.631128  1
  Se  Se17  1  0.789784  0.547593  0.868872  1
  Cl  Cl18  1  0.588676  0.411324  0.250000  1
  Cl  Cl19  1  0.411324  0.588676  0.750000  1
  Cl  Cl20  1  0.000000  0.500000  0.500000  1
  Cl  Cl21  1  0.500000  0.000000  0.000000  1
