# generated using pymatgen
data_Ho(ZrNi6)2
_symmetry_space_group_name_H-M   'P 1'
_cell_length_a   4.78087310
_cell_length_b   4.79595823
_cell_length_c   10.16306558
_cell_angle_alpha   85.14361755
_cell_angle_beta   80.22086437
_cell_angle_gamma   60.10401208
_symmetry_Int_Tables_number   1
_chemical_formula_structural   Ho(ZrNi6)2
_chemical_formula_sum   'Ho1 Zr2 Ni12'
_cell_volume   199.08361726
_cell_formula_units_Z   1
loop_
 _symmetry_equiv_pos_site_id
 _symmetry_equiv_pos_as_xyz
  1  'x, y, z'
loop_
 _atom_site_type_symbol
 _atom_site_label
 _atom_site_symmetry_multiplicity
 _atom_site_fract_x
 _atom_site_fract_y
 _atom_site_fract_z
 _atom_site_occupancy
  Ho  Ho0  1  0.000000  0.000000  0.000000  1
  Zr  Zr1  1  0.863783  0.000000  0.357190  1
  Zr  Zr2  1  0.136217  0.000000  0.642810  1
  Ni  Ni3  1  0.333632  0.332737  0.000000  1
  Ni  Ni4  1  0.666368  0.667263  0.000000  1
  Ni  Ni5  1  0.425912  0.000000  0.201973  1
  Ni  Ni6  1  0.574088  0.000000  0.798027  1
  Ni  Ni7  1  0.927143  0.500006  0.202161  1
  Ni  Ni8  1  0.427149  0.499994  0.202161  1
  Ni  Ni9  1  0.072857  0.499994  0.797839  1
  Ni  Ni10  1  0.572851  0.500006  0.797839  1
  Ni  Ni11  1  0.186977  0.330022  0.407374  1
  Ni  Ni12  1  0.516999  0.669978  0.407374  1
  Ni  Ni13  1  0.813023  0.669978  0.592626  1
  Ni  Ni14  1  0.483001  0.330022  0.592626  1
