# generated using pymatgen
data_HoHfCo4P3
_symmetry_space_group_name_H-M   'P 1'
_cell_length_a   12.23896638
_cell_length_b   12.23896671
_cell_length_c   3.69085300
_cell_angle_alpha   90.00000000
_cell_angle_beta   90.00000000
_cell_angle_gamma   120.08907400
_symmetry_Int_Tables_number   1
_chemical_formula_structural   HoHfCo4P3
_chemical_formula_sum   'Ho4 Hf4 Co16 P12'
_cell_volume   478.36166203
_cell_formula_units_Z   4
loop_
 _symmetry_equiv_pos_site_id
 _symmetry_equiv_pos_as_xyz
  1  'x, y, z'
loop_
 _atom_site_type_symbol
 _atom_site_label
 _atom_site_symmetry_multiplicity
 _atom_site_fract_x
 _atom_site_fract_y
 _atom_site_fract_z
 _atom_site_occupancy
  Ho  Ho0  1  0.819475  0.000415  0.500000  1
  Ho  Ho1  1  0.000415  0.819475  0.500000  1
  Ho  Ho2  1  0.333339  0.667042  0.000000  1
  Ho  Ho3  1  0.667042  0.333339  0.000000  1
  Hf  Hf4  1  0.183371  0.183371  0.500000  1
  Hf  Hf5  1  0.442040  0.000929  0.000000  1
  Hf  Hf6  1  0.000929  0.442040  0.000000  1
  Hf  Hf7  1  0.556000  0.556000  0.000000  1
  Co  Co8  1  0.278602  0.003751  0.500000  1
  Co  Co9  1  0.003751  0.278602  0.500000  1
  Co  Co10  1  0.719762  0.719762  0.500000  1
  Co  Co11  1  0.626399  0.803695  0.000000  1
  Co  Co12  1  0.195565  0.824288  0.000000  1
  Co  Co13  1  0.177364  0.369301  0.000000  1
  Co  Co14  1  0.369301  0.177364  0.000000  1
  Co  Co15  1  0.803695  0.626399  0.000000  1
  Co  Co16  1  0.824288  0.195565  0.000000  1
  Co  Co17  1  0.519463  0.875294  0.500000  1
  Co  Co18  1  0.125229  0.645354  0.500000  1
  Co  Co19  1  0.352601  0.476417  0.500000  1
  Co  Co20  1  0.476417  0.352601  0.500000  1
  Co  Co21  1  0.875294  0.519463  0.500000  1
  Co  Co22  1  0.645354  0.125229  0.500000  1
  Co  Co23  1  0.003161  0.003161  0.000000  1
  P  P24  1  0.177013  0.003295  0.000000  1
  P  P25  1  0.003295  0.177013  0.000000  1
  P  P26  1  0.824036  0.824036  0.000000  1
  P  P27  1  0.520221  0.691475  0.500000  1
  P  P28  1  0.307606  0.830159  0.500000  1
  P  P29  1  0.171566  0.479851  0.500000  1
  P  P30  1  0.479851  0.171566  0.500000  1
  P  P31  1  0.691475  0.520221  0.500000  1
  P  P32  1  0.830159  0.307606  0.500000  1
  P  P33  1  0.649441  0.999620  0.000000  1
  P  P34  1  0.999620  0.649441  0.000000  1
  P  P35  1  0.346863  0.346863  0.000000  1
