# generated using pymatgen
data_Zr10PPb6S
_symmetry_space_group_name_H-M   'P 1'
_cell_length_a   8.71369200
_cell_length_b   8.71369268
_cell_length_c   6.09904900
_cell_angle_alpha   90.00000000
_cell_angle_beta   90.00000000
_cell_angle_gamma   119.99998981
_symmetry_Int_Tables_number   1
_chemical_formula_structural   Zr10PPb6S
_chemical_formula_sum   'Zr10 P1 Pb6 S1'
_cell_volume   401.04882004
_cell_formula_units_Z   1
loop_
 _symmetry_equiv_pos_site_id
 _symmetry_equiv_pos_as_xyz
  1  'x, y, z'
loop_
 _atom_site_type_symbol
 _atom_site_label
 _atom_site_symmetry_multiplicity
 _atom_site_fract_x
 _atom_site_fract_y
 _atom_site_fract_z
 _atom_site_occupancy
  Zr  Zr0  1  0.666667  0.333333  0.500000  1
  Zr  Zr1  1  0.333333  0.666667  0.500000  1
  Zr  Zr2  1  0.333333  0.666667  0.000000  1
  Zr  Zr3  1  0.666667  0.333333  0.000000  1
  Zr  Zr4  1  0.753929  0.753929  0.251615  1
  Zr  Zr5  1  0.246071  0.000000  0.251615  1
  Zr  Zr6  1  0.000000  0.246071  0.251615  1
  Zr  Zr7  1  0.246071  0.246071  0.748385  1
  Zr  Zr8  1  0.753929  0.000000  0.748385  1
  Zr  Zr9  1  0.000000  0.753929  0.748385  1
  P  P10  1  0.000000  0.000000  0.500000  1
  Pb  Pb11  1  0.400593  0.400593  0.249990  1
  Pb  Pb12  1  0.599407  0.000000  0.249990  1
  Pb  Pb13  1  0.000000  0.599407  0.249990  1
  Pb  Pb14  1  0.599407  0.599407  0.750010  1
  Pb  Pb15  1  0.400593  0.000000  0.750010  1
  Pb  Pb16  1  0.000000  0.400593  0.750010  1
  S  S17  1  0.000000  0.000000  0.000000  1
