# generated using pymatgen
data_Y12InFeTc2Ag
_symmetry_space_group_name_H-M   'P 1'
_cell_length_a   8.44750589
_cell_length_b   8.44735630
_cell_length_c   8.44750590
_cell_angle_alpha   110.61492725
_cell_angle_beta   106.87367531
_cell_angle_gamma   110.95683629
_symmetry_Int_Tables_number   1
_chemical_formula_structural   Y12InFeTc2Ag
_chemical_formula_sum   'Y12 In1 Fe1 Tc2 Ag1'
_cell_volume   463.32045559
_cell_formula_units_Z   1
loop_
 _symmetry_equiv_pos_site_id
 _symmetry_equiv_pos_as_xyz
  1  'x, y, z'
loop_
 _atom_site_type_symbol
 _atom_site_label
 _atom_site_symmetry_multiplicity
 _atom_site_fract_x
 _atom_site_fract_y
 _atom_site_fract_z
 _atom_site_occupancy
  Y  Y0  1  0.307162  0.304276  0.613700  1
  Y  Y1  1  0.690550  0.693439  0.386293  1
  Y  Y2  1  0.690576  0.304276  0.997113  1
  Y  Y3  1  0.307145  0.693439  0.002889  1
  Y  Y4  1  0.190601  0.442152  0.251550  1
  Y  Y5  1  0.806172  0.558603  0.752430  1
  Y  Y6  1  0.190601  0.939053  0.748453  1
  Y  Y7  1  0.955309  0.189291  0.766028  1
  Y  Y8  1  0.806162  0.053737  0.247575  1
  Y  Y9  1  0.039486  0.808274  0.231200  1
  Y  Y10  1  0.423263  0.189291  0.233981  1
  Y  Y11  1  0.577074  0.808274  0.768789  1
  In  In12  1  0.498572  0.998576  0.500004  1
  Fe  Fe13  1  0.628973  0.628966  0.999994  1
  Tc  Tc14  1  0.390591  0.390593  0.000003  1
  Tc  Tc15  1  0.000484  0.000483  0.999999  1
  Ag  Ag16  1  0.997278  0.497279  0.500001  1
