# generated using pymatgen
data_Pa2Mn3Si5
_symmetry_space_group_name_H-M   'P 1'
_cell_length_a   10.53320100
_cell_length_b   10.53320100
_cell_length_c   5.46489600
_cell_angle_alpha   90.00000000
_cell_angle_beta   90.00000000
_cell_angle_gamma   90.00000000
_symmetry_Int_Tables_number   1
_chemical_formula_structural   Pa2Mn3Si5
_chemical_formula_sum   'Pa8 Mn12 Si20'
_cell_volume   606.32104824
_cell_formula_units_Z   4
loop_
 _symmetry_equiv_pos_site_id
 _symmetry_equiv_pos_as_xyz
  1  'x, y, z'
loop_
 _atom_site_type_symbol
 _atom_site_label
 _atom_site_symmetry_multiplicity
 _atom_site_fract_x
 _atom_site_fract_y
 _atom_site_fract_z
 _atom_site_occupancy
  Pa  Pa0  1  0.762330  0.068947  0.000000  1
  Pa  Pa1  1  0.068947  0.237671  0.000000  1
  Pa  Pa2  1  0.931052  0.762330  0.000000  1
  Pa  Pa3  1  0.237671  0.931052  0.000000  1
  Pa  Pa4  1  0.568947  0.262330  0.500000  1
  Pa  Pa5  1  0.262330  0.431052  0.500000  1
  Pa  Pa6  1  0.737671  0.568947  0.500000  1
  Pa  Pa7  1  0.431052  0.737671  0.500000  1
  Mn  Mn8  1  0.373585  0.358677  0.000000  1
  Mn  Mn9  1  0.641324  0.373585  0.000000  1
  Mn  Mn10  1  0.358677  0.626416  0.000000  1
  Mn  Mn11  1  0.626416  0.641324  0.000000  1
  Mn  Mn12  1  0.500000  0.000000  0.249999  1
  Mn  Mn13  1  0.000000  0.500000  0.249999  1
  Mn  Mn14  1  0.141324  0.126416  0.500000  1
  Mn  Mn15  1  0.873585  0.141324  0.500000  1
  Mn  Mn16  1  0.126416  0.858676  0.500000  1
  Mn  Mn17  1  0.858676  0.873585  0.500000  1
  Mn  Mn18  1  0.500000  0.000000  0.749999  1
  Mn  Mn19  1  0.000000  0.500000  0.749999  1
  Si  Si20  1  0.519107  0.182927  0.000000  1
  Si  Si21  1  0.182927  0.480894  0.000000  1
  Si  Si22  1  0.817072  0.519107  0.000000  1
  Si  Si23  1  0.480894  0.817072  0.000000  1
  Si  Si24  1  0.500000  0.500000  0.235555  1
  Si  Si25  1  0.321088  0.178912  0.249999  1
  Si  Si26  1  0.821087  0.321088  0.249999  1
  Si  Si27  1  0.178912  0.678912  0.249999  1
  Si  Si28  1  0.678912  0.821087  0.249999  1
  Si  Si29  1  0.000000  0.000000  0.264445  1
  Si  Si30  1  0.682927  0.019107  0.500000  1
  Si  Si31  1  0.019107  0.317073  0.500000  1
  Si  Si32  1  0.980894  0.682927  0.500000  1
  Si  Si33  1  0.317073  0.980894  0.500000  1
  Si  Si34  1  0.000000  0.000000  0.735555  1
  Si  Si35  1  0.321088  0.178912  0.749999  1
  Si  Si36  1  0.821087  0.321088  0.749999  1
  Si  Si37  1  0.178912  0.678912  0.749999  1
  Si  Si38  1  0.678912  0.821087  0.749999  1
  Si  Si39  1  0.500000  0.500000  0.764445  1
