# generated using pymatgen
data_Ti11NbAs4C3N
_symmetry_space_group_name_H-M   'P 1'
_cell_length_a   5.43407333
_cell_length_b   5.43407295
_cell_length_c   16.25303865
_cell_angle_alpha   89.78210701
_cell_angle_beta   89.78210713
_cell_angle_gamma   35.08180865
_symmetry_Int_Tables_number   1
_chemical_formula_structural   Ti11NbAs4C3N
_chemical_formula_sum   'Ti11 Nb1 As4 C3 N1'
_cell_volume   275.84024094
_cell_formula_units_Z   1
loop_
 _symmetry_equiv_pos_site_id
 _symmetry_equiv_pos_as_xyz
  1  'x, y, z'
loop_
 _atom_site_type_symbol
 _atom_site_label
 _atom_site_symmetry_multiplicity
 _atom_site_fract_x
 _atom_site_fract_y
 _atom_site_fract_z
 _atom_site_occupancy
  Ti  Ti0  1  0.872583  0.872583  0.721402  1
  Ti  Ti1  1  0.129676  0.129676  0.279251  1
  Ti  Ti2  1  0.129734  0.129734  0.775822  1
  Ti  Ti3  1  0.871252  0.871252  0.026598  1
  Ti  Ti4  1  0.870570  0.870570  0.525937  1
  Ti  Ti5  1  0.128869  0.128869  0.474608  1
  Ti  Ti6  1  0.129772  0.129772  0.972900  1
  Ti  Ti7  1  0.552292  0.552292  0.124927  1
  Ti  Ti8  1  0.552377  0.552377  0.622904  1
  Ti  Ti9  1  0.446955  0.446955  0.377871  1
  Ti  Ti10  1  0.448978  0.448978  0.874409  1
  Nb  Nb11  1  0.866824  0.866824  0.224063  1
  As  As12  1  0.243041  0.243041  0.121975  1
  As  As13  1  0.246349  0.246349  0.624163  1
  As  As14  1  0.753293  0.753293  0.377902  1
  As  As15  1  0.754672  0.754672  0.874113  1
  C  C16  1  0.502520  0.502520  0.252307  1
  C  C17  1  0.500979  0.500979  0.748704  1
  C  C18  1  0.499733  0.499733  0.999743  1
  N  N19  1  0.499531  0.499531  0.500401  1
