# generated using pymatgen
data_Yb4Er5LuRu4
_symmetry_space_group_name_H-M   'P 1'
_cell_length_a   6.38465871
_cell_length_b   7.20078110
_cell_length_c   8.47331312
_cell_angle_alpha   97.37885290
_cell_angle_beta   112.13258375
_cell_angle_gamma   89.99999260
_symmetry_Int_Tables_number   1
_chemical_formula_structural   Yb4Er5LuRu4
_chemical_formula_sum   'Yb4 Er5 Lu1 Ru4'
_cell_volume   357.36683323
_cell_formula_units_Z   1
loop_
 _symmetry_equiv_pos_site_id
 _symmetry_equiv_pos_as_xyz
  1  'x, y, z'
loop_
 _atom_site_type_symbol
 _atom_site_label
 _atom_site_symmetry_multiplicity
 _atom_site_fract_x
 _atom_site_fract_y
 _atom_site_fract_z
 _atom_site_occupancy
  Yb  Yb0  1  0.522139  0.078736  0.816267  1
  Yb  Yb1  1  0.477812  0.920110  0.183733  1
  Yb  Yb2  1  0.705872  0.421264  0.183733  1
  Yb  Yb3  1  0.294079  0.579890  0.816267  1
  Er  Er4  1  0.302985  0.315102  0.433434  1
  Er  Er5  1  0.697252  0.685093  0.567438  1
  Er  Er6  1  0.869553  0.184898  0.566566  1
  Er  Er7  1  0.129813  0.814907  0.432562  1
  Er  Er8  1  0.069755  0.250000  0.000000  1
  Lu  Lu9  1  0.931481  0.750000  0.000000  1
  Ru  Ru10  1  0.313702  0.575565  0.230467  1
  Ru  Ru11  1  0.685987  0.425626  0.769652  1
  Ru  Ru12  1  0.083236  0.924435  0.769533  1
  Ru  Ru13  1  0.916334  0.074374  0.230348  1
