# generated using pymatgen
data_PuCl30
_symmetry_space_group_name_H-M   'P 1'
_cell_length_a   14.33655336
_cell_length_b   14.33655335
_cell_length_c   16.37585384
_cell_angle_alpha   83.70832070
_cell_angle_beta   83.70832275
_cell_angle_gamma   124.82580838
_symmetry_Int_Tables_number   1
_chemical_formula_structural   PuCl30
_chemical_formula_sum   'Pu1 Cl30'
_cell_volume   2684.51107577
_cell_formula_units_Z   1
loop_
 _symmetry_equiv_pos_site_id
 _symmetry_equiv_pos_as_xyz
  1  'x, y, z'
loop_
 _atom_site_type_symbol
 _atom_site_label
 _atom_site_symmetry_multiplicity
 _atom_site_fract_x
 _atom_site_fract_y
 _atom_site_fract_z
 _atom_site_occupancy
  Pu  Pu0  1  0.000000  0.000000  0.000000  1
  Cl  Cl1  1  0.943904  0.943904  0.158132  1
  Cl  Cl2  1  0.056096  0.056096  0.841868  1
  Cl  Cl3  1  0.060784  0.197018  0.005667  1
  Cl  Cl4  1  0.939216  0.802982  0.994333  1
  Cl  Cl5  1  0.197018  0.060784  0.005667  1
  Cl  Cl6  1  0.802982  0.939216  0.994333  1
  Cl  Cl7  1  0.203910  0.743826  0.062553  1
  Cl  Cl8  1  0.796090  0.256174  0.937447  1
  Cl  Cl9  1  0.701227  0.077111  0.262031  1
  Cl  Cl10  1  0.256174  0.796090  0.937447  1
  Cl  Cl11  1  0.298773  0.922889  0.737969  1
  Cl  Cl12  1  0.743826  0.203910  0.062553  1
  Cl  Cl13  1  0.976113  0.202724  0.777647  1
  Cl  Cl14  1  0.922889  0.298773  0.737969  1
  Cl  Cl15  1  0.023887  0.797276  0.222353  1
  Cl  Cl16  1  0.077111  0.701227  0.262031  1
  Cl  Cl17  1  0.797276  0.023887  0.222353  1
  Cl  Cl18  1  0.202724  0.976113  0.777647  1
  Cl  Cl19  1  0.466533  0.544977  0.259832  1
  Cl  Cl20  1  0.533467  0.455023  0.740168  1
  Cl  Cl21  1  0.506799  0.206745  0.452578  1
  Cl  Cl22  1  0.455023  0.533467  0.740168  1
  Cl  Cl23  1  0.493201  0.793255  0.547422  1
  Cl  Cl24  1  0.544977  0.466533  0.259832  1
  Cl  Cl25  1  0.239525  0.430671  0.542573  1
  Cl  Cl26  1  0.793255  0.493201  0.547422  1
  Cl  Cl27  1  0.760475  0.569329  0.457427  1
  Cl  Cl28  1  0.206745  0.506799  0.452578  1
  Cl  Cl29  1  0.569329  0.760475  0.457427  1
  Cl  Cl30  1  0.430671  0.239525  0.542573  1
