# generated using pymatgen
data_PrDyEr6(CdIr)2
_symmetry_space_group_name_H-M   'P 1'
_cell_length_a   9.63872647
_cell_length_b   9.63137142
_cell_length_c   9.62105316
_cell_angle_alpha   60.08599333
_cell_angle_beta   60.01009354
_cell_angle_gamma   59.90391120
_symmetry_Int_Tables_number   1
_chemical_formula_structural   PrDyEr6(CdIr)2
_chemical_formula_sum   'Pr2 Dy2 Er12 Cd4 Ir4'
_cell_volume   631.55791804
_cell_formula_units_Z   2
loop_
 _symmetry_equiv_pos_site_id
 _symmetry_equiv_pos_as_xyz
  1  'x, y, z'
loop_
 _atom_site_type_symbol
 _atom_site_label
 _atom_site_symmetry_multiplicity
 _atom_site_fract_x
 _atom_site_fract_y
 _atom_site_fract_z
 _atom_site_occupancy
  Pr  Pr0  1  0.567583  0.567583  0.932417  1
  Pr  Pr1  1  0.932417  0.932417  0.567583  1
  Dy  Dy2  1  0.558410  0.941590  0.558410  1
  Dy  Dy3  1  0.941590  0.558410  0.941590  1
  Er  Er4  1  0.351582  0.348574  0.344341  1
  Er  Er5  1  0.348574  0.351582  0.955503  1
  Er  Er6  1  0.344341  0.955503  0.351582  1
  Er  Er7  1  0.955503  0.344341  0.348574  1
  Er  Er8  1  0.812879  0.187121  0.187121  1
  Er  Er9  1  0.187121  0.812879  0.812879  1
  Er  Er10  1  0.188374  0.811626  0.188374  1
  Er  Er11  1  0.811626  0.188374  0.811626  1
  Er  Er12  1  0.190488  0.190488  0.809512  1
  Er  Er13  1  0.809512  0.809512  0.190488  1
  Er  Er14  1  0.945309  0.554691  0.554691  1
  Er  Er15  1  0.554691  0.945309  0.945309  1
  Cd  Cd16  1  0.581967  0.581420  0.577739  1
  Cd  Cd17  1  0.581420  0.581967  0.258873  1
  Cd  Cd18  1  0.577739  0.258873  0.581967  1
  Cd  Cd19  1  0.258873  0.577739  0.581420  1
  Ir  Ir20  1  0.146133  0.142618  0.135632  1
  Ir  Ir21  1  0.142618  0.146133  0.575616  1
  Ir  Ir22  1  0.135632  0.575616  0.146133  1
  Ir  Ir23  1  0.575616  0.135632  0.142618  1
