# generated using pymatgen
data_Ho2Tm14Cd4NiRu3
_symmetry_space_group_name_H-M   'P 1'
_cell_length_a   9.45852894
_cell_length_b   9.51821023
_cell_length_c   9.53714900
_cell_angle_alpha   59.93416155
_cell_angle_beta   59.72465903
_cell_angle_gamma   59.59612357
_symmetry_Int_Tables_number   1
_chemical_formula_structural   Ho2Tm14Cd4NiRu3
_chemical_formula_sum   'Ho2 Tm14 Cd4 Ni1 Ru3'
_cell_volume   603.69636405
_cell_formula_units_Z   1
loop_
 _symmetry_equiv_pos_site_id
 _symmetry_equiv_pos_as_xyz
  1  'x, y, z'
loop_
 _atom_site_type_symbol
 _atom_site_label
 _atom_site_symmetry_multiplicity
 _atom_site_fract_x
 _atom_site_fract_y
 _atom_site_fract_z
 _atom_site_occupancy
  Ho  Ho0  1  0.558661  0.566632  0.937353  1
  Ho  Ho1  1  0.939954  0.939485  0.560280  1
  Tm  Tm2  1  0.350829  0.345989  0.344857  1
  Tm  Tm3  1  0.350829  0.345989  0.958322  1
  Tm  Tm4  1  0.351669  0.959370  0.344479  1
  Tm  Tm5  1  0.958974  0.347268  0.346879  1
  Tm  Tm6  1  0.810068  0.188398  0.188841  1
  Tm  Tm7  1  0.186468  0.810968  0.812245  1
  Tm  Tm8  1  0.186468  0.810968  0.190318  1
  Tm  Tm9  1  0.810068  0.188398  0.812693  1
  Tm  Tm10  1  0.187903  0.188719  0.811688  1
  Tm  Tm11  1  0.809221  0.810881  0.189949  1
  Tm  Tm12  1  0.940312  0.559396  0.559804  1
  Tm  Tm13  1  0.558220  0.938179  0.937413  1
  Tm  Tm14  1  0.558220  0.938179  0.566188  1
  Tm  Tm15  1  0.940312  0.559396  0.940487  1
  Cd  Cd16  1  0.579949  0.581249  0.581107  1
  Cd  Cd17  1  0.579949  0.581249  0.257696  1
  Cd  Cd18  1  0.579403  0.257579  0.581510  1
  Cd  Cd19  1  0.256813  0.580505  0.581342  1
  Ni  Ni20  1  0.576773  0.141425  0.140901  1
  Ru  Ru21  1  0.143053  0.141042  0.137736  1
  Ru  Ru22  1  0.143053  0.141042  0.578170  1
  Ru  Ru23  1  0.142831  0.577691  0.139740  1
