# generated using pymatgen
data_Sr3(ErSn2)2
_symmetry_space_group_name_H-M   'P 1'
_cell_length_a   8.10535500
_cell_length_b   8.70474800
_cell_length_c   16.44619900
_cell_angle_alpha   90.00000000
_cell_angle_beta   90.00000000
_cell_angle_gamma   90.00000000
_symmetry_Int_Tables_number   1
_chemical_formula_structural   Sr3(ErSn2)2
_chemical_formula_sum   'Sr12 Er8 Sn16'
_cell_volume   1160.36276650
_cell_formula_units_Z   4
loop_
 _symmetry_equiv_pos_site_id
 _symmetry_equiv_pos_as_xyz
  1  'x, y, z'
loop_
 _atom_site_type_symbol
 _atom_site_label
 _atom_site_symmetry_multiplicity
 _atom_site_fract_x
 _atom_site_fract_y
 _atom_site_fract_z
 _atom_site_occupancy
  Sr  Sr0  1  0.502577  0.680944  0.591935  1
  Sr  Sr1  1  0.002577  0.819056  0.908065  1
  Sr  Sr2  1  0.497423  0.319056  0.091935  1
  Sr  Sr3  1  0.997423  0.180944  0.408065  1
  Sr  Sr4  1  0.497423  0.319056  0.408065  1
  Sr  Sr5  1  0.997423  0.180944  0.091935  1
  Sr  Sr6  1  0.502577  0.680944  0.908065  1
  Sr  Sr7  1  0.002577  0.819056  0.591935  1
  Sr  Sr8  1  0.827150  0.515654  0.750000  1
  Sr  Sr9  1  0.327150  0.984346  0.750000  1
  Sr  Sr10  1  0.172850  0.484346  0.250000  1
  Sr  Sr11  1  0.672850  0.015654  0.250000  1
  Er  Er12  1  0.670915  0.168895  0.621869  1
  Er  Er13  1  0.170915  0.331105  0.878131  1
  Er  Er14  1  0.329085  0.831105  0.121869  1
  Er  Er15  1  0.829085  0.668895  0.378131  1
  Er  Er16  1  0.329085  0.831105  0.378131  1
  Er  Er17  1  0.829085  0.668895  0.121869  1
  Er  Er18  1  0.670915  0.168895  0.878131  1
  Er  Er19  1  0.170915  0.331105  0.621869  1
  Sn  Sn20  1  0.664270  0.957966  0.461683  1
  Sn  Sn21  1  0.164270  0.542034  0.038317  1
  Sn  Sn22  1  0.335730  0.042034  0.961683  1
  Sn  Sn23  1  0.835730  0.457966  0.538317  1
  Sn  Sn24  1  0.335730  0.042034  0.538317  1
  Sn  Sn25  1  0.835730  0.457966  0.961683  1
  Sn  Sn26  1  0.664270  0.957966  0.038317  1
  Sn  Sn27  1  0.164270  0.542034  0.461683  1
  Sn  Sn28  1  0.462331  0.358953  0.750000  1
  Sn  Sn29  1  0.962331  0.141047  0.750000  1
  Sn  Sn30  1  0.537669  0.641047  0.250000  1
  Sn  Sn31  1  0.037669  0.858953  0.250000  1
  Sn  Sn32  1  0.719789  0.892325  0.750000  1
  Sn  Sn33  1  0.219789  0.607675  0.750000  1
  Sn  Sn34  1  0.280211  0.107675  0.250000  1
  Sn  Sn35  1  0.780211  0.392325  0.250000  1
