# generated using pymatgen
data_Sr4Hf3Zr(Si2O7)4
_symmetry_space_group_name_H-M   'P 1'
_cell_length_a   8.15868451
_cell_length_b   7.82593627
_cell_length_c   10.14232632
_cell_angle_alpha   68.26551883
_cell_angle_beta   90.00640206
_cell_angle_gamma   90.03971853
_symmetry_Int_Tables_number   1
_chemical_formula_structural   Sr4Hf3Zr(Si2O7)4
_chemical_formula_sum   'Sr4 Hf3 Zr1 Si8 O28'
_cell_volume   601.54414095
_cell_formula_units_Z   1
loop_
 _symmetry_equiv_pos_site_id
 _symmetry_equiv_pos_as_xyz
  1  'x, y, z'
loop_
 _atom_site_type_symbol
 _atom_site_label
 _atom_site_symmetry_multiplicity
 _atom_site_fract_x
 _atom_site_fract_y
 _atom_site_fract_z
 _atom_site_occupancy
  Sr  Sr0  1  0.518156  0.716413  0.293836  1
  Sr  Sr1  1  0.018218  0.283394  0.206655  1
  Sr  Sr2  1  0.482240  0.283376  0.706872  1
  Sr  Sr3  1  0.981828  0.716833  0.793225  1
  Hf  Hf4  1  0.988476  0.743697  0.246828  1
  Hf  Hf5  1  0.488401  0.256269  0.253232  1
  Hf  Hf6  1  0.011580  0.256502  0.753135  1
  Zr  Zr7  1  0.510725  0.744020  0.746317  1
  Si  Si8  1  0.714129  0.324432  0.959938  1
  Si  Si9  1  0.213095  0.673730  0.540091  1
  Si  Si10  1  0.285180  0.673967  0.042032  1
  Si  Si11  1  0.786507  0.326025  0.458859  1
  Si  Si12  1  0.750445  0.935769  0.957831  1
  Si  Si13  1  0.248269  0.065438  0.542319  1
  Si  Si14  1  0.250901  0.064109  0.043267  1
  Si  Si15  1  0.752029  0.936848  0.456064  1
  O  O16  1  0.905592  0.366543  0.904306  1
  O  O17  1  0.405214  0.630243  0.593121  1
  O  O18  1  0.094024  0.632189  0.098123  1
  O  O19  1  0.594884  0.367013  0.403336  1
  O  O20  1  0.703137  0.305179  0.125241  1
  O  O21  1  0.201782  0.694890  0.374502  1
  O  O22  1  0.293019  0.694130  0.876362  1
  O  O23  1  0.797113  0.305383  0.624641  1
  O  O24  1  0.592386  0.474739  0.849262  1
  O  O25  1  0.091826  0.522815  0.651208  1
  O  O26  1  0.407076  0.522316  0.151506  1
  O  O27  1  0.907374  0.478077  0.348749  1
  O  O28  1  0.636268  0.826905  0.883745  1
  O  O29  1  0.133422  0.172364  0.617242  1
  O  O30  1  0.365207  0.172136  0.117895  1
  O  O31  1  0.865228  0.828842  0.381259  1
  O  O32  1  0.846776  0.133357  0.437026  1
  O  O33  1  0.345826  0.867562  0.062252  1
  O  O34  1  0.155735  0.867209  0.562223  1
  O  O35  1  0.654567  0.131036  0.939230  1
  O  O36  1  0.728878  0.811495  0.623437  1
  O  O37  1  0.225481  0.189330  0.875934  1
  O  O38  1  0.273360  0.189997  0.375051  1
  O  O39  1  0.774767  0.810508  0.124784  1
  O  O40  1  0.579418  0.992234  0.367215  1
  O  O41  1  0.079166  0.008182  0.133110  1
  O  O42  1  0.420689  0.012477  0.631549  1
  O  O43  1  0.921609  0.992027  0.867188  1
