# generated using pymatgen
data_Tb6Ga8SCl
_symmetry_space_group_name_H-M   'P 1'
_cell_length_a   7.78009612
_cell_length_b   7.78009479
_cell_length_c   7.78009473
_cell_angle_alpha   119.14761409
_cell_angle_beta   119.14762663
_cell_angle_gamma   91.48281492
_symmetry_Int_Tables_number   1
_chemical_formula_structural   Tb6Ga8SCl
_chemical_formula_sum   'Tb6 Ga8 S1 Cl1'
_cell_volume   337.16459357
_cell_formula_units_Z   1
loop_
 _symmetry_equiv_pos_site_id
 _symmetry_equiv_pos_as_xyz
  1  'x, y, z'
loop_
 _atom_site_type_symbol
 _atom_site_label
 _atom_site_symmetry_multiplicity
 _atom_site_fract_x
 _atom_site_fract_y
 _atom_site_fract_z
 _atom_site_occupancy
  Tb  Tb0  1  0.846024  0.669297  0.515320  1
  Tb  Tb1  1  0.669297  0.153976  0.823273  1
  Tb  Tb2  1  0.330703  0.846024  0.176727  1
  Tb  Tb3  1  0.153976  0.330703  0.484680  1
  Tb  Tb4  1  0.246076  0.246076  0.000000  1
  Tb  Tb5  1  0.753924  0.753924  0.000000  1
  Ga  Ga6  1  0.163170  0.951709  0.502496  1
  Ga  Ga7  1  0.449212  0.660675  0.497504  1
  Ga  Ga8  1  0.550788  0.339325  0.502496  1
  Ga  Ga9  1  0.660675  0.163170  0.211462  1
  Ga  Ga10  1  0.836830  0.048291  0.497504  1
  Ga  Ga11  1  0.048291  0.550788  0.211462  1
  Ga  Ga12  1  0.339325  0.836830  0.788538  1
  Ga  Ga13  1  0.951709  0.449212  0.788538  1
  S  S14  1  0.000000  0.000000  0.000000  1
  Cl  Cl15  1  0.500000  0.500000  0.000000  1
