# generated using pymatgen
data_Nd2Er3Tm5(In2Pt)4
_symmetry_space_group_name_H-M   'P 1'
_cell_length_a   3.60012800
_cell_length_b   8.17191134
_cell_length_c   18.28666976
_cell_angle_alpha   89.96691241
_cell_angle_beta   90.00000000
_cell_angle_gamma   90.00000000
_symmetry_Int_Tables_number   1
_chemical_formula_structural   Nd2Er3Tm5(In2Pt)4
_chemical_formula_sum   'Nd2 Er3 Tm5 In8 Pt4'
_cell_volume   537.99239668
_cell_formula_units_Z   1
loop_
 _symmetry_equiv_pos_site_id
 _symmetry_equiv_pos_as_xyz
  1  'x, y, z'
loop_
 _atom_site_type_symbol
 _atom_site_label
 _atom_site_symmetry_multiplicity
 _atom_site_fract_x
 _atom_site_fract_y
 _atom_site_fract_z
 _atom_site_occupancy
  Nd  Nd0  1  0.000000  0.999982  0.000007  1
  Nd  Nd1  1  0.000000  0.500019  0.499987  1
  Er  Er2  1  0.000000  0.757640  0.780564  1
  Er  Er3  1  0.000000  0.257648  0.719449  1
  Er  Er4  1  0.000000  0.742399  0.280535  1
  Tm  Tm5  1  0.000000  0.120475  0.413496  1
  Tm  Tm6  1  0.000000  0.879530  0.586458  1
  Tm  Tm7  1  0.000000  0.379538  0.913543  1
  Tm  Tm8  1  0.000000  0.620416  0.086485  1
  Tm  Tm9  1  0.000000  0.242451  0.219526  1
  In  In10  1  0.500000  0.421356  0.348024  1
  In  In11  1  0.500000  0.578550  0.651919  1
  In  In12  1  0.500000  0.078535  0.848083  1
  In  In13  1  0.500000  0.921615  0.151935  1
  In  In14  1  0.500000  0.301199  0.067497  1
  In  In15  1  0.500000  0.698723  0.932613  1
  In  In16  1  0.500000  0.198723  0.567385  1
  In  In17  1  0.500000  0.801317  0.432612  1
  Pt  Pt18  1  0.500000  0.026470  0.303625  1
  Pt  Pt19  1  0.500000  0.973936  0.696215  1
  Pt  Pt20  1  0.500000  0.473919  0.803782  1
  Pt  Pt21  1  0.500000  0.525560  0.196260  1
