# generated using pymatgen
data_Tb2Y2Pd3RuO14
_symmetry_space_group_name_H-M   'P 1'
_cell_length_a   7.23940825
_cell_length_b   7.24466564
_cell_length_c   7.29452716
_cell_angle_alpha   60.27138535
_cell_angle_beta   60.24964196
_cell_angle_gamma   60.02400698
_symmetry_Int_Tables_number   1
_chemical_formula_structural   Tb2Y2Pd3RuO14
_chemical_formula_sum   'Tb2 Y2 Pd3 Ru1 O14'
_cell_volume   271.63254824
_cell_formula_units_Z   1
loop_
 _symmetry_equiv_pos_site_id
 _symmetry_equiv_pos_as_xyz
  1  'x, y, z'
loop_
 _atom_site_type_symbol
 _atom_site_label
 _atom_site_symmetry_multiplicity
 _atom_site_fract_x
 _atom_site_fract_y
 _atom_site_fract_z
 _atom_site_occupancy
  Tb  Tb0  1  0.125000  0.625000  0.125000  1
  Tb  Tb1  1  0.125000  0.125000  0.625000  1
  Y  Y2  1  0.625000  0.125000  0.125000  1
  Y  Y3  1  0.125000  0.125000  0.125000  1
  Pd  Pd4  1  0.625000  0.125000  0.625000  1
  Pd  Pd5  1  0.125000  0.625000  0.625000  1
  Pd  Pd6  1  0.625000  0.625000  0.625000  1
  Ru  Ru7  1  0.625000  0.625000  0.125000  1
  O  O8  1  0.999274  0.000321  0.001131  1
  O  O9  1  0.250726  0.249679  0.248869  1
  O  O10  1  0.283464  0.283442  0.718879  1
  O  O11  1  0.539161  0.539091  0.963819  1
  O  O12  1  0.714214  0.283442  0.718879  1
  O  O13  1  0.710873  0.292047  0.286207  1
  O  O14  1  0.283486  0.714256  0.718772  1
  O  O15  1  0.292071  0.710909  0.286181  1
  O  O16  1  0.710839  0.710909  0.286181  1
  O  O17  1  0.966514  0.535744  0.531228  1
  O  O18  1  0.539127  0.957953  0.963793  1
  O  O19  1  0.966536  0.966558  0.531121  1
  O  O20  1  0.957929  0.539091  0.963819  1
  O  O21  1  0.535786  0.966558  0.531121  1
