# generated using pymatgen
data_Sm4Ni7P12Ru13
_symmetry_space_group_name_H-M   'P 1'
_cell_length_a   3.84764700
_cell_length_b   10.76471889
_cell_length_c   12.22460216
_cell_angle_alpha   90.19275335
_cell_angle_beta   90.00000000
_cell_angle_gamma   90.00000000
_symmetry_Int_Tables_number   1
_chemical_formula_structural   Sm4Ni7P12Ru13
_chemical_formula_sum   'Sm4 Ni7 P12 Ru13'
_cell_volume   506.32595561
_cell_formula_units_Z   1
loop_
 _symmetry_equiv_pos_site_id
 _symmetry_equiv_pos_as_xyz
  1  'x, y, z'
loop_
 _atom_site_type_symbol
 _atom_site_label
 _atom_site_symmetry_multiplicity
 _atom_site_fract_x
 _atom_site_fract_y
 _atom_site_fract_z
 _atom_site_occupancy
  Sm  Sm0  1  0.250000  0.586068  0.707736  1
  Sm  Sm1  1  0.250000  0.911692  0.206492  1
  Sm  Sm2  1  0.750000  0.412321  0.293874  1
  Sm  Sm3  1  0.750000  0.087037  0.794418  1
  Ni  Ni4  1  0.250000  0.607955  0.197859  1
  Ni  Ni5  1  0.750000  0.109990  0.302015  1
  Ni  Ni6  1  0.750000  0.388867  0.803086  1
  Ni  Ni7  1  0.250000  0.460432  0.931825  1
  Ni  Ni8  1  0.250000  0.040827  0.430446  1
  Ni  Ni9  1  0.750000  0.537052  0.070181  1
  Ni  Ni10  1  0.750000  0.965832  0.562294  1
  P  P11  1  0.250000  0.418027  0.109276  1
  P  P12  1  0.250000  0.082078  0.608528  1
  P  P13  1  0.750000  0.578088  0.892261  1
  P  P14  1  0.750000  0.917301  0.388006  1
  P  P15  1  0.250000  0.269365  0.874819  1
  P  P16  1  0.250000  0.231028  0.374818  1
  P  P17  1  0.750000  0.728854  0.124826  1
  P  P18  1  0.750000  0.773495  0.628223  1
  P  P19  1  0.250000  0.602792  0.389813  1
  P  P20  1  0.250000  0.896367  0.891104  1
  P  P21  1  0.750000  0.398835  0.609472  1
  P  P22  1  0.750000  0.102501  0.110017  1
  Ru  Ru23  1  0.250000  0.707566  0.989884  1
  Ru  Ru24  1  0.250000  0.795198  0.478246  1
  Ru  Ru25  1  0.750000  0.291780  0.015689  1
  Ru  Ru26  1  0.750000  0.211773  0.511184  1
  Ru  Ru27  1  0.250000  0.408036  0.488225  1
  Ru  Ru28  1  0.250000  0.094100  0.989229  1
  Ru  Ru29  1  0.750000  0.596997  0.513694  1
  Ru  Ru30  1  0.750000  0.905896  0.013606  1
  Ru  Ru31  1  0.250000  0.220774  0.182583  1
  Ru  Ru32  1  0.250000  0.279835  0.681272  1
  Ru  Ru33  1  0.750000  0.774466  0.823716  1
  Ru  Ru34  1  0.750000  0.718972  0.316448  1
  Ru  Ru35  1  0.250000  0.887802  0.694833  1
