# generated using pymatgen
data_DyY7(NiB14)2
_symmetry_space_group_name_H-M   'P 1'
_cell_length_a   7.24192700
_cell_length_b   7.24212600
_cell_length_c   7.51508500
_cell_angle_alpha   90.00000000
_cell_angle_beta   90.00000000
_cell_angle_gamma   90.00387667
_symmetry_Int_Tables_number   1
_chemical_formula_structural   DyY7(NiB14)2
_chemical_formula_sum   'Dy1 Y7 Ni2 B28'
_cell_volume   394.14327038
_cell_formula_units_Z   1
loop_
 _symmetry_equiv_pos_site_id
 _symmetry_equiv_pos_as_xyz
  1  'x, y, z'
loop_
 _atom_site_type_symbol
 _atom_site_label
 _atom_site_symmetry_multiplicity
 _atom_site_fract_x
 _atom_site_fract_y
 _atom_site_fract_z
 _atom_site_occupancy
  Dy  Dy0  1  0.168220  0.306179  0.500000  1
  Y  Y1  1  0.193780  0.331954  0.000000  1
  Y  Y2  1  0.668027  0.193781  0.000000  1
  Y  Y3  1  0.331984  0.806232  0.000000  1
  Y  Y4  1  0.693781  0.168057  0.500000  1
  Y  Y5  1  0.306197  0.832008  0.500000  1
  Y  Y6  1  0.806212  0.667995  0.000000  1
  Y  Y7  1  0.832057  0.693710  0.500000  1
  Ni  Ni8  1  0.999972  0.000004  0.000000  1
  Ni  Ni9  1  0.499697  0.499834  0.500000  1
  B  B10  1  0.174334  0.039306  0.232623  1
  B  B11  1  0.960854  0.174382  0.232625  1
  B  B12  1  0.039230  0.825658  0.232514  1
  B  B13  1  0.674326  0.460774  0.267439  1
  B  B14  1  0.325634  0.539128  0.267547  1
  B  B15  1  0.825654  0.960773  0.232503  1
  B  B16  1  0.539223  0.674340  0.267459  1
  B  B17  1  0.460668  0.325675  0.267527  1
  B  B18  1  0.825654  0.960773  0.767497  1
  B  B19  1  0.039230  0.825658  0.767486  1
  B  B20  1  0.960854  0.174382  0.767375  1
  B  B21  1  0.325634  0.539128  0.732453  1
  B  B22  1  0.674326  0.460774  0.732561  1
  B  B23  1  0.174334  0.039306  0.767377  1
  B  B24  1  0.460668  0.325675  0.732473  1
  B  B25  1  0.539223  0.674340  0.732541  1
  B  B26  1  0.089309  0.589236  0.250116  1
  B  B27  1  0.410601  0.089377  0.250085  1
  B  B28  1  0.589325  0.910669  0.249992  1
  B  B29  1  0.910769  0.410670  0.250136  1
  B  B30  1  0.910769  0.410670  0.749864  1
  B  B31  1  0.589325  0.910669  0.750008  1
  B  B32  1  0.410601  0.089377  0.749915  1
  B  B33  1  0.089309  0.589236  0.749884  1
  B  B34  1  0.000085  0.000107  0.388347  1
  B  B35  1  0.500025  0.500030  0.111638  1
  B  B36  1  0.000085  0.000107  0.611653  1
  B  B37  1  0.500025  0.500030  0.888362  1
