# generated using pymatgen
data_TbErGa2IrPd
_symmetry_space_group_name_H-M   'P 1'
_cell_length_a   4.41197500
_cell_length_b   6.84261200
_cell_length_c   7.71904700
_cell_angle_alpha   90.00000000
_cell_angle_beta   90.00000000
_cell_angle_gamma   90.00000000
_symmetry_Int_Tables_number   1
_chemical_formula_structural   TbErGa2IrPd
_chemical_formula_sum   'Tb2 Er2 Ga4 Ir2 Pd2'
_cell_volume   233.03365284
_cell_formula_units_Z   2
loop_
 _symmetry_equiv_pos_site_id
 _symmetry_equiv_pos_as_xyz
  1  'x, y, z'
loop_
 _atom_site_type_symbol
 _atom_site_label
 _atom_site_symmetry_multiplicity
 _atom_site_fract_x
 _atom_site_fract_y
 _atom_site_fract_z
 _atom_site_occupancy
  Tb  Tb0  1  0.750000  0.025041  0.686569  1
  Tb  Tb1  1  0.750000  0.525041  0.813431  1
  Er  Er2  1  0.250000  0.984421  0.302899  1
  Er  Er3  1  0.250000  0.484421  0.197101  1
  Ga  Ga4  1  0.250000  0.332879  0.568573  1
  Ga  Ga5  1  0.250000  0.832879  0.931427  1
  Ga  Ga6  1  0.750000  0.660619  0.425887  1
  Ga  Ga7  1  0.750000  0.160619  0.074113  1
  Ir  Ir8  1  0.750000  0.772633  0.107082  1
  Ir  Ir9  1  0.750000  0.272633  0.392918  1
  Pd  Pd10  1  0.250000  0.224408  0.896040  1
  Pd  Pd11  1  0.250000  0.724408  0.603960  1
