# generated using pymatgen
data_Li4Ca3SmSi8
_symmetry_space_group_name_H-M   'P 1'
_cell_length_a   3.81615700
_cell_length_b   7.88668798
_cell_length_c   10.56678668
_cell_angle_alpha   89.79125107
_cell_angle_beta   90.00000000
_cell_angle_gamma   90.00000000
_symmetry_Int_Tables_number   1
_chemical_formula_structural   Li4Ca3SmSi8
_chemical_formula_sum   'Li4 Ca3 Sm1 Si8'
_cell_volume   318.02477230
_cell_formula_units_Z   1
loop_
 _symmetry_equiv_pos_site_id
 _symmetry_equiv_pos_as_xyz
  1  'x, y, z'
loop_
 _atom_site_type_symbol
 _atom_site_label
 _atom_site_symmetry_multiplicity
 _atom_site_fract_x
 _atom_site_fract_y
 _atom_site_fract_z
 _atom_site_occupancy
  Li  Li0  1  0.250000  0.997867  0.388478  1
  Li  Li1  1  0.750000  0.000695  0.610196  1
  Li  Li2  1  0.250000  0.497863  0.110640  1
  Li  Li3  1  0.750000  0.505971  0.888119  1
  Ca  Ca4  1  0.750000  0.866384  0.134885  1
  Ca  Ca5  1  0.250000  0.635011  0.636664  1
  Ca  Ca6  1  0.750000  0.364853  0.365080  1
  Sm  Sm7  1  0.250000  0.130104  0.865509  1
  Si  Si8  1  0.750000  0.268683  0.064332  1
  Si  Si9  1  0.250000  0.736102  0.932588  1
  Si  Si10  1  0.750000  0.767808  0.432054  1
  Si  Si11  1  0.250000  0.227893  0.571250  1
  Si  Si12  1  0.750000  0.838898  0.823773  1
  Si  Si13  1  0.250000  0.164689  0.172174  1
  Si  Si14  1  0.750000  0.331991  0.679175  1
  Si  Si15  1  0.250000  0.665187  0.325083  1
