# generated using pymatgen
data_DyLu5Al15Si9Os8
_symmetry_space_group_name_H-M   'P 1'
_cell_length_a   8.67465014
_cell_length_b   8.66379887
_cell_length_c   9.32571900
_cell_angle_alpha   90.00000000
_cell_angle_beta   90.00000000
_cell_angle_gamma   119.98615695
_symmetry_Int_Tables_number   1
_chemical_formula_structural   DyLu5Al15Si9Os8
_chemical_formula_sum   'Dy1 Lu5 Al15 Si9 Os8'
_cell_volume   607.06312129
_cell_formula_units_Z   1
loop_
 _symmetry_equiv_pos_site_id
 _symmetry_equiv_pos_as_xyz
  1  'x, y, z'
loop_
 _atom_site_type_symbol
 _atom_site_label
 _atom_site_symmetry_multiplicity
 _atom_site_fract_x
 _atom_site_fract_y
 _atom_site_fract_z
 _atom_site_occupancy
  Dy  Dy0  1  0.806813  0.191332  0.750000  1
  Lu  Lu1  1  0.195202  0.390820  0.250000  1
  Lu  Lu2  1  0.803928  0.608414  0.750000  1
  Lu  Lu3  1  0.607558  0.806608  0.250000  1
  Lu  Lu4  1  0.392454  0.195642  0.750000  1
  Lu  Lu5  1  0.198096  0.807068  0.250000  1
  Al  Al6  1  0.165940  0.331542  0.580274  1
  Al  Al7  1  0.835544  0.671920  0.420560  1
  Al  Al8  1  0.667477  0.833848  0.579185  1
  Al  Al9  1  0.835544  0.671920  0.079440  1
  Al  Al10  1  0.327561  0.164938  0.421062  1
  Al  Al11  1  0.165940  0.331542  0.919726  1
  Al  Al12  1  0.165897  0.834835  0.579949  1
  Al  Al13  1  0.327561  0.164938  0.078938  1
  Al  Al14  1  0.836712  0.164870  0.420082  1
  Al  Al15  1  0.667477  0.833848  0.920815  1
  Al  Al16  1  0.836712  0.164870  0.079918  1
  Al  Al17  1  0.165897  0.834835  0.920051  1
  Al  Al18  1  0.874295  0.435665  0.250000  1
  Al  Al19  1  0.560603  0.435141  0.250000  1
  Al  Al20  1  0.999166  0.000412  0.250000  1
  Si  Si21  1  0.332361  0.665597  0.043216  1
  Si  Si22  1  0.667384  0.335009  0.959914  1
  Si  Si23  1  0.667384  0.335009  0.540086  1
  Si  Si24  1  0.332361  0.665597  0.456784  1
  Si  Si25  1  0.562611  0.126353  0.250000  1
  Si  Si26  1  0.437298  0.876564  0.750000  1
  Si  Si27  1  0.124643  0.562758  0.750000  1
  Si  Si28  1  0.437389  0.561229  0.750000  1
  Si  Si29  1  0.005320  0.996384  0.750000  1
  Os  Os30  1  0.498049  0.997766  0.999719  1
  Os  Os31  1  0.002583  0.501759  0.993757  1
  Os  Os32  1  0.498049  0.997766  0.500281  1
  Os  Os33  1  0.498347  0.500688  0.992984  1
  Os  Os34  1  0.002583  0.501759  0.506243  1
  Os  Os35  1  0.498347  0.500688  0.507016  1
  Os  Os36  1  0.999458  0.000029  0.992189  1
  Os  Os37  1  0.999458  0.000029  0.507811  1
