# generated using pymatgen
data_Pr19SmSi15Tc
_symmetry_space_group_name_H-M   'P 1'
_cell_length_a   7.92762039
_cell_length_b   7.92570901
_cell_length_c   15.26687027
_cell_angle_alpha   90.23232315
_cell_angle_beta   89.91799599
_cell_angle_gamma   90.04298167
_symmetry_Int_Tables_number   1
_chemical_formula_structural   Pr19SmSi15Tc
_chemical_formula_sum   'Pr19 Sm1 Si15 Tc1'
_cell_volume   959.23904817
_cell_formula_units_Z   1
loop_
 _symmetry_equiv_pos_site_id
 _symmetry_equiv_pos_as_xyz
  1  'x, y, z'
loop_
 _atom_site_type_symbol
 _atom_site_label
 _atom_site_symmetry_multiplicity
 _atom_site_fract_x
 _atom_site_fract_y
 _atom_site_fract_z
 _atom_site_occupancy
  Pr  Pr0  1  0.191981  0.809311  0.250061  1
  Pr  Pr1  1  0.822850  0.189988  0.748701  1
  Pr  Pr2  1  0.695534  0.689801  0.502351  1
  Pr  Pr3  1  0.371157  0.011853  0.451140  1
  Pr  Pr4  1  0.483737  0.882284  0.696260  1
  Pr  Pr5  1  0.510600  0.123799  0.198917  1
  Pr  Pr6  1  0.876249  0.488770  0.300653  1
  Pr  Pr7  1  0.128382  0.503062  0.798544  1
  Pr  Pr8  1  0.625869  0.988392  0.949182  1
  Pr  Pr9  1  0.008176  0.377328  0.551279  1
  Pr  Pr10  1  0.988659  0.625349  0.050578  1
  Pr  Pr11  1  0.131721  0.983414  0.872550  1
  Pr  Pr12  1  0.516454  0.629414  0.126231  1
  Pr  Pr13  1  0.472162  0.361045  0.628670  1
  Pr  Pr14  1  0.627775  0.515628  0.875183  1
  Pr  Pr15  1  0.374844  0.483525  0.373765  1
  Pr  Pr16  1  0.873230  0.019807  0.376271  1
  Pr  Pr17  1  0.982554  0.127261  0.124431  1
  Pr  Pr18  1  0.025214  0.880933  0.627385  1
  Sm  Sm19  1  0.307896  0.306290  0.997980  1
  Si  Si20  1  0.332663  0.693603  0.951766  1
  Si  Si21  1  0.664753  0.301596  0.450745  1
  Si  Si22  1  0.695821  0.333296  0.050086  1
  Si  Si23  1  0.303209  0.668396  0.547163  1
  Si  Si24  1  0.805126  0.832142  0.202492  1
  Si  Si25  1  0.167999  0.197929  0.298266  1
  Si  Si26  1  0.831064  0.801727  0.800143  1
  Si  Si27  1  0.288745  0.923884  0.058166  1
  Si  Si28  1  0.579819  0.787538  0.310466  1
  Si  Si29  1  0.420376  0.211700  0.813342  1
  Si  Si30  1  0.779332  0.582800  0.691990  1
  Si  Si31  1  0.212301  0.421131  0.189149  1
  Si  Si32  1  0.705348  0.075485  0.558263  1
  Si  Si33  1  0.922030  0.288002  0.941963  1
  Si  Si34  1  0.078964  0.714472  0.440750  1
  Tc  Tc35  1  0.197407  0.169043  0.695117  1
