# generated using pymatgen
data_CeDy(B4Ru)2
_symmetry_space_group_name_H-M   'P 1'
_cell_length_a   3.58677900
_cell_length_b   5.97710082
_cell_length_c   11.58998220
_cell_angle_alpha   90.15960220
_cell_angle_beta   90.00000000
_cell_angle_gamma   90.00000000
_symmetry_Int_Tables_number   1
_chemical_formula_structural   CeDy(B4Ru)2
_chemical_formula_sum   'Ce2 Dy2 B16 Ru4'
_cell_volume   248.47132949
_cell_formula_units_Z   2
loop_
 _symmetry_equiv_pos_site_id
 _symmetry_equiv_pos_as_xyz
  1  'x, y, z'
loop_
 _atom_site_type_symbol
 _atom_site_label
 _atom_site_symmetry_multiplicity
 _atom_site_fract_x
 _atom_site_fract_y
 _atom_site_fract_z
 _atom_site_occupancy
  Ce  Ce0  1  0.000000  0.129260  0.651222  1
  Ce  Ce1  1  0.000000  0.870740  0.348778  1
  Dy  Dy2  1  0.000000  0.628513  0.851965  1
  Dy  Dy3  1  0.000000  0.371487  0.148035  1
  B  B4  1  0.500000  0.477007  0.692371  1
  B  B5  1  0.500000  0.522993  0.307629  1
  B  B6  1  0.500000  0.973520  0.809990  1
  B  B7  1  0.500000  0.026480  0.190010  1
  B  B8  1  0.500000  0.289317  0.815628  1
  B  B9  1  0.500000  0.710683  0.184372  1
  B  B10  1  0.500000  0.785793  0.687179  1
  B  B11  1  0.500000  0.214207  0.312821  1
  B  B12  1  0.500000  0.363672  0.968979  1
  B  B13  1  0.500000  0.636328  0.031021  1
  B  B14  1  0.500000  0.862609  0.531005  1
  B  B15  1  0.500000  0.137391  0.468995  1
  B  B16  1  0.500000  0.388966  0.546642  1
  B  B17  1  0.500000  0.611034  0.453358  1
  B  B18  1  0.500000  0.887080  0.954314  1
  B  B19  1  0.500000  0.112920  0.045686  1
  Ru  Ru20  1  0.000000  0.138603  0.907113  1
  Ru  Ru21  1  0.000000  0.861397  0.092887  1
  Ru  Ru22  1  0.000000  0.639644  0.593542  1
  Ru  Ru23  1  0.000000  0.360356  0.406458  1
