# generated using pymatgen
data_Eu16In4Ir3Pt
_symmetry_space_group_name_H-M   'P 1'
_cell_length_a   10.15824785
_cell_length_b   10.15824885
_cell_length_c   10.15824780
_cell_angle_alpha   60.29040559
_cell_angle_beta   60.29040209
_cell_angle_gamma   60.29040597
_symmetry_Int_Tables_number   1
_chemical_formula_structural   Eu16In4Ir3Pt
_chemical_formula_sum   'Eu16 In4 Ir3 Pt1'
_cell_volume   746.08157926
_cell_formula_units_Z   1
loop_
 _symmetry_equiv_pos_site_id
 _symmetry_equiv_pos_as_xyz
  1  'x, y, z'
loop_
 _atom_site_type_symbol
 _atom_site_label
 _atom_site_symmetry_multiplicity
 _atom_site_fract_x
 _atom_site_fract_y
 _atom_site_fract_z
 _atom_site_occupancy
  Eu  Eu0  1  0.592836  0.592836  0.592836  1
  Eu  Eu1  1  0.597469  0.597469  0.212311  1
  Eu  Eu2  1  0.597469  0.212311  0.597469  1
  Eu  Eu3  1  0.212311  0.597469  0.597469  1
  Eu  Eu4  1  0.051175  0.444744  0.444744  1
  Eu  Eu5  1  0.444485  0.057003  0.057003  1
  Eu  Eu6  1  0.444744  0.051175  0.444744  1
  Eu  Eu7  1  0.057003  0.444485  0.057003  1
  Eu  Eu8  1  0.444744  0.444744  0.051175  1
  Eu  Eu9  1  0.057003  0.057003  0.444485  1
  Eu  Eu10  1  0.196689  0.804577  0.804577  1
  Eu  Eu11  1  0.805873  0.197839  0.197839  1
  Eu  Eu12  1  0.804577  0.196689  0.804577  1
  Eu  Eu13  1  0.197839  0.805873  0.197839  1
  Eu  Eu14  1  0.804577  0.804577  0.196689  1
  Eu  Eu15  1  0.197839  0.197839  0.805873  1
  In  In16  1  0.827943  0.827943  0.827943  1
  In  In17  1  0.827018  0.827018  0.516519  1
  In  In18  1  0.827018  0.516519  0.827018  1
  In  In19  1  0.516519  0.827018  0.827018  1
  Ir  Ir20  1  0.385748  0.385748  0.834507  1
  Ir  Ir21  1  0.385748  0.834507  0.385748  1
  Ir  Ir22  1  0.834507  0.385748  0.385748  1
  Pt  Pt23  1  0.388870  0.388870  0.388870  1
