# generated using pymatgen
data_Tb3ErZr4(NiP)12
_symmetry_space_group_name_H-M   'P 1'
_cell_length_a   3.74137300
_cell_length_b   10.16728209
_cell_length_c   12.35121411
_cell_angle_alpha   90.01500994
_cell_angle_beta   90.00000000
_cell_angle_gamma   90.00000000
_symmetry_Int_Tables_number   1
_chemical_formula_structural   Tb3ErZr4(NiP)12
_chemical_formula_sum   'Tb3 Er1 Zr4 Ni12 P12'
_cell_volume   469.83516233
_cell_formula_units_Z   1
loop_
 _symmetry_equiv_pos_site_id
 _symmetry_equiv_pos_as_xyz
  1  'x, y, z'
loop_
 _atom_site_type_symbol
 _atom_site_label
 _atom_site_symmetry_multiplicity
 _atom_site_fract_x
 _atom_site_fract_y
 _atom_site_fract_z
 _atom_site_occupancy
  Tb  Tb0  1  0.750000  0.928536  0.792732  1
  Tb  Tb1  1  0.750000  0.571471  0.292810  1
  Tb  Tb2  1  0.250000  0.428493  0.707239  1
  Er  Er3  1  0.250000  0.071495  0.207516  1
  Zr  Zr4  1  0.250000  0.158789  0.497037  1
  Zr  Zr5  1  0.750000  0.841077  0.502174  1
  Zr  Zr6  1  0.750000  0.659394  0.002693  1
  Zr  Zr7  1  0.250000  0.340551  0.997889  1
  Ni  Ni8  1  0.250000  0.728047  0.663887  1
  Ni  Ni9  1  0.750000  0.271430  0.335574  1
  Ni  Ni10  1  0.750000  0.227619  0.836340  1
  Ni  Ni11  1  0.250000  0.772693  0.164075  1
  Ni  Ni12  1  0.250000  0.364603  0.219410  1
  Ni  Ni13  1  0.750000  0.634270  0.780567  1
  Ni  Ni14  1  0.750000  0.866893  0.279801  1
  Ni  Ni15  1  0.250000  0.134411  0.719298  1
  Ni  Ni16  1  0.250000  0.598354  0.483338  1
  Ni  Ni17  1  0.750000  0.401524  0.516326  1
  Ni  Ni18  1  0.750000  0.098062  0.018008  1
  Ni  Ni19  1  0.250000  0.902647  0.983846  1
  P  P20  1  0.250000  0.945060  0.623510  1
  P  P21  1  0.750000  0.054983  0.374936  1
  P  P22  1  0.750000  0.444912  0.876567  1
  P  P23  1  0.250000  0.554938  0.123925  1
  P  P24  1  0.250000  0.393940  0.402448  1
  P  P25  1  0.750000  0.605987  0.597438  1
  P  P26  1  0.750000  0.895069  0.098075  1
  P  P27  1  0.250000  0.106193  0.902353  1
  P  P28  1  0.250000  0.771682  0.353846  1
  P  P29  1  0.750000  0.228556  0.645744  1
  P  P30  1  0.750000  0.269535  0.146458  1
  P  P31  1  0.250000  0.728785  0.854138  1
