# generated using pymatgen
data_Pr16MgIn3Rh4
_symmetry_space_group_name_H-M   'P 1'
_cell_length_a   10.02714138
_cell_length_b   10.06718815
_cell_length_c   10.07532561
_cell_angle_alpha   60.02932301
_cell_angle_beta   59.82895370
_cell_angle_gamma   59.85428588
_symmetry_Int_Tables_number   1
_chemical_formula_structural   Pr16MgIn3Rh4
_chemical_formula_sum   'Pr16 Mg1 In3 Rh4'
_cell_volume   717.59802954
_cell_formula_units_Z   1
loop_
 _symmetry_equiv_pos_site_id
 _symmetry_equiv_pos_as_xyz
  1  'x, y, z'
loop_
 _atom_site_type_symbol
 _atom_site_label
 _atom_site_symmetry_multiplicity
 _atom_site_fract_x
 _atom_site_fract_y
 _atom_site_fract_z
 _atom_site_occupancy
  Pr  Pr0  1  0.349606  0.347875  0.348026  1
  Pr  Pr1  1  0.349847  0.347747  0.954611  1
  Pr  Pr2  1  0.349683  0.954562  0.347930  1
  Pr  Pr3  1  0.952442  0.349096  0.349349  1
  Pr  Pr4  1  0.807927  0.192715  0.192524  1
  Pr  Pr5  1  0.189545  0.809909  0.809667  1
  Pr  Pr6  1  0.189716  0.809846  0.190629  1
  Pr  Pr7  1  0.808177  0.192503  0.806497  1
  Pr  Pr8  1  0.189574  0.190780  0.809706  1
  Pr  Pr9  1  0.807929  0.806847  0.192385  1
  Pr  Pr10  1  0.935524  0.563494  0.562820  1
  Pr  Pr11  1  0.562628  0.938499  0.938407  1
  Pr  Pr12  1  0.562993  0.938339  0.560302  1
  Pr  Pr13  1  0.936117  0.562697  0.938669  1
  Pr  Pr14  1  0.562665  0.560407  0.938383  1
  Pr  Pr15  1  0.935711  0.938231  0.562766  1
  Mg  Mg16  1  0.273669  0.575470  0.575463  1
  In  In17  1  0.578798  0.581396  0.581481  1
  In  In18  1  0.579006  0.581370  0.258206  1
  In  In19  1  0.578782  0.258306  0.581457  1
  Rh  Rh20  1  0.142077  0.141725  0.142200  1
  Rh  Rh21  1  0.142095  0.142018  0.573960  1
  Rh  Rh22  1  0.142022  0.573973  0.142285  1
  Rh  Rh23  1  0.573468  0.142197  0.142275  1
