# generated using pymatgen
data_Ca3LaAl8
_symmetry_space_group_name_H-M   'P 1'
_cell_length_a   9.81744587
_cell_length_b   9.81744577
_cell_length_c   9.81744718
_cell_angle_alpha   33.84831265
_cell_angle_beta   33.84831170
_cell_angle_gamma   33.84831101
_symmetry_Int_Tables_number   1
_chemical_formula_structural   Ca3LaAl8
_chemical_formula_sum   'Ca3 La1 Al8'
_cell_volume   261.60828855
_cell_formula_units_Z   1
loop_
 _symmetry_equiv_pos_site_id
 _symmetry_equiv_pos_as_xyz
  1  'x, y, z'
loop_
 _atom_site_type_symbol
 _atom_site_label
 _atom_site_symmetry_multiplicity
 _atom_site_fract_x
 _atom_site_fract_y
 _atom_site_fract_z
 _atom_site_occupancy
  Ca  Ca0  1  0.561992  0.561992  0.561992  1
  Ca  Ca1  1  0.438610  0.438610  0.438610  1
  Ca  Ca2  1  0.936510  0.936510  0.936510  1
  La  La3  1  0.062439  0.062439  0.062439  1
  Al  Al4  1  0.750388  0.750388  0.750388  1
  Al  Al5  1  0.249436  0.249436  0.249436  1
  Al  Al6  1  0.001985  0.499244  0.499244  1
  Al  Al7  1  0.497968  0.001091  0.001091  1
  Al  Al8  1  0.499244  0.001985  0.499244  1
  Al  Al9  1  0.001091  0.497968  0.001091  1
  Al  Al10  1  0.499244  0.499244  0.001985  1
  Al  Al11  1  0.001091  0.001091  0.497968  1
