# generated using pymatgen
data_Hf(ScZn4)3
_symmetry_space_group_name_H-M   'P 1'
_cell_length_a   4.21322000
_cell_length_b   6.45363162
_cell_length_c   9.76429225
_cell_angle_alpha   89.92357006
_cell_angle_beta   90.00000000
_cell_angle_gamma   90.00000000
_symmetry_Int_Tables_number   1
_chemical_formula_structural   Hf(ScZn4)3
_chemical_formula_sum   'Hf1 Sc3 Zn12'
_cell_volume   265.49643406
_cell_formula_units_Z   1
loop_
 _symmetry_equiv_pos_site_id
 _symmetry_equiv_pos_as_xyz
  1  'x, y, z'
loop_
 _atom_site_type_symbol
 _atom_site_label
 _atom_site_symmetry_multiplicity
 _atom_site_fract_x
 _atom_site_fract_y
 _atom_site_fract_z
 _atom_site_occupancy
  Hf  Hf0  1  0.750000  0.219370  0.167885  1
  Sc  Sc1  1  0.250000  0.278673  0.666856  1
  Sc  Sc2  1  0.250000  0.776298  0.831446  1
  Sc  Sc3  1  0.750000  0.723871  0.333063  1
  Zn  Zn4  1  0.250000  0.535245  0.098609  1
  Zn  Zn5  1  0.250000  0.040785  0.399122  1
  Zn  Zn6  1  0.750000  0.460284  0.904166  1
  Zn  Zn7  1  0.750000  0.963932  0.599407  1
  Zn  Zn8  1  0.250000  0.925817  0.153069  1
  Zn  Zn9  1  0.250000  0.428242  0.345069  1
  Zn  Zn10  1  0.750000  0.074420  0.847764  1
  Zn  Zn11  1  0.750000  0.574384  0.654396  1
  Zn  Zn12  1  0.250000  0.206165  0.959182  1
  Zn  Zn13  1  0.250000  0.709742  0.540126  1
  Zn  Zn14  1  0.750000  0.790741  0.042678  1
  Zn  Zn15  1  0.750000  0.292031  0.457159  1
