# generated using pymatgen
data_Li4Tb(CePb2)2
_symmetry_space_group_name_H-M   'P 1'
_cell_length_a   4.78824307
_cell_length_b   7.16682974
_cell_length_c   8.90141100
_cell_angle_alpha   113.73875115
_cell_angle_beta   105.60237955
_cell_angle_gamma   89.99999495
_symmetry_Int_Tables_number   1
_chemical_formula_structural   Li4Tb(CePb2)2
_chemical_formula_sum   'Li4 Tb1 Ce2 Pb4'
_cell_volume   267.27800592
_cell_formula_units_Z   1
loop_
 _symmetry_equiv_pos_site_id
 _symmetry_equiv_pos_as_xyz
  1  'x, y, z'
loop_
 _atom_site_type_symbol
 _atom_site_label
 _atom_site_symmetry_multiplicity
 _atom_site_fract_x
 _atom_site_fract_y
 _atom_site_fract_z
 _atom_site_occupancy
  Li  Li0  1  0.672764  0.981411  0.345529  1
  Li  Li1  1  0.327236  0.018589  0.654471  1
  Li  Li2  1  0.327236  0.635882  0.654471  1
  Li  Li3  1  0.672764  0.364118  0.345529  1
  Tb  Tb4  1  0.000000  0.000000  0.000000  1
  Ce  Ce5  1  0.129950  0.629950  0.259901  1
  Ce  Ce6  1  0.870050  0.370050  0.740099  1
  Pb  Pb7  1  0.500000  0.709484  0.000000  1
  Pb  Pb8  1  0.500000  0.290516  0.000000  1
  Pb  Pb9  1  0.788598  0.788598  0.577196  1
  Pb  Pb10  1  0.211402  0.211402  0.422804  1
