# generated using pymatgen
data_Yb2(CeRu)3
_symmetry_space_group_name_H-M   'P 1'
_cell_length_a   6.61053000
_cell_length_b   8.03352015
_cell_length_c   8.03351800
_cell_angle_alpha   120.00000761
_cell_angle_beta   90.00000000
_cell_angle_gamma   90.00000000
_symmetry_Int_Tables_number   1
_chemical_formula_structural   Yb2(CeRu)3
_chemical_formula_sum   'Yb4 Ce6 Ru6'
_cell_volume   369.46945286
_cell_formula_units_Z   2
loop_
 _symmetry_equiv_pos_site_id
 _symmetry_equiv_pos_as_xyz
  1  'x, y, z'
loop_
 _atom_site_type_symbol
 _atom_site_label
 _atom_site_symmetry_multiplicity
 _atom_site_fract_x
 _atom_site_fract_y
 _atom_site_fract_z
 _atom_site_occupancy
  Yb  Yb0  1  0.000000  0.666667  0.333333  1
  Yb  Yb1  1  0.000000  0.333333  0.666667  1
  Yb  Yb2  1  0.500000  0.333333  0.666667  1
  Yb  Yb3  1  0.500000  0.666667  0.333333  1
  Ce  Ce4  1  0.750000  0.756028  0.756028  1
  Ce  Ce5  1  0.250000  0.243972  0.243972  1
  Ce  Ce6  1  0.750000  0.000000  0.243972  1
  Ce  Ce7  1  0.250000  0.000000  0.756028  1
  Ce  Ce8  1  0.750000  0.243972  0.000000  1
  Ce  Ce9  1  0.250000  0.756028  0.000000  1
  Ru  Ru10  1  0.750000  0.352157  0.352157  1
  Ru  Ru11  1  0.250000  0.647843  0.647843  1
  Ru  Ru12  1  0.750000  0.000000  0.647843  1
  Ru  Ru13  1  0.250000  0.000000  0.352157  1
  Ru  Ru14  1  0.750000  0.647843  0.000000  1
  Ru  Ru15  1  0.250000  0.352157  0.000000  1
