# generated using pymatgen
data_RbErSiSe4
_symmetry_space_group_name_H-M   'P 1'
_cell_length_a   7.00557100
_cell_length_b   6.67986865
_cell_length_c   9.47273618
_cell_angle_alpha   72.47730502
_cell_angle_beta   90.00000000
_cell_angle_gamma   90.00000000
_symmetry_Int_Tables_number   1
_chemical_formula_structural   RbErSiSe4
_chemical_formula_sum   'Rb2 Er2 Si2 Se8'
_cell_volume   422.71935020
_cell_formula_units_Z   2
loop_
 _symmetry_equiv_pos_site_id
 _symmetry_equiv_pos_as_xyz
  1  'x, y, z'
loop_
 _atom_site_type_symbol
 _atom_site_label
 _atom_site_symmetry_multiplicity
 _atom_site_fract_x
 _atom_site_fract_y
 _atom_site_fract_z
 _atom_site_occupancy
  Rb  Rb0  1  0.977644  0.731233  0.065709  1
  Rb  Rb1  1  0.477644  0.268767  0.934291  1
  Er  Er2  1  0.501657  0.229734  0.453291  1
  Er  Er3  1  0.001657  0.770266  0.546709  1
  Si  Si4  1  0.463181  0.779141  0.336141  1
  Si  Si5  1  0.963181  0.220859  0.663859  1
  Se  Se6  1  0.467668  0.576102  0.182513  1
  Se  Se7  1  0.227833  0.029818  0.289390  1
  Se  Se8  1  0.733226  0.983326  0.310536  1
  Se  Se9  1  0.895793  0.431495  0.430703  1
  Se  Se10  1  0.395793  0.568505  0.569297  1
  Se  Se11  1  0.233226  0.016674  0.689464  1
  Se  Se12  1  0.727833  0.970182  0.710610  1
  Se  Se13  1  0.967668  0.423898  0.817487  1
