# generated using pymatgen
data_Mg3Zn(GeIr)2
_symmetry_space_group_name_H-M   'P 1'
_cell_length_a   4.29191100
_cell_length_b   4.29191079
_cell_length_c   8.64571900
_cell_angle_alpha   90.00000000
_cell_angle_beta   90.00000000
_cell_angle_gamma   119.99999393
_symmetry_Int_Tables_number   1
_chemical_formula_structural   Mg3Zn(GeIr)2
_chemical_formula_sum   'Mg3 Zn1 Ge2 Ir2'
_cell_volume   137.92187989
_cell_formula_units_Z   1
loop_
 _symmetry_equiv_pos_site_id
 _symmetry_equiv_pos_as_xyz
  1  'x, y, z'
loop_
 _atom_site_type_symbol
 _atom_site_label
 _atom_site_symmetry_multiplicity
 _atom_site_fract_x
 _atom_site_fract_y
 _atom_site_fract_z
 _atom_site_occupancy
  Mg  Mg0  1  0.333333  0.666667  0.415650  1
  Mg  Mg1  1  0.666666  0.333333  0.579831  1
  Mg  Mg2  1  0.666666  0.333333  0.930556  1
  Zn  Zn3  1  0.333333  0.666667  0.075679  1
  Ge  Ge4  1  0.000000  0.000000  0.246998  1
  Ge  Ge5  1  0.000000  0.000000  0.748727  1
  Ir  Ir6  1  0.666666  0.333333  0.249392  1
  Ir  Ir7  1  0.333333  0.666667  0.753167  1
