# generated using pymatgen
data_Tm20Ni3IrRu8
_symmetry_space_group_name_H-M   'P 1'
_cell_length_a   10.64752613
_cell_length_b   10.64752575
_cell_length_c   6.30701067
_cell_angle_alpha   90.10033628
_cell_angle_beta   90.10033627
_cell_angle_gamma   90.40774763
_symmetry_Int_Tables_number   1
_chemical_formula_structural   Tm20Ni3IrRu8
_chemical_formula_sum   'Tm20 Ni3 Ir1 Ru8'
_cell_volume   715.00427817
_cell_formula_units_Z   1
loop_
 _symmetry_equiv_pos_site_id
 _symmetry_equiv_pos_as_xyz
  1  'x, y, z'
loop_
 _atom_site_type_symbol
 _atom_site_label
 _atom_site_symmetry_multiplicity
 _atom_site_fract_x
 _atom_site_fract_y
 _atom_site_fract_z
 _atom_site_occupancy
  Tm  Tm0  1  0.293542  0.085676  0.374287  1
  Tm  Tm1  1  0.292206  0.911617  0.876963  1
  Tm  Tm2  1  0.707665  0.087809  0.875661  1
  Tm  Tm3  1  0.707070  0.914716  0.374487  1
  Tm  Tm4  1  0.585385  0.791726  0.875006  1
  Tm  Tm5  1  0.586255  0.206493  0.374161  1
  Tm  Tm6  1  0.413657  0.792598  0.374316  1
  Tm  Tm7  1  0.412771  0.206895  0.876125  1
  Tm  Tm8  1  0.208274  0.414615  0.624994  1
  Tm  Tm9  1  0.207402  0.586343  0.125684  1
  Tm  Tm10  1  0.793507  0.413745  0.125839  1
  Tm  Tm11  1  0.793105  0.587229  0.623875  1
  Tm  Tm12  1  0.914324  0.706458  0.125713  1
  Tm  Tm13  1  0.912191  0.292335  0.624339  1
  Tm  Tm14  1  0.088383  0.707794  0.623037  1
  Tm  Tm15  1  0.085284  0.292930  0.125513  1
  Tm  Tm16  1  0.000045  0.000493  0.500602  1
  Tm  Tm17  1  0.999507  0.999955  0.999398  1
  Tm  Tm18  1  0.500784  0.498985  0.000974  1
  Tm  Tm19  1  0.501015  0.499216  0.499026  1
  Ni  Ni20  1  0.848348  0.848544  0.749698  1
  Ni  Ni21  1  0.151456  0.151652  0.750302  1
  Ni  Ni22  1  0.652149  0.347851  0.750000  1
  Ir  Ir23  1  0.347684  0.652316  0.750000  1
  Ru  Ru24  1  0.847415  0.152585  0.250000  1
  Ru  Ru25  1  0.150829  0.849171  0.250000  1
  Ru  Ru26  1  0.653778  0.653471  0.250286  1
  Ru  Ru27  1  0.346529  0.346222  0.249714  1
  Ru  Ru28  1  0.500500  0.000621  0.124262  1
  Ru  Ru29  1  0.500437  0.000878  0.626571  1
  Ru  Ru30  1  0.999122  0.499563  0.873429  1
  Ru  Ru31  1  0.999379  0.499500  0.375738  1
