# generated using pymatgen
data_HoLu3(Ga3Pt)2
_symmetry_space_group_name_H-M   'P 1'
_cell_length_a   8.80669701
_cell_length_b   8.80669776
_cell_length_c   6.92308700
_cell_angle_alpha   90.00000000
_cell_angle_beta   90.00000000
_cell_angle_gamma   120.00510028
_symmetry_Int_Tables_number   1
_chemical_formula_structural   HoLu3(Ga3Pt)2
_chemical_formula_sum   'Ho2 Lu6 Ga12 Pt4'
_cell_volume   464.97997001
_cell_formula_units_Z   2
loop_
 _symmetry_equiv_pos_site_id
 _symmetry_equiv_pos_as_xyz
  1  'x, y, z'
loop_
 _atom_site_type_symbol
 _atom_site_label
 _atom_site_symmetry_multiplicity
 _atom_site_fract_x
 _atom_site_fract_y
 _atom_site_fract_z
 _atom_site_occupancy
  Ho  Ho0  1  0.000127  0.999873  0.250000  1
  Ho  Ho1  1  0.999873  0.000127  0.750000  1
  Lu  Lu2  1  0.520595  0.041288  0.250000  1
  Lu  Lu3  1  0.520463  0.479537  0.250000  1
  Lu  Lu4  1  0.958712  0.479405  0.250000  1
  Lu  Lu5  1  0.479405  0.958712  0.750000  1
  Lu  Lu6  1  0.479537  0.520463  0.750000  1
  Lu  Lu7  1  0.041288  0.520595  0.750000  1
  Ga  Ga8  1  0.166995  0.334141  0.047106  1
  Ga  Ga9  1  0.167210  0.832790  0.452896  1
  Ga  Ga10  1  0.665859  0.833005  0.452894  1
  Ga  Ga11  1  0.665859  0.833005  0.047106  1
  Ga  Ga12  1  0.167210  0.832790  0.047104  1
  Ga  Ga13  1  0.833005  0.665859  0.952894  1
  Ga  Ga14  1  0.832790  0.167210  0.952896  1
  Ga  Ga15  1  0.334141  0.166995  0.952894  1
  Ga  Ga16  1  0.166995  0.334141  0.452894  1
  Ga  Ga17  1  0.334141  0.166995  0.547106  1
  Ga  Ga18  1  0.833005  0.665859  0.547106  1
  Ga  Ga19  1  0.832790  0.167210  0.547104  1
  Pt  Pt20  1  0.333389  0.666611  0.027729  1
  Pt  Pt21  1  0.333389  0.666611  0.472271  1
  Pt  Pt22  1  0.666611  0.333389  0.972271  1
  Pt  Pt23  1  0.666611  0.333389  0.527729  1
