# generated using pymatgen
data_Ba2PrEu(Ge4N7)2
_symmetry_space_group_name_H-M   'P 1'
_cell_length_a   6.41041300
_cell_length_b   6.41041231
_cell_length_c   10.53242500
_cell_angle_alpha   90.00000000
_cell_angle_beta   90.00000000
_cell_angle_gamma   119.99999839
_symmetry_Int_Tables_number   1
_chemical_formula_structural   Ba2PrEu(Ge4N7)2
_chemical_formula_sum   'Ba2 Pr1 Eu1 Ge8 N14'
_cell_volume   374.82710465
_cell_formula_units_Z   1
loop_
 _symmetry_equiv_pos_site_id
 _symmetry_equiv_pos_as_xyz
  1  'x, y, z'
loop_
 _atom_site_type_symbol
 _atom_site_label
 _atom_site_symmetry_multiplicity
 _atom_site_fract_x
 _atom_site_fract_y
 _atom_site_fract_z
 _atom_site_occupancy
  Ba  Ba0  1  0.333333  0.666667  0.368029  1
  Ba  Ba1  1  0.666667  0.333333  0.863585  1
  Pr  Pr2  1  0.666667  0.333333  0.235737  1
  Eu  Eu3  1  0.333333  0.666667  0.735861  1
  Ge  Ge4  1  0.826719  0.653437  0.547633  1
  Ge  Ge5  1  0.173783  0.826217  0.044722  1
  Ge  Ge6  1  0.652433  0.826217  0.044722  1
  Ge  Ge7  1  0.346563  0.173281  0.547633  1
  Ge  Ge8  1  0.826719  0.173281  0.547633  1
  Ge  Ge9  1  0.173783  0.347567  0.044722  1
  Ge  Ge10  1  0.000000  0.000000  0.812824  1
  Ge  Ge11  1  0.000000  0.000000  0.314898  1
  N  N12  1  0.000000  0.000000  0.623318  1
  N  N13  1  0.000000  0.000000  0.122670  1
  N  N14  1  0.156460  0.312922  0.870152  1
  N  N15  1  0.844406  0.155594  0.373420  1
  N  N16  1  0.311189  0.155594  0.373420  1
  N  N17  1  0.687078  0.843540  0.870152  1
  N  N18  1  0.156460  0.843540  0.870152  1
  N  N19  1  0.844406  0.688811  0.373420  1
  N  N20  1  0.983853  0.491927  0.602459  1
  N  N21  1  0.491232  0.982463  0.098576  1
  N  N22  1  0.491232  0.508768  0.098576  1
  N  N23  1  0.508073  0.491927  0.602459  1
  N  N24  1  0.017537  0.508768  0.098576  1
  N  N25  1  0.508073  0.016147  0.602459  1
