# generated using pymatgen
data_Tb9ErOsRu3
_symmetry_space_group_name_H-M   'P 1'
_cell_length_a   8.52894918
_cell_length_b   8.53276503
_cell_length_c   7.28840400
_cell_angle_alpha   83.32097874
_cell_angle_beta   83.36828985
_cell_angle_gamma   44.02564514
_symmetry_Int_Tables_number   1
_chemical_formula_structural   Tb9ErOsRu3
_chemical_formula_sum   'Tb9 Er1 Os1 Ru3'
_cell_volume   365.73766355
_cell_formula_units_Z   1
loop_
 _symmetry_equiv_pos_site_id
 _symmetry_equiv_pos_as_xyz
  1  'x, y, z'
loop_
 _atom_site_type_symbol
 _atom_site_label
 _atom_site_symmetry_multiplicity
 _atom_site_fract_x
 _atom_site_fract_y
 _atom_site_fract_z
 _atom_site_occupancy
  Tb  Tb0  1  0.206551  0.977142  0.584514  1
  Tb  Tb1  1  0.021157  0.793495  0.916715  1
  Tb  Tb2  1  0.206757  0.359237  0.313917  1
  Tb  Tb3  1  0.639126  0.794032  0.186112  1
  Tb  Tb4  1  0.795120  0.640352  0.684780  1
  Tb  Tb5  1  0.359184  0.207383  0.813933  1
  Tb  Tb6  1  0.979237  0.206245  0.085468  1
  Tb  Tb7  1  0.792749  0.021930  0.414761  1
  Tb  Tb8  1  0.575854  0.423957  0.749261  1
  Er  Er9  1  0.424024  0.575272  0.250794  1
  Os  Os10  1  0.177468  0.602945  0.574449  1
  Ru  Ru11  1  0.395955  0.824920  0.926583  1
  Ru  Ru12  1  0.824348  0.396319  0.423538  1
  Ru  Ru13  1  0.602470  0.176771  0.075173  1
