# generated using pymatgen
data_Tm5Hf3(V3Si4)4
_symmetry_space_group_name_H-M   'P 1'
_cell_length_a   6.70826488
_cell_length_b   6.71066419
_cell_length_c   12.41212313
_cell_angle_alpha   90.10819744
_cell_angle_beta   89.94492667
_cell_angle_gamma   89.94986978
_symmetry_Int_Tables_number   1
_chemical_formula_structural   Tm5Hf3(V3Si4)4
_chemical_formula_sum   'Tm5 Hf3 V12 Si16'
_cell_volume   558.75399701
_cell_formula_units_Z   1
loop_
 _symmetry_equiv_pos_site_id
 _symmetry_equiv_pos_as_xyz
  1  'x, y, z'
loop_
 _atom_site_type_symbol
 _atom_site_label
 _atom_site_symmetry_multiplicity
 _atom_site_fract_x
 _atom_site_fract_y
 _atom_site_fract_z
 _atom_site_occupancy
  Tm  Tm0  1  0.499906  0.836062  0.721184  1
  Tm  Tm1  1  0.500811  0.163463  0.219427  1
  Tm  Tm2  1  0.000000  0.337688  0.529401  1
  Tm  Tm3  1  0.663466  0.999217  0.970331  1
  Tm  Tm4  1  0.337731  0.999718  0.469366  1
  Hf  Hf5  1  0.005430  0.658311  0.029845  1
  Hf  Hf6  1  0.840746  0.506109  0.279888  1
  Hf  Hf7  1  0.158542  0.494214  0.780902  1
  V  V8  1  0.328392  0.335924  0.999953  1
  V  V9  1  0.164447  0.828891  0.249046  1
  V  V10  1  0.835573  0.170288  0.751205  1
  V  V11  1  0.669399  0.667233  0.499900  1
  V  V12  1  0.003076  0.160317  0.125717  1
  V  V13  1  0.340842  0.506076  0.374694  1
  V  V14  1  0.660275  0.496321  0.877154  1
  V  V15  1  0.507651  0.344623  0.625021  1
  V  V16  1  0.491334  0.657032  0.123594  1
  V  V17  1  0.994900  0.840128  0.627566  1
  V  V18  1  0.156960  0.006726  0.874753  1
  V  V19  1  0.841315  0.990854  0.372353  1
  Si  Si20  1  0.285711  0.958395  0.064038  1
  Si  Si21  1  0.541122  0.786994  0.313608  1
  Si  Si22  1  0.459495  0.213775  0.814885  1
  Si  Si23  1  0.793200  0.539556  0.686464  1
  Si  Si24  1  0.206111  0.460939  0.185031  1
  Si  Si25  1  0.711693  0.039627  0.564239  1
  Si  Si26  1  0.960472  0.293102  0.935490  1
  Si  Si27  1  0.038974  0.709682  0.434891  1
  Si  Si28  1  0.706773  0.378599  0.069570  1
  Si  Si29  1  0.121760  0.204912  0.316441  1
  Si  Si30  1  0.877984  0.792763  0.820185  1
  Si  Si31  1  0.202981  0.128368  0.683741  1
  Si  Si32  1  0.799318  0.868211  0.180124  1
  Si  Si33  1  0.296629  0.625007  0.569270  1
  Si  Si34  1  0.368678  0.700219  0.930585  1
  Si  Si35  1  0.628303  0.300655  0.430136  1
