# generated using pymatgen
data_Hf2Zn3Cu4
_symmetry_space_group_name_H-M   'P 1'
_cell_length_a   4.89560477
_cell_length_b   4.89560518
_cell_length_c   6.57457960
_cell_angle_alpha   82.32288761
_cell_angle_beta   82.32288233
_cell_angle_gamma   120.07011564
_symmetry_Int_Tables_number   1
_chemical_formula_structural   Hf2Zn3Cu4
_chemical_formula_sum   'Hf2 Zn3 Cu4'
_cell_volume   131.39727308
_cell_formula_units_Z   1
loop_
 _symmetry_equiv_pos_site_id
 _symmetry_equiv_pos_as_xyz
  1  'x, y, z'
loop_
 _atom_site_type_symbol
 _atom_site_label
 _atom_site_symmetry_multiplicity
 _atom_site_fract_x
 _atom_site_fract_y
 _atom_site_fract_z
 _atom_site_occupancy
  Hf  Hf0  1  0.100729  0.100729  0.225297  1
  Hf  Hf1  1  0.899271  0.899271  0.774703  1
  Zn  Zn2  1  0.000000  0.500000  0.500000  1
  Zn  Zn3  1  0.500000  0.000000  0.500000  1
  Zn  Zn4  1  0.500000  0.500000  0.500000  1
  Cu  Cu5  1  0.467874  0.790658  0.146510  1
  Cu  Cu6  1  0.532126  0.209342  0.853490  1
  Cu  Cu7  1  0.209342  0.532126  0.853490  1
  Cu  Cu8  1  0.790658  0.467874  0.146510  1
