# generated using pymatgen
data_PrEr3(WO6)2
_symmetry_space_group_name_H-M   'P 1'
_cell_length_a   5.43135600
_cell_length_b   7.75387162
_cell_length_c   11.51620327
_cell_angle_alpha   75.43777869
_cell_angle_beta   90.00000000
_cell_angle_gamma   90.00000000
_symmetry_Int_Tables_number   1
_chemical_formula_structural   PrEr3(WO6)2
_chemical_formula_sum   'Pr2 Er6 W4 O24'
_cell_volume   469.41346636
_cell_formula_units_Z   2
loop_
 _symmetry_equiv_pos_site_id
 _symmetry_equiv_pos_as_xyz
  1  'x, y, z'
loop_
 _atom_site_type_symbol
 _atom_site_label
 _atom_site_symmetry_multiplicity
 _atom_site_fract_x
 _atom_site_fract_y
 _atom_site_fract_z
 _atom_site_occupancy
  Pr  Pr0  1  0.686074  0.500000  0.250000  1
  Pr  Pr1  1  0.313926  0.500000  0.750000  1
  Er  Er2  1  0.185384  0.202382  0.423027  1
  Er  Er3  1  0.185384  0.797618  0.076973  1
  Er  Er4  1  0.814616  0.797618  0.576973  1
  Er  Er5  1  0.814616  0.202382  0.923027  1
  Er  Er6  1  0.743040  0.000000  0.250000  1
  Er  Er7  1  0.256960  0.000000  0.750000  1
  W  W8  1  0.254396  0.271338  0.115869  1
  W  W9  1  0.254396  0.728662  0.384131  1
  W  W10  1  0.745604  0.728662  0.884131  1
  W  W11  1  0.745604  0.271338  0.615869  1
  O  O12  1  0.455907  0.202739  0.273985  1
  O  O13  1  0.455907  0.797261  0.226015  1
  O  O14  1  0.544093  0.797261  0.726015  1
  O  O15  1  0.544093  0.202739  0.773985  1
  O  O16  1  0.042462  0.057696  0.104037  1
  O  O17  1  0.042462  0.942304  0.395963  1
  O  O18  1  0.957538  0.942304  0.895963  1
  O  O19  1  0.957538  0.057696  0.604037  1
  O  O20  1  0.986767  0.278494  0.231327  1
  O  O21  1  0.986767  0.721506  0.268673  1
  O  O22  1  0.013233  0.721506  0.768673  1
  O  O23  1  0.013233  0.278494  0.731327  1
  O  O24  1  0.855934  0.357943  0.454407  1
  O  O25  1  0.855934  0.642057  0.045593  1
  O  O26  1  0.144066  0.642057  0.545593  1
  O  O27  1  0.144066  0.357943  0.954407  1
  O  O28  1  0.653201  0.507070  0.612294  1
  O  O29  1  0.653201  0.492930  0.887706  1
  O  O30  1  0.346799  0.492930  0.387706  1
  O  O31  1  0.346799  0.507070  0.112294  1
  O  O32  1  0.463069  0.155019  0.569652  1
  O  O33  1  0.463069  0.844981  0.930348  1
  O  O34  1  0.536931  0.844981  0.430348  1
  O  O35  1  0.536931  0.155019  0.069652  1
