# generated using pymatgen
data_HoU(B4Ru)2
_symmetry_space_group_name_H-M   'P 1'
_cell_length_a   3.54675600
_cell_length_b   5.96341205
_cell_length_c   11.53994614
_cell_angle_alpha   89.92428194
_cell_angle_beta   90.00000000
_cell_angle_gamma   90.00000000
_symmetry_Int_Tables_number   1
_chemical_formula_structural   HoU(B4Ru)2
_chemical_formula_sum   'Ho2 U2 B16 Ru4'
_cell_volume   244.07850412
_cell_formula_units_Z   2
loop_
 _symmetry_equiv_pos_site_id
 _symmetry_equiv_pos_as_xyz
  1  'x, y, z'
loop_
 _atom_site_type_symbol
 _atom_site_label
 _atom_site_symmetry_multiplicity
 _atom_site_fract_x
 _atom_site_fract_y
 _atom_site_fract_z
 _atom_site_occupancy
  Ho  Ho0  1  0.500000  0.628879  0.148494  1
  Ho  Ho1  1  0.500000  0.371121  0.851506  1
  U  U2  1  0.500000  0.128293  0.349375  1
  U  U3  1  0.500000  0.871707  0.650625  1
  B  B4  1  0.000000  0.974032  0.192264  1
  B  B5  1  0.000000  0.025968  0.807736  1
  B  B6  1  0.000000  0.474229  0.307885  1
  B  B7  1  0.000000  0.525771  0.692115  1
  B  B8  1  0.000000  0.791091  0.313265  1
  B  B9  1  0.000000  0.208909  0.686735  1
  B  B10  1  0.000000  0.288463  0.187481  1
  B  B11  1  0.000000  0.711537  0.812519  1
  B  B12  1  0.000000  0.867893  0.467455  1
  B  B13  1  0.000000  0.132107  0.532545  1
  B  B14  1  0.000000  0.363510  0.030828  1
  B  B15  1  0.000000  0.636490  0.969172  1
  B  B16  1  0.000000  0.886811  0.046186  1
  B  B17  1  0.000000  0.113189  0.953814  1
  B  B18  1  0.000000  0.385678  0.452907  1
  B  B19  1  0.000000  0.614322  0.547093  1
  Ru  Ru20  1  0.500000  0.640988  0.406962  1
  Ru  Ru21  1  0.500000  0.359012  0.593038  1
  Ru  Ru22  1  0.500000  0.138549  0.094972  1
  Ru  Ru23  1  0.500000  0.861451  0.905028  1
