# generated using pymatgen
data_PrPa2Al7Cu2
_symmetry_space_group_name_H-M   'P 1'
_cell_length_a   9.13048846
_cell_length_b   9.13048854
_cell_length_c   9.13048865
_cell_angle_alpha   34.98966902
_cell_angle_beta   34.98966731
_cell_angle_gamma   34.98967162
_symmetry_Int_Tables_number   1
_chemical_formula_structural   PrPa2Al7Cu2
_chemical_formula_sum   'Pr1 Pa2 Al7 Cu2'
_cell_volume   223.47384798
_cell_formula_units_Z   1
loop_
 _symmetry_equiv_pos_site_id
 _symmetry_equiv_pos_as_xyz
  1  'x, y, z'
loop_
 _atom_site_type_symbol
 _atom_site_label
 _atom_site_symmetry_multiplicity
 _atom_site_fract_x
 _atom_site_fract_y
 _atom_site_fract_z
 _atom_site_occupancy
  Pr  Pr0  1  0.000000  0.000000  0.000000  1
  Pa  Pa1  1  0.854008  0.854008  0.854008  1
  Pa  Pa2  1  0.145992  0.145992  0.145992  1
  Al  Al3  1  0.417555  0.417555  0.926860  1
  Al  Al4  1  0.926860  0.417555  0.417555  1
  Al  Al5  1  0.417555  0.926860  0.417555  1
  Al  Al6  1  0.500000  0.500000  0.500000  1
  Al  Al7  1  0.582445  0.073140  0.582445  1
  Al  Al8  1  0.073140  0.582445  0.582445  1
  Al  Al9  1  0.582445  0.582445  0.073140  1
  Cu  Cu10  1  0.664431  0.664431  0.664431  1
  Cu  Cu11  1  0.335569  0.335569  0.335569  1
