# generated using pymatgen
data_Er4CoOs5Ru2
_symmetry_space_group_name_H-M   'P 1'
_cell_length_a   5.25469693
_cell_length_b   5.25469807
_cell_length_c   8.87972900
_cell_angle_alpha   90.00000000
_cell_angle_beta   90.00000000
_cell_angle_gamma   120.95256297
_symmetry_Int_Tables_number   1
_chemical_formula_structural   Er4CoOs5Ru2
_chemical_formula_sum   'Er4 Co1 Os5 Ru2'
_cell_volume   210.26965076
_cell_formula_units_Z   1
loop_
 _symmetry_equiv_pos_site_id
 _symmetry_equiv_pos_as_xyz
  1  'x, y, z'
loop_
 _atom_site_type_symbol
 _atom_site_label
 _atom_site_symmetry_multiplicity
 _atom_site_fract_x
 _atom_site_fract_y
 _atom_site_fract_z
 _atom_site_occupancy
  Er  Er0  1  0.334151  0.665849  0.431838  1
  Er  Er1  1  0.667079  0.332921  0.564096  1
  Er  Er2  1  0.667079  0.332921  0.935904  1
  Er  Er3  1  0.334151  0.665849  0.068162  1
  Co  Co4  1  0.828347  0.171653  0.250000  1
  Os  Os5  1  0.169966  0.341474  0.750000  1
  Os  Os6  1  0.169188  0.830812  0.750000  1
  Os  Os7  1  0.340941  0.174851  0.250000  1
  Os  Os8  1  0.825149  0.659059  0.250000  1
  Os  Os9  1  0.658526  0.830034  0.750000  1
  Ru  Ru10  1  0.002710  0.997290  0.002470  1
  Ru  Ru11  1  0.002710  0.997290  0.497530  1
