# generated using pymatgen
data_Th2Ni14(AsH)3
_symmetry_space_group_name_H-M   'P 1'
_cell_length_a   6.39244483
_cell_length_b   6.39244365
_cell_length_c   6.39244438
_cell_angle_alpha   84.36372761
_cell_angle_beta   84.36371749
_cell_angle_gamma   84.36371665
_symmetry_Int_Tables_number   1
_chemical_formula_structural   Th2Ni14(AsH)3
_chemical_formula_sum   'Th2 Ni14 As3 H3'
_cell_volume   257.66043783
_cell_formula_units_Z   1
loop_
 _symmetry_equiv_pos_site_id
 _symmetry_equiv_pos_as_xyz
  1  'x, y, z'
loop_
 _atom_site_type_symbol
 _atom_site_label
 _atom_site_symmetry_multiplicity
 _atom_site_fract_x
 _atom_site_fract_y
 _atom_site_fract_z
 _atom_site_occupancy
  Th  Th0  1  0.652442  0.652442  0.652442  1
  Th  Th1  1  0.347558  0.347558  0.347558  1
  Ni  Ni2  1  0.708644  0.291356  0.000000  1
  Ni  Ni3  1  0.000000  0.708644  0.291356  1
  Ni  Ni4  1  0.291356  0.000000  0.708644  1
  Ni  Ni5  1  0.000000  0.291356  0.708644  1
  Ni  Ni6  1  0.708644  0.000000  0.291356  1
  Ni  Ni7  1  0.291356  0.708644  0.000000  1
  Ni  Ni8  1  0.345926  0.345926  0.852717  1
  Ni  Ni9  1  0.852717  0.345926  0.345926  1
  Ni  Ni10  1  0.345926  0.852717  0.345926  1
  Ni  Ni11  1  0.654074  0.654074  0.147283  1
  Ni  Ni12  1  0.147283  0.654074  0.654074  1
  Ni  Ni13  1  0.654074  0.147283  0.654074  1
  Ni  Ni14  1  0.900426  0.900426  0.900426  1
  Ni  Ni15  1  0.099574  0.099574  0.099574  1
  As  As16  1  0.000000  0.000000  0.500000  1
  As  As17  1  0.500000  0.000000  0.000000  1
  As  As18  1  0.000000  0.500000  0.000000  1
  H  H19  1  0.500000  0.500000  0.000000  1
  H  H20  1  0.000000  0.500000  0.500000  1
  H  H21  1  0.500000  0.000000  0.500000  1
