# generated using pymatgen
data_Tb6GaCuTc
_symmetry_space_group_name_H-M   'P 1'
_cell_length_a   8.45107394
_cell_length_b   8.45107484
_cell_length_c   8.45107441
_cell_angle_alpha   104.18822362
_cell_angle_beta   110.95844348
_cell_angle_gamma   113.40331970
_symmetry_Int_Tables_number   1
_chemical_formula_structural   Tb6GaCuTc
_chemical_formula_sum   'Tb12 Ga2 Cu2 Tc2'
_cell_volume   461.47850932
_cell_formula_units_Z   2
loop_
 _symmetry_equiv_pos_site_id
 _symmetry_equiv_pos_as_xyz
  1  'x, y, z'
loop_
 _atom_site_type_symbol
 _atom_site_label
 _atom_site_symmetry_multiplicity
 _atom_site_fract_x
 _atom_site_fract_y
 _atom_site_fract_z
 _atom_site_occupancy
  Tb  Tb0  1  0.690337  0.259055  0.949391  1
  Tb  Tb1  1  0.309663  0.740945  0.050609  1
  Tb  Tb2  1  0.690337  0.740945  0.431283  1
  Tb  Tb3  1  0.309663  0.259055  0.568717  1
  Tb  Tb4  1  0.811528  0.147687  0.336159  1
  Tb  Tb5  1  0.811528  0.475369  0.663841  1
  Tb  Tb6  1  0.188472  0.852313  0.663841  1
  Tb  Tb7  1  0.188472  0.524631  0.336159  1
  Tb  Tb8  1  0.593933  0.775989  0.817942  1
  Tb  Tb9  1  0.958046  0.775989  0.182058  1
  Tb  Tb10  1  0.041954  0.224011  0.817942  1
  Tb  Tb11  1  0.406067  0.224011  0.182058  1
  Ga  Ga12  1  0.500000  0.500000  0.000000  1
  Ga  Ga13  1  0.500000  0.000000  0.500000  1
  Cu  Cu14  1  0.000000  0.119085  0.119085  1
  Cu  Cu15  1  0.000000  0.880915  0.880915  1
  Tc  Tc16  1  0.822313  0.500000  0.322313  1
  Tc  Tc17  1  0.177687  0.500000  0.677687  1
