# generated using pymatgen
data_La2TbThPd4
_symmetry_space_group_name_H-M   'P 1'
_cell_length_a   4.74884700
_cell_length_b   5.69412704
_cell_length_c   7.31255929
_cell_angle_alpha   90.23913148
_cell_angle_beta   90.00000000
_cell_angle_gamma   90.00000000
_symmetry_Int_Tables_number   1
_chemical_formula_structural   La2TbThPd4
_chemical_formula_sum   'La2 Tb1 Th1 Pd4'
_cell_volume   197.73381568
_cell_formula_units_Z   1
loop_
 _symmetry_equiv_pos_site_id
 _symmetry_equiv_pos_as_xyz
  1  'x, y, z'
loop_
 _atom_site_type_symbol
 _atom_site_label
 _atom_site_symmetry_multiplicity
 _atom_site_fract_x
 _atom_site_fract_y
 _atom_site_fract_z
 _atom_site_occupancy
  La  La0  1  0.250000  0.141159  0.180742  1
  La  La1  1  0.750000  0.641386  0.316576  1
  Tb  Tb2  1  0.750000  0.856180  0.816119  1
  Th  Th3  1  0.250000  0.356761  0.685684  1
  Pd  Pd4  1  0.250000  0.847636  0.560858  1
  Pd  Pd5  1  0.250000  0.654172  0.022438  1
  Pd  Pd6  1  0.750000  0.153009  0.476720  1
  Pd  Pd7  1  0.750000  0.349698  0.940864  1
