# generated using pymatgen
data_Pr4YIn3Br
_symmetry_space_group_name_H-M   'P 1'
_cell_length_a   9.61212100
_cell_length_b   9.61218026
_cell_length_c   6.81797900
_cell_angle_alpha   89.99884026
_cell_angle_beta   90.00057643
_cell_angle_gamma   120.00020014
_symmetry_Int_Tables_number   1
_chemical_formula_structural   Pr4YIn3Br
_chemical_formula_sum   'Pr8 Y2 In6 Br2'
_cell_volume   545.53993889
_cell_formula_units_Z   2
loop_
 _symmetry_equiv_pos_site_id
 _symmetry_equiv_pos_as_xyz
  1  'x, y, z'
loop_
 _atom_site_type_symbol
 _atom_site_label
 _atom_site_symmetry_multiplicity
 _atom_site_fract_x
 _atom_site_fract_y
 _atom_site_fract_z
 _atom_site_occupancy
  Pr  Pr0  1  0.732905  0.732909  0.253177  1
  Pr  Pr1  1  0.000000  0.732905  0.746827  1
  Pr  Pr2  1  0.732905  0.999996  0.746823  1
  Pr  Pr3  1  0.267095  0.267091  0.746823  1
  Pr  Pr4  1  0.000000  0.267095  0.253173  1
  Pr  Pr5  1  0.267095  0.000004  0.253177  1
  Pr  Pr6  1  0.333330  0.666665  0.000000  1
  Pr  Pr7  1  0.666670  0.333335  0.000000  1
  Y  Y8  1  0.333331  0.666666  0.500000  1
  Y  Y9  1  0.666669  0.333334  0.500000  1
  In  In10  1  0.393360  0.000006  0.743624  1
  In  In11  1  0.000000  0.606633  0.256371  1
  In  In12  1  0.606640  0.999994  0.256376  1
  In  In13  1  0.000000  0.393367  0.743629  1
  In  In14  1  0.393360  0.393355  0.256376  1
  In  In15  1  0.606640  0.606645  0.743624  1
  Br  Br16  1  0.000000  0.000000  0.500000  1
  Br  Br17  1  0.000000  0.000000  0.000000  1
