# generated using pymatgen
data_Er8TcOsI8
_symmetry_space_group_name_H-M   'P 1'
_cell_length_a   10.92418081
_cell_length_b   10.92418250
_cell_length_c   6.15843452
_cell_angle_alpha   89.37715336
_cell_angle_beta   89.37716020
_cell_angle_gamma   88.77763907
_symmetry_Int_Tables_number   1
_chemical_formula_structural   Er8TcOsI8
_chemical_formula_sum   'Er8 Tc1 Os1 I8'
_cell_volume   734.68142489
_cell_formula_units_Z   1
loop_
 _symmetry_equiv_pos_site_id
 _symmetry_equiv_pos_as_xyz
  1  'x, y, z'
loop_
 _atom_site_type_symbol
 _atom_site_label
 _atom_site_symmetry_multiplicity
 _atom_site_fract_x
 _atom_site_fract_y
 _atom_site_fract_z
 _atom_site_occupancy
  Er  Er0  1  0.203341  0.915754  0.997766  1
  Er  Er1  1  0.796638  0.084244  0.003316  1
  Er  Er2  1  0.084246  0.796659  0.502234  1
  Er  Er3  1  0.915756  0.203362  0.496684  1
  Er  Er4  1  0.798191  0.920037  0.505941  1
  Er  Er5  1  0.201837  0.079982  0.492973  1
  Er  Er6  1  0.079963  0.201809  0.994059  1
  Er  Er7  1  0.920018  0.798163  0.007027  1
  Tc  Tc8  1  0.000006  0.999994  0.250000  1
  Os  Os9  1  0.999997  0.000003  0.750000  1
  I  I10  1  0.367046  0.839937  0.502563  1
  I  I11  1  0.632947  0.160052  0.497774  1
  I  I12  1  0.160063  0.632954  0.997437  1
  I  I13  1  0.839948  0.367053  0.002226  1
  I  I14  1  0.363443  0.152757  0.004853  1
  I  I15  1  0.636567  0.847250  0.994789  1
  I  I16  1  0.847243  0.636557  0.495147  1
  I  I17  1  0.152750  0.363433  0.505211  1
