# generated using pymatgen
data_SrLu5CuRh17
_symmetry_space_group_name_H-M   'P 1'
_cell_length_a   5.23294200
_cell_length_b   5.23314086
_cell_length_c   17.34043400
_cell_angle_alpha   90.00000000
_cell_angle_beta   90.00000000
_cell_angle_gamma   120.00067724
_symmetry_Int_Tables_number   1
_chemical_formula_structural   SrLu5CuRh17
_chemical_formula_sum   'Sr1 Lu5 Cu1 Rh17'
_cell_volume   411.24059321
_cell_formula_units_Z   1
loop_
 _symmetry_equiv_pos_site_id
 _symmetry_equiv_pos_as_xyz
  1  'x, y, z'
loop_
 _atom_site_type_symbol
 _atom_site_label
 _atom_site_symmetry_multiplicity
 _atom_site_fract_x
 _atom_site_fract_y
 _atom_site_fract_z
 _atom_site_occupancy
  Sr  Sr0  1  0.666652  0.333326  0.250000  1
  Lu  Lu1  1  0.333332  0.666673  0.957803  1
  Lu  Lu2  1  0.666660  0.333324  0.041018  1
  Lu  Lu3  1  0.666660  0.333324  0.458982  1
  Lu  Lu4  1  0.333332  0.666673  0.542197  1
  Lu  Lu5  1  0.333378  0.666615  0.750000  1
  Cu  Cu6  1  0.333352  0.666693  0.250000  1
  Rh  Rh7  1  0.169043  0.830936  0.375961  1
  Rh  Rh8  1  0.169039  0.338085  0.375961  1
  Rh  Rh9  1  0.661884  0.830927  0.375964  1
  Rh  Rh10  1  0.832315  0.167708  0.623690  1
  Rh  Rh11  1  0.832317  0.664657  0.623703  1
  Rh  Rh12  1  0.335373  0.167717  0.623691  1
  Rh  Rh13  1  0.832315  0.167708  0.876310  1
  Rh  Rh14  1  0.832317  0.664657  0.876297  1
  Rh  Rh15  1  0.335373  0.167717  0.876309  1
  Rh  Rh16  1  0.169043  0.830936  0.124039  1
  Rh  Rh17  1  0.169039  0.338085  0.124039  1
  Rh  Rh18  1  0.661884  0.830927  0.124036  1
  Rh  Rh19  1  0.666700  0.333300  0.750000  1
  Rh  Rh20  1  0.999991  0.999987  0.250000  1
  Rh  Rh21  1  0.000004  0.000043  0.750000  1
  Rh  Rh22  1  0.999997  0.999989  0.498270  1
  Rh  Rh23  1  0.999997  0.999989  0.001730  1
