# generated using pymatgen
data_SrEu3(ZnP2)2
_symmetry_space_group_name_H-M   'P 1'
_cell_length_a   8.23790431
_cell_length_b   8.23790463
_cell_length_c   7.28514993
_cell_angle_alpha   90.55958746
_cell_angle_beta   89.44041345
_cell_angle_gamma   150.46180280
_symmetry_Int_Tables_number   1
_chemical_formula_structural   SrEu3(ZnP2)2
_chemical_formula_sum   'Sr1 Eu3 Zn2 P4'
_cell_volume   243.72496237
_cell_formula_units_Z   1
loop_
 _symmetry_equiv_pos_site_id
 _symmetry_equiv_pos_as_xyz
  1  'x, y, z'
loop_
 _atom_site_type_symbol
 _atom_site_label
 _atom_site_symmetry_multiplicity
 _atom_site_fract_x
 _atom_site_fract_y
 _atom_site_fract_z
 _atom_site_occupancy
  Sr  Sr0  1  0.706929  0.293071  0.467211  1
  Eu  Eu1  1  0.294806  0.705194  0.965282  1
  Eu  Eu2  1  0.533455  0.466545  0.800510  1
  Eu  Eu3  1  0.465651  0.534349  0.299396  1
  Zn  Zn4  1  0.906251  0.093749  0.651385  1
  Zn  Zn5  1  0.094639  0.905361  0.148026  1
  P  P6  1  0.937967  0.062033  0.002802  1
  P  P7  1  0.058248  0.941752  0.501666  1
  P  P8  1  0.667327  0.332673  0.063224  1
  P  P9  1  0.334727  0.665273  0.573877  1
