# generated using pymatgen
data_Ce3Nd5(ZnRh)8
_symmetry_space_group_name_H-M   'P 1'
_cell_length_a   7.27515721
_cell_length_b   4.01035200
_cell_length_c   16.52078309
_cell_angle_alpha   90.00000000
_cell_angle_beta   90.49898574
_cell_angle_gamma   90.00000000
_symmetry_Int_Tables_number   1
_chemical_formula_structural   Ce3Nd5(ZnRh)8
_chemical_formula_sum   'Ce3 Nd5 Zn8 Rh8'
_cell_volume   481.99111815
_cell_formula_units_Z   1
loop_
 _symmetry_equiv_pos_site_id
 _symmetry_equiv_pos_as_xyz
  1  'x, y, z'
loop_
 _atom_site_type_symbol
 _atom_site_label
 _atom_site_symmetry_multiplicity
 _atom_site_fract_x
 _atom_site_fract_y
 _atom_site_fract_z
 _atom_site_occupancy
  Ce  Ce0  1  0.054476  0.249999  0.284318  1
  Ce  Ce1  1  0.447116  0.750000  0.785128  1
  Ce  Ce2  1  0.554025  0.249999  0.215839  1
  Nd  Nd3  1  0.950355  0.750000  0.716053  1
  Nd  Nd4  1  0.170401  0.249999  0.060107  1
  Nd  Nd5  1  0.331451  0.750000  0.559605  1
  Nd  Nd6  1  0.672336  0.249999  0.439279  1
  Nd  Nd7  1  0.825576  0.750000  0.940411  1
  Zn  Zn8  1  0.116036  0.249999  0.848201  1
  Zn  Zn9  1  0.382398  0.750000  0.349473  1
  Zn  Zn10  1  0.622234  0.249999  0.650006  1
  Zn  Zn11  1  0.883962  0.750000  0.150727  1
  Zn  Zn12  1  0.001015  0.249999  0.561262  1
  Zn  Zn13  1  0.498014  0.750000  0.060529  1
  Zn  Zn14  1  0.496156  0.249999  0.941150  1
  Zn  Zn15  1  0.998752  0.750000  0.439254  1
  Rh  Rh16  1  0.234789  0.249999  0.428835  1
  Rh  Rh17  1  0.256704  0.750000  0.930180  1
  Rh  Rh18  1  0.736432  0.249999  0.071370  1
  Rh  Rh19  1  0.756356  0.750000  0.564599  1
  Rh  Rh20  1  0.257997  0.249999  0.692505  1
  Rh  Rh21  1  0.265388  0.750000  0.193018  1
  Rh  Rh22  1  0.724577  0.249999  0.812760  1
  Rh  Rh23  1  0.763455  0.750000  0.305386  1
