# generated using pymatgen
data_Ba3SrCeSe6
_symmetry_space_group_name_H-M   'P 1'
_cell_length_a   9.01528270
_cell_length_b   9.01528236
_cell_length_c   9.01528330
_cell_angle_alpha   90.77247694
_cell_angle_beta   90.77247809
_cell_angle_gamma   90.77248185
_symmetry_Int_Tables_number   1
_chemical_formula_structural   Ba3SrCeSe6
_chemical_formula_sum   'Ba6 Sr2 Ce2 Se12'
_cell_volume   732.51843376
_cell_formula_units_Z   2
loop_
 _symmetry_equiv_pos_site_id
 _symmetry_equiv_pos_as_xyz
  1  'x, y, z'
loop_
 _atom_site_type_symbol
 _atom_site_label
 _atom_site_symmetry_multiplicity
 _atom_site_fract_x
 _atom_site_fract_y
 _atom_site_fract_z
 _atom_site_occupancy
  Ba  Ba0  1  0.874791  0.625209  0.250000  1
  Ba  Ba1  1  0.250000  0.874791  0.625209  1
  Ba  Ba2  1  0.625209  0.250000  0.874791  1
  Ba  Ba3  1  0.750000  0.125209  0.374791  1
  Ba  Ba4  1  0.374791  0.750000  0.125209  1
  Ba  Ba5  1  0.125209  0.374791  0.750000  1
  Sr  Sr6  1  0.250000  0.250000  0.250000  1
  Sr  Sr7  1  0.750000  0.750000  0.750000  1
  Ce  Ce8  1  0.500000  0.500000  0.500000  1
  Ce  Ce9  1  0.000000  0.000000  0.000000  1
  Se  Se10  1  0.198888  0.554104  0.416916  1
  Se  Se11  1  0.416916  0.198888  0.554104  1
  Se  Se12  1  0.554104  0.416916  0.198888  1
  Se  Se13  1  0.916916  0.054104  0.698888  1
  Se  Se14  1  0.698888  0.916916  0.054104  1
  Se  Se15  1  0.054104  0.698888  0.916916  1
  Se  Se16  1  0.801112  0.445896  0.583084  1
  Se  Se17  1  0.583084  0.801112  0.445896  1
  Se  Se18  1  0.445896  0.583084  0.801112  1
  Se  Se19  1  0.083084  0.945896  0.301112  1
  Se  Se20  1  0.301112  0.083084  0.945896  1
  Se  Se21  1  0.945896  0.301112  0.083084  1
