# generated using pymatgen
data_BaSrTm2(Si4N7)2
_symmetry_space_group_name_H-M   'P 1'
_cell_length_a   6.04987500
_cell_length_b   6.04987524
_cell_length_c   9.85165100
_cell_angle_alpha   90.00000000
_cell_angle_beta   90.00000000
_cell_angle_gamma   119.99999325
_symmetry_Int_Tables_number   1
_chemical_formula_structural   BaSrTm2(Si4N7)2
_chemical_formula_sum   'Ba1 Sr1 Tm2 Si8 N14'
_cell_volume   312.27160795
_cell_formula_units_Z   1
loop_
 _symmetry_equiv_pos_site_id
 _symmetry_equiv_pos_as_xyz
  1  'x, y, z'
loop_
 _atom_site_type_symbol
 _atom_site_label
 _atom_site_symmetry_multiplicity
 _atom_site_fract_x
 _atom_site_fract_y
 _atom_site_fract_z
 _atom_site_occupancy
  Ba  Ba0  1  0.333333  0.666667  0.076929  1
  Sr  Sr1  1  0.666667  0.333333  0.578192  1
  Tm  Tm2  1  0.666667  0.333333  0.949239  1
  Tm  Tm3  1  0.333333  0.666667  0.451214  1
  Si  Si4  1  0.173976  0.347951  0.759074  1
  Si  Si5  1  0.825639  0.174361  0.261224  1
  Si  Si6  1  0.348720  0.174361  0.261224  1
  Si  Si7  1  0.652049  0.826024  0.759074  1
  Si  Si8  1  0.173976  0.826024  0.759074  1
  Si  Si9  1  0.825639  0.651280  0.261224  1
  Si  Si10  1  0.000000  0.000000  0.028290  1
  Si  Si11  1  0.000000  0.000000  0.526824  1
  N  N12  1  0.000000  0.000000  0.836084  1
  N  N13  1  0.000000  0.000000  0.336221  1
  N  N14  1  0.845835  0.691668  0.087134  1
  N  N15  1  0.153760  0.846240  0.585648  1
  N  N16  1  0.692479  0.846240  0.585648  1
  N  N17  1  0.308332  0.154165  0.087134  1
  N  N18  1  0.845835  0.154165  0.087134  1
  N  N19  1  0.153760  0.307521  0.585648  1
  N  N20  1  0.489765  0.510235  0.811664  1
  N  N21  1  0.976667  0.488333  0.316140  1
  N  N22  1  0.511667  0.023333  0.316140  1
  N  N23  1  0.489765  0.979531  0.811664  1
  N  N24  1  0.511667  0.488333  0.316140  1
  N  N25  1  0.020469  0.510235  0.811664  1
