# generated using pymatgen
data_In9Sn4SbIr6
_symmetry_space_group_name_H-M   'P 1'
_cell_length_a   8.23515442
_cell_length_b   8.24149758
_cell_length_c   8.27565108
_cell_angle_alpha   110.77538240
_cell_angle_beta   109.00112924
_cell_angle_gamma   108.75317822
_symmetry_Int_Tables_number   1
_chemical_formula_structural   In9Sn4SbIr6
_chemical_formula_sum   'In9 Sn4 Sb1 Ir6'
_cell_volume   431.63182939
_cell_formula_units_Z   1
loop_
 _symmetry_equiv_pos_site_id
 _symmetry_equiv_pos_as_xyz
  1  'x, y, z'
loop_
 _atom_site_type_symbol
 _atom_site_label
 _atom_site_symmetry_multiplicity
 _atom_site_fract_x
 _atom_site_fract_y
 _atom_site_fract_z
 _atom_site_occupancy
  In  In0  1  0.325302  0.999086  0.005465  1
  In  In1  1  0.675065  0.670060  0.676414  1
  In  In2  1  0.003141  0.330336  0.008962  1
  In  In3  1  0.322009  0.323076  0.319432  1
  In  In4  1  0.000765  0.676191  0.993648  1
  In  In5  1  0.250287  0.744098  0.496878  1
  In  In6  1  0.747369  0.253648  0.501770  1
  In  In7  1  0.747229  0.496036  0.246311  1
  In  In8  1  0.250236  0.503691  0.749250  1
  Sn  Sn9  1  0.494168  0.747400  0.248644  1
  Sn  Sn10  1  0.506442  0.255608  0.752380  1
  Sn  Sn11  1  0.002873  0.000398  0.322072  1
  Sn  Sn12  1  0.675775  0.000807  0.997381  1
  Sb  Sb13  1  0.000983  0.999403  0.679933  1
  Ir  Ir14  1  0.662403  0.000284  0.655889  1
  Ir  Ir15  1  0.657335  0.663311  0.009704  1
  Ir  Ir16  1  0.340081  0.339875  0.988035  1
  Ir  Ir17  1  0.000783  0.661063  0.648365  1
  Ir  Ir18  1  0.993471  0.335778  0.346108  1
  Ir  Ir19  1  0.344282  0.999854  0.353358  1
