# generated using pymatgen
data_Ce3PrDy12(CdRu)4
_symmetry_space_group_name_H-M   'P 1'
_cell_length_a   9.66561685
_cell_length_b   9.66561797
_cell_length_c   9.60304504
_cell_angle_alpha   59.80616566
_cell_angle_beta   59.80616119
_cell_angle_gamma   60.05965888
_symmetry_Int_Tables_number   1
_chemical_formula_structural   Ce3PrDy12(CdRu)4
_chemical_formula_sum   'Ce3 Pr1 Dy12 Cd4 Ru4'
_cell_volume   632.80338614
_cell_formula_units_Z   1
loop_
 _symmetry_equiv_pos_site_id
 _symmetry_equiv_pos_as_xyz
  1  'x, y, z'
loop_
 _atom_site_type_symbol
 _atom_site_label
 _atom_site_symmetry_multiplicity
 _atom_site_fract_x
 _atom_site_fract_y
 _atom_site_fract_z
 _atom_site_occupancy
  Ce  Ce0  1  0.345620  0.965574  0.342609  1
  Ce  Ce1  1  0.965574  0.345620  0.342609  1
  Ce  Ce2  1  0.344898  0.344898  0.341594  1
  Pr  Pr3  1  0.563794  0.563794  0.938055  1
  Dy  Dy4  1  0.939649  0.561748  0.937999  1
  Dy  Dy5  1  0.561748  0.939649  0.937999  1
  Dy  Dy6  1  0.938956  0.938956  0.560605  1
  Dy  Dy7  1  0.562512  0.939965  0.559300  1
  Dy  Dy8  1  0.939965  0.562512  0.559300  1
  Dy  Dy9  1  0.188893  0.188893  0.811868  1
  Dy  Dy10  1  0.810977  0.187348  0.812464  1
  Dy  Dy11  1  0.187347  0.810978  0.812464  1
  Dy  Dy12  1  0.810352  0.810353  0.189303  1
  Dy  Dy13  1  0.186922  0.811824  0.190300  1
  Dy  Dy14  1  0.811824  0.186923  0.190301  1
  Dy  Dy15  1  0.349807  0.349807  0.948929  1
  Cd  Cd16  1  0.581547  0.581547  0.258880  1
  Cd  Cd17  1  0.581277  0.257009  0.580094  1
  Cd  Cd18  1  0.257009  0.581277  0.580094  1
  Cd  Cd19  1  0.581027  0.581027  0.576907  1
  Ru  Ru20  1  0.144842  0.144842  0.567385  1
  Ru  Ru21  1  0.136816  0.569500  0.154829  1
  Ru  Ru22  1  0.569500  0.136816  0.154829  1
  Ru  Ru23  1  0.139142  0.139142  0.151281  1
