# generated using pymatgen
data_Ca6Pr11Nd3Pb16
_symmetry_space_group_name_H-M   'P 1'
_cell_length_a   8.22942406
_cell_length_b   8.65463736
_cell_length_c   16.29552800
_cell_angle_alpha   90.05066471
_cell_angle_beta   89.73494401
_cell_angle_gamma   90.04774734
_symmetry_Int_Tables_number   1
_chemical_formula_structural   Ca6Pr11Nd3Pb16
_chemical_formula_sum   'Ca6 Pr11 Nd3 Pb16'
_cell_volume   1160.59791903
_cell_formula_units_Z   1
loop_
 _symmetry_equiv_pos_site_id
 _symmetry_equiv_pos_as_xyz
  1  'x, y, z'
loop_
 _atom_site_type_symbol
 _atom_site_label
 _atom_site_symmetry_multiplicity
 _atom_site_fract_x
 _atom_site_fract_y
 _atom_site_fract_z
 _atom_site_occupancy
  Ca  Ca0  1  0.830299  0.663298  0.376927  1
  Ca  Ca1  1  0.333220  0.834887  0.376772  1
  Ca  Ca2  1  0.834507  0.503404  0.750037  1
  Ca  Ca3  1  0.334629  0.996954  0.750127  1
  Ca  Ca4  1  0.164519  0.500079  0.251844  1
  Ca  Ca5  1  0.665803  0.999578  0.252054  1
  Pr  Pr6  1  0.837901  0.669937  0.124014  1
  Pr  Pr7  1  0.663012  0.167866  0.876310  1
  Pr  Pr8  1  0.165508  0.332212  0.623278  1
  Pr  Pr9  1  0.504288  0.684431  0.594366  1
  Pr  Pr10  1  0.005873  0.816970  0.904818  1
  Pr  Pr11  1  0.494639  0.314656  0.094435  1
  Pr  Pr12  1  0.993141  0.186422  0.404381  1
  Pr  Pr13  1  0.493486  0.314817  0.405004  1
  Pr  Pr14  1  0.995728  0.184036  0.094340  1
  Pr  Pr15  1  0.505987  0.682261  0.904848  1
  Pr  Pr16  1  0.005015  0.815967  0.594645  1
  Nd  Nd17  1  0.668010  0.165578  0.624074  1
  Nd  Nd18  1  0.165297  0.334021  0.875838  1
  Nd  Nd19  1  0.336919  0.832026  0.123814  1
  Pb  Pb20  1  0.681336  0.961426  0.459963  1
  Pb  Pb21  1  0.185961  0.539971  0.039074  1
  Pb  Pb22  1  0.314804  0.039985  0.961474  1
  Pb  Pb23  1  0.819562  0.462242  0.540263  1
  Pb  Pb24  1  0.324391  0.036965  0.539882  1
  Pb  Pb25  1  0.820432  0.460983  0.961152  1
  Pb  Pb26  1  0.681674  0.960946  0.039530  1
  Pb  Pb27  1  0.179098  0.539080  0.459412  1
  Pb  Pb28  1  0.470610  0.389376  0.749058  1
  Pb  Pb29  1  0.970741  0.110056  0.750275  1
  Pb  Pb30  1  0.529528  0.608697  0.249318  1
  Pb  Pb31  1  0.031726  0.891435  0.250365  1
  Pb  Pb32  1  0.700044  0.851839  0.750172  1
  Pb  Pb33  1  0.200402  0.648273  0.750184  1
  Pb  Pb34  1  0.296747  0.146458  0.249159  1
  Pb  Pb35  1  0.795167  0.352867  0.248794  1
