# generated using pymatgen
data_Er5Fe16(P4Ru)3
_symmetry_space_group_name_H-M   'P 1'
_cell_length_a   12.02221900
_cell_length_b   12.02221906
_cell_length_c   3.70512100
_cell_angle_alpha   90.00000000
_cell_angle_beta   90.00000000
_cell_angle_gamma   119.99999158
_symmetry_Int_Tables_number   1
_chemical_formula_structural   Er5Fe16(P4Ru)3
_chemical_formula_sum   'Er5 Fe16 P12 Ru3'
_cell_volume   463.76966279
_cell_formula_units_Z   1
loop_
 _symmetry_equiv_pos_site_id
 _symmetry_equiv_pos_as_xyz
  1  'x, y, z'
loop_
 _atom_site_type_symbol
 _atom_site_label
 _atom_site_symmetry_multiplicity
 _atom_site_fract_x
 _atom_site_fract_y
 _atom_site_fract_z
 _atom_site_occupancy
  Er  Er0  1  0.666667  0.333333  0.000000  1
  Er  Er1  1  0.333333  0.666667  0.000000  1
  Er  Er2  1  0.182863  0.182863  0.500000  1
  Er  Er3  1  0.817137  0.000000  0.500000  1
  Er  Er4  1  0.000000  0.817137  0.500000  1
  Fe  Fe5  1  0.818946  0.196909  0.000000  1
  Fe  Fe6  1  0.803091  0.622037  0.000000  1
  Fe  Fe7  1  0.377963  0.181054  0.000000  1
  Fe  Fe8  1  0.196909  0.818946  0.000000  1
  Fe  Fe9  1  0.622037  0.803091  0.000000  1
  Fe  Fe10  1  0.181054  0.377963  0.000000  1
  Fe  Fe11  1  0.642773  0.123873  0.500000  1
  Fe  Fe12  1  0.876127  0.518899  0.500000  1
  Fe  Fe13  1  0.481101  0.357227  0.500000  1
  Fe  Fe14  1  0.123873  0.642773  0.500000  1
  Fe  Fe15  1  0.518899  0.876127  0.500000  1
  Fe  Fe16  1  0.357227  0.481101  0.500000  1
  Fe  Fe17  1  0.716359  0.716359  0.500000  1
  Fe  Fe18  1  0.283641  0.000000  0.500000  1
  Fe  Fe19  1  0.000000  0.283641  0.500000  1
  Fe  Fe20  1  0.000000  0.000000  0.000000  1
  P  P21  1  0.364287  0.364287  0.000000  1
  P  P22  1  0.635713  0.000000  0.000000  1
  P  P23  1  0.000000  0.635713  0.000000  1
  P  P24  1  0.834065  0.312682  0.500000  1
  P  P25  1  0.687318  0.521383  0.500000  1
  P  P26  1  0.478617  0.165935  0.500000  1
  P  P27  1  0.312682  0.834065  0.500000  1
  P  P28  1  0.521383  0.687318  0.500000  1
  P  P29  1  0.165935  0.478617  0.500000  1
  P  P30  1  0.816702  0.816702  0.000000  1
  P  P31  1  0.183298  0.000000  0.000000  1
  P  P32  1  0.000000  0.183298  0.000000  1
  Ru  Ru33  1  0.554715  0.554715  0.000000  1
  Ru  Ru34  1  0.445285  0.000000  0.000000  1
  Ru  Ru35  1  0.000000  0.445285  0.000000  1
