# generated using pymatgen
data_DyHo2NbIn2Ir3
_symmetry_space_group_name_H-M   'P 1'
_cell_length_a   7.32584109
_cell_length_b   7.05068596
_cell_length_c   4.25336600
_cell_angle_alpha   90.00000000
_cell_angle_beta   90.00000000
_cell_angle_gamma   118.78854608
_symmetry_Int_Tables_number   1
_chemical_formula_structural   DyHo2NbIn2Ir3
_chemical_formula_sum   'Dy1 Ho2 Nb1 In2 Ir3'
_cell_volume   192.54199190
_cell_formula_units_Z   1
loop_
 _symmetry_equiv_pos_site_id
 _symmetry_equiv_pos_as_xyz
  1  'x, y, z'
loop_
 _atom_site_type_symbol
 _atom_site_label
 _atom_site_symmetry_multiplicity
 _atom_site_fract_x
 _atom_site_fract_y
 _atom_site_fract_z
 _atom_site_occupancy
  Dy  Dy0  1  0.588175  0.586221  0.000000  1
  Ho  Ho1  1  0.411328  0.997667  0.000000  1
  Ho  Ho2  1  0.999997  0.403338  0.000000  1
  Nb  Nb3  1  0.000172  0.752871  0.500000  1
  In  In4  1  0.249714  0.251283  0.500000  1
  In  In5  1  0.750223  0.001718  0.500000  1
  Ir  Ir6  1  0.000320  0.963434  0.000000  1
  Ir  Ir7  1  0.686123  0.364526  0.500000  1
  Ir  Ir8  1  0.313948  0.678942  0.500000  1
