# generated using pymatgen
data_Ho3Lu7In8PtRh3
_symmetry_space_group_name_H-M   'P 1'
_cell_length_a   3.57009100
_cell_length_b   7.99233802
_cell_length_c   18.07803500
_cell_angle_alpha   89.94216935
_cell_angle_beta   90.00000000
_cell_angle_gamma   90.00000000
_symmetry_Int_Tables_number   1
_chemical_formula_structural   Ho3Lu7In8PtRh3
_chemical_formula_sum   'Ho3 Lu7 In8 Pt1 Rh3'
_cell_volume   515.82707157
_cell_formula_units_Z   1
loop_
 _symmetry_equiv_pos_site_id
 _symmetry_equiv_pos_as_xyz
  1  'x, y, z'
loop_
 _atom_site_type_symbol
 _atom_site_label
 _atom_site_symmetry_multiplicity
 _atom_site_fract_x
 _atom_site_fract_y
 _atom_site_fract_z
 _atom_site_occupancy
  Ho  Ho0  1  0.000000  0.747765  0.279824  1
  Ho  Ho1  1  0.000000  0.000132  0.999906  1
  Ho  Ho2  1  0.000000  0.500450  0.500032  1
  Lu  Lu3  1  0.000000  0.116014  0.412638  1
  Lu  Lu4  1  0.000000  0.883720  0.588332  1
  Lu  Lu5  1  0.000000  0.383866  0.911593  1
  Lu  Lu6  1  0.000000  0.617103  0.086079  1
  Lu  Lu7  1  0.000000  0.239960  0.221265  1
  Lu  Lu8  1  0.000000  0.755573  0.778938  1
  Lu  Lu9  1  0.000000  0.255598  0.721178  1
  In  In10  1  0.500000  0.422210  0.351478  1
  In  In11  1  0.500000  0.573787  0.650144  1
  In  In12  1  0.500000  0.074523  0.849883  1
  In  In13  1  0.500000  0.927514  0.149297  1
  In  In14  1  0.500000  0.293366  0.065827  1
  In  In15  1  0.500000  0.705539  0.932439  1
  In  In16  1  0.500000  0.205259  0.567040  1
  In  In17  1  0.500000  0.795125  0.433618  1
  Pt  Pt18  1  0.500000  0.522405  0.195786  1
  Rh  Rh19  1  0.500000  0.026038  0.304701  1
  Rh  Rh20  1  0.500000  0.977312  0.695679  1
  Rh  Rh21  1  0.500000  0.476741  0.804322  1
