# generated using pymatgen
data_Ti2FeB2Ru5
_symmetry_space_group_name_H-M   'P 1'
_cell_length_a   9.15479400
_cell_length_b   9.15479400
_cell_length_c   2.99478800
_cell_angle_alpha   90.00000000
_cell_angle_beta   90.00000000
_cell_angle_gamma   90.00000000
_symmetry_Int_Tables_number   1
_chemical_formula_structural   Ti2FeB2Ru5
_chemical_formula_sum   'Ti4 Fe2 B4 Ru10'
_cell_volume   250.99394051
_cell_formula_units_Z   2
loop_
 _symmetry_equiv_pos_site_id
 _symmetry_equiv_pos_as_xyz
  1  'x, y, z'
loop_
 _atom_site_type_symbol
 _atom_site_label
 _atom_site_symmetry_multiplicity
 _atom_site_fract_x
 _atom_site_fract_y
 _atom_site_fract_z
 _atom_site_occupancy
  Ti  Ti0  1  0.676219  0.176219  0.000000  1
  Ti  Ti1  1  0.323781  0.823781  0.000000  1
  Ti  Ti2  1  0.176219  0.323781  0.000000  1
  Ti  Ti3  1  0.823781  0.676219  0.000000  1
  Fe  Fe4  1  0.000000  0.000000  0.000000  1
  Fe  Fe5  1  0.500000  0.500000  0.000000  1
  B  B6  1  0.124909  0.624909  0.000000  1
  B  B7  1  0.875091  0.375091  0.000000  1
  B  B8  1  0.624909  0.875091  0.000000  1
  B  B9  1  0.375091  0.124909  0.000000  1
  Ru  Ru10  1  0.211023  0.073948  0.500000  1
  Ru  Ru11  1  0.788977  0.926052  0.500000  1
  Ru  Ru12  1  0.073948  0.788977  0.500000  1
  Ru  Ru13  1  0.711023  0.426052  0.500000  1
  Ru  Ru14  1  0.926052  0.211023  0.500000  1
  Ru  Ru15  1  0.288977  0.573948  0.500000  1
  Ru  Ru16  1  0.573948  0.711023  0.500000  1
  Ru  Ru17  1  0.426052  0.288977  0.500000  1
  Ru  Ru18  1  0.500000  0.000000  0.500000  1
  Ru  Ru19  1  0.000000  0.500000  0.500000  1
