# generated using pymatgen
data_Rb3La(VS4)2
_symmetry_space_group_name_H-M   'P 1'
_cell_length_a   10.07953169
_cell_length_b   6.97788100
_cell_length_c   11.86906198
_cell_angle_alpha   90.00000000
_cell_angle_beta   90.65125144
_cell_angle_gamma   90.00000000
_symmetry_Int_Tables_number   1
_chemical_formula_structural   Rb3La(VS4)2
_chemical_formula_sum   'Rb6 La2 V4 S16'
_cell_volume   834.74198127
_cell_formula_units_Z   2
loop_
 _symmetry_equiv_pos_site_id
 _symmetry_equiv_pos_as_xyz
  1  'x, y, z'
loop_
 _atom_site_type_symbol
 _atom_site_label
 _atom_site_symmetry_multiplicity
 _atom_site_fract_x
 _atom_site_fract_y
 _atom_site_fract_z
 _atom_site_occupancy
  Rb  Rb0  1  0.361743  0.802561  0.089041  1
  Rb  Rb1  1  0.400988  0.308693  0.348851  1
  Rb  Rb2  1  0.837541  0.307538  0.428394  1
  Rb  Rb3  1  0.162459  0.807538  0.571607  1
  Rb  Rb4  1  0.599012  0.808693  0.651149  1
  Rb  Rb5  1  0.638258  0.302561  0.910959  1
  La  La6  1  0.889263  0.786952  0.148916  1
  La  La7  1  0.110737  0.286952  0.851084  1
  V  V8  1  0.088830  0.331047  0.158150  1
  V  V9  1  0.630308  0.808732  0.312481  1
  V  V10  1  0.369692  0.308731  0.687519  1
  V  V11  1  0.911170  0.831047  0.841850  1
  S  S12  1  0.930739  0.391931  0.039442  1
  S  S13  1  0.268994  0.305229  0.062621  1
  S  S14  1  0.659190  0.048666  0.199586  1
  S  S15  1  0.649201  0.558524  0.204457  1
  S  S16  1  0.059573  0.077021  0.257709  1
  S  S17  1  0.098996  0.573761  0.269176  1
  S  S18  1  0.442845  0.816487  0.393915  1
  S  S19  1  0.805804  0.805137  0.418447  1
  S  S20  1  0.194197  0.305136  0.581553  1
  S  S21  1  0.557154  0.316486  0.606085  1
  S  S22  1  0.901004  0.073760  0.730824  1
  S  S23  1  0.940427  0.577021  0.742291  1
  S  S24  1  0.350799  0.058525  0.795543  1
  S  S25  1  0.340810  0.548664  0.800414  1
  S  S26  1  0.731005  0.805230  0.937379  1
  S  S27  1  0.069261  0.891931  0.960557  1
