# generated using pymatgen
data_HoEr15In4Ir3Pt
_symmetry_space_group_name_H-M   'P 1'
_cell_length_a   9.58379681
_cell_length_b   9.58379750
_cell_length_c   9.58324942
_cell_angle_alpha   60.18777996
_cell_angle_beta   60.18778540
_cell_angle_gamma   60.18107380
_symmetry_Int_Tables_number   1
_chemical_formula_structural   HoEr15In4Ir3Pt
_chemical_formula_sum   'Ho1 Er15 In4 Ir3 Pt1'
_cell_volume   625.02017259
_cell_formula_units_Z   1
loop_
 _symmetry_equiv_pos_site_id
 _symmetry_equiv_pos_as_xyz
  1  'x, y, z'
loop_
 _atom_site_type_symbol
 _atom_site_label
 _atom_site_symmetry_multiplicity
 _atom_site_fract_x
 _atom_site_fract_y
 _atom_site_fract_z
 _atom_site_occupancy
  Ho  Ho0  1  0.060668  0.060668  0.437100  1
  Er  Er1  1  0.647636  0.050444  0.647825  1
  Er  Er2  1  0.190957  0.808957  0.190883  1
  Er  Er3  1  0.439349  0.060384  0.439229  1
  Er  Er4  1  0.190913  0.190913  0.809057  1
  Er  Er5  1  0.652251  0.652251  0.652358  1
  Er  Er6  1  0.050444  0.647636  0.647825  1
  Er  Er7  1  0.437227  0.060646  0.060407  1
  Er  Er8  1  0.647814  0.647814  0.050348  1
  Er  Er9  1  0.195235  0.808559  0.808837  1
  Er  Er10  1  0.808559  0.195235  0.808837  1
  Er  Er11  1  0.808957  0.190957  0.190883  1
  Er  Er12  1  0.808671  0.808671  0.195173  1
  Er  Er13  1  0.060384  0.439349  0.439229  1
  Er  Er14  1  0.439222  0.439222  0.060326  1
  Er  Er15  1  0.060646  0.437227  0.060407  1
  In  In16  1  0.749666  0.416831  0.416666  1
  In  In17  1  0.416630  0.416630  0.749870  1
  In  In18  1  0.416831  0.749666  0.416666  1
  In  In19  1  0.416606  0.416606  0.416620  1
  Ir  Ir20  1  0.424410  0.859380  0.859340  1
  Ir  Ir21  1  0.859324  0.859324  0.424328  1
  Ir  Ir22  1  0.859380  0.424410  0.859340  1
  Pt  Pt23  1  0.858222  0.858222  0.858447  1
