# generated using pymatgen
data_Tb4SmPb3Cl
_symmetry_space_group_name_H-M   'P 1'
_cell_length_a   9.24816000
_cell_length_b   9.24815829
_cell_length_c   6.65930400
_cell_angle_alpha   90.00000000
_cell_angle_beta   90.00000000
_cell_angle_gamma   120.10046058
_symmetry_Int_Tables_number   1
_chemical_formula_structural   Tb4SmPb3Cl
_chemical_formula_sum   'Tb8 Sm2 Pb6 Cl2'
_cell_volume   492.75328908
_cell_formula_units_Z   2
loop_
 _symmetry_equiv_pos_site_id
 _symmetry_equiv_pos_as_xyz
  1  'x, y, z'
loop_
 _atom_site_type_symbol
 _atom_site_label
 _atom_site_symmetry_multiplicity
 _atom_site_fract_x
 _atom_site_fract_y
 _atom_site_fract_z
 _atom_site_occupancy
  Tb  Tb0  1  0.333103  0.666897  0.000000  1
  Tb  Tb1  1  0.666897  0.333103  0.000000  1
  Tb  Tb2  1  0.666897  0.333103  0.500000  1
  Tb  Tb3  1  0.333103  0.666897  0.500000  1
  Tb  Tb4  1  0.260024  0.999932  0.250000  1
  Tb  Tb5  1  0.739976  0.000068  0.750000  1
  Tb  Tb6  1  0.999932  0.260024  0.250000  1
  Tb  Tb7  1  0.000068  0.739976  0.750000  1
  Sm  Sm8  1  0.740225  0.740225  0.250000  1
  Sm  Sm9  1  0.259775  0.259775  0.750000  1
  Pb  Pb10  1  0.609725  0.001051  0.250000  1
  Pb  Pb11  1  0.390275  0.998949  0.750000  1
  Pb  Pb12  1  0.001051  0.609725  0.250000  1
  Pb  Pb13  1  0.998949  0.390275  0.750000  1
  Pb  Pb14  1  0.388556  0.388556  0.250000  1
  Pb  Pb15  1  0.611444  0.611444  0.750000  1
  Cl  Cl16  1  0.000000  0.000000  0.000000  1
  Cl  Cl17  1  0.000000  0.000000  0.500000  1
