# generated using pymatgen
data_Hf6Zn20SiNi3
_symmetry_space_group_name_H-M   'P 1'
_cell_length_a   8.64030154
_cell_length_b   8.64030206
_cell_length_c   8.60227755
_cell_angle_alpha   59.77682681
_cell_angle_beta   59.77682628
_cell_angle_gamma   59.63024449
_symmetry_Int_Tables_number   1
_chemical_formula_structural   Hf6Zn20SiNi3
_chemical_formula_sum   'Hf6 Zn20 Si1 Ni3'
_cell_volume   451.29747616
_cell_formula_units_Z   1
loop_
 _symmetry_equiv_pos_site_id
 _symmetry_equiv_pos_as_xyz
  1  'x, y, z'
loop_
 _atom_site_type_symbol
 _atom_site_label
 _atom_site_symmetry_multiplicity
 _atom_site_fract_x
 _atom_site_fract_y
 _atom_site_fract_z
 _atom_site_occupancy
  Hf  Hf0  1  0.708478  0.288269  0.291612  1
  Hf  Hf1  1  0.291522  0.711731  0.708388  1
  Hf  Hf2  1  0.288269  0.708478  0.291612  1
  Hf  Hf3  1  0.711731  0.291522  0.708388  1
  Hf  Hf4  1  0.292552  0.292552  0.703612  1
  Hf  Hf5  1  0.707448  0.707448  0.296388  1
  Zn  Zn6  1  0.118397  0.118397  0.117772  1
  Zn  Zn7  1  0.881603  0.881603  0.882228  1
  Zn  Zn8  1  0.124960  0.124960  0.638336  1
  Zn  Zn9  1  0.114649  0.641155  0.130252  1
  Zn  Zn10  1  0.875040  0.875040  0.361664  1
  Zn  Zn11  1  0.885351  0.358845  0.869748  1
  Zn  Zn12  1  0.641155  0.114649  0.130252  1
  Zn  Zn13  1  0.358845  0.885351  0.869748  1
  Zn  Zn14  1  0.500000  0.000000  0.000000  1
  Zn  Zn15  1  0.000000  0.500000  0.000000  1
  Zn  Zn16  1  0.000000  0.000000  0.500000  1
  Zn  Zn17  1  0.500000  0.500000  0.000000  1
  Zn  Zn18  1  0.332039  0.332039  0.341473  1
  Zn  Zn19  1  0.667961  0.667961  0.658527  1
  Zn  Zn20  1  0.336243  0.336243  0.991814  1
  Zn  Zn21  1  0.338869  0.993750  0.339889  1
  Zn  Zn22  1  0.663757  0.663757  0.008186  1
  Zn  Zn23  1  0.661131  0.006250  0.660111  1
  Zn  Zn24  1  0.993750  0.338869  0.339889  1
  Zn  Zn25  1  0.006250  0.661131  0.660111  1
  Si  Si26  1  0.500000  0.500000  0.500000  1
  Ni  Ni27  1  0.000000  0.500000  0.500000  1
  Ni  Ni28  1  0.500000  0.000000  0.500000  1
  Ni  Ni29  1  0.000000  0.000000  0.000000  1
