# generated using pymatgen
data_Sc12Co3Si12Ag
_symmetry_space_group_name_H-M   'P 1'
_cell_length_a   4.00659300
_cell_length_b   10.13869637
_cell_length_c   11.70874199
_cell_angle_alpha   89.71389309
_cell_angle_beta   90.00000000
_cell_angle_gamma   90.00000000
_symmetry_Int_Tables_number   1
_chemical_formula_structural   Sc12Co3Si12Ag
_chemical_formula_sum   'Sc12 Co3 Si12 Ag1'
_cell_volume   475.62225408
_cell_formula_units_Z   1
loop_
 _symmetry_equiv_pos_site_id
 _symmetry_equiv_pos_as_xyz
  1  'x, y, z'
loop_
 _atom_site_type_symbol
 _atom_site_label
 _atom_site_symmetry_multiplicity
 _atom_site_fract_x
 _atom_site_fract_y
 _atom_site_fract_z
 _atom_site_occupancy
  Sc  Sc0  1  0.250000  0.881425  0.028034  1
  Sc  Sc1  1  0.250000  0.617555  0.520879  1
  Sc  Sc2  1  0.750000  0.127261  0.979995  1
  Sc  Sc3  1  0.750000  0.380429  0.472993  1
  Sc  Sc4  1  0.250000  0.919088  0.598510  1
  Sc  Sc5  1  0.250000  0.579519  0.102375  1
  Sc  Sc6  1  0.750000  0.079437  0.400481  1
  Sc  Sc7  1  0.750000  0.421998  0.905074  1
  Sc  Sc8  1  0.250000  0.647005  0.799840  1
  Sc  Sc9  1  0.250000  0.842580  0.300727  1
  Sc  Sc10  1  0.750000  0.342821  0.199591  1
  Sc  Sc11  1  0.750000  0.172085  0.696945  1
  Co  Co12  1  0.250000  0.387657  0.675896  1
  Co  Co13  1  0.250000  0.111944  0.179200  1
  Co  Co14  1  0.750000  0.610145  0.322420  1
  Si  Si15  1  0.250000  0.028740  0.824681  1
  Si  Si16  1  0.250000  0.493782  0.321026  1
  Si  Si17  1  0.750000  0.995092  0.177192  1
  Si  Si18  1  0.750000  0.499530  0.677556  1
  Si  Si19  1  0.250000  0.260905  0.838507  1
  Si  Si20  1  0.250000  0.247875  0.336662  1
  Si  Si21  1  0.750000  0.748150  0.164474  1
  Si  Si22  1  0.750000  0.737820  0.650261  1
  Si  Si23  1  0.250000  0.198929  0.542847  1
  Si  Si24  1  0.250000  0.302120  0.047453  1
  Si  Si25  1  0.750000  0.798889  0.451034  1
  Si  Si26  1  0.750000  0.683201  0.964004  1
  Ag  Ag27  1  0.750000  0.884019  0.821342  1
