# generated using pymatgen
data_MgZr2CuNi8
_symmetry_space_group_name_H-M   'P 1'
_cell_length_a   4.79812952
_cell_length_b   4.79812971
_cell_length_c   8.34244138
_cell_angle_alpha   106.71275541
_cell_angle_beta   73.28724729
_cell_angle_gamma   119.99999392
_symmetry_Int_Tables_number   1
_chemical_formula_structural   MgZr2CuNi8
_chemical_formula_sum   'Mg1 Zr2 Cu1 Ni8'
_cell_volume   156.89104025
_cell_formula_units_Z   1
loop_
 _symmetry_equiv_pos_site_id
 _symmetry_equiv_pos_as_xyz
  1  'x, y, z'
loop_
 _atom_site_type_symbol
 _atom_site_label
 _atom_site_symmetry_multiplicity
 _atom_site_fract_x
 _atom_site_fract_y
 _atom_site_fract_z
 _atom_site_occupancy
  Mg  Mg0  1  0.376439  0.623561  0.870682  1
  Zr  Zr1  1  0.995499  0.004501  0.013500  1
  Zr  Zr2  1  0.503922  0.496078  0.488234  1
  Cu  Cu3  1  0.873234  0.126766  0.380298  1
  Ni  Ni4  1  0.435798  0.564202  0.188315  1
  Ni  Ni5  1  0.936718  0.063282  0.686824  1
  Ni  Ni6  1  0.435798  0.059913  0.188315  1
  Ni  Ni7  1  0.936718  0.560262  0.686824  1
  Ni  Ni8  1  0.187921  0.812079  0.436238  1
  Ni  Ni9  1  0.688124  0.311876  0.935629  1
  Ni  Ni10  1  0.940087  0.564202  0.188315  1
  Ni  Ni11  1  0.439738  0.063282  0.686824  1
