# generated using pymatgen
data_Nd2Pa2(Al8Pt3)3
_symmetry_space_group_name_H-M   'P 1'
_cell_length_a   7.59515726
_cell_length_b   7.60116538
_cell_length_c   13.18280021
_cell_angle_alpha   84.49275656
_cell_angle_beta   78.94683982
_cell_angle_gamma   59.89527327
_symmetry_Int_Tables_number   1
_chemical_formula_structural   Nd2Pa2(Al8Pt3)3
_chemical_formula_sum   'Nd2 Pa2 Al24 Pt9'
_cell_volume   646.19564060
_cell_formula_units_Z   1
loop_
 _symmetry_equiv_pos_site_id
 _symmetry_equiv_pos_as_xyz
  1  'x, y, z'
loop_
 _atom_site_type_symbol
 _atom_site_label
 _atom_site_symmetry_multiplicity
 _atom_site_fract_x
 _atom_site_fract_y
 _atom_site_fract_z
 _atom_site_occupancy
  Nd  Nd0  1  0.733208  0.498532  0.809607  1
  Nd  Nd1  1  0.266792  0.501468  0.190393  1
  Pa  Pa2  1  0.396296  0.167684  0.803113  1
  Pa  Pa3  1  0.603704  0.832316  0.196887  1
  Al  Al4  1  0.683297  0.835905  0.946355  1
  Al  Al5  1  0.316703  0.164095  0.053645  1
  Al  Al6  1  0.145475  0.833026  0.560793  1
  Al  Al7  1  0.854525  0.166974  0.439207  1
  Al  Al8  1  0.480868  0.167746  0.557616  1
  Al  Al9  1  0.519132  0.832254  0.442384  1
  Al  Al10  1  0.213261  0.167604  0.333161  1
  Al  Al11  1  0.786739  0.832396  0.666839  1
  Al  Al12  1  0.437210  0.509828  0.667574  1
  Al  Al13  1  0.562790  0.490172  0.332426  1
  Al  Al14  1  0.109132  0.158595  0.665780  1
  Al  Al15  1  0.890868  0.841405  0.334220  1
  Al  Al16  1  0.351110  0.499311  0.943392  1
  Al  Al17  1  0.648890  0.500689  0.056608  1
  Al  Al18  1  0.017302  0.165955  0.953831  1
  Al  Al19  1  0.982698  0.834045  0.046169  1
  Al  Al20  1  0.185713  0.500229  0.441667  1
  Al  Al21  1  0.814287  0.499771  0.558333  1
  Al  Al22  1  0.739245  0.158796  0.183151  1
  Al  Al23  1  0.260755  0.841204  0.816849  1
  Al  Al24  1  0.064966  0.630708  0.815565  1
  Al  Al25  1  0.935034  0.369292  0.184435  1
  Al  Al26  1  0.854692  0.037324  0.816508  1
  Al  Al27  1  0.145308  0.962676  0.183492  1
  Pt  Pt28  1  0.122151  0.490989  0.638927  1
  Pt  Pt29  1  0.877849  0.509011  0.361073  1
  Pt  Pt30  1  0.657433  0.171990  0.000047  1
  Pt  Pt31  1  0.342567  0.828010  0.999953  1
  Pt  Pt32  1  0.538403  0.164975  0.361090  1
  Pt  Pt33  1  0.461597  0.835025  0.638910  1
  Pt  Pt34  1  0.777998  0.174192  0.637941  1
  Pt  Pt35  1  0.222002  0.825808  0.362059  1
  Pt  Pt36  1  0.000000  0.500000  0.000000  1
