# generated using pymatgen
data_Ca5TcMoN7
_symmetry_space_group_name_H-M   'P 1'
_cell_length_a   6.13254984
_cell_length_b   9.01288156
_cell_length_c   8.97080479
_cell_angle_alpha   115.70713638
_cell_angle_beta   96.93648708
_cell_angle_gamma   88.54175754
_symmetry_Int_Tables_number   1
_chemical_formula_structural   Ca5TcMoN7
_chemical_formula_sum   'Ca10 Tc2 Mo2 N14'
_cell_volume   443.28652630
_cell_formula_units_Z   2
loop_
 _symmetry_equiv_pos_site_id
 _symmetry_equiv_pos_as_xyz
  1  'x, y, z'
loop_
 _atom_site_type_symbol
 _atom_site_label
 _atom_site_symmetry_multiplicity
 _atom_site_fract_x
 _atom_site_fract_y
 _atom_site_fract_z
 _atom_site_occupancy
  Ca  Ca0  1  0.835326  0.607147  0.320686  1
  Ca  Ca1  1  0.261111  0.982359  0.550635  1
  Ca  Ca2  1  0.704770  0.416568  0.857975  1
  Ca  Ca3  1  0.295230  0.583432  0.142025  1
  Ca  Ca4  1  0.395632  0.789748  0.919029  1
  Ca  Ca5  1  0.604368  0.210252  0.080971  1
  Ca  Ca6  1  0.164674  0.392853  0.679314  1
  Ca  Ca7  1  0.891789  0.859723  0.754349  1
  Ca  Ca8  1  0.108211  0.140277  0.245651  1
  Ca  Ca9  1  0.738889  0.017641  0.449365  1
  Tc  Tc10  1  0.581022  0.353678  0.474411  1
  Tc  Tc11  1  0.418978  0.646322  0.525589  1
  Mo  Mo12  1  0.124871  0.216652  0.925054  1
  Mo  Mo13  1  0.875129  0.783348  0.074946  1
  N  N14  1  0.507128  0.544558  0.677349  1
  N  N15  1  0.492872  0.455442  0.322651  1
  N  N16  1  0.139777  0.720840  0.549734  1
  N  N17  1  0.860223  0.279160  0.450266  1
  N  N18  1  0.409961  0.181740  0.470105  1
  N  N19  1  0.590039  0.818260  0.529895  1
  N  N20  1  0.953824  0.130072  0.715923  1
  N  N21  1  0.046176  0.869928  0.284077  1
  N  N22  1  0.240080  0.050078  0.979056  1
  N  N23  1  0.759920  0.949922  0.020944  1
  N  N24  1  0.369339  0.328497  0.908460  1
  N  N25  1  0.956925  0.361454  0.090710  1
  N  N26  1  0.043075  0.638546  0.909290  1
  N  N27  1  0.630661  0.671503  0.091540  1
