# generated using pymatgen
data_Sm8GaPd23Pt
_symmetry_space_group_name_H-M   'P 1'
_cell_length_a   8.43709000
_cell_length_b   8.43473600
_cell_length_c   8.43473600
_cell_angle_alpha   90.00000000
_cell_angle_beta   90.00000000
_cell_angle_gamma   90.00000000
_symmetry_Int_Tables_number   1
_chemical_formula_structural   Sm8GaPd23Pt
_chemical_formula_sum   'Sm8 Ga1 Pd23 Pt1'
_cell_volume   600.25483924
_cell_formula_units_Z   1
loop_
 _symmetry_equiv_pos_site_id
 _symmetry_equiv_pos_as_xyz
  1  'x, y, z'
loop_
 _atom_site_type_symbol
 _atom_site_label
 _atom_site_symmetry_multiplicity
 _atom_site_fract_x
 _atom_site_fract_y
 _atom_site_fract_z
 _atom_site_occupancy
  Sm  Sm0  1  0.251789  0.252136  0.252136  1
  Sm  Sm1  1  0.748227  0.748251  0.748251  1
  Sm  Sm2  1  0.748227  0.748251  0.251749  1
  Sm  Sm3  1  0.748227  0.251749  0.748251  1
  Sm  Sm4  1  0.251789  0.252136  0.747864  1
  Sm  Sm5  1  0.251789  0.747864  0.252136  1
  Sm  Sm6  1  0.251789  0.747864  0.747864  1
  Sm  Sm7  1  0.748227  0.251749  0.251749  1
  Ga  Ga8  1  0.000198  0.000000  0.000000  1
  Pd  Pd9  1  0.261103  0.500000  0.000000  1
  Pd  Pd10  1  0.738822  0.500000  0.000000  1
  Pd  Pd11  1  0.000101  0.261134  0.500000  1
  Pd  Pd12  1  0.500175  0.261171  0.000000  1
  Pd  Pd13  1  0.000101  0.738866  0.500000  1
  Pd  Pd14  1  0.500175  0.738829  0.000000  1
  Pd  Pd15  1  0.500175  0.000000  0.261171  1
  Pd  Pd16  1  0.261103  0.000000  0.500000  1
  Pd  Pd17  1  0.500175  0.000000  0.738829  1
  Pd  Pd18  1  0.738822  0.000000  0.500000  1
  Pd  Pd19  1  0.000101  0.500000  0.261134  1
  Pd  Pd20  1  0.000101  0.500000  0.738866  1
  Pd  Pd21  1  0.746357  0.500000  0.500000  1
  Pd  Pd22  1  0.499887  0.253650  0.500000  1
  Pd  Pd23  1  0.499887  0.746350  0.500000  1
  Pd  Pd24  1  0.499887  0.500000  0.253650  1
  Pd  Pd25  1  0.499887  0.500000  0.746350  1
  Pd  Pd26  1  0.293582  0.000000  0.000000  1
  Pd  Pd27  1  0.706678  0.000000  0.000000  1
  Pd  Pd28  1  0.999773  0.293458  0.000000  1
  Pd  Pd29  1  0.999773  0.706542  0.000000  1
  Pd  Pd30  1  0.999773  0.000000  0.293458  1
  Pd  Pd31  1  0.999773  0.000000  0.706542  1
  Pt  Pt32  1  0.253529  0.500000  0.500000  1
