# generated using pymatgen
data_NdPa2(AlRh)3
_symmetry_space_group_name_H-M   'P 1'
_cell_length_a   7.18029421
_cell_length_b   7.03277577
_cell_length_c   4.05811700
_cell_angle_alpha   90.00000000
_cell_angle_beta   90.00000000
_cell_angle_gamma   119.32267024
_symmetry_Int_Tables_number   1
_chemical_formula_structural   NdPa2(AlRh)3
_chemical_formula_sum   'Nd1 Pa2 Al3 Rh3'
_cell_volume   178.66853786
_cell_formula_units_Z   1
loop_
 _symmetry_equiv_pos_site_id
 _symmetry_equiv_pos_as_xyz
  1  'x, y, z'
loop_
 _atom_site_type_symbol
 _atom_site_label
 _atom_site_symmetry_multiplicity
 _atom_site_fract_x
 _atom_site_fract_y
 _atom_site_fract_z
 _atom_site_occupancy
  Nd  Nd0  1  0.000000  0.581817  0.500000  1
  Pa  Pa1  1  0.422340  0.418223  0.500000  1
  Pa  Pa2  1  0.577660  0.995882  0.500000  1
  Al  Al3  1  0.776737  0.769778  0.000000  1
  Al  Al4  1  0.223263  0.993041  0.000000  1
  Al  Al5  1  0.000000  0.245130  0.000000  1
  Rh  Rh6  1  0.627166  0.297208  0.000000  1
  Rh  Rh7  1  0.372834  0.670044  0.000000  1
  Rh  Rh8  1  0.000000  0.028877  0.500000  1
