# generated using pymatgen
data_SrGdBiS4
_symmetry_space_group_name_H-M   'P 1'
_cell_length_a   4.08654800
_cell_length_b   12.22746600
_cell_length_c   14.64137900
_cell_angle_alpha   90.00000000
_cell_angle_beta   90.00000000
_cell_angle_gamma   90.00000000
_symmetry_Int_Tables_number   1
_chemical_formula_structural   SrGdBiS4
_chemical_formula_sum   'Sr4 Gd4 Bi4 S16'
_cell_volume   731.60228134
_cell_formula_units_Z   4
loop_
 _symmetry_equiv_pos_site_id
 _symmetry_equiv_pos_as_xyz
  1  'x, y, z'
loop_
 _atom_site_type_symbol
 _atom_site_label
 _atom_site_symmetry_multiplicity
 _atom_site_fract_x
 _atom_site_fract_y
 _atom_site_fract_z
 _atom_site_occupancy
  Sr  Sr0  1  0.250000  0.756500  0.337631  1
  Sr  Sr1  1  0.250000  0.256500  0.162369  1
  Sr  Sr2  1  0.750000  0.243500  0.662369  1
  Sr  Sr3  1  0.750000  0.743500  0.837631  1
  Gd  Gd4  1  0.250000  0.429582  0.392058  1
  Gd  Gd5  1  0.250000  0.929582  0.107942  1
  Gd  Gd6  1  0.750000  0.570418  0.607942  1
  Gd  Gd7  1  0.750000  0.070418  0.892058  1
  Bi  Bi8  1  0.250000  0.422540  0.897381  1
  Bi  Bi9  1  0.250000  0.922540  0.602619  1
  Bi  Bi10  1  0.750000  0.577460  0.102619  1
  Bi  Bi11  1  0.750000  0.077460  0.397381  1
  S  S12  1  0.250000  0.203752  0.822079  1
  S  S13  1  0.250000  0.703752  0.677921  1
  S  S14  1  0.750000  0.796248  0.177921  1
  S  S15  1  0.750000  0.296248  0.322079  1
  S  S16  1  0.250000  0.133988  0.533447  1
  S  S17  1  0.250000  0.633988  0.966553  1
  S  S18  1  0.750000  0.866012  0.466553  1
  S  S19  1  0.750000  0.366012  0.033447  1
  S  S20  1  0.250000  0.520034  0.218223  1
  S  S21  1  0.250000  0.020034  0.281777  1
  S  S22  1  0.750000  0.479966  0.781777  1
  S  S23  1  0.750000  0.979966  0.718223  1
  S  S24  1  0.250000  0.416717  0.579657  1
  S  S25  1  0.250000  0.916717  0.920343  1
  S  S26  1  0.750000  0.583283  0.420343  1
  S  S27  1  0.750000  0.083283  0.079657  1
