# generated using pymatgen
data_Tm3PaAl16(GaIr3)2
_symmetry_space_group_name_H-M   'P 1'
_cell_length_a   7.54080796
_cell_length_b   7.53203730
_cell_length_c   9.41702900
_cell_angle_alpha   90.00000000
_cell_angle_beta   90.00000000
_cell_angle_gamma   119.37981977
_symmetry_Int_Tables_number   1
_chemical_formula_structural   Tm3PaAl16(GaIr3)2
_chemical_formula_sum   'Tm3 Pa1 Al16 Ga2 Ir6'
_cell_volume   466.07430167
_cell_formula_units_Z   1
loop_
 _symmetry_equiv_pos_site_id
 _symmetry_equiv_pos_as_xyz
  1  'x, y, z'
loop_
 _atom_site_type_symbol
 _atom_site_label
 _atom_site_symmetry_multiplicity
 _atom_site_fract_x
 _atom_site_fract_y
 _atom_site_fract_z
 _atom_site_occupancy
  Tm  Tm0  1  0.004977  0.325025  0.750000  1
  Tm  Tm1  1  0.676880  0.994004  0.250000  1
  Tm  Tm2  1  0.325185  0.004693  0.750000  1
  Pa  Pa3  1  0.994803  0.676451  0.250000  1
  Al  Al4  1  0.001252  0.333750  0.074328  1
  Al  Al5  1  0.998816  0.663209  0.920333  1
  Al  Al6  1  0.998816  0.663209  0.579667  1
  Al  Al7  1  0.340579  0.004377  0.425741  1
  Al  Al8  1  0.001252  0.333750  0.425672  1
  Al  Al9  1  0.663986  0.999751  0.575919  1
  Al  Al10  1  0.663986  0.999751  0.924081  1
  Al  Al11  1  0.340579  0.004377  0.074259  1
  Al  Al12  1  0.332444  0.332593  0.559190  1
  Al  Al13  1  0.661793  0.664995  0.447075  1
  Al  Al14  1  0.661793  0.664995  0.052925  1
  Al  Al15  1  0.332444  0.332593  0.940810  1
  Al  Al16  1  0.338313  0.549726  0.250000  1
  Al  Al17  1  0.660537  0.447216  0.750000  1
  Al  Al18  1  0.548958  0.339441  0.250000  1
  Al  Al19  1  0.448429  0.662514  0.750000  1
  Ga  Ga20  1  0.139777  0.139379  0.250000  1
  Ga  Ga21  1  0.866299  0.868180  0.750000  1
  Ir  Ir22  1  0.673469  0.329622  0.001477  1
  Ir  Ir23  1  0.326335  0.671971  0.001379  1
  Ir  Ir24  1  0.326335  0.671971  0.498621  1
  Ir  Ir25  1  0.673469  0.329622  0.498523  1
  Ir  Ir26  1  0.999246  0.996420  0.003325  1
  Ir  Ir27  1  0.999246  0.996420  0.496675  1
