# generated using pymatgen
data_Dy8TaTi10Si16Mo
_symmetry_space_group_name_H-M   'P 1'
_cell_length_a   7.04288325
_cell_length_b   7.04288300
_cell_length_c   12.95825806
_cell_angle_alpha   89.99114079
_cell_angle_beta   90.00885974
_cell_angle_gamma   90.05589847
_symmetry_Int_Tables_number   1
_chemical_formula_structural   Dy8TaTi10Si16Mo
_chemical_formula_sum   'Dy8 Ta1 Ti10 Si16 Mo1'
_cell_volume   642.75782211
_cell_formula_units_Z   1
loop_
 _symmetry_equiv_pos_site_id
 _symmetry_equiv_pos_as_xyz
  1  'x, y, z'
loop_
 _atom_site_type_symbol
 _atom_site_label
 _atom_site_symmetry_multiplicity
 _atom_site_fract_x
 _atom_site_fract_y
 _atom_site_fract_z
 _atom_site_occupancy
  Dy  Dy0  1  0.996962  0.659715  0.032691  1
  Dy  Dy1  1  0.001500  0.341293  0.532517  1
  Dy  Dy2  1  0.659715  0.996962  0.967309  1
  Dy  Dy3  1  0.160079  0.502569  0.782775  1
  Dy  Dy4  1  0.839639  0.499008  0.284516  1
  Dy  Dy5  1  0.502569  0.160079  0.217225  1
  Dy  Dy6  1  0.499008  0.839639  0.715484  1
  Dy  Dy7  1  0.341293  0.001500  0.467483  1
  Ta  Ta8  1  0.326680  0.326680  0.000000  1
  Ti  Ti9  1  0.348011  0.508280  0.375443  1
  Ti  Ti10  1  0.846024  0.990443  0.377172  1
  Ti  Ti11  1  0.008711  0.153160  0.123568  1
  Ti  Ti12  1  0.990443  0.846024  0.622828  1
  Ti  Ti13  1  0.508280  0.348011  0.624557  1
  Ti  Ti14  1  0.153160  0.008711  0.876432  1
  Ti  Ti15  1  0.825996  0.173022  0.749550  1
  Ti  Ti16  1  0.173022  0.825996  0.250450  1
  Ti  Ti17  1  0.491931  0.651814  0.125782  1
  Ti  Ti18  1  0.651814  0.491931  0.874218  1
  Si  Si19  1  0.046784  0.709499  0.435174  1
  Si  Si20  1  0.952860  0.291635  0.934829  1
  Si  Si21  1  0.709499  0.046784  0.564826  1
  Si  Si22  1  0.207668  0.454141  0.185748  1
  Si  Si23  1  0.791432  0.547203  0.684424  1
  Si  Si24  1  0.454141  0.207668  0.814252  1
  Si  Si25  1  0.547203  0.791432  0.315576  1
  Si  Si26  1  0.291635  0.952860  0.065171  1
  Si  Si27  1  0.797868  0.870005  0.184924  1
  Si  Si28  1  0.298921  0.629183  0.565263  1
  Si  Si29  1  0.702314  0.369955  0.065408  1
  Si  Si30  1  0.629183  0.298921  0.434737  1
  Si  Si31  1  0.369955  0.702314  0.934592  1
  Si  Si32  1  0.129620  0.202104  0.315641  1
  Si  Si33  1  0.202104  0.129620  0.684359  1
  Si  Si34  1  0.870005  0.797868  0.815076  1
  Mo  Mo35  1  0.673972  0.673972  0.500000  1
