# generated using pymatgen
data_ThZn10Ag
_symmetry_space_group_name_H-M   'P 1'
_cell_length_a   8.30150777
_cell_length_b   8.30150815
_cell_length_c   8.30150716
_cell_angle_alpha   100.00498663
_cell_angle_beta   100.00498131
_cell_angle_gamma   130.73279771
_symmetry_Int_Tables_number   1
_chemical_formula_structural   ThZn10Ag
_chemical_formula_sum   'Th2 Zn20 Ag2'
_cell_volume   394.06069825
_cell_formula_units_Z   2
loop_
 _symmetry_equiv_pos_site_id
 _symmetry_equiv_pos_as_xyz
  1  'x, y, z'
loop_
 _atom_site_type_symbol
 _atom_site_label
 _atom_site_symmetry_multiplicity
 _atom_site_fract_x
 _atom_site_fract_y
 _atom_site_fract_z
 _atom_site_occupancy
  Th  Th0  1  0.000000  0.000000  0.000000  1
  Th  Th1  1  0.250000  0.750000  0.500000  1
  Zn  Zn2  1  0.125000  0.375000  0.750000  1
  Zn  Zn3  1  0.625000  0.875000  0.250000  1
  Zn  Zn4  1  0.625000  0.375000  0.750000  1
  Zn  Zn5  1  0.625000  0.375000  0.250000  1
  Zn  Zn6  1  0.179497  0.507958  0.085754  1
  Zn  Zn7  1  0.179497  0.093743  0.671540  1
  Zn  Zn8  1  0.757958  0.929497  0.585754  1
  Zn  Zn9  1  0.757958  0.172203  0.828460  1
  Zn  Zn10  1  0.422203  0.507958  0.328460  1
  Zn  Zn11  1  0.422203  0.093743  0.914246  1
  Zn  Zn12  1  0.343743  0.929497  0.171540  1
  Zn  Zn13  1  0.343743  0.172203  0.414246  1
  Zn  Zn14  1  0.070503  0.242042  0.414246  1
  Zn  Zn15  1  0.070503  0.656257  0.828460  1
  Zn  Zn16  1  0.492042  0.820503  0.914246  1
  Zn  Zn17  1  0.492042  0.577797  0.671540  1
  Zn  Zn18  1  0.827797  0.242042  0.171540  1
  Zn  Zn19  1  0.827797  0.656257  0.585754  1
  Zn  Zn20  1  0.906257  0.820503  0.328460  1
  Zn  Zn21  1  0.906257  0.577797  0.085754  1
  Ag  Ag22  1  0.750000  0.250000  0.500000  1
  Ag  Ag23  1  0.500000  0.500000  0.000000  1
