# generated using pymatgen
data_Tm13Lu3(In3Cu)2
_symmetry_space_group_name_H-M   'P 1'
_cell_length_a   10.41389300
_cell_length_b   10.41389198
_cell_length_c   6.76238900
_cell_angle_alpha   90.00000000
_cell_angle_beta   90.00000000
_cell_angle_gamma   120.00000007
_symmetry_Int_Tables_number   1
_chemical_formula_structural   Tm13Lu3(In3Cu)2
_chemical_formula_sum   'Tm13 Lu3 In6 Cu2'
_cell_volume   635.12171339
_cell_formula_units_Z   1
loop_
 _symmetry_equiv_pos_site_id
 _symmetry_equiv_pos_as_xyz
  1  'x, y, z'
loop_
 _atom_site_type_symbol
 _atom_site_label
 _atom_site_symmetry_multiplicity
 _atom_site_fract_x
 _atom_site_fract_y
 _atom_site_fract_z
 _atom_site_occupancy
  Tm  Tm0  1  0.474533  0.949065  0.018246  1
  Tm  Tm1  1  0.050935  0.525467  0.018246  1
  Tm  Tm2  1  0.474533  0.525467  0.018246  1
  Tm  Tm3  1  0.175725  0.351449  0.729040  1
  Tm  Tm4  1  0.648551  0.824275  0.729040  1
  Tm  Tm5  1  0.175725  0.824275  0.729040  1
  Tm  Tm6  1  0.824072  0.648146  0.230486  1
  Tm  Tm7  1  0.351854  0.175928  0.230486  1
  Tm  Tm8  1  0.824072  0.175928  0.230486  1
  Tm  Tm9  1  0.666667  0.333333  0.888134  1
  Tm  Tm10  1  0.333333  0.666667  0.389972  1
  Tm  Tm11  1  0.000000  0.000000  0.496896  1
  Tm  Tm12  1  0.000000  0.000000  0.996771  1
  Lu  Lu13  1  0.525354  0.050710  0.518318  1
  Lu  Lu14  1  0.949290  0.474646  0.518318  1
  Lu  Lu15  1  0.525354  0.474646  0.518318  1
  In  In16  1  0.835802  0.671605  0.751725  1
  In  In17  1  0.328395  0.164198  0.751725  1
  In  In18  1  0.835802  0.164198  0.751725  1
  In  In19  1  0.163895  0.327789  0.252048  1
  In  In20  1  0.672211  0.836105  0.252048  1
  In  In21  1  0.163895  0.836105  0.252048  1
  Cu  Cu22  1  0.666667  0.333333  0.293552  1
  Cu  Cu23  1  0.333333  0.666667  0.793094  1
