# generated using pymatgen
data_Yb3Ce(Pd2Pb)2
_symmetry_space_group_name_H-M   'P 1'
_cell_length_a   7.85776668
_cell_length_b   7.85776668
_cell_length_c   3.70472400
_cell_angle_alpha   90.00000000
_cell_angle_beta   90.00000000
_cell_angle_gamma   90.80870473
_symmetry_Int_Tables_number   1
_chemical_formula_structural   Yb3Ce(Pd2Pb)2
_chemical_formula_sum   'Yb3 Ce1 Pd4 Pb2'
_cell_volume   228.72353538
_cell_formula_units_Z   1
loop_
 _symmetry_equiv_pos_site_id
 _symmetry_equiv_pos_as_xyz
  1  'x, y, z'
loop_
 _atom_site_type_symbol
 _atom_site_label
 _atom_site_symmetry_multiplicity
 _atom_site_fract_x
 _atom_site_fract_y
 _atom_site_fract_z
 _atom_site_occupancy
  Yb  Yb0  1  0.674815  0.174815  0.500000  1
  Yb  Yb1  1  0.168469  0.328604  0.500000  1
  Yb  Yb2  1  0.828604  0.668469  0.500000  1
  Ce  Ce3  1  0.328081  0.828081  0.500000  1
  Pd  Pd4  1  0.371174  0.122505  0.000000  1
  Pd  Pd5  1  0.131286  0.631286  0.000000  1
  Pd  Pd6  1  0.622505  0.871174  0.000000  1
  Pd  Pd7  1  0.876549  0.376549  0.000000  1
  Pb  Pb8  1  0.996435  0.002082  0.000000  1
  Pb  Pb9  1  0.502082  0.496435  0.000000  1
