# generated using pymatgen
data_Dy19Tm(Sn3Pb)4
_symmetry_space_group_name_H-M   'P 1'
_cell_length_a   8.06272457
_cell_length_b   8.20470817
_cell_length_c   15.50675600
_cell_angle_alpha   89.99147341
_cell_angle_beta   90.02160302
_cell_angle_gamma   89.66880534
_symmetry_Int_Tables_number   1
_chemical_formula_structural   Dy19Tm(Sn3Pb)4
_chemical_formula_sum   'Dy19 Tm1 Sn12 Pb4'
_cell_volume   1025.79038588
_cell_formula_units_Z   1
loop_
 _symmetry_equiv_pos_site_id
 _symmetry_equiv_pos_as_xyz
  1  'x, y, z'
loop_
 _atom_site_type_symbol
 _atom_site_label
 _atom_site_symmetry_multiplicity
 _atom_site_fract_x
 _atom_site_fract_y
 _atom_site_fract_z
 _atom_site_occupancy
  Dy  Dy0  1  0.369205  0.838327  0.876099  1
  Dy  Dy1  1  0.869611  0.661315  0.623715  1
  Dy  Dy2  1  0.630456  0.161643  0.376119  1
  Dy  Dy3  1  0.130606  0.338481  0.123177  1
  Dy  Dy4  1  0.633575  0.162815  0.122722  1
  Dy  Dy5  1  0.133734  0.337346  0.377915  1
  Dy  Dy6  1  0.366083  0.837017  0.622839  1
  Dy  Dy7  1  0.866643  0.662420  0.877363  1
  Dy  Dy8  1  0.524938  0.320677  0.901138  1
  Dy  Dy9  1  0.025216  0.180075  0.598884  1
  Dy  Dy10  1  0.475086  0.679528  0.401523  1
  Dy  Dy11  1  0.975073  0.820199  0.098859  1
  Dy  Dy12  1  0.481701  0.678033  0.098567  1
  Dy  Dy13  1  0.981725  0.821741  0.401021  1
  Dy  Dy14  1  0.518313  0.322243  0.598972  1
  Dy  Dy15  1  0.018594  0.178456  0.901019  1
  Dy  Dy16  1  0.698698  0.997625  0.751273  1
  Dy  Dy17  1  0.800947  0.496992  0.248729  1
  Dy  Dy18  1  0.301079  0.002700  0.251240  1
  Tm  Tm19  1  0.199271  0.503510  0.748667  1
  Sn  Sn20  1  0.707777  0.963225  0.958468  1
  Sn  Sn21  1  0.207832  0.536507  0.542494  1
  Sn  Sn22  1  0.292534  0.036457  0.458524  1
  Sn  Sn23  1  0.792062  0.462572  0.041395  1
  Sn  Sn24  1  0.563897  0.617980  0.749972  1
  Sn  Sn25  1  0.064950  0.880979  0.750146  1
  Sn  Sn26  1  0.434669  0.381111  0.249855  1
  Sn  Sn27  1  0.935524  0.119160  0.250102  1
  Sn  Sn28  1  0.330048  0.150284  0.750330  1
  Sn  Sn29  1  0.830894  0.352157  0.749592  1
  Sn  Sn30  1  0.669371  0.851316  0.250413  1
  Sn  Sn31  1  0.169871  0.647859  0.249656  1
  Pb  Pb32  1  0.291445  0.036951  0.041202  1
  Pb  Pb33  1  0.791026  0.462184  0.458861  1
  Pb  Pb34  1  0.708647  0.962895  0.541318  1
  Pb  Pb35  1  0.208898  0.537226  0.957828  1
