# generated using pymatgen
data_LuZr(Ni2P)4
_symmetry_space_group_name_H-M   'P 1'
_cell_length_a   6.97915513
_cell_length_b   6.97915485
_cell_length_c   3.57436200
_cell_angle_alpha   90.00000000
_cell_angle_beta   90.00000000
_cell_angle_gamma   90.55761233
_symmetry_Int_Tables_number   1
_chemical_formula_structural   LuZr(Ni2P)4
_chemical_formula_sum   'Lu1 Zr1 Ni8 P4'
_cell_volume   174.09393963
_cell_formula_units_Z   1
loop_
 _symmetry_equiv_pos_site_id
 _symmetry_equiv_pos_as_xyz
  1  'x, y, z'
loop_
 _atom_site_type_symbol
 _atom_site_label
 _atom_site_symmetry_multiplicity
 _atom_site_fract_x
 _atom_site_fract_y
 _atom_site_fract_z
 _atom_site_occupancy
  Lu  Lu0  1  0.000000  0.000000  0.500000  1
  Zr  Zr1  1  0.500000  0.500000  0.000000  1
  Ni  Ni2  1  0.164507  0.584068  0.500000  1
  Ni  Ni3  1  0.835493  0.415932  0.500000  1
  Ni  Ni4  1  0.333547  0.084024  0.000000  1
  Ni  Ni5  1  0.666453  0.915976  0.000000  1
  Ni  Ni6  1  0.584068  0.164507  0.500000  1
  Ni  Ni7  1  0.415932  0.835493  0.500000  1
  Ni  Ni8  1  0.084024  0.333547  0.000000  1
  Ni  Ni9  1  0.915976  0.666453  0.000000  1
  P  P10  1  0.714967  0.714967  0.500000  1
  P  P11  1  0.285033  0.285033  0.500000  1
  P  P12  1  0.774373  0.225627  0.000000  1
  P  P13  1  0.225627  0.774373  0.000000  1
