# generated using pymatgen
data_Pr4Ho7(Er3Bi4)3
_symmetry_space_group_name_H-M   'P 1'
_cell_length_a   8.34095412
_cell_length_b   9.50110201
_cell_length_c   12.18258916
_cell_angle_alpha   90.00149254
_cell_angle_beta   89.98157872
_cell_angle_gamma   89.99539782
_symmetry_Int_Tables_number   1
_chemical_formula_structural   Pr4Ho7(Er3Bi4)3
_chemical_formula_sum   'Pr4 Ho7 Er9 Bi12'
_cell_volume   965.44888969
_cell_formula_units_Z   1
loop_
 _symmetry_equiv_pos_site_id
 _symmetry_equiv_pos_as_xyz
  1  'x, y, z'
loop_
 _atom_site_type_symbol
 _atom_site_label
 _atom_site_symmetry_multiplicity
 _atom_site_fract_x
 _atom_site_fract_y
 _atom_site_fract_z
 _atom_site_occupancy
  Pr  Pr0  1  0.170032  0.749943  0.225015  1
  Pr  Pr1  1  0.329972  0.750070  0.724955  1
  Pr  Pr2  1  0.829931  0.249961  0.775097  1
  Pr  Pr3  1  0.670007  0.250114  0.275009  1
  Ho  Ho4  1  0.310679  0.063337  0.436086  1
  Ho  Ho5  1  0.810906  0.936630  0.063853  1
  Ho  Ho6  1  0.689253  0.563321  0.563905  1
  Ho  Ho7  1  0.665597  0.750026  0.288361  1
  Ho  Ho8  1  0.834472  0.750131  0.788327  1
  Ho  Ho9  1  0.334507  0.250163  0.711790  1
  Ho  Ho10  1  0.165553  0.250103  0.211592  1
  Er  Er11  1  0.811124  0.563863  0.063889  1
  Er  Er12  1  0.688772  0.936138  0.563861  1
  Er  Er13  1  0.188760  0.063808  0.936115  1
  Er  Er14  1  0.311186  0.436110  0.436123  1
  Er  Er15  1  0.189051  0.436248  0.936136  1
  Er  Er16  1  0.478349  0.749964  0.002980  1
  Er  Er17  1  0.021570  0.750080  0.502955  1
  Er  Er18  1  0.521475  0.250017  0.996974  1
  Er  Er19  1  0.978380  0.250108  0.497091  1
  Bi  Bi20  1  0.402327  0.749448  0.464936  1
  Bi  Bi21  1  0.097918  0.749846  0.964840  1
  Bi  Bi22  1  0.597627  0.249456  0.535071  1
  Bi  Bi23  1  0.902443  0.250686  0.035009  1
  Bi  Bi24  1  0.935041  0.506263  0.329084  1
  Bi  Bi25  1  0.564974  0.993807  0.829099  1
  Bi  Bi26  1  0.065080  0.006328  0.670921  1
  Bi  Bi27  1  0.435047  0.493796  0.170877  1
  Bi  Bi28  1  0.064987  0.493891  0.670981  1
  Bi  Bi29  1  0.435078  0.006244  0.170895  1
  Bi  Bi30  1  0.935111  0.993898  0.329072  1
  Bi  Bi31  1  0.564790  0.506203  0.829102  1
