# generated using pymatgen
data_La2Yb2Cu3Sb8
_symmetry_space_group_name_H-M   'P 1'
_cell_length_a   10.87394937
_cell_length_b   10.87394879
_cell_length_c   10.85764361
_cell_angle_alpha   146.46567935
_cell_angle_beta   146.46567704
_cell_angle_gamma   48.34756637
_symmetry_Int_Tables_number   1
_chemical_formula_structural   La2Yb2Cu3Sb8
_chemical_formula_sum   'La2 Yb2 Cu3 Sb8'
_cell_volume   389.88576111
_cell_formula_units_Z   1
loop_
 _symmetry_equiv_pos_site_id
 _symmetry_equiv_pos_as_xyz
  1  'x, y, z'
loop_
 _atom_site_type_symbol
 _atom_site_label
 _atom_site_symmetry_multiplicity
 _atom_site_fract_x
 _atom_site_fract_y
 _atom_site_fract_z
 _atom_site_occupancy
  La  La0  1  0.633055  0.633055  0.502435  1
  La  La1  1  0.130619  0.130619  0.497565  1
  Yb  Yb2  1  0.362577  0.869823  0.000000  1
  Yb  Yb3  1  0.869823  0.362577  0.000000  1
  Cu  Cu4  1  0.006027  0.006027  0.000000  1
  Cu  Cu5  1  0.003434  0.503434  0.500000  1
  Cu  Cu6  1  0.503434  0.003434  0.500000  1
  Sb  Sb7  1  0.327736  0.327736  0.517427  1
  Sb  Sb8  1  0.810309  0.810309  0.482573  1
  Sb  Sb9  1  0.678324  0.182815  0.000000  1
  Sb  Sb10  1  0.182815  0.678324  0.000000  1
  Sb  Sb11  1  0.247872  0.247872  0.000000  1
  Sb  Sb12  1  0.747118  0.747118  0.000000  1
  Sb  Sb13  1  0.748428  0.248428  0.500000  1
  Sb  Sb14  1  0.248428  0.748428  0.500000  1
