# generated using pymatgen
data_Ce12Al3Si3Tc5Ru
_symmetry_space_group_name_H-M   'P 1'
_cell_length_a   7.77168061
_cell_length_b   7.78185719
_cell_length_c   9.80701774
_cell_angle_alpha   89.87865236
_cell_angle_beta   90.00677668
_cell_angle_gamma   119.95055527
_symmetry_Int_Tables_number   1
_chemical_formula_structural   Ce12Al3Si3Tc5Ru
_chemical_formula_sum   'Ce12 Al3 Si3 Tc5 Ru1'
_cell_volume   513.90250036
_cell_formula_units_Z   1
loop_
 _symmetry_equiv_pos_site_id
 _symmetry_equiv_pos_as_xyz
  1  'x, y, z'
loop_
 _atom_site_type_symbol
 _atom_site_label
 _atom_site_symmetry_multiplicity
 _atom_site_fract_x
 _atom_site_fract_y
 _atom_site_fract_z
 _atom_site_occupancy
  Ce  Ce0  1  0.002042  0.579850  0.500886  1
  Ce  Ce1  1  0.577465  0.997031  0.500935  1
  Ce  Ce2  1  0.418402  0.420869  0.500359  1
  Ce  Ce3  1  0.001888  0.422728  0.001901  1
  Ce  Ce4  1  0.419591  0.995577  0.001901  1
  Ce  Ce5  1  0.581254  0.584535  0.002417  1
  Ce  Ce6  1  0.999824  0.736223  0.179875  1
  Ce  Ce7  1  0.736356  0.000267  0.179783  1
  Ce  Ce8  1  0.265802  0.265674  0.178351  1
  Ce  Ce9  1  0.002114  0.264544  0.677817  1
  Ce  Ce10  1  0.261185  0.995620  0.677536  1
  Ce  Ce11  1  0.736706  0.739598  0.678120  1
  Al  Al12  1  0.664512  0.333149  0.769361  1
  Al  Al13  1  0.000751  0.000806  0.424492  1
  Al  Al14  1  0.000345  0.000169  0.925020  1
  Si  Si15  1  0.666872  0.333530  0.269888  1
  Si  Si16  1  0.333625  0.666812  0.267910  1
  Si  Si17  1  0.333549  0.665487  0.768088  1
  Tc  Tc18  1  0.000318  0.348120  0.335845  1
  Tc  Tc19  1  0.348219  0.000193  0.335882  1
  Tc  Tc20  1  0.651522  0.651458  0.336891  1
  Tc  Tc21  1  0.007624  0.658505  0.838937  1
  Tc  Tc22  1  0.650672  0.991605  0.839075  1
  Ru  Ru23  1  0.339363  0.347649  0.837980  1
