# generated using pymatgen
data_Li2Co9P7Ru3
_symmetry_space_group_name_H-M   'P 1'
_cell_length_a   8.91367300
_cell_length_b   8.91367216
_cell_length_c   3.60370700
_cell_angle_alpha   90.00000000
_cell_angle_beta   90.00000000
_cell_angle_gamma   120.00000683
_symmetry_Int_Tables_number   1
_chemical_formula_structural   Li2Co9P7Ru3
_chemical_formula_sum   'Li2 Co9 P7 Ru3'
_cell_volume   247.96673858
_cell_formula_units_Z   1
loop_
 _symmetry_equiv_pos_site_id
 _symmetry_equiv_pos_as_xyz
  1  'x, y, z'
loop_
 _atom_site_type_symbol
 _atom_site_label
 _atom_site_symmetry_multiplicity
 _atom_site_fract_x
 _atom_site_fract_y
 _atom_site_fract_z
 _atom_site_occupancy
  Li  Li0  1  0.000000  0.000000  0.000000  1
  Li  Li1  1  0.333333  0.666667  0.500000  1
  Co  Co2  1  0.100828  0.392846  0.000000  1
  Co  Co3  1  0.292017  0.899172  0.000000  1
  Co  Co4  1  0.607154  0.707983  0.000000  1
  Co  Co5  1  0.830766  0.617950  0.000000  1
  Co  Co6  1  0.787185  0.169234  0.000000  1
  Co  Co7  1  0.382050  0.212815  0.000000  1
  Co  Co8  1  0.057131  0.773370  0.500000  1
  Co  Co9  1  0.716239  0.942869  0.500000  1
  Co  Co10  1  0.226630  0.283761  0.500000  1
  P  P11  1  0.666667  0.333333  0.000000  1
  P  P12  1  0.085698  0.631291  0.000000  1
  P  P13  1  0.545594  0.914302  0.000000  1
  P  P14  1  0.368709  0.454406  0.000000  1
  P  P15  1  0.794548  0.749912  0.500000  1
  P  P16  1  0.955364  0.205452  0.500000  1
  P  P17  1  0.250088  0.044636  0.500000  1
  Ru  Ru18  1  0.888167  0.427484  0.500000  1
  Ru  Ru19  1  0.539316  0.111833  0.500000  1
  Ru  Ru20  1  0.572516  0.460684  0.500000  1
