# generated using pymatgen
data_Y3Hf6Zr(Si5Ir2)4
_symmetry_space_group_name_H-M   'P 1'
_cell_length_a   12.43388815
_cell_length_b   12.43388834
_cell_length_c   4.13574900
_cell_angle_alpha   90.00000000
_cell_angle_beta   90.00000000
_cell_angle_gamma   90.08614261
_symmetry_Int_Tables_number   1
_chemical_formula_structural   Y3Hf6Zr(Si5Ir2)4
_chemical_formula_sum   'Y3 Hf6 Zr1 Si20 Ir8'
_cell_volume   639.39259413
_cell_formula_units_Z   1
loop_
 _symmetry_equiv_pos_site_id
 _symmetry_equiv_pos_as_xyz
  1  'x, y, z'
loop_
 _atom_site_type_symbol
 _atom_site_label
 _atom_site_symmetry_multiplicity
 _atom_site_fract_x
 _atom_site_fract_y
 _atom_site_fract_z
 _atom_site_occupancy
  Y  Y0  1  0.115367  0.615367  0.500000  1
  Y  Y1  1  0.384027  0.116194  0.500000  1
  Y  Y2  1  0.616194  0.884027  0.500000  1
  Hf  Hf3  1  0.499742  0.500467  0.000000  1
  Hf  Hf4  1  0.000467  0.999742  0.000000  1
  Hf  Hf5  1  0.677613  0.177613  0.500000  1
  Hf  Hf6  1  0.324821  0.824821  0.500000  1
  Hf  Hf7  1  0.173780  0.324263  0.500000  1
  Hf  Hf8  1  0.824263  0.673780  0.500000  1
  Zr  Zr9  1  0.881877  0.381877  0.500000  1
  Si  Si10  1  0.568068  0.068068  0.000000  1
  Si  Si11  1  0.433079  0.933079  0.000000  1
  Si  Si12  1  0.065297  0.432524  0.000000  1
  Si  Si13  1  0.932524  0.565297  0.000000  1
  Si  Si14  1  0.664486  0.699730  0.000000  1
  Si  Si15  1  0.335744  0.299463  0.000000  1
  Si  Si16  1  0.164380  0.799162  0.000000  1
  Si  Si17  1  0.837014  0.202579  0.000000  1
  Si  Si18  1  0.299162  0.664380  0.000000  1
  Si  Si19  1  0.702579  0.337014  0.000000  1
  Si  Si20  1  0.199730  0.164486  0.000000  1
  Si  Si21  1  0.799463  0.835744  0.000000  1
  Si  Si22  1  0.652313  0.504830  0.500000  1
  Si  Si23  1  0.348517  0.491875  0.500000  1
  Si  Si24  1  0.151277  0.993289  0.500000  1
  Si  Si25  1  0.849190  0.007180  0.500000  1
  Si  Si26  1  0.493289  0.651277  0.500000  1
  Si  Si27  1  0.507180  0.349190  0.500000  1
  Si  Si28  1  0.004830  0.152313  0.500000  1
  Si  Si29  1  0.991875  0.848517  0.500000  1
  Ir  Ir30  1  0.744094  0.521492  0.000000  1
  Ir  Ir31  1  0.256471  0.477380  0.000000  1
  Ir  Ir32  1  0.242398  0.977970  0.000000  1
  Ir  Ir33  1  0.758423  0.023624  0.000000  1
  Ir  Ir34  1  0.477970  0.742398  0.000000  1
  Ir  Ir35  1  0.523624  0.258423  0.000000  1
  Ir  Ir36  1  0.021492  0.244094  0.000000  1
  Ir  Ir37  1  0.977380  0.756471  0.000000  1
