# generated using pymatgen
data_Re3Tc3Sb14
_symmetry_space_group_name_H-M   'P 1'
_cell_length_a   8.28202795
_cell_length_b   8.28216925
_cell_length_c   8.28202839
_cell_angle_alpha   109.68117739
_cell_angle_beta   109.26328504
_cell_angle_gamma   109.46877632
_symmetry_Int_Tables_number   1
_chemical_formula_structural   Re3Tc3Sb14
_chemical_formula_sum   'Re3 Tc3 Sb14'
_cell_volume   437.31417321
_cell_formula_units_Z   1
loop_
 _symmetry_equiv_pos_site_id
 _symmetry_equiv_pos_as_xyz
  1  'x, y, z'
loop_
 _atom_site_type_symbol
 _atom_site_label
 _atom_site_symmetry_multiplicity
 _atom_site_fract_x
 _atom_site_fract_y
 _atom_site_fract_z
 _atom_site_occupancy
  Re  Re0  1  0.657891  0.999828  0.658076  1
  Re  Re1  1  0.341751  0.999828  0.341937  1
  Re  Re2  1  0.659438  0.659424  0.999987  1
  Tc  Tc3  1  0.340839  0.340840  0.000002  1
  Tc  Tc4  1  0.999976  0.339456  0.339480  1
  Tc  Tc5  1  0.999967  0.660487  0.660520  1
  Sb  Sb6  1  0.749949  0.249951  0.500001  1
  Sb  Sb7  1  0.499780  0.249851  0.750072  1
  Sb  Sb8  1  0.499776  0.749709  0.249933  1
  Sb  Sb9  1  0.249750  0.499802  0.749946  1
  Sb  Sb10  1  0.749855  0.499802  0.250052  1
  Sb  Sb11  1  0.249702  0.749703  0.500001  1
  Sb  Sb12  1  0.326084  0.326840  0.326188  1
  Sb  Sb13  1  0.999960  0.000808  0.326842  1
  Sb  Sb14  1  0.326085  0.999896  0.999242  1
  Sb  Sb15  1  0.000652  0.326840  0.000756  1
  Sb  Sb16  1  0.673967  0.000808  0.000849  1
  Sb  Sb17  1  0.999957  0.673115  0.999147  1
  Sb  Sb18  1  0.000654  0.999896  0.673812  1
  Sb  Sb19  1  0.673968  0.673115  0.673158  1
