# generated using pymatgen
data_Cs5Rb5Ba2(TaP4)2
_symmetry_space_group_name_H-M   'P 1'
_cell_length_a   10.89338232
_cell_length_b   10.88926384
_cell_length_c   8.14961185
_cell_angle_alpha   88.19817156
_cell_angle_beta   88.69289514
_cell_angle_gamma   121.15846521
_symmetry_Int_Tables_number   1
_chemical_formula_structural   Cs5Rb5Ba2(TaP4)2
_chemical_formula_sum   'Cs5 Rb5 Ba2 Ta2 P8'
_cell_volume   825.98320752
_cell_formula_units_Z   1
loop_
 _symmetry_equiv_pos_site_id
 _symmetry_equiv_pos_as_xyz
  1  'x, y, z'
loop_
 _atom_site_type_symbol
 _atom_site_label
 _atom_site_symmetry_multiplicity
 _atom_site_fract_x
 _atom_site_fract_y
 _atom_site_fract_z
 _atom_site_occupancy
  Cs  Cs0  1  0.291263  0.150382  0.723784  1
  Cs  Cs1  1  0.858598  0.722027  0.656343  1
  Cs  Cs2  1  0.139239  0.866147  0.179204  1
  Cs  Cs3  1  0.721838  0.858195  0.157286  1
  Cs  Cs4  1  0.150744  0.290737  0.223956  1
  Rb  Rb5  1  0.465362  0.526963  0.498022  1
  Rb  Rb6  1  0.061088  0.528411  0.498034  1
  Rb  Rb7  1  0.527081  0.464537  0.998840  1
  Rb  Rb8  1  0.528914  0.060477  0.999604  1
  Rb  Rb9  1  0.858458  0.144204  0.679784  1
  Ba  Ba10  1  0.462828  0.930930  0.489148  1
  Ba  Ba11  1  0.932278  0.461910  0.991859  1
  Ta  Ta12  1  0.670688  0.329654  0.394718  1
  Ta  Ta13  1  0.330814  0.669145  0.890245  1
  P  P14  1  0.687481  0.340148  0.691856  1
  P  P15  1  0.338566  0.685987  0.186808  1
  P  P16  1  0.785569  0.204269  0.291609  1
  P  P17  1  0.421031  0.197193  0.326946  1
  P  P18  1  0.793585  0.570189  0.270362  1
  P  P19  1  0.206698  0.784717  0.787821  1
  P  P20  1  0.572958  0.795553  0.768823  1
  P  P21  1  0.194920  0.418224  0.823523  1
