# generated using pymatgen
data_Tb3Pa(HgPd2)2
_symmetry_space_group_name_H-M   'P 1'
_cell_length_a   3.70093500
_cell_length_b   7.77285903
_cell_length_c   7.77285948
_cell_angle_alpha   91.67751788
_cell_angle_beta   90.00000000
_cell_angle_gamma   90.00000000
_symmetry_Int_Tables_number   1
_chemical_formula_structural   Tb3Pa(HgPd2)2
_chemical_formula_sum   'Tb3 Pa1 Hg2 Pd4'
_cell_volume   223.50482181
_cell_formula_units_Z   1
loop_
 _symmetry_equiv_pos_site_id
 _symmetry_equiv_pos_as_xyz
  1  'x, y, z'
loop_
 _atom_site_type_symbol
 _atom_site_label
 _atom_site_symmetry_multiplicity
 _atom_site_fract_x
 _atom_site_fract_y
 _atom_site_fract_z
 _atom_site_occupancy
  Tb  Tb0  1  0.500000  0.823335  0.323335  1
  Tb  Tb1  1  0.500000  0.327996  0.175438  1
  Tb  Tb2  1  0.500000  0.675438  0.827996  1
  Pa  Pa3  1  0.500000  0.171324  0.671324  1
  Hg  Hg4  1  0.000000  0.999929  0.005439  1
  Hg  Hg5  1  0.000000  0.505439  0.499929  1
  Pd  Pd6  1  0.000000  0.619953  0.119953  1
  Pd  Pd7  1  0.000000  0.361712  0.861712  1
  Pd  Pd8  1  0.000000  0.883895  0.630979  1
  Pd  Pd9  1  0.000000  0.130979  0.383895  1
