# generated using pymatgen
data_MnTcSn4
_symmetry_space_group_name_H-M   'P 1'
_cell_length_a   5.45913443
_cell_length_b   5.45913453
_cell_length_c   5.45913348
_cell_angle_alpha   104.77273169
_cell_angle_beta   104.77273334
_cell_angle_gamma   119.34248425
_symmetry_Int_Tables_number   1
_chemical_formula_structural   MnTcSn4
_chemical_formula_sum   'Mn1 Tc1 Sn4'
_cell_volume   122.41192280
_cell_formula_units_Z   1
loop_
 _symmetry_equiv_pos_site_id
 _symmetry_equiv_pos_as_xyz
  1  'x, y, z'
loop_
 _atom_site_type_symbol
 _atom_site_label
 _atom_site_symmetry_multiplicity
 _atom_site_fract_x
 _atom_site_fract_y
 _atom_site_fract_z
 _atom_site_occupancy
  Mn  Mn0  1  0.250000  0.250000  0.000000  1
  Tc  Tc1  1  0.750000  0.750000  0.000000  1
  Sn  Sn2  1  0.660047  0.160047  0.820094  1
  Sn  Sn3  1  0.339953  0.839953  0.179906  1
  Sn  Sn4  1  0.839953  0.660047  0.500000  1
  Sn  Sn5  1  0.160047  0.339953  0.500000  1
