# generated using pymatgen
data_DyEr7(B6Ir)4
_symmetry_space_group_name_H-M   'P 1'
_cell_length_a   3.62345600
_cell_length_b   9.15004701
_cell_length_c   11.49074400
_cell_angle_alpha   90.00119299
_cell_angle_beta   90.00000000
_cell_angle_gamma   90.00000000
_symmetry_Int_Tables_number   1
_chemical_formula_structural   DyEr7(B6Ir)4
_chemical_formula_sum   'Dy1 Er7 B24 Ir4'
_cell_volume   380.97323567
_cell_formula_units_Z   1
loop_
 _symmetry_equiv_pos_site_id
 _symmetry_equiv_pos_as_xyz
  1  'x, y, z'
loop_
 _atom_site_type_symbol
 _atom_site_label
 _atom_site_symmetry_multiplicity
 _atom_site_fract_x
 _atom_site_fract_y
 _atom_site_fract_z
 _atom_site_occupancy
  Dy  Dy0  1  0.500000  0.322415  0.413072  1
  Er  Er1  1  0.500000  0.677791  0.586902  1
  Er  Er2  1  0.500000  0.177790  0.913124  1
  Er  Er3  1  0.500000  0.822158  0.086810  1
  Er  Er4  1  0.500000  0.444679  0.125351  1
  Er  Er5  1  0.500000  0.555392  0.874562  1
  Er  Er6  1  0.500000  0.055211  0.625730  1
  Er  Er7  1  0.500000  0.944581  0.374485  1
  B  B8  1  0.000000  0.109684  0.470124  1
  B  B9  1  0.000000  0.889626  0.530153  1
  B  B10  1  0.000000  0.389278  0.969726  1
  B  B11  1  0.000000  0.610837  0.030135  1
  B  B12  1  0.000000  0.132449  0.315693  1
  B  B13  1  0.000000  0.867114  0.684128  1
  B  B14  1  0.000000  0.367190  0.816019  1
  B  B15  1  0.000000  0.632955  0.183876  1
  B  B16  1  0.000000  0.053446  0.065834  1
  B  B17  1  0.000000  0.946482  0.934011  1
  B  B18  1  0.000000  0.446741  0.566469  1
  B  B19  1  0.000000  0.554023  0.433954  1
  B  B20  1  0.000000  0.482773  0.286621  1
  B  B21  1  0.000000  0.517893  0.713099  1
  B  B22  1  0.000000  0.017665  0.787119  1
  B  B23  1  0.000000  0.982125  0.212917  1
  B  B24  1  0.000000  0.249824  0.079013  1
  B  B25  1  0.000000  0.750123  0.920792  1
  B  B26  1  0.000000  0.249891  0.579748  1
  B  B27  1  0.000000  0.749980  0.420863  1
  B  B28  1  0.000000  0.293913  0.234372  1
  B  B29  1  0.000000  0.705901  0.765205  1
  B  B30  1  0.000000  0.205756  0.735098  1
  B  B31  1  0.000000  0.794185  0.265028  1
  Ir  Ir32  1  0.500000  0.138624  0.178448  1
  Ir  Ir33  1  0.500000  0.860993  0.821351  1
  Ir  Ir34  1  0.500000  0.360895  0.679285  1
  Ir  Ir35  1  0.500000  0.639613  0.320884  1
