# generated using pymatgen
data_LaCeY4Ta2O14
_symmetry_space_group_name_H-M   'P 1'
_cell_length_a   6.53939300
_cell_length_b   6.53939187
_cell_length_c   7.63169948
_cell_angle_alpha   90.03314034
_cell_angle_beta   89.96685691
_cell_angle_gamma   109.08350190
_symmetry_Int_Tables_number   1
_chemical_formula_structural   LaCeY4Ta2O14
_chemical_formula_sum   'La1 Ce1 Y4 Ta2 O14'
_cell_volume   308.42357369
_cell_formula_units_Z   1
loop_
 _symmetry_equiv_pos_site_id
 _symmetry_equiv_pos_as_xyz
  1  'x, y, z'
loop_
 _atom_site_type_symbol
 _atom_site_label
 _atom_site_symmetry_multiplicity
 _atom_site_fract_x
 _atom_site_fract_y
 _atom_site_fract_z
 _atom_site_occupancy
  La  La0  1  0.500000  0.500000  0.000000  1
  Ce  Ce1  1  0.500000  0.500000  0.500000  1
  Y  Y2  1  0.533069  0.000767  0.748758  1
  Y  Y3  1  0.000767  0.533069  0.251242  1
  Y  Y4  1  0.466931  0.999233  0.251242  1
  Y  Y5  1  0.999233  0.466931  0.748758  1
  Ta  Ta6  1  0.000000  0.000000  0.500000  1
  Ta  Ta7  1  0.000000  0.000000  0.000000  1
  O  O8  1  0.681620  0.933002  0.467989  1
  O  O9  1  0.933002  0.681620  0.532011  1
  O  O10  1  0.681580  0.933543  0.032179  1
  O  O11  1  0.933543  0.681580  0.967821  1
  O  O12  1  0.318380  0.066998  0.532011  1
  O  O13  1  0.066998  0.318380  0.467989  1
  O  O14  1  0.318420  0.066457  0.967821  1
  O  O15  1  0.066457  0.318420  0.032179  1
  O  O16  1  0.937479  0.062521  0.750094  1
  O  O17  1  0.062521  0.937479  0.249906  1
  O  O18  1  0.364058  0.635942  0.746675  1
  O  O19  1  0.635942  0.364058  0.253325  1
  O  O20  1  0.642968  0.357032  0.747182  1
  O  O21  1  0.357032  0.642968  0.252818  1
