# generated using pymatgen
data_Ho7Tm3(Co2Ag)2
_symmetry_space_group_name_H-M   'P 1'
_cell_length_a   8.47060383
_cell_length_b   8.49549104
_cell_length_c   8.48339509
_cell_angle_alpha   127.53128288
_cell_angle_beta   127.44839549
_cell_angle_gamma   77.45003568
_symmetry_Int_Tables_number   1
_chemical_formula_structural   Ho7Tm3(Co2Ag)2
_chemical_formula_sum   'Ho7 Tm3 Co4 Ag2'
_cell_volume   372.80546225
_cell_formula_units_Z   1
loop_
 _symmetry_equiv_pos_site_id
 _symmetry_equiv_pos_as_xyz
  1  'x, y, z'
loop_
 _atom_site_type_symbol
 _atom_site_label
 _atom_site_symmetry_multiplicity
 _atom_site_fract_x
 _atom_site_fract_y
 _atom_site_fract_z
 _atom_site_occupancy
  Ho  Ho0  1  0.472240  0.972172  0.178517  1
  Ho  Ho1  1  0.793723  0.293655  0.821483  1
  Ho  Ho2  1  0.527908  0.028167  0.821904  1
  Ho  Ho3  1  0.027162  0.206928  0.500000  1
  Ho  Ho4  1  0.294479  0.471909  0.500000  1
  Ho  Ho5  1  0.206004  0.706264  0.178096  1
  Ho  Ho6  1  0.971865  0.793351  0.500000  1
  Tm  Tm7  1  0.707083  0.528843  0.500000  1
  Tm  Tm8  1  0.999543  0.999466  0.999458  1
  Tm  Tm9  1  0.500085  0.500009  0.000542  1
  Co  Co10  1  0.135634  0.636007  0.772183  1
  Co  Co11  1  0.863451  0.363823  0.227817  1
  Co  Co12  1  0.636698  0.863156  0.500000  1
  Co  Co13  1  0.363289  0.136307  0.500000  1
  Ag  Ag14  1  0.250940  0.250493  0.001044  1
  Ag  Ag15  1  0.749896  0.749449  0.998956  1
