# generated using pymatgen
data_Sm2RuC4
_symmetry_space_group_name_H-M   'P 1'
_cell_length_a   6.79509160
_cell_length_b   6.79509093
_cell_length_c   6.79509070
_cell_angle_alpha   133.35078197
_cell_angle_beta   109.73762512
_cell_angle_gamma   88.61466003
_symmetry_Int_Tables_number   1
_chemical_formula_structural   Sm2RuC4
_chemical_formula_sum   'Sm4 Ru2 C8'
_cell_volume   204.62350274
_cell_formula_units_Z   2
loop_
 _symmetry_equiv_pos_site_id
 _symmetry_equiv_pos_as_xyz
  1  'x, y, z'
loop_
 _atom_site_type_symbol
 _atom_site_label
 _atom_site_symmetry_multiplicity
 _atom_site_fract_x
 _atom_site_fract_y
 _atom_site_fract_z
 _atom_site_occupancy
  Sm  Sm0  1  0.498241  0.349754  0.148487  1
  Sm  Sm1  1  0.501759  0.650246  0.851513  1
  Sm  Sm2  1  0.201267  0.849754  0.351513  1
  Sm  Sm3  1  0.798733  0.150246  0.648487  1
  Ru  Ru4  1  0.000000  0.250000  0.250000  1
  Ru  Ru5  1  0.000000  0.750000  0.750000  1
  C  C6  1  0.249305  0.075106  0.174200  1
  C  C7  1  0.750695  0.924894  0.825800  1
  C  C8  1  0.900905  0.575106  0.325800  1
  C  C9  1  0.099095  0.424894  0.674200  1
  C  C10  1  0.462477  0.125841  0.336636  1
  C  C11  1  0.537523  0.874159  0.663364  1
  C  C12  1  0.789205  0.625841  0.163364  1
  C  C13  1  0.210795  0.374159  0.836636  1
