# generated using pymatgen
data_CdBiRh4(PbO7)2
_symmetry_space_group_name_H-M   'P 1'
_cell_length_a   7.35876806
_cell_length_b   7.35876898
_cell_length_c   7.25232489
_cell_angle_alpha   59.00469124
_cell_angle_beta   59.00468380
_cell_angle_gamma   59.53559893
_symmetry_Int_Tables_number   1
_chemical_formula_structural   CdBiRh4(PbO7)2
_chemical_formula_sum   'Cd1 Bi1 Rh4 Pb2 O14'
_cell_volume   272.50362395
_cell_formula_units_Z   1
loop_
 _symmetry_equiv_pos_site_id
 _symmetry_equiv_pos_as_xyz
  1  'x, y, z'
loop_
 _atom_site_type_symbol
 _atom_site_label
 _atom_site_symmetry_multiplicity
 _atom_site_fract_x
 _atom_site_fract_y
 _atom_site_fract_z
 _atom_site_occupancy
  Cd  Cd0  1  0.125000  0.125000  0.625000  1
  Bi  Bi1  1  0.125000  0.125000  0.125000  1
  Rh  Rh2  1  0.625000  0.625000  0.625000  1
  Rh  Rh3  1  0.625000  0.625000  0.125000  1
  Rh  Rh4  1  0.125000  0.625000  0.625000  1
  Rh  Rh5  1  0.625000  0.125000  0.625000  1
  Pb  Pb6  1  0.125000  0.625000  0.125000  1
  Pb  Pb7  1  0.625000  0.125000  0.125000  1
  O  O8  1  0.244524  0.244524  0.258020  1
  O  O9  1  0.294074  0.709356  0.290264  1
  O  O10  1  0.955494  0.955494  0.538567  1
  O  O11  1  0.551425  0.954572  0.540280  1
  O  O12  1  0.708238  0.708238  0.288968  1
  O  O13  1  0.954572  0.551425  0.540280  1
  O  O14  1  0.698575  0.295428  0.709720  1
  O  O15  1  0.294506  0.294506  0.711433  1
  O  O16  1  0.709356  0.294074  0.290264  1
  O  O17  1  0.295428  0.698575  0.709720  1
  O  O18  1  0.955926  0.540644  0.959736  1
  O  O19  1  0.541762  0.541762  0.961032  1
  O  O20  1  0.005476  0.005476  0.991980  1
  O  O21  1  0.540644  0.955926  0.959736  1
