# generated using pymatgen
data_ZrVI6
_symmetry_space_group_name_H-M   'P 1'
_cell_length_a   7.71469300
_cell_length_b   7.71469265
_cell_length_c   6.77653200
_cell_angle_alpha   90.00000000
_cell_angle_beta   90.00000000
_cell_angle_gamma   119.99999723
_symmetry_Int_Tables_number   1
_chemical_formula_structural   ZrVI6
_chemical_formula_sum   'Zr1 V1 I6'
_cell_volume   349.28136375
_cell_formula_units_Z   1
loop_
 _symmetry_equiv_pos_site_id
 _symmetry_equiv_pos_as_xyz
  1  'x, y, z'
loop_
 _atom_site_type_symbol
 _atom_site_label
 _atom_site_symmetry_multiplicity
 _atom_site_fract_x
 _atom_site_fract_y
 _atom_site_fract_z
 _atom_site_occupancy
  Zr  Zr0  1  0.000000  0.000000  0.500000  1
  V  V1  1  0.000000  0.000000  0.000000  1
  I  I2  1  0.298225  0.000000  0.244026  1
  I  I3  1  0.298225  0.298225  0.755974  1
  I  I4  1  0.000000  0.701775  0.755974  1
  I  I5  1  0.000000  0.298225  0.244026  1
  I  I6  1  0.701775  0.701775  0.244026  1
  I  I7  1  0.701775  0.000000  0.755974  1
