# generated using pymatgen
data_Hf3Zr(ScRu2)4
_symmetry_space_group_name_H-M   'P 1'
_cell_length_a   6.43993400
_cell_length_b   4.56963200
_cell_length_c   9.15430700
_cell_angle_alpha   90.00000000
_cell_angle_beta   89.99983592
_cell_angle_gamma   90.00000000
_symmetry_Int_Tables_number   1
_chemical_formula_structural   Hf3Zr(ScRu2)4
_chemical_formula_sum   'Hf3 Zr1 Sc4 Ru8'
_cell_volume   269.39412258
_cell_formula_units_Z   1
loop_
 _symmetry_equiv_pos_site_id
 _symmetry_equiv_pos_as_xyz
  1  'x, y, z'
loop_
 _atom_site_type_symbol
 _atom_site_label
 _atom_site_symmetry_multiplicity
 _atom_site_fract_x
 _atom_site_fract_y
 _atom_site_fract_z
 _atom_site_occupancy
  Hf  Hf0  1  0.250041  0.750000  0.375412  1
  Hf  Hf1  1  0.749960  0.250000  0.625016  1
  Hf  Hf2  1  0.249959  0.750000  0.874546  1
  Zr  Zr3  1  0.750050  0.250000  0.125012  1
  Sc  Sc4  1  0.250017  0.250000  0.124963  1
  Sc  Sc5  1  0.750019  0.750000  0.375732  1
  Sc  Sc6  1  0.249984  0.250000  0.624987  1
  Sc  Sc7  1  0.749962  0.750000  0.874319  1
  Ru  Ru8  1  0.498943  0.750000  0.124992  1
  Ru  Ru9  1  0.001097  0.750000  0.124989  1
  Ru  Ru10  1  0.499436  0.250000  0.375719  1
  Ru  Ru11  1  0.000607  0.250000  0.375722  1
  Ru  Ru12  1  0.000025  0.750000  0.624998  1
  Ru  Ru13  1  0.499943  0.750000  0.624996  1
  Ru  Ru14  1  0.000578  0.250000  0.874299  1
  Ru  Ru15  1  0.499383  0.250000  0.874301  1
