# generated using pymatgen
data_Dy6Y2Si12PtRh3
_symmetry_space_group_name_H-M   'P 1'
_cell_length_a   8.17949100
_cell_length_b   8.17949162
_cell_length_c   7.94101200
_cell_angle_alpha   90.00000000
_cell_angle_beta   90.00000000
_cell_angle_gamma   119.99999345
_symmetry_Int_Tables_number   1
_chemical_formula_structural   Dy6Y2Si12PtRh3
_chemical_formula_sum   'Dy6 Y2 Si12 Pt1 Rh3'
_cell_volume   460.10727832
_cell_formula_units_Z   1
loop_
 _symmetry_equiv_pos_site_id
 _symmetry_equiv_pos_as_xyz
  1  'x, y, z'
loop_
 _atom_site_type_symbol
 _atom_site_label
 _atom_site_symmetry_multiplicity
 _atom_site_fract_x
 _atom_site_fract_y
 _atom_site_fract_z
 _atom_site_occupancy
  Dy  Dy0  1  0.016082  0.508041  0.252098  1
  Dy  Dy1  1  0.491959  0.508041  0.252098  1
  Dy  Dy2  1  0.509546  0.019092  0.747519  1
  Dy  Dy3  1  0.491959  0.983918  0.252098  1
  Dy  Dy4  1  0.509546  0.490454  0.747519  1
  Dy  Dy5  1  0.980908  0.490454  0.747519  1
  Y  Y6  1  0.000000  0.000000  0.251162  1
  Y  Y7  1  0.000000  0.000000  0.749339  1
  Si  Si8  1  0.164506  0.329012  0.000765  1
  Si  Si9  1  0.670988  0.835494  0.000765  1
  Si  Si10  1  0.167021  0.334042  0.500197  1
  Si  Si11  1  0.336276  0.168138  0.998806  1
  Si  Si12  1  0.164506  0.835494  0.000765  1
  Si  Si13  1  0.665958  0.832979  0.500197  1
  Si  Si14  1  0.831862  0.663724  0.998806  1
  Si  Si15  1  0.334036  0.167018  0.499864  1
  Si  Si16  1  0.167021  0.832979  0.500197  1
  Si  Si17  1  0.832982  0.665964  0.499864  1
  Si  Si18  1  0.831862  0.168138  0.998806  1
  Si  Si19  1  0.832982  0.167018  0.499864  1
  Pt  Pt20  1  0.333333  0.666667  0.969017  1
  Rh  Rh21  1  0.333333  0.666667  0.532897  1
  Rh  Rh22  1  0.666667  0.333333  0.036054  1
  Rh  Rh23  1  0.666667  0.333333  0.463787  1
