# generated using pymatgen
data_ErSi(AsRh2)3
_symmetry_space_group_name_H-M   'P 1'
_cell_length_a   7.22106100
_cell_length_b   7.22106138
_cell_length_c   3.80482700
_cell_angle_alpha   90.00000000
_cell_angle_beta   90.00000000
_cell_angle_gamma   119.99999366
_symmetry_Int_Tables_number   1
_chemical_formula_structural   ErSi(AsRh2)3
_chemical_formula_sum   'Er1 Si1 As3 Rh6'
_cell_volume   171.81759065
_cell_formula_units_Z   1
loop_
 _symmetry_equiv_pos_site_id
 _symmetry_equiv_pos_as_xyz
  1  'x, y, z'
loop_
 _atom_site_type_symbol
 _atom_site_label
 _atom_site_symmetry_multiplicity
 _atom_site_fract_x
 _atom_site_fract_y
 _atom_site_fract_z
 _atom_site_occupancy
  Er  Er0  1  0.000000  0.000000  0.000000  1
  Si  Si1  1  0.333333  0.666667  0.000000  1
  As  As2  1  0.810015  0.620029  0.500000  1
  As  As3  1  0.379971  0.189985  0.500000  1
  As  As4  1  0.810015  0.189985  0.500000  1
  Rh  Rh5  1  0.531710  0.063420  0.000000  1
  Rh  Rh6  1  0.598741  0.799371  0.500000  1
  Rh  Rh7  1  0.200629  0.401259  0.500000  1
  Rh  Rh8  1  0.531710  0.468290  0.000000  1
  Rh  Rh9  1  0.200629  0.799371  0.500000  1
  Rh  Rh10  1  0.936580  0.468290  0.000000  1
