# generated using pymatgen
data_La8Zn(CdAu4)5
_symmetry_space_group_name_H-M   'P 1'
_cell_length_a   8.85187252
_cell_length_b   8.85187200
_cell_length_c   10.48808900
_cell_angle_alpha   89.98039410
_cell_angle_beta   89.98039410
_cell_angle_gamma   108.57895856
_symmetry_Int_Tables_number   1
_chemical_formula_structural   La8Zn(CdAu4)5
_chemical_formula_sum   'La8 Zn1 Cd5 Au20'
_cell_volume   778.97305711
_cell_formula_units_Z   1
loop_
 _symmetry_equiv_pos_site_id
 _symmetry_equiv_pos_as_xyz
  1  'x, y, z'
loop_
 _atom_site_type_symbol
 _atom_site_label
 _atom_site_symmetry_multiplicity
 _atom_site_fract_x
 _atom_site_fract_y
 _atom_site_fract_z
 _atom_site_occupancy
  La  La0  1  0.701333  0.298667  0.000000  1
  La  La1  1  0.298667  0.701333  0.000000  1
  La  La2  1  0.797925  0.202075  0.500000  1
  La  La3  1  0.202075  0.797925  0.500000  1
  La  La4  1  0.299065  0.299065  0.205259  1
  La  La5  1  0.700935  0.700935  0.794741  1
  La  La6  1  0.199632  0.199632  0.706104  1
  La  La7  1  0.800368  0.800368  0.293896  1
  Zn  Zn8  1  0.500000  0.500000  0.500000  1
  Cd  Cd9  1  0.015202  0.515555  0.251428  1
  Cd  Cd10  1  0.984798  0.484445  0.748572  1
  Cd  Cd11  1  0.484445  0.984798  0.748572  1
  Cd  Cd12  1  0.515555  0.015202  0.251428  1
  Cd  Cd13  1  0.000000  0.000000  0.000000  1
  Au  Au14  1  0.096152  0.096152  0.405959  1
  Au  Au15  1  0.903848  0.903848  0.594041  1
  Au  Au16  1  0.404229  0.404229  0.905281  1
  Au  Au17  1  0.595771  0.595771  0.094719  1
  Au  Au18  1  0.887540  0.166185  0.207988  1
  Au  Au19  1  0.112460  0.833815  0.792012  1
  Au  Au20  1  0.608704  0.338656  0.703805  1
  Au  Au21  1  0.661344  0.391296  0.296195  1
  Au  Au22  1  0.391296  0.661344  0.296195  1
  Au  Au23  1  0.338656  0.608704  0.703805  1
  Au  Au24  1  0.833815  0.112460  0.792012  1
  Au  Au25  1  0.166185  0.887540  0.207988  1
  Au  Au26  1  0.931610  0.656352  0.020274  1
  Au  Au27  1  0.068390  0.343648  0.979726  1
  Au  Au28  1  0.568371  0.833416  0.520931  1
  Au  Au29  1  0.166584  0.431629  0.479069  1
  Au  Au30  1  0.431629  0.166584  0.479069  1
  Au  Au31  1  0.833416  0.568371  0.520931  1
  Au  Au32  1  0.343648  0.068390  0.979726  1
  Au  Au33  1  0.656352  0.931610  0.020274  1
