# generated using pymatgen
data_La5PrPdAu7
_symmetry_space_group_name_H-M   'P 1'
_cell_length_a   8.39277228
_cell_length_b   8.39214945
_cell_length_c   8.39582306
_cell_angle_alpha   114.00218549
_cell_angle_beta   113.97850999
_cell_angle_gamma   113.91528339
_symmetry_Int_Tables_number   1
_chemical_formula_structural   La5PrPdAu7
_chemical_formula_sum   'La5 Pr1 Pd1 Au7'
_cell_volume   360.19518958
_cell_formula_units_Z   1
loop_
 _symmetry_equiv_pos_site_id
 _symmetry_equiv_pos_as_xyz
  1  'x, y, z'
loop_
 _atom_site_type_symbol
 _atom_site_label
 _atom_site_symmetry_multiplicity
 _atom_site_fract_x
 _atom_site_fract_y
 _atom_site_fract_z
 _atom_site_occupancy
  La  La0  1  0.391899  0.019146  0.270201  1
  La  La1  1  0.019171  0.269815  0.392089  1
  La  La2  1  0.270389  0.392453  0.018935  1
  La  La3  1  0.607941  0.981053  0.730196  1
  La  La4  1  0.980589  0.729815  0.607490  1
  Pr  Pr5  1  0.729827  0.607430  0.981145  1
  Pd  Pd6  1  0.999866  0.999952  0.999829  1
  Au  Au7  1  0.500285  0.500211  0.500660  1
  Au  Au8  1  0.231905  0.069553  0.565346  1
  Au  Au9  1  0.069213  0.565525  0.231624  1
  Au  Au10  1  0.565374  0.231711  0.069137  1
  Au  Au11  1  0.768107  0.930377  0.434186  1
  Au  Au12  1  0.930637  0.434861  0.768533  1
  Au  Au13  1  0.434797  0.768098  0.930629  1
