# generated using pymatgen
data_SmPu2U3Co3Ni3Sb8
_symmetry_space_group_name_H-M   'P 1'
_cell_length_a   8.07483451
_cell_length_b   8.14329020
_cell_length_c   8.14329004
_cell_angle_alpha   109.59115808
_cell_angle_beta   109.42610317
_cell_angle_gamma   109.73912663
_symmetry_Int_Tables_number   1
_chemical_formula_structural   SmPu2U3Co3Ni3Sb8
_chemical_formula_sum   'Sm1 Pu2 U3 Co3 Ni3 Sb8'
_cell_volume   410.44833754
_cell_formula_units_Z   1
loop_
 _symmetry_equiv_pos_site_id
 _symmetry_equiv_pos_as_xyz
  1  'x, y, z'
loop_
 _atom_site_type_symbol
 _atom_site_label
 _atom_site_symmetry_multiplicity
 _atom_site_fract_x
 _atom_site_fract_y
 _atom_site_fract_z
 _atom_site_occupancy
  Sm  Sm0  1  0.250000  0.124044  0.874044  1
  Pu  Pu1  1  0.876799  0.253469  0.128404  1
  Pu  Pu2  1  0.623201  0.751605  0.376671  1
  U  U3  1  0.750000  0.381858  0.631858  1
  U  U4  1  0.129709  0.873909  0.250789  1
  U  U5  1  0.370291  0.621081  0.744200  1
  Co  Co6  1  0.399040  0.258480  0.616320  1
  Co  Co7  1  0.100960  0.717280  0.859441  1
  Co  Co8  1  0.250000  0.630511  0.380511  1
  Ni  Ni9  1  0.750000  0.871614  0.121614  1
  Ni  Ni10  1  0.632490  0.376400  0.269165  1
  Ni  Ni11  1  0.867510  0.136675  0.743909  1
  Sb  Sb12  1  0.661863  0.501180  0.002871  1
  Sb  Sb13  1  0.500021  0.999752  0.664661  1
  Sb  Sb14  1  0.999979  0.664640  0.499733  1
  Sb  Sb15  1  0.838137  0.841007  0.839317  1
  Sb  Sb16  1  0.495062  0.995016  0.157803  1
  Sb  Sb17  1  0.166280  0.500892  0.004125  1
  Sb  Sb18  1  0.004938  0.162741  0.499953  1
  Sb  Sb19  1  0.333720  0.337844  0.334612  1
