# generated using pymatgen
data_YTh3(CdPd2)2
_symmetry_space_group_name_H-M   'P 1'
_cell_length_a   7.89286066
_cell_length_b   7.89286094
_cell_length_c   3.81453100
_cell_angle_alpha   90.00000000
_cell_angle_beta   90.00000000
_cell_angle_gamma   90.75195107
_symmetry_Int_Tables_number   1
_chemical_formula_structural   YTh3(CdPd2)2
_chemical_formula_sum   'Y1 Th3 Cd2 Pd4'
_cell_volume   237.61433268
_cell_formula_units_Z   1
loop_
 _symmetry_equiv_pos_site_id
 _symmetry_equiv_pos_as_xyz
  1  'x, y, z'
loop_
 _atom_site_type_symbol
 _atom_site_label
 _atom_site_symmetry_multiplicity
 _atom_site_fract_x
 _atom_site_fract_y
 _atom_site_fract_z
 _atom_site_occupancy
  Y  Y0  1  0.825371  0.674629  0.500000  1
  Th  Th1  1  0.676253  0.172134  0.500000  1
  Th  Th2  1  0.327866  0.823747  0.500000  1
  Th  Th3  1  0.171079  0.328921  0.500000  1
  Cd  Cd4  1  0.998047  0.995239  0.000000  1
  Cd  Cd5  1  0.504761  0.501953  0.000000  1
  Pd  Pd6  1  0.128774  0.627866  0.000000  1
  Pd  Pd7  1  0.872134  0.371226  0.000000  1
  Pd  Pd8  1  0.624947  0.875053  0.000000  1
  Pd  Pd9  1  0.370767  0.129233  0.000000  1
