# generated using pymatgen
data_Nb7VS12
_symmetry_space_group_name_H-M   'P 1'
_cell_length_a   5.82045900
_cell_length_b   5.82045808
_cell_length_c   12.50989000
_cell_angle_alpha   90.00000000
_cell_angle_beta   90.00000000
_cell_angle_gamma   120.00001094
_symmetry_Int_Tables_number   1
_chemical_formula_structural   Nb7VS12
_chemical_formula_sum   'Nb7 V1 S12'
_cell_volume   367.02738930
_cell_formula_units_Z   1
loop_
 _symmetry_equiv_pos_site_id
 _symmetry_equiv_pos_as_xyz
  1  'x, y, z'
loop_
 _atom_site_type_symbol
 _atom_site_label
 _atom_site_symmetry_multiplicity
 _atom_site_fract_x
 _atom_site_fract_y
 _atom_site_fract_z
 _atom_site_occupancy
  Nb  Nb0  1  0.666667  0.333333  0.750000  1
  Nb  Nb1  1  0.333333  0.666667  0.496474  1
  Nb  Nb2  1  0.666667  0.333333  0.007364  1
  Nb  Nb3  1  0.666667  0.333333  0.492636  1
  Nb  Nb4  1  0.333333  0.666667  0.003526  1
  Nb  Nb5  1  0.000000  0.000000  0.493983  1
  Nb  Nb6  1  0.000000  0.000000  0.006017  1
  V  V7  1  0.333333  0.666667  0.250000  1
  S  S8  1  0.665012  0.667657  0.368263  1
  S  S9  1  0.332343  0.997356  0.368263  1
  S  S10  1  0.002644  0.334988  0.368263  1
  S  S11  1  0.998564  0.667465  0.879280  1
  S  S12  1  0.332535  0.001436  0.620720  1
  S  S13  1  0.332535  0.331097  0.879280  1
  S  S14  1  0.668903  0.001436  0.879280  1
  S  S15  1  0.332343  0.334988  0.131737  1
  S  S16  1  0.665012  0.997356  0.131737  1
  S  S17  1  0.668903  0.667465  0.620720  1
  S  S18  1  0.998564  0.331097  0.620720  1
  S  S19  1  0.002644  0.667657  0.131737  1
