# generated using pymatgen
data_Zr10NiBSb6
_symmetry_space_group_name_H-M   'P 1'
_cell_length_a   8.55666100
_cell_length_b   8.55666093
_cell_length_c   5.85569400
_cell_angle_alpha   90.00000000
_cell_angle_beta   90.00000000
_cell_angle_gamma   119.99999642
_symmetry_Int_Tables_number   1
_chemical_formula_structural   Zr10NiBSb6
_chemical_formula_sum   'Zr10 Ni1 B1 Sb6'
_cell_volume   371.29377670
_cell_formula_units_Z   1
loop_
 _symmetry_equiv_pos_site_id
 _symmetry_equiv_pos_as_xyz
  1  'x, y, z'
loop_
 _atom_site_type_symbol
 _atom_site_label
 _atom_site_symmetry_multiplicity
 _atom_site_fract_x
 _atom_site_fract_y
 _atom_site_fract_z
 _atom_site_occupancy
  Zr  Zr0  1  0.754907  0.754907  0.766037  1
  Zr  Zr1  1  0.245093  0.000000  0.766037  1
  Zr  Zr2  1  0.000000  0.245093  0.766037  1
  Zr  Zr3  1  0.245093  0.245093  0.233963  1
  Zr  Zr4  1  0.754907  0.000000  0.233963  1
  Zr  Zr5  1  0.000000  0.754907  0.233963  1
  Zr  Zr6  1  0.666667  0.333333  0.000000  1
  Zr  Zr7  1  0.333333  0.666667  0.000000  1
  Zr  Zr8  1  0.333333  0.666667  0.500000  1
  Zr  Zr9  1  0.666667  0.333333  0.500000  1
  Ni  Ni10  1  0.000000  0.000000  0.500000  1
  B  B11  1  0.000000  0.000000  0.000000  1
  Sb  Sb12  1  0.393761  0.393761  0.744491  1
  Sb  Sb13  1  0.606239  0.000000  0.744491  1
  Sb  Sb14  1  0.000000  0.606239  0.744491  1
  Sb  Sb15  1  0.606239  0.606239  0.255509  1
  Sb  Sb16  1  0.393761  0.000000  0.255509  1
  Sb  Sb17  1  0.000000  0.393761  0.255509  1
