# generated using pymatgen
data_Tb4Dy4Sc12Si15Ge
_symmetry_space_group_name_H-M   'P 1'
_cell_length_a   7.11701029
_cell_length_b   7.39920141
_cell_length_c   14.02870915
_cell_angle_alpha   90.01332386
_cell_angle_beta   89.90143926
_cell_angle_gamma   90.04139354
_symmetry_Int_Tables_number   1
_chemical_formula_structural   Tb4Dy4Sc12Si15Ge
_chemical_formula_sum   'Tb4 Dy4 Sc12 Si15 Ge1'
_cell_volume   738.75321978
_cell_formula_units_Z   1
loop_
 _symmetry_equiv_pos_site_id
 _symmetry_equiv_pos_as_xyz
  1  'x, y, z'
loop_
 _atom_site_type_symbol
 _atom_site_label
 _atom_site_symmetry_multiplicity
 _atom_site_fract_x
 _atom_site_fract_y
 _atom_site_fract_z
 _atom_site_occupancy
  Tb  Tb0  1  0.012209  0.175166  0.096984  1
  Tb  Tb1  1  0.987900  0.825015  0.902991  1
  Tb  Tb2  1  0.488148  0.675141  0.903065  1
  Tb  Tb3  1  0.987328  0.825839  0.597058  1
  Dy  Dy4  1  0.512072  0.324794  0.097153  1
  Dy  Dy5  1  0.011211  0.174647  0.402369  1
  Dy  Dy6  1  0.512659  0.323780  0.402344  1
  Dy  Dy7  1  0.490306  0.676549  0.597373  1
  Sc  Sc8  1  0.160618  0.502216  0.751196  1
  Sc  Sc9  1  0.839252  0.497724  0.250055  1
  Sc  Sc10  1  0.339469  0.002188  0.250023  1
  Sc  Sc11  1  0.660656  0.997642  0.750016  1
  Sc  Sc12  1  0.332517  0.174441  0.625970  1
  Sc  Sc13  1  0.668611  0.823896  0.374547  1
  Sc  Sc14  1  0.168305  0.677194  0.374323  1
  Sc  Sc15  1  0.669093  0.823334  0.125220  1
  Sc  Sc16  1  0.829636  0.323544  0.625280  1
  Sc  Sc17  1  0.330900  0.176459  0.874706  1
  Sc  Sc18  1  0.830775  0.323460  0.874690  1
  Sc  Sc19  1  0.169173  0.676550  0.125259  1
  Si  Si20  1  0.033573  0.118110  0.749996  1
  Si  Si21  1  0.966336  0.882696  0.249836  1
  Si  Si22  1  0.466220  0.617344  0.249911  1
  Si  Si23  1  0.533226  0.382667  0.749977  1
  Si  Si24  1  0.285668  0.873818  0.749997  1
  Si  Si25  1  0.714430  0.125973  0.249943  1
  Si  Si26  1  0.214613  0.374094  0.250149  1
  Si  Si27  1  0.785771  0.625684  0.749830  1
  Si  Si28  1  0.837498  0.536182  0.459603  1
  Si  Si29  1  0.342014  0.964627  0.460487  1
  Si  Si30  1  0.842346  0.535204  0.039489  1
  Si  Si31  1  0.657518  0.035858  0.539377  1
  Si  Si32  1  0.157236  0.464546  0.960667  1
  Si  Si33  1  0.657054  0.035815  0.960666  1
  Si  Si34  1  0.342945  0.964763  0.039505  1
  Ge  Ge35  1  0.162716  0.463041  0.539942  1
