# generated using pymatgen
data_La2InPtAu
_symmetry_space_group_name_H-M   'P 1'
_cell_length_a   8.19302443
_cell_length_b   8.19302566
_cell_length_c   3.89182600
_cell_angle_alpha   90.00000000
_cell_angle_beta   90.00000000
_cell_angle_gamma   90.93813585
_symmetry_Int_Tables_number   1
_chemical_formula_structural   La2InPtAu
_chemical_formula_sum   'La4 In2 Pt2 Au2'
_cell_volume   261.20636897
_cell_formula_units_Z   2
loop_
 _symmetry_equiv_pos_site_id
 _symmetry_equiv_pos_as_xyz
  1  'x, y, z'
loop_
 _atom_site_type_symbol
 _atom_site_label
 _atom_site_symmetry_multiplicity
 _atom_site_fract_x
 _atom_site_fract_y
 _atom_site_fract_z
 _atom_site_occupancy
  La  La0  1  0.683227  0.183227  0.500000  1
  La  La1  1  0.316773  0.816773  0.500000  1
  La  La2  1  0.166095  0.333905  0.500000  1
  La  La3  1  0.833905  0.666095  0.500000  1
  In  In4  1  0.000000  0.000000  0.000000  1
  In  In5  1  0.500000  0.500000  0.000000  1
  Pt  Pt6  1  0.127927  0.627927  0.000000  1
  Pt  Pt7  1  0.872073  0.372073  0.000000  1
  Au  Au8  1  0.626859  0.873141  0.000000  1
  Au  Au9  1  0.373141  0.126859  0.000000  1
