# generated using pymatgen
data_TbSmCo4(B2Ru)4
_symmetry_space_group_name_H-M   'P 1'
_cell_length_a   7.24722552
_cell_length_b   7.24031744
_cell_length_c   3.91068300
_cell_angle_alpha   90.00000000
_cell_angle_beta   90.00000000
_cell_angle_gamma   90.04153283
_symmetry_Int_Tables_number   1
_chemical_formula_structural   TbSmCo4(B2Ru)4
_chemical_formula_sum   'Tb1 Sm1 Co4 B8 Ru4'
_cell_volume   205.20213851
_cell_formula_units_Z   1
loop_
 _symmetry_equiv_pos_site_id
 _symmetry_equiv_pos_as_xyz
  1  'x, y, z'
loop_
 _atom_site_type_symbol
 _atom_site_label
 _atom_site_symmetry_multiplicity
 _atom_site_fract_x
 _atom_site_fract_y
 _atom_site_fract_z
 _atom_site_occupancy
  Tb  Tb0  1  0.000000  0.000000  0.904915  1
  Sm  Sm1  1  0.500000  0.500000  0.411657  1
  Co  Co2  1  0.116851  0.379345  0.623951  1
  Co  Co3  1  0.883149  0.620655  0.623951  1
  Co  Co4  1  0.119787  0.617513  0.123739  1
  Co  Co5  1  0.880213  0.382487  0.123739  1
  B  B6  1  0.820121  0.659530  0.119731  1
  B  B7  1  0.179879  0.340470  0.119731  1
  B  B8  1  0.842296  0.317798  0.620893  1
  B  B9  1  0.157704  0.682202  0.620893  1
  B  B10  1  0.732375  0.828198  0.403411  1
  B  B11  1  0.267625  0.171802  0.403411  1
  B  B12  1  0.674453  0.226774  0.903153  1
  B  B13  1  0.325547  0.773226  0.903153  1
  Ru  Ru14  1  0.388503  0.160115  0.898277  1
  Ru  Ru15  1  0.611497  0.839885  0.898277  1
  Ru  Ru16  1  0.336542  0.889310  0.398560  1
  Ru  Ru17  1  0.663458  0.110690  0.398560  1
