# generated using pymatgen
data_TbHo3Al18(NiIr)3
_symmetry_space_group_name_H-M   'P 1'
_cell_length_a   7.51124439
_cell_length_b   7.51195685
_cell_length_c   9.34346804
_cell_angle_alpha   89.98389734
_cell_angle_beta   90.00172180
_cell_angle_gamma   119.54708799
_symmetry_Int_Tables_number   1
_chemical_formula_structural   TbHo3Al18(NiIr)3
_chemical_formula_sum   'Tb1 Ho3 Al18 Ni3 Ir3'
_cell_volume   458.63554183
_cell_formula_units_Z   1
loop_
 _symmetry_equiv_pos_site_id
 _symmetry_equiv_pos_as_xyz
  1  'x, y, z'
loop_
 _atom_site_type_symbol
 _atom_site_label
 _atom_site_symmetry_multiplicity
 _atom_site_fract_x
 _atom_site_fract_y
 _atom_site_fract_z
 _atom_site_occupancy
  Tb  Tb0  1  0.994354  0.670561  0.249386  1
  Ho  Ho1  1  0.005703  0.329077  0.750246  1
  Ho  Ho2  1  0.670813  0.994357  0.249791  1
  Ho  Ho3  1  0.329377  0.005701  0.750262  1
  Al  Al4  1  0.126676  0.126943  0.245786  1
  Al  Al5  1  0.873728  0.873804  0.754539  1
  Al  Al6  1  0.997128  0.334050  0.073360  1
  Al  Al7  1  0.002697  0.665359  0.925531  1
  Al  Al8  1  0.999420  0.664915  0.575115  1
  Al  Al9  1  0.335351  0.000895  0.425788  1
  Al  Al10  1  0.000752  0.334671  0.425838  1
  Al  Al11  1  0.665033  0.999292  0.574820  1
  Al  Al12  1  0.665406  0.002800  0.926006  1
  Al  Al13  1  0.335026  0.997719  0.073401  1
  Al  Al14  1  0.333392  0.333288  0.551789  1
  Al  Al15  1  0.666563  0.666683  0.449081  1
  Al  Al16  1  0.667857  0.668323  0.050159  1
  Al  Al17  1  0.331728  0.331788  0.948842  1
  Al  Al18  1  0.340224  0.550673  0.245810  1
  Al  Al19  1  0.660134  0.449115  0.754158  1
  Al  Al20  1  0.550119  0.339184  0.245997  1
  Al  Al21  1  0.449357  0.660201  0.754088  1
  Ni  Ni22  1  0.670542  0.327731  0.999768  1
  Ni  Ni23  1  0.328398  0.672027  0.999502  1
  Ni  Ni24  1  0.999947  0.000864  0.000041  1
  Ir  Ir25  1  0.328522  0.671616  0.500243  1
  Ir  Ir26  1  0.671606  0.328184  0.500295  1
  Ir  Ir27  1  0.000145  0.000180  0.500356  1
