# generated using pymatgen
data_CaTh2Cd11
_symmetry_space_group_name_H-M   'P 1'
_cell_length_a   4.94863483
_cell_length_b   9.00616188
_cell_length_c   9.00616090
_cell_angle_alpha   68.14981187
_cell_angle_beta   74.05369722
_cell_angle_gamma   74.05370852
_symmetry_Int_Tables_number   1
_chemical_formula_structural   CaTh2Cd11
_chemical_formula_sum   'Ca1 Th2 Cd11'
_cell_volume   351.46267910
_cell_formula_units_Z   1
loop_
 _symmetry_equiv_pos_site_id
 _symmetry_equiv_pos_as_xyz
  1  'x, y, z'
loop_
 _atom_site_type_symbol
 _atom_site_label
 _atom_site_symmetry_multiplicity
 _atom_site_fract_x
 _atom_site_fract_y
 _atom_site_fract_z
 _atom_site_occupancy
  Ca  Ca0  1  0.000000  0.000000  0.000000  1
  Th  Th1  1  0.707979  0.292021  0.292021  1
  Th  Th2  1  0.292021  0.707979  0.707979  1
  Cd  Cd3  1  0.000000  0.500000  0.500000  1
  Cd  Cd4  1  0.500000  0.671240  0.328760  1
  Cd  Cd5  1  0.500000  0.328760  0.671240  1
  Cd  Cd6  1  0.657064  0.703710  0.982163  1
  Cd  Cd7  1  0.342936  0.296290  0.017837  1
  Cd  Cd8  1  0.657064  0.982163  0.703710  1
  Cd  Cd9  1  0.342936  0.017837  0.296290  1
  Cd  Cd10  1  0.860531  0.419630  0.859306  1
  Cd  Cd11  1  0.139469  0.580370  0.140694  1
  Cd  Cd12  1  0.860531  0.859306  0.419630  1
  Cd  Cd13  1  0.139469  0.140694  0.580370  1
