# generated using pymatgen
data_Tb2Lu3(FeB3)2
_symmetry_space_group_name_H-M   'P 1'
_cell_length_a   5.37172686
_cell_length_b   5.37172601
_cell_length_c   8.16338776
_cell_angle_alpha   70.79109528
_cell_angle_beta   70.79109869
_cell_angle_gamma   60.00000050
_symmetry_Int_Tables_number   1
_chemical_formula_structural   Tb2Lu3(FeB3)2
_chemical_formula_sum   'Tb2 Lu3 Fe2 B6'
_cell_volume   188.70404375
_cell_formula_units_Z   1
loop_
 _symmetry_equiv_pos_site_id
 _symmetry_equiv_pos_as_xyz
  1  'x, y, z'
loop_
 _atom_site_type_symbol
 _atom_site_label
 _atom_site_symmetry_multiplicity
 _atom_site_fract_x
 _atom_site_fract_y
 _atom_site_fract_z
 _atom_site_occupancy
  Tb  Tb0  1  0.999240  0.999240  0.002280  1
  Tb  Tb1  1  0.747223  0.747223  0.758332  1
  Lu  Lu2  1  0.250538  0.250538  0.248386  1
  Lu  Lu3  1  0.582126  0.582126  0.253623  1
  Lu  Lu4  1  0.418394  0.418394  0.744817  1
  Fe  Fe5  1  0.883151  0.883151  0.350547  1
  Fe  Fe6  1  0.116389  0.116389  0.650833  1
  B  B7  1  0.499321  0.169319  0.498530  1
  B  B8  1  0.832831  0.499321  0.498530  1
  B  B9  1  0.169319  0.832831  0.498530  1
  B  B10  1  0.169319  0.499321  0.498530  1
  B  B11  1  0.832831  0.169319  0.498530  1
  B  B12  1  0.499321  0.832831  0.498530  1
