# generated using pymatgen
data_Tb8Ag2IrPt
_symmetry_space_group_name_H-M   'P 1'
_cell_length_a   9.61237466
_cell_length_b   9.61237552
_cell_length_c   9.51443000
_cell_angle_alpha   60.33649814
_cell_angle_beta   60.33649523
_cell_angle_gamma   60.71606619
_symmetry_Int_Tables_number   1
_chemical_formula_structural   Tb8Ag2IrPt
_chemical_formula_sum   'Tb16 Ag4 Ir2 Pt2'
_cell_volume   628.11425396
_cell_formula_units_Z   2
loop_
 _symmetry_equiv_pos_site_id
 _symmetry_equiv_pos_as_xyz
  1  'x, y, z'
loop_
 _atom_site_type_symbol
 _atom_site_label
 _atom_site_symmetry_multiplicity
 _atom_site_fract_x
 _atom_site_fract_y
 _atom_site_fract_z
 _atom_site_occupancy
  Tb  Tb0  1  0.603820  0.603820  0.600655  1
  Tb  Tb1  1  0.603820  0.603820  0.191705  1
  Tb  Tb2  1  0.609510  0.181529  0.604481  1
  Tb  Tb3  1  0.181529  0.609510  0.604481  1
  Tb  Tb4  1  0.058374  0.439511  0.439057  1
  Tb  Tb5  1  0.439511  0.058374  0.063057  1
  Tb  Tb6  1  0.439511  0.058374  0.439057  1
  Tb  Tb7  1  0.058374  0.439511  0.063057  1
  Tb  Tb8  1  0.439507  0.439507  0.060493  1
  Tb  Tb9  1  0.062257  0.062257  0.437743  1
  Tb  Tb10  1  0.186696  0.815586  0.811238  1
  Tb  Tb11  1  0.815586  0.186696  0.186481  1
  Tb  Tb12  1  0.815586  0.186696  0.811238  1
  Tb  Tb13  1  0.186696  0.815586  0.186481  1
  Tb  Tb14  1  0.813834  0.813834  0.186166  1
  Tb  Tb15  1  0.187037  0.187037  0.812963  1
  Ag  Ag16  1  0.833038  0.833038  0.832396  1
  Ag  Ag17  1  0.833038  0.833038  0.501528  1
  Ag  Ag18  1  0.832279  0.503749  0.831987  1
  Ag  Ag19  1  0.503749  0.832279  0.831987  1
  Ir  Ir20  1  0.390905  0.820354  0.394371  1
  Ir  Ir21  1  0.820354  0.390905  0.394371  1
  Pt  Pt22  1  0.392495  0.392495  0.397332  1
  Pt  Pt23  1  0.392495  0.392495  0.817680  1
