# generated using pymatgen
data_Pr3In3IrPtRh
_symmetry_space_group_name_H-M   'P 1'
_cell_length_a   7.80177200
_cell_length_b   7.80177309
_cell_length_c   4.01128400
_cell_angle_alpha   90.00000000
_cell_angle_beta   90.00000000
_cell_angle_gamma   119.99999540
_symmetry_Int_Tables_number   1
_chemical_formula_structural   Pr3In3IrPtRh
_chemical_formula_sum   'Pr3 In3 Ir1 Pt1 Rh1'
_cell_volume   211.44656390
_cell_formula_units_Z   1
loop_
 _symmetry_equiv_pos_site_id
 _symmetry_equiv_pos_as_xyz
  1  'x, y, z'
loop_
 _atom_site_type_symbol
 _atom_site_label
 _atom_site_symmetry_multiplicity
 _atom_site_fract_x
 _atom_site_fract_y
 _atom_site_fract_z
 _atom_site_occupancy
  Pr  Pr0  1  0.008461  0.592035  0.500000  1
  Pr  Pr1  1  0.407965  0.416425  0.500000  1
  Pr  Pr2  1  0.583575  0.991539  0.500000  1
  In  In3  1  0.750080  0.751801  0.000000  1
  In  In4  1  0.001721  0.249920  0.000000  1
  In  In5  1  0.248199  0.998279  0.000000  1
  Ir  Ir6  1  0.333333  0.666667  0.000000  1
  Pt  Pt7  1  0.666667  0.333333  0.000000  1
  Rh  Rh8  1  0.000000  0.000000  0.500000  1
