# generated using pymatgen
data_LuTa4(Re3Tc)6
_symmetry_space_group_name_H-M   'P 1'
_cell_length_a   8.40986338
_cell_length_b   8.41701445
_cell_length_c   8.41701500
_cell_angle_alpha   109.55655187
_cell_angle_beta   109.50653320
_cell_angle_gamma   109.38500778
_symmetry_Int_Tables_number   1
_chemical_formula_structural   LuTa4(Re3Tc)6
_chemical_formula_sum   'Lu1 Ta4 Re18 Tc6'
_cell_volume   458.45611746
_cell_formula_units_Z   1
loop_
 _symmetry_equiv_pos_site_id
 _symmetry_equiv_pos_as_xyz
  1  'x, y, z'
loop_
 _atom_site_type_symbol
 _atom_site_label
 _atom_site_symmetry_multiplicity
 _atom_site_fract_x
 _atom_site_fract_y
 _atom_site_fract_z
 _atom_site_occupancy
  Lu  Lu0  1  0.000000  0.999754  0.999754  1
  Ta  Ta1  1  0.370629  0.371046  0.370479  1
  Ta  Ta2  1  0.001224  0.629116  0.999869  1
  Ta  Ta3  1  0.629371  0.999849  0.000416  1
  Ta  Ta4  1  0.998776  0.998645  0.627893  1
  Re  Re5  1  0.600667  0.601407  0.281246  1
  Re  Re6  1  0.805356  0.805497  0.181369  1
  Re  Re7  1  0.376965  0.194575  0.000191  1
  Re  Re8  1  0.194644  0.376013  0.000142  1
  Re  Re9  1  0.621430  0.816492  0.621927  1
  Re  Re10  1  0.378570  0.000496  0.195062  1
  Re  Re11  1  0.000202  0.378313  0.196068  1
  Re  Re12  1  0.817703  0.621720  0.621646  1
  Re  Re13  1  0.182297  0.803943  0.804016  1
  Re  Re14  1  0.803849  0.180427  0.804648  1
  Re  Re15  1  0.196151  0.000798  0.376578  1
  Re  Re16  1  0.999798  0.195866  0.378110  1
  Re  Re17  1  0.623035  0.623226  0.817610  1
  Re  Re18  1  0.399545  0.000120  0.680962  1
  Re  Re19  1  0.600455  0.281418  0.600576  1
  Re  Re20  1  0.682321  0.401257  0.001899  1
  Re  Re21  1  0.399333  0.680578  0.000740  1
  Re  Re22  1  0.317679  0.319578  0.718936  1
  Tc  Tc23  1  0.999429  0.400018  0.683026  1
  Tc  Tc24  1  0.281660  0.599485  0.599395  1
  Tc  Tc25  1  0.718340  0.317736  0.317826  1
  Tc  Tc26  1  0.317341  0.717927  0.318439  1
  Tc  Tc27  1  0.682659  0.001099  0.400588  1
  Tc  Tc28  1  0.000571  0.683598  0.400589  1
