# generated using pymatgen
data_Dy16In4OsRu3
_symmetry_space_group_name_H-M   'P 1'
_cell_length_a   9.68219645
_cell_length_b   9.68219802
_cell_length_c   9.68219572
_cell_angle_alpha   59.58823888
_cell_angle_beta   59.58823154
_cell_angle_gamma   59.58824052
_symmetry_Int_Tables_number   1
_chemical_formula_structural   Dy16In4OsRu3
_chemical_formula_sum   'Dy16 In4 Os1 Ru3'
_cell_volume   635.80327426
_cell_formula_units_Z   1
loop_
 _symmetry_equiv_pos_site_id
 _symmetry_equiv_pos_as_xyz
  1  'x, y, z'
loop_
 _atom_site_type_symbol
 _atom_site_label
 _atom_site_symmetry_multiplicity
 _atom_site_fract_x
 _atom_site_fract_y
 _atom_site_fract_z
 _atom_site_occupancy
  Dy  Dy0  1  0.598469  0.598469  0.598469  1
  Dy  Dy1  1  0.598526  0.598526  0.206910  1
  Dy  Dy2  1  0.598526  0.206910  0.598526  1
  Dy  Dy3  1  0.206910  0.598526  0.598526  1
  Dy  Dy4  1  0.058250  0.441261  0.441261  1
  Dy  Dy5  1  0.439224  0.057714  0.057714  1
  Dy  Dy6  1  0.441261  0.058250  0.441261  1
  Dy  Dy7  1  0.057714  0.439224  0.057714  1
  Dy  Dy8  1  0.441261  0.441261  0.058250  1
  Dy  Dy9  1  0.057714  0.057714  0.439224  1
  Dy  Dy10  1  0.189411  0.809100  0.809100  1
  Dy  Dy11  1  0.804526  0.193437  0.193437  1
  Dy  Dy12  1  0.809100  0.189411  0.809100  1
  Dy  Dy13  1  0.193437  0.804526  0.193437  1
  Dy  Dy14  1  0.809100  0.809100  0.189411  1
  Dy  Dy15  1  0.193437  0.193437  0.804526  1
  In  In16  1  0.832184  0.832184  0.832184  1
  In  In17  1  0.832103  0.832103  0.502167  1
  In  In18  1  0.832103  0.502167  0.832103  1
  In  In19  1  0.502167  0.832103  0.832103  1
  Os  Os20  1  0.389521  0.389521  0.389521  1
  Ru  Ru21  1  0.390794  0.390794  0.833471  1
  Ru  Ru22  1  0.390794  0.833471  0.390794  1
  Ru  Ru23  1  0.833471  0.390794  0.390794  1
