# generated using pymatgen
data_Tm5(RhO6)2
_symmetry_space_group_name_H-M   'P 1'
_cell_length_a   5.86025800
_cell_length_b   6.76425459
_cell_length_c   7.17070593
_cell_angle_alpha   105.50563185
_cell_angle_beta   90.00000000
_cell_angle_gamma   115.66943934
_symmetry_Int_Tables_number   1
_chemical_formula_structural   Tm5(RhO6)2
_chemical_formula_sum   'Tm5 Rh2 O12'
_cell_volume   244.66695136
_cell_formula_units_Z   1
loop_
 _symmetry_equiv_pos_site_id
 _symmetry_equiv_pos_as_xyz
  1  'x, y, z'
loop_
 _atom_site_type_symbol
 _atom_site_label
 _atom_site_symmetry_multiplicity
 _atom_site_fract_x
 _atom_site_fract_y
 _atom_site_fract_z
 _atom_site_occupancy
  Tm  Tm0  1  0.810015  0.620031  0.172271  1
  Tm  Tm1  1  0.199022  0.398044  0.360869  1
  Tm  Tm2  1  0.500000  0.000000  0.500000  1
  Tm  Tm3  1  0.800978  0.601957  0.639131  1
  Tm  Tm4  1  0.189984  0.379968  0.827728  1
  Rh  Rh5  1  0.252787  0.000000  0.000000  1
  Rh  Rh6  1  0.747213  0.000000  0.000000  1
  O  O7  1  0.402589  0.336495  0.086550  1
  O  O8  1  0.933907  0.336495  0.086550  1
  O  O9  1  0.000438  0.000876  0.195051  1
  O  O10  1  0.499174  0.998350  0.186043  1
  O  O11  1  0.098491  0.695918  0.427424  1
  O  O12  1  0.597427  0.695918  0.427424  1
  O  O13  1  0.402574  0.304081  0.572575  1
  O  O14  1  0.901508  0.304081  0.572575  1
  O  O15  1  0.500825  0.001650  0.813958  1
  O  O16  1  0.999562  0.999124  0.804950  1
  O  O17  1  0.066094  0.663505  0.913450  1
  O  O18  1  0.597411  0.663505  0.913450  1
