# generated using pymatgen
data_TbLu2Fe8Co3B4
_symmetry_space_group_name_H-M   'P 1'
_cell_length_a   5.03168903
_cell_length_b   5.03125097
_cell_length_c   9.96240200
_cell_angle_alpha   89.99988250
_cell_angle_beta   90.00015953
_cell_angle_gamma   119.99710916
_symmetry_Int_Tables_number   1
_chemical_formula_structural   TbLu2Fe8Co3B4
_chemical_formula_sum   'Tb1 Lu2 Fe8 Co3 B4'
_cell_volume   218.42237167
_cell_formula_units_Z   1
loop_
 _symmetry_equiv_pos_site_id
 _symmetry_equiv_pos_as_xyz
  1  'x, y, z'
loop_
 _atom_site_type_symbol
 _atom_site_label
 _atom_site_symmetry_multiplicity
 _atom_site_fract_x
 _atom_site_fract_y
 _atom_site_fract_z
 _atom_site_occupancy
  Tb  Tb0  1  0.999988  0.000000  0.000034  1
  Lu  Lu1  1  0.999993  0.000000  0.348273  1
  Lu  Lu2  1  0.999999  0.999998  0.651692  1
  Fe  Fe3  1  0.333343  0.666675  0.000032  1
  Fe  Fe4  1  0.666636  0.333325  0.000029  1
  Fe  Fe5  1  0.500000  0.000019  0.203606  1
  Fe  Fe6  1  0.500003  0.499992  0.203577  1
  Fe  Fe7  1  0.999974  0.499994  0.203592  1
  Fe  Fe8  1  0.500004  0.000016  0.796429  1
  Fe  Fe9  1  0.500005  0.499988  0.796410  1
  Fe  Fe10  1  0.999980  0.499993  0.796407  1
  Co  Co11  1  0.499998  0.000000  0.499968  1
  Co  Co12  1  0.499998  0.499999  0.499998  1
  Co  Co13  1  0.999996  0.499998  0.499998  1
  B  B14  1  0.333304  0.666641  0.353186  1
  B  B15  1  0.666684  0.333360  0.353186  1
  B  B16  1  0.666621  0.333281  0.646791  1
  B  B17  1  0.333376  0.666720  0.646792  1
