# generated using pymatgen
data_CaHo(Si7Rh3)2
_symmetry_space_group_name_H-M   'P 1'
_cell_length_a   7.99224514
_cell_length_b   7.99224360
_cell_length_c   7.99224558
_cell_angle_alpha   57.08581994
_cell_angle_beta   57.08581913
_cell_angle_gamma   57.08580663
_symmetry_Int_Tables_number   1
_chemical_formula_structural   CaHo(Si7Rh3)2
_chemical_formula_sum   'Ca1 Ho1 Si14 Rh6'
_cell_volume   336.74084874
_cell_formula_units_Z   1
loop_
 _symmetry_equiv_pos_site_id
 _symmetry_equiv_pos_as_xyz
  1  'x, y, z'
loop_
 _atom_site_type_symbol
 _atom_site_label
 _atom_site_symmetry_multiplicity
 _atom_site_fract_x
 _atom_site_fract_y
 _atom_site_fract_z
 _atom_site_occupancy
  Ca  Ca0  1  0.000000  0.000000  0.000000  1
  Ho  Ho1  1  0.500000  0.500000  0.500000  1
  Si  Si2  1  0.749971  0.749971  0.749971  1
  Si  Si3  1  0.250029  0.250029  0.250029  1
  Si  Si4  1  0.851566  0.065689  0.672822  1
  Si  Si5  1  0.672822  0.851566  0.065689  1
  Si  Si6  1  0.065689  0.672822  0.851566  1
  Si  Si7  1  0.649219  0.827924  0.434334  1
  Si  Si8  1  0.434334  0.649219  0.827924  1
  Si  Si9  1  0.827924  0.434334  0.649219  1
  Si  Si10  1  0.172076  0.565666  0.350781  1
  Si  Si11  1  0.565666  0.350781  0.172076  1
  Si  Si12  1  0.350781  0.172076  0.565666  1
  Si  Si13  1  0.934311  0.327178  0.148434  1
  Si  Si14  1  0.327178  0.148434  0.934311  1
  Si  Si15  1  0.148434  0.934311  0.327178  1
  Rh  Rh16  1  0.071439  0.431435  0.748518  1
  Rh  Rh17  1  0.251482  0.928561  0.568565  1
  Rh  Rh18  1  0.568565  0.251482  0.928561  1
  Rh  Rh19  1  0.928561  0.568565  0.251482  1
  Rh  Rh20  1  0.431435  0.748518  0.071439  1
  Rh  Rh21  1  0.748518  0.071439  0.431435  1
