# generated using pymatgen
data_KMn3AlO8
_symmetry_space_group_name_H-M   'P 1'
_cell_length_a   2.92824930
_cell_length_b   7.10770557
_cell_length_c   7.13299293
_cell_angle_alpha   92.22149466
_cell_angle_beta   101.82576198
_cell_angle_gamma   78.09140577
_symmetry_Int_Tables_number   1
_chemical_formula_structural   KMn3AlO8
_chemical_formula_sum   'K1 Mn3 Al1 O8'
_cell_volume   142.18062924
_cell_formula_units_Z   1
loop_
 _symmetry_equiv_pos_site_id
 _symmetry_equiv_pos_as_xyz
  1  'x, y, z'
loop_
 _atom_site_type_symbol
 _atom_site_label
 _atom_site_symmetry_multiplicity
 _atom_site_fract_x
 _atom_site_fract_y
 _atom_site_fract_z
 _atom_site_occupancy
  K  K0  1  0.032866  0.009105  0.003591  1
  Mn  Mn1  1  0.349167  0.512577  0.175153  1
  Mn  Mn2  1  0.872054  0.811143  0.519980  1
  Mn  Mn3  1  0.170330  0.182658  0.487638  1
  Al  Al4  1  0.681063  0.487049  0.813687  1
  O  O5  1  0.975848  0.371689  0.287798  1
  O  O6  1  0.060521  0.621831  0.707595  1
  O  O7  1  0.684538  0.291420  0.625073  1
  O  O8  1  0.351448  0.709474  0.376828  1
  O  O9  1  0.719472  0.644679  0.047730  1
  O  O10  1  0.313084  0.359513  0.949132  1
  O  O11  1  0.673343  0.047514  0.357845  1
  O  O12  1  0.366265  0.951348  0.647950  1
