# generated using pymatgen
data_Y12Er4Cd4Co3Ir
_symmetry_space_group_name_H-M   'P 1'
_cell_length_a   9.54909421
_cell_length_b   9.51326951
_cell_length_c   9.51327000
_cell_angle_alpha   59.99999828
_cell_angle_beta   60.12402393
_cell_angle_gamma   60.12402815
_symmetry_Int_Tables_number   1
_chemical_formula_structural   Y12Er4Cd4Co3Ir
_chemical_formula_sum   'Y12 Er4 Cd4 Co3 Ir1'
_cell_volume   612.23536196
_cell_formula_units_Z   1
loop_
 _symmetry_equiv_pos_site_id
 _symmetry_equiv_pos_as_xyz
  1  'x, y, z'
loop_
 _atom_site_type_symbol
 _atom_site_label
 _atom_site_symmetry_multiplicity
 _atom_site_fract_x
 _atom_site_fract_y
 _atom_site_fract_z
 _atom_site_occupancy
  Y  Y0  1  0.815538  0.188991  0.188991  1
  Y  Y1  1  0.189058  0.811401  0.811401  1
  Y  Y2  1  0.189058  0.811401  0.188139  1
  Y  Y3  1  0.815538  0.188991  0.806480  1
  Y  Y4  1  0.189058  0.188139  0.811401  1
  Y  Y5  1  0.815538  0.806480  0.188991  1
  Y  Y6  1  0.937337  0.562295  0.562295  1
  Y  Y7  1  0.561986  0.938608  0.938608  1
  Y  Y8  1  0.561986  0.938608  0.560798  1
  Y  Y9  1  0.937337  0.562295  0.938074  1
  Y  Y10  1  0.561986  0.560798  0.938608  1
  Y  Y11  1  0.937337  0.938074  0.562295  1
  Er  Er12  1  0.342416  0.349516  0.349516  1
  Er  Er13  1  0.342416  0.349516  0.958553  1
  Er  Er14  1  0.342416  0.958553  0.349516  1
  Er  Er15  1  0.961950  0.346017  0.346017  1
  Cd  Cd16  1  0.580332  0.579952  0.579952  1
  Cd  Cd17  1  0.580332  0.579952  0.259764  1
  Cd  Cd18  1  0.580332  0.259764  0.579952  1
  Cd  Cd19  1  0.259545  0.580152  0.580152  1
  Co  Co20  1  0.142289  0.142549  0.142549  1
  Co  Co21  1  0.142289  0.142549  0.572614  1
  Co  Co22  1  0.142289  0.572614  0.142549  1
  Ir  Ir23  1  0.571641  0.142787  0.142787  1
