# generated using pymatgen
data_NaDy6IrBr12
_symmetry_space_group_name_H-M   'P 1'
_cell_length_a   9.23447799
_cell_length_b   9.24240553
_cell_length_c   9.23665358
_cell_angle_alpha   107.12678567
_cell_angle_beta   107.02895614
_cell_angle_gamma   107.09282362
_symmetry_Int_Tables_number   1
_chemical_formula_structural   NaDy6IrBr12
_chemical_formula_sum   'Na1 Dy6 Ir1 Br12'
_cell_volume   655.04483316
_cell_formula_units_Z   1
loop_
 _symmetry_equiv_pos_site_id
 _symmetry_equiv_pos_as_xyz
  1  'x, y, z'
loop_
 _atom_site_type_symbol
 _atom_site_label
 _atom_site_symmetry_multiplicity
 _atom_site_fract_x
 _atom_site_fract_y
 _atom_site_fract_z
 _atom_site_occupancy
  Na  Na0  1  0.500000  0.500000  0.500000  1
  Dy  Dy1  1  0.107918  0.319781  0.032220  1
  Dy  Dy2  1  0.319287  0.032248  0.107997  1
  Dy  Dy3  1  0.032488  0.107757  0.319466  1
  Dy  Dy4  1  0.967513  0.892243  0.680535  1
  Dy  Dy5  1  0.680713  0.967753  0.892003  1
  Dy  Dy6  1  0.892082  0.680219  0.967780  1
  Ir  Ir7  1  0.000000  0.000000  0.000000  1
  Br  Br8  1  0.219957  0.681442  0.073633  1
  Br  Br9  1  0.451515  0.372765  0.147460  1
  Br  Br10  1  0.681565  0.073664  0.220142  1
  Br  Br11  1  0.926435  0.779914  0.318599  1
  Br  Br12  1  0.147422  0.451470  0.372765  1
  Br  Br13  1  0.372788  0.147445  0.451525  1
  Br  Br14  1  0.627212  0.852555  0.548476  1
  Br  Br15  1  0.852579  0.548530  0.627235  1
  Br  Br16  1  0.073566  0.220086  0.681402  1
  Br  Br17  1  0.318436  0.926337  0.779858  1
  Br  Br18  1  0.548485  0.627235  0.852541  1
  Br  Br19  1  0.780043  0.318558  0.926367  1
