# generated using pymatgen
data_Tm2InB2Rh5
_symmetry_space_group_name_H-M   'P 1'
_cell_length_a   9.59894900
_cell_length_b   9.59894900
_cell_length_c   3.22850500
_cell_angle_alpha   90.00000000
_cell_angle_beta   90.00000000
_cell_angle_gamma   90.00000000
_symmetry_Int_Tables_number   1
_chemical_formula_structural   Tm2InB2Rh5
_chemical_formula_sum   'Tm4 In2 B4 Rh10'
_cell_volume   297.47387572
_cell_formula_units_Z   2
loop_
 _symmetry_equiv_pos_site_id
 _symmetry_equiv_pos_as_xyz
  1  'x, y, z'
loop_
 _atom_site_type_symbol
 _atom_site_label
 _atom_site_symmetry_multiplicity
 _atom_site_fract_x
 _atom_site_fract_y
 _atom_site_fract_z
 _atom_site_occupancy
  Tm  Tm0  1  0.674600  0.174600  0.000000  1
  Tm  Tm1  1  0.325400  0.825400  0.000000  1
  Tm  Tm2  1  0.174600  0.325400  0.000000  1
  Tm  Tm3  1  0.825400  0.674600  0.000000  1
  In  In4  1  0.000000  0.000000  0.000000  1
  In  In5  1  0.500000  0.500000  0.000000  1
  B  B6  1  0.121534  0.621534  0.000000  1
  B  B7  1  0.878466  0.378466  0.000000  1
  B  B8  1  0.621534  0.878466  0.000000  1
  B  B9  1  0.378466  0.121534  0.000000  1
  Rh  Rh10  1  0.500000  0.000000  0.500000  1
  Rh  Rh11  1  0.000000  0.500000  0.500000  1
  Rh  Rh12  1  0.225658  0.071342  0.500000  1
  Rh  Rh13  1  0.774342  0.928658  0.500000  1
  Rh  Rh14  1  0.071342  0.774342  0.500000  1
  Rh  Rh15  1  0.725658  0.428658  0.500000  1
  Rh  Rh16  1  0.928658  0.225658  0.500000  1
  Rh  Rh17  1  0.274342  0.571342  0.500000  1
  Rh  Rh18  1  0.571342  0.725658  0.500000  1
  Rh  Rh19  1  0.428658  0.274342  0.500000  1
