# generated using pymatgen
data_YI9
_symmetry_space_group_name_H-M   'P 1'
_cell_length_a   10.48615842
_cell_length_b   10.48615892
_cell_length_c   10.48615988
_cell_angle_alpha   87.61811603
_cell_angle_beta   87.61810732
_cell_angle_gamma   87.61812294
_symmetry_Int_Tables_number   1
_chemical_formula_structural   YI9
_chemical_formula_sum   'Y2 I18'
_cell_volume   1150.14489369
_cell_formula_units_Z   2
loop_
 _symmetry_equiv_pos_site_id
 _symmetry_equiv_pos_as_xyz
  1  'x, y, z'
loop_
 _atom_site_type_symbol
 _atom_site_label
 _atom_site_symmetry_multiplicity
 _atom_site_fract_x
 _atom_site_fract_y
 _atom_site_fract_z
 _atom_site_occupancy
  Y  Y0  1  0.000000  0.000000  0.000000  1
  Y  Y1  1  0.500000  0.500000  0.500000  1
  I  I2  1  0.710246  0.995073  0.039929  1
  I  I3  1  0.747697  0.126093  0.608419  1
  I  I4  1  0.039929  0.710246  0.995073  1
  I  I5  1  0.252303  0.873907  0.391581  1
  I  I6  1  0.126093  0.608419  0.747697  1
  I  I7  1  0.004927  0.960071  0.289754  1
  I  I8  1  0.608419  0.747697  0.126093  1
  I  I9  1  0.960071  0.289754  0.004927  1
  I  I10  1  0.873907  0.391581  0.252303  1
  I  I11  1  0.391581  0.252303  0.873907  1
  I  I12  1  0.995073  0.039929  0.710246  1
  I  I13  1  0.289754  0.004927  0.960071  1
  I  I14  1  0.789798  0.518886  0.488356  1
  I  I15  1  0.511644  0.210202  0.481114  1
  I  I16  1  0.481114  0.511644  0.210202  1
  I  I17  1  0.488356  0.789798  0.518886  1
  I  I18  1  0.518886  0.488356  0.789798  1
  I  I19  1  0.210202  0.481114  0.511644  1
