# generated using pymatgen
data_Yb3LuTi4O12
_symmetry_space_group_name_H-M   'P 1'
_cell_length_a   5.31600107
_cell_length_b   5.50667210
_cell_length_c   7.61613000
_cell_angle_alpha   90.00000000
_cell_angle_beta   90.00000000
_cell_angle_gamma   89.82814308
_symmetry_Int_Tables_number   1
_chemical_formula_structural   Yb3LuTi4O12
_chemical_formula_sum   'Yb3 Lu1 Ti4 O12'
_cell_volume   222.94958647
_cell_formula_units_Z   1
loop_
 _symmetry_equiv_pos_site_id
 _symmetry_equiv_pos_as_xyz
  1  'x, y, z'
loop_
 _atom_site_type_symbol
 _atom_site_label
 _atom_site_symmetry_multiplicity
 _atom_site_fract_x
 _atom_site_fract_y
 _atom_site_fract_z
 _atom_site_occupancy
  Yb  Yb0  1  0.513046  0.944006  0.750000  1
  Yb  Yb1  1  0.485215  0.056335  0.250000  1
  Yb  Yb2  1  0.012737  0.553234  0.250000  1
  Lu  Lu3  1  0.984475  0.434558  0.750000  1
  Ti  Ti4  1  0.002154  0.997844  0.001643  1
  Ti  Ti5  1  0.002154  0.997844  0.498357  1
  Ti  Ti6  1  0.497171  0.501320  0.001774  1
  Ti  Ti7  1  0.497171  0.501320  0.498226  1
  O  O8  1  0.090312  0.036057  0.750000  1
  O  O9  1  0.200965  0.296764  0.043980  1
  O  O10  1  0.200965  0.296764  0.456020  1
  O  O11  1  0.301275  0.798215  0.453691  1
  O  O12  1  0.301275  0.798215  0.046309  1
  O  O13  1  0.389095  0.527207  0.750000  1
  O  O14  1  0.586101  0.476667  0.250000  1
  O  O15  1  0.707359  0.209787  0.947535  1
  O  O16  1  0.707359  0.209787  0.552465  1
  O  O17  1  0.805885  0.695877  0.556253  1
  O  O18  1  0.805885  0.695877  0.943747  1
  O  O19  1  0.909402  0.972325  0.250000  1
