# generated using pymatgen
data_Dy2Mn4Ni8P7
_symmetry_space_group_name_H-M   'P 1'
_cell_length_a   9.14379500
_cell_length_b   9.12956075
_cell_length_c   3.66816800
_cell_angle_alpha   90.00000000
_cell_angle_beta   90.00000000
_cell_angle_gamma   120.05181092
_symmetry_Int_Tables_number   1
_chemical_formula_structural   Dy2Mn4Ni8P7
_chemical_formula_sum   'Dy2 Mn4 Ni8 P7'
_cell_volume   265.05087313
_cell_formula_units_Z   1
loop_
 _symmetry_equiv_pos_site_id
 _symmetry_equiv_pos_as_xyz
  1  'x, y, z'
loop_
 _atom_site_type_symbol
 _atom_site_label
 _atom_site_symmetry_multiplicity
 _atom_site_fract_x
 _atom_site_fract_y
 _atom_site_fract_z
 _atom_site_occupancy
  Dy  Dy0  1  0.667772  0.333471  0.000000  1
  Dy  Dy1  1  0.331619  0.665084  0.500000  1
  Mn  Mn2  1  0.843959  0.119897  0.000000  1
  Mn  Mn3  1  0.120369  0.902439  0.500000  1
  Mn  Mn4  1  0.100599  0.221735  0.500000  1
  Mn  Mn5  1  0.776186  0.875999  0.500000  1
  Ni  Ni6  1  0.375139  0.940151  0.000000  1
  Ni  Ni7  1  0.063260  0.435626  0.000000  1
  Ni  Ni8  1  0.566083  0.627821  0.000000  1
  Ni  Ni9  1  0.877887  0.723121  0.000000  1
  Ni  Ni10  1  0.278395  0.154395  0.000000  1
  Ni  Ni11  1  0.947387  0.563138  0.500000  1
  Ni  Ni12  1  0.437122  0.386100  0.500000  1
  Ni  Ni13  1  0.614441  0.050616  0.500000  1
  P  P14  1  0.113566  0.705823  0.000000  1
  P  P15  1  0.293669  0.406666  0.000000  1
  P  P16  1  0.592681  0.887766  0.000000  1
  P  P17  1  0.709512  0.594786  0.500000  1
  P  P18  1  0.404277  0.114500  0.500000  1
  P  P19  1  0.886403  0.287924  0.500000  1
  P  P20  1  0.999674  0.002943  0.000000  1
