# generated using pymatgen
data_Sc10Cu3Ni
_symmetry_space_group_name_H-M   'P 1'
_cell_length_a   8.61037500
_cell_length_b   8.61037520
_cell_length_c   8.75030100
_cell_angle_alpha   90.00000000
_cell_angle_beta   90.00000000
_cell_angle_gamma   119.99999541
_symmetry_Int_Tables_number   1
_chemical_formula_structural   Sc10Cu3Ni
_chemical_formula_sum   'Sc20 Cu6 Ni2'
_cell_volume   561.82076496
_cell_formula_units_Z   2
loop_
 _symmetry_equiv_pos_site_id
 _symmetry_equiv_pos_as_xyz
  1  'x, y, z'
loop_
 _atom_site_type_symbol
 _atom_site_label
 _atom_site_symmetry_multiplicity
 _atom_site_fract_x
 _atom_site_fract_y
 _atom_site_fract_z
 _atom_site_occupancy
  Sc  Sc0  1  0.000000  0.000000  0.500000  1
  Sc  Sc1  1  0.000000  0.000000  0.000000  1
  Sc  Sc2  1  0.542682  0.457318  0.250000  1
  Sc  Sc3  1  0.542682  0.085362  0.250000  1
  Sc  Sc4  1  0.914638  0.457318  0.250000  1
  Sc  Sc5  1  0.457318  0.542682  0.750000  1
  Sc  Sc6  1  0.457318  0.914638  0.750000  1
  Sc  Sc7  1  0.085362  0.542682  0.750000  1
  Sc  Sc8  1  0.206188  0.793812  0.440920  1
  Sc  Sc9  1  0.206188  0.412376  0.440920  1
  Sc  Sc10  1  0.587624  0.793812  0.440920  1
  Sc  Sc11  1  0.793812  0.206188  0.559080  1
  Sc  Sc12  1  0.793812  0.587624  0.559080  1
  Sc  Sc13  1  0.412376  0.206188  0.559080  1
  Sc  Sc14  1  0.793812  0.206188  0.940920  1
  Sc  Sc15  1  0.793812  0.587624  0.940920  1
  Sc  Sc16  1  0.412376  0.206188  0.940920  1
  Sc  Sc17  1  0.206188  0.793812  0.059080  1
  Sc  Sc18  1  0.206188  0.412376  0.059080  1
  Sc  Sc19  1  0.587624  0.793812  0.059080  1
  Cu  Cu20  1  0.887329  0.112671  0.250000  1
  Cu  Cu21  1  0.887329  0.774659  0.250000  1
  Cu  Cu22  1  0.225341  0.112671  0.250000  1
  Cu  Cu23  1  0.112671  0.887329  0.750000  1
  Cu  Cu24  1  0.112671  0.225341  0.750000  1
  Cu  Cu25  1  0.774659  0.887329  0.750000  1
  Ni  Ni26  1  0.333333  0.666667  0.250000  1
  Ni  Ni27  1  0.666667  0.333333  0.750000  1
