# generated using pymatgen
data_YEr4Tl2(InPd)2
_symmetry_space_group_name_H-M   'P 1'
_cell_length_a   3.61516400
_cell_length_b   8.19578000
_cell_length_c   18.27701300
_cell_angle_alpha   90.00000000
_cell_angle_beta   90.00000000
_cell_angle_gamma   90.00000000
_symmetry_Int_Tables_number   1
_chemical_formula_structural   YEr4Tl2(InPd)2
_chemical_formula_sum   'Y2 Er8 Tl4 In4 Pd4'
_cell_volume   541.53124132
_cell_formula_units_Z   2
loop_
 _symmetry_equiv_pos_site_id
 _symmetry_equiv_pos_as_xyz
  1  'x, y, z'
loop_
 _atom_site_type_symbol
 _atom_site_label
 _atom_site_symmetry_multiplicity
 _atom_site_fract_x
 _atom_site_fract_y
 _atom_site_fract_z
 _atom_site_occupancy
  Y  Y0  1  0.000000  0.500000  0.500000  1
  Y  Y1  1  0.000000  0.000000  0.000000  1
  Er  Er2  1  0.000000  0.740301  0.281987  1
  Er  Er3  1  0.000000  0.259699  0.718013  1
  Er  Er4  1  0.000000  0.759699  0.781987  1
  Er  Er5  1  0.000000  0.240301  0.218013  1
  Er  Er6  1  0.000000  0.616923  0.085832  1
  Er  Er7  1  0.000000  0.383077  0.914168  1
  Er  Er8  1  0.000000  0.883077  0.585832  1
  Er  Er9  1  0.000000  0.116923  0.414168  1
  Tl  Tl10  1  0.500000  0.706553  0.933883  1
  Tl  Tl11  1  0.500000  0.293447  0.066117  1
  Tl  Tl12  1  0.500000  0.793447  0.433883  1
  Tl  Tl13  1  0.500000  0.206553  0.566117  1
  In  In14  1  0.500000  0.584629  0.651452  1
  In  In15  1  0.500000  0.415371  0.348548  1
  In  In16  1  0.500000  0.915371  0.151452  1
  In  In17  1  0.500000  0.084629  0.848548  1
  Pd  Pd18  1  0.500000  0.527895  0.197760  1
  Pd  Pd19  1  0.500000  0.472105  0.802240  1
  Pd  Pd20  1  0.500000  0.972105  0.697760  1
  Pd  Pd21  1  0.500000  0.027895  0.302240  1
