# generated using pymatgen
data_Li4GdY3O8
_symmetry_space_group_name_H-M   'P 1'
_cell_length_a   3.41191400
_cell_length_b   5.32997233
_cell_length_c   11.30985298
_cell_angle_alpha   90.10740040
_cell_angle_beta   90.00000000
_cell_angle_gamma   90.00000000
_symmetry_Int_Tables_number   1
_chemical_formula_structural   Li4GdY3O8
_chemical_formula_sum   'Li4 Gd1 Y3 O8'
_cell_volume   205.67392081
_cell_formula_units_Z   1
loop_
 _symmetry_equiv_pos_site_id
 _symmetry_equiv_pos_as_xyz
  1  'x, y, z'
loop_
 _atom_site_type_symbol
 _atom_site_label
 _atom_site_symmetry_multiplicity
 _atom_site_fract_x
 _atom_site_fract_y
 _atom_site_fract_z
 _atom_site_occupancy
  Li  Li0  1  0.750000  0.402426  0.065571  1
  Li  Li1  1  0.250000  0.902129  0.434468  1
  Li  Li2  1  0.750000  0.097494  0.566505  1
  Li  Li3  1  0.250000  0.597880  0.932933  1
  Gd  Gd4  1  0.250000  0.952167  0.140810  1
  Y  Y5  1  0.250000  0.546051  0.640891  1
  Y  Y6  1  0.750000  0.453535  0.361182  1
  Y  Y7  1  0.750000  0.046367  0.858834  1
  O  O8  1  0.250000  0.243247  0.971738  1
  O  O9  1  0.250000  0.256943  0.473515  1
  O  O10  1  0.750000  0.755574  0.024434  1
  O  O11  1  0.750000  0.742170  0.527458  1
  O  O12  1  0.250000  0.807025  0.794544  1
  O  O13  1  0.750000  0.198300  0.205198  1
  O  O14  1  0.750000  0.307033  0.704648  1
  O  O15  1  0.250000  0.691659  0.297270  1
