# generated using pymatgen
data_Pr3Er5Cd2OsPt
_symmetry_space_group_name_H-M   'P 1'
_cell_length_a   9.73905810
_cell_length_b   9.73905789
_cell_length_c   9.77860100
_cell_angle_alpha   59.86559313
_cell_angle_beta   59.86559386
_cell_angle_gamma   59.89339840
_symmetry_Int_Tables_number   1
_chemical_formula_structural   Pr3Er5Cd2OsPt
_chemical_formula_sum   'Pr6 Er10 Cd4 Os2 Pt2'
_cell_volume   653.97427404
_cell_formula_units_Z   2
loop_
 _symmetry_equiv_pos_site_id
 _symmetry_equiv_pos_as_xyz
  1  'x, y, z'
loop_
 _atom_site_type_symbol
 _atom_site_label
 _atom_site_symmetry_multiplicity
 _atom_site_fract_x
 _atom_site_fract_y
 _atom_site_fract_z
 _atom_site_occupancy
  Pr  Pr0  1  0.940762  0.553831  0.562492  1
  Pr  Pr1  1  0.553831  0.940762  0.942914  1
  Pr  Pr2  1  0.553831  0.940762  0.562492  1
  Pr  Pr3  1  0.940762  0.553831  0.942914  1
  Pr  Pr4  1  0.560183  0.560183  0.939817  1
  Pr  Pr5  1  0.942494  0.942494  0.557506  1
  Er  Er6  1  0.347365  0.347365  0.351184  1
  Er  Er7  1  0.347365  0.347365  0.954086  1
  Er  Er8  1  0.343453  0.962454  0.347046  1
  Er  Er9  1  0.962454  0.343453  0.347046  1
  Er  Er10  1  0.817179  0.185284  0.188207  1
  Er  Er11  1  0.185284  0.817179  0.809330  1
  Er  Er12  1  0.185284  0.817179  0.188207  1
  Er  Er13  1  0.817179  0.185284  0.809330  1
  Er  Er14  1  0.185457  0.185457  0.814543  1
  Er  Er15  1  0.810776  0.810776  0.189224  1
  Cd  Cd16  1  0.578741  0.578741  0.579333  1
  Cd  Cd17  1  0.578741  0.578741  0.263184  1
  Cd  Cd18  1  0.579290  0.261654  0.579527  1
  Cd  Cd19  1  0.261654  0.579290  0.579527  1
  Os  Os20  1  0.143565  0.143565  0.137210  1
  Os  Os21  1  0.143565  0.143565  0.575661  1
  Pt  Pt22  1  0.144288  0.576492  0.139610  1
  Pt  Pt23  1  0.576492  0.144288  0.139610  1
