# generated using pymatgen
data_V5Fe(AsO4)6
_symmetry_space_group_name_H-M   'P 1'
_cell_length_a   9.42529327
_cell_length_b   9.42529243
_cell_length_c   9.42178035
_cell_angle_alpha   138.70467377
_cell_angle_beta   109.24874132
_cell_angle_gamma   85.37780503
_symmetry_Int_Tables_number   1
_chemical_formula_structural   V5Fe(AsO4)6
_chemical_formula_sum   'V5 Fe1 As6 O24'
_cell_volume   502.38147798
_cell_formula_units_Z   1
loop_
 _symmetry_equiv_pos_site_id
 _symmetry_equiv_pos_as_xyz
  1  'x, y, z'
loop_
 _atom_site_type_symbol
 _atom_site_label
 _atom_site_symmetry_multiplicity
 _atom_site_fract_x
 _atom_site_fract_y
 _atom_site_fract_z
 _atom_site_occupancy
  V  V0  1  0.999777  0.499102  0.499268  1
  V  V1  1  0.499834  0.000510  0.500732  1
  V  V2  1  0.884883  0.884883  0.500000  1
  V  V3  1  0.613625  0.113625  0.000000  1
  V  V4  1  0.115204  0.115204  0.500000  1
  Fe  Fe5  1  0.386206  0.886206  0.000000  1
  As  As6  1  0.249003  0.815612  0.565485  1
  As  As7  1  0.750127  0.183518  0.434515  1
  As  As8  1  0.823419  0.323419  0.000000  1
  As  As9  1  0.676465  0.676465  0.500000  1
  As  As10  1  0.177112  0.677112  0.000000  1
  As  As11  1  0.324002  0.324002  0.500000  1
  O  O12  1  0.121596  0.975207  0.596949  1
  O  O13  1  0.378308  0.969875  0.851461  1
  O  O14  1  0.618414  0.026847  0.148539  1
  O  O15  1  0.878260  0.024649  0.403051  1
  O  O16  1  0.145414  0.577488  0.431886  1
  O  O17  1  0.356136  0.787850  0.435810  1
  O  O18  1  0.852040  0.420326  0.564190  1
  O  O19  1  0.645602  0.213528  0.568114  1
  O  O20  1  0.140211  0.404880  0.827004  1
  O  O21  1  0.354565  0.183534  0.259271  1
  O  O22  1  0.424262  0.595293  0.740729  1
  O  O23  1  0.077876  0.813208  0.172996  1
  O  O24  1  0.652965  0.811103  0.431183  1
  O  O25  1  0.847298  0.276421  0.156960  1
  O  O26  1  0.619462  0.190339  0.843040  1
  O  O27  1  0.879921  0.721783  0.568817  1
  O  O28  1  0.347562  0.190666  0.570487  1
  O  O29  1  0.151820  0.724515  0.843746  1
  O  O30  1  0.380768  0.808074  0.156254  1
  O  O31  1  0.120180  0.277075  0.429513  1
  O  O32  1  0.923188  0.186812  0.828125  1
  O  O33  1  0.573858  0.406719  0.254769  1
  O  O34  1  0.651949  0.819089  0.745231  1
  O  O35  1  0.858687  0.595063  0.171875  1
