# generated using pymatgen
data_Rb3BaAs3PPt4
_symmetry_space_group_name_H-M   'P 1'
_cell_length_a   6.79903816
_cell_length_b   6.79903804
_cell_length_c   6.79903766
_cell_angle_alpha   89.49449343
_cell_angle_beta   89.49450318
_cell_angle_gamma   89.49449147
_symmetry_Int_Tables_number   1
_chemical_formula_structural   Rb3BaAs3PPt4
_chemical_formula_sum   'Rb3 Ba1 As3 P1 Pt4'
_cell_volume   314.26208081
_cell_formula_units_Z   1
loop_
 _symmetry_equiv_pos_site_id
 _symmetry_equiv_pos_as_xyz
  1  'x, y, z'
loop_
 _atom_site_type_symbol
 _atom_site_label
 _atom_site_symmetry_multiplicity
 _atom_site_fract_x
 _atom_site_fract_y
 _atom_site_fract_z
 _atom_site_occupancy
  Rb  Rb0  1  0.622714  0.384167  0.868998  1
  Rb  Rb1  1  0.384167  0.868998  0.622714  1
  Rb  Rb2  1  0.868998  0.622714  0.384167  1
  Ba  Ba3  1  0.125084  0.125084  0.125084  1
  As  As4  1  0.587258  0.909596  0.095730  1
  As  As5  1  0.095730  0.587258  0.909596  1
  As  As6  1  0.909596  0.095730  0.587258  1
  P  P7  1  0.399471  0.399471  0.399471  1
  Pt  Pt8  1  0.162490  0.350139  0.639158  1
  Pt  Pt9  1  0.639158  0.162490  0.350139  1
  Pt  Pt10  1  0.855197  0.855197  0.855197  1
  Pt  Pt11  1  0.350139  0.639158  0.162490  1
