# generated using pymatgen
data_Zr10Sn3GeSb3
_symmetry_space_group_name_H-M   'P 1'
_cell_length_a   5.87183802
_cell_length_b   8.61137247
_cell_length_c   8.61065002
_cell_angle_alpha   119.99929230
_cell_angle_beta   90.00427438
_cell_angle_gamma   89.99436464
_symmetry_Int_Tables_number   1
_chemical_formula_structural   Zr10Sn3GeSb3
_chemical_formula_sum   'Zr10 Sn3 Ge1 Sb3'
_cell_volume   377.06489795
_cell_formula_units_Z   1
loop_
 _symmetry_equiv_pos_site_id
 _symmetry_equiv_pos_as_xyz
  1  'x, y, z'
loop_
 _atom_site_type_symbol
 _atom_site_label
 _atom_site_symmetry_multiplicity
 _atom_site_fract_x
 _atom_site_fract_y
 _atom_site_fract_z
 _atom_site_occupancy
  Zr  Zr0  1  0.499756  0.333313  0.666667  1
  Zr  Zr1  1  0.499762  0.666678  0.333355  1
  Zr  Zr2  1  0.001177  0.666663  0.333310  1
  Zr  Zr3  1  0.001182  0.333342  0.666666  1
  Zr  Zr4  1  0.760720  0.257434  0.999988  1
  Zr  Zr5  1  0.760686  0.742576  0.742551  1
  Zr  Zr6  1  0.760707  0.000010  0.257444  1
  Zr  Zr7  1  0.239080  0.742232  0.000009  1
  Zr  Zr8  1  0.239119  0.257763  0.257797  1
  Zr  Zr9  1  0.239096  0.999985  0.742218  1
  Sn  Sn10  1  0.251900  0.389691  0.000004  1
  Sn  Sn11  1  0.251821  0.610316  0.610318  1
  Sn  Sn12  1  0.251856  0.000002  0.389709  1
  Ge  Ge13  1  0.498707  0.999999  0.999993  1
  Sb  Sb14  1  0.748109  0.609514  0.999996  1
  Sb  Sb15  1  0.748159  0.390492  0.390495  1
  Sb  Sb16  1  0.748160  0.999988  0.609481  1
