# generated using pymatgen
data_Mg2PIr2
_symmetry_space_group_name_H-M   'P 1'
_cell_length_a   5.40590476
_cell_length_b   5.40590658
_cell_length_c   7.04256938
_cell_angle_alpha   81.28192700
_cell_angle_beta   81.28192443
_cell_angle_gamma   58.88254192
_symmetry_Int_Tables_number   1
_chemical_formula_structural   Mg2PIr2
_chemical_formula_sum   'Mg4 P2 Ir4'
_cell_volume   173.50727136
_cell_formula_units_Z   2
loop_
 _symmetry_equiv_pos_site_id
 _symmetry_equiv_pos_as_xyz
  1  'x, y, z'
loop_
 _atom_site_type_symbol
 _atom_site_label
 _atom_site_symmetry_multiplicity
 _atom_site_fract_x
 _atom_site_fract_y
 _atom_site_fract_z
 _atom_site_occupancy
  Mg  Mg0  1  0.976332  0.723807  0.148824  1
  Mg  Mg1  1  0.276193  0.023668  0.351176  1
  Mg  Mg2  1  0.023668  0.276193  0.851176  1
  Mg  Mg3  1  0.723807  0.976332  0.648824  1
  P  P4  1  0.417739  0.582261  0.750000  1
  P  P5  1  0.582261  0.417739  0.250000  1
  Ir  Ir6  1  0.483981  0.768363  0.995387  1
  Ir  Ir7  1  0.231637  0.516019  0.504613  1
  Ir  Ir8  1  0.516019  0.231637  0.004613  1
  Ir  Ir9  1  0.768363  0.483981  0.495387  1
