# generated using pymatgen
data_CeSm2In3CuRh2
_symmetry_space_group_name_H-M   'P 1'
_cell_length_a   7.53162573
_cell_length_b   7.53162508
_cell_length_c   3.97332800
_cell_angle_alpha   90.00000000
_cell_angle_beta   90.00000000
_cell_angle_gamma   118.37665965
_symmetry_Int_Tables_number   1
_chemical_formula_structural   CeSm2In3CuRh2
_chemical_formula_sum   'Ce1 Sm2 In3 Cu1 Rh2'
_cell_volume   198.30636582
_cell_formula_units_Z   1
loop_
 _symmetry_equiv_pos_site_id
 _symmetry_equiv_pos_as_xyz
  1  'x, y, z'
loop_
 _atom_site_type_symbol
 _atom_site_label
 _atom_site_symmetry_multiplicity
 _atom_site_fract_x
 _atom_site_fract_y
 _atom_site_fract_z
 _atom_site_occupancy
  Ce  Ce0  1  0.578690  0.578690  0.500000  1
  Sm  Sm1  1  0.413519  0.999810  0.500000  1
  Sm  Sm2  1  0.999810  0.413519  0.500000  1
  In  In3  1  0.751070  0.005664  0.000000  1
  In  In4  1  0.005664  0.751070  0.000000  1
  In  In5  1  0.241058  0.241058  0.000000  1
  Cu  Cu6  1  0.994931  0.994931  0.500000  1
  Rh  Rh7  1  0.352867  0.662392  0.000000  1
  Rh  Rh8  1  0.662392  0.352867  0.000000  1
