# generated using pymatgen
data_Ti2ZnC
_symmetry_space_group_name_H-M   'P 1'
_cell_length_a   8.40823312
_cell_length_b   8.40823405
_cell_length_c   4.25848600
_cell_angle_alpha   90.00000000
_cell_angle_beta   90.00000000
_cell_angle_gamma   159.11621484
_symmetry_Int_Tables_number   1
_chemical_formula_structural   Ti2ZnC
_chemical_formula_sum   'Ti4 Zn2 C2'
_cell_volume   107.32283481
_cell_formula_units_Z   2
loop_
 _symmetry_equiv_pos_site_id
 _symmetry_equiv_pos_as_xyz
  1  'x, y, z'
loop_
 _atom_site_type_symbol
 _atom_site_label
 _atom_site_symmetry_multiplicity
 _atom_site_fract_x
 _atom_site_fract_y
 _atom_site_fract_z
 _atom_site_occupancy
  Ti  Ti0  1  0.787746  0.212254  0.250000  1
  Ti  Ti1  1  0.212254  0.787746  0.750000  1
  Ti  Ti2  1  0.612682  0.387318  0.250000  1
  Ti  Ti3  1  0.387318  0.612682  0.750000  1
  Zn  Zn4  1  0.957239  0.042761  0.250000  1
  Zn  Zn5  1  0.042761  0.957239  0.750000  1
  C  C6  1  0.197969  0.802031  0.250000  1
  C  C7  1  0.802031  0.197969  0.750000  1
