# generated using pymatgen
data_La2Y4RuBr10
_symmetry_space_group_name_H-M   'P 1'
_cell_length_a   7.53341340
_cell_length_b   9.48445521
_cell_length_c   9.35418578
_cell_angle_alpha   107.53926797
_cell_angle_beta   95.21074651
_cell_angle_gamma   106.93752379
_symmetry_Int_Tables_number   1
_chemical_formula_structural   La2Y4RuBr10
_chemical_formula_sum   'La2 Y4 Ru1 Br10'
_cell_volume   597.84195942
_cell_formula_units_Z   1
loop_
 _symmetry_equiv_pos_site_id
 _symmetry_equiv_pos_as_xyz
  1  'x, y, z'
loop_
 _atom_site_type_symbol
 _atom_site_label
 _atom_site_symmetry_multiplicity
 _atom_site_fract_x
 _atom_site_fract_y
 _atom_site_fract_z
 _atom_site_occupancy
  La  La0  1  0.124401  0.047279  0.763411  1
  La  La1  1  0.875599  0.952721  0.236589  1
  Y  Y2  1  0.977980  0.304972  0.098225  1
  Y  Y3  1  0.022020  0.695028  0.901775  1
  Y  Y4  1  0.368106  0.141860  0.180224  1
  Y  Y5  1  0.631894  0.858140  0.819776  1
  Ru  Ru6  1  0.000000  0.000000  0.000000  1
  Br  Br7  1  0.554354  0.175296  0.921445  1
  Br  Br8  1  0.445646  0.824704  0.078555  1
  Br  Br9  1  0.353314  0.450874  0.270833  1
  Br  Br10  1  0.646686  0.549126  0.729167  1
  Br  Br11  1  0.267439  0.088360  0.451013  1
  Br  Br12  1  0.732561  0.911640  0.548987  1
  Br  Br13  1  0.786511  0.265756  0.343166  1
  Br  Br14  1  0.213489  0.734244  0.656834  1
  Br  Br15  1  0.085054  0.378823  0.835196  1
  Br  Br16  1  0.914946  0.621177  0.164804  1
