# generated using pymatgen
data_Ho12InFe2Co2Ni
_symmetry_space_group_name_H-M   'P 1'
_cell_length_a   8.28627142
_cell_length_b   8.28631068
_cell_length_c   8.28627307
_cell_angle_alpha   110.26163589
_cell_angle_beta   110.57569368
_cell_angle_gamma   107.59248037
_symmetry_Int_Tables_number   1
_chemical_formula_structural   Ho12InFe2Co2Ni
_chemical_formula_sum   'Ho12 In1 Fe2 Co2 Ni1'
_cell_volume   437.62935142
_cell_formula_units_Z   1
loop_
 _symmetry_equiv_pos_site_id
 _symmetry_equiv_pos_as_xyz
  1  'x, y, z'
loop_
 _atom_site_type_symbol
 _atom_site_label
 _atom_site_symmetry_multiplicity
 _atom_site_fract_x
 _atom_site_fract_y
 _atom_site_fract_z
 _atom_site_occupancy
  Ho  Ho0  1  0.314802  0.618389  0.303587  1
  Ho  Ho1  1  0.685198  0.381611  0.696413  1
  Ho  Ho2  1  0.314802  0.011212  0.696412  1
  Ho  Ho3  1  0.685198  0.988788  0.303588  1
  Ho  Ho4  1  0.185955  0.291734  0.477689  1
  Ho  Ho5  1  0.814045  0.708266  0.522311  1
  Ho  Ho6  1  0.185956  0.708266  0.894221  1
  Ho  Ho7  1  0.814044  0.291734  0.105779  1
  Ho  Ho8  1  0.407371  0.211545  0.195824  1
  Ho  Ho9  1  0.592629  0.788455  0.804176  1
  Ho  Ho10  1  0.015722  0.211545  0.804175  1
  Ho  Ho11  1  0.984278  0.788455  0.195825  1
  In  In12  1  0.500000  0.500000  0.000000  1
  Fe  Fe13  1  0.108968  0.608969  0.500001  1
  Fe  Fe14  1  0.891032  0.391031  0.499999  1
  Co  Co15  1  0.379994  0.000000  0.379994  1
  Co  Co16  1  0.620006  0.000000  0.620006  1
  Ni  Ni17  1  0.000000  0.000000  0.000000  1
