# generated using pymatgen
data_Ce10AgSn6Br
_symmetry_space_group_name_H-M   'P 1'
_cell_length_a   6.60039900
_cell_length_b   9.53064106
_cell_length_c   9.53064200
_cell_angle_alpha   120.00000327
_cell_angle_beta   90.00000000
_cell_angle_gamma   90.00000000
_symmetry_Int_Tables_number   1
_chemical_formula_structural   Ce10AgSn6Br
_chemical_formula_sum   'Ce10 Ag1 Sn6 Br1'
_cell_volume   519.21242550
_cell_formula_units_Z   1
loop_
 _symmetry_equiv_pos_site_id
 _symmetry_equiv_pos_as_xyz
  1  'x, y, z'
loop_
 _atom_site_type_symbol
 _atom_site_label
 _atom_site_symmetry_multiplicity
 _atom_site_fract_x
 _atom_site_fract_y
 _atom_site_fract_z
 _atom_site_occupancy
  Ce  Ce0  1  0.752174  0.720892  0.720892  1
  Ce  Ce1  1  0.247826  0.279108  0.279108  1
  Ce  Ce2  1  0.752174  0.000000  0.279108  1
  Ce  Ce3  1  0.247826  0.000000  0.720892  1
  Ce  Ce4  1  0.752174  0.279108  0.000000  1
  Ce  Ce5  1  0.247826  0.720892  0.000000  1
  Ce  Ce6  1  0.000000  0.666667  0.333333  1
  Ce  Ce7  1  0.000000  0.333333  0.666667  1
  Ce  Ce8  1  0.500000  0.333333  0.666667  1
  Ce  Ce9  1  0.500000  0.666667  0.333333  1
  Ag  Ag10  1  0.500000  0.000000  0.000000  1
  Sn  Sn11  1  0.746768  0.376904  0.376904  1
  Sn  Sn12  1  0.253232  0.623096  0.623096  1
  Sn  Sn13  1  0.746768  0.000000  0.623096  1
  Sn  Sn14  1  0.253232  0.000000  0.376904  1
  Sn  Sn15  1  0.746768  0.623096  0.000000  1
  Sn  Sn16  1  0.253232  0.376904  0.000000  1
  Br  Br17  1  0.000000  0.000000  0.000000  1
