# generated using pymatgen
data_Ho5Er6Sc(Si3Rh)4
_symmetry_space_group_name_H-M   'P 1'
_cell_length_a   4.18655800
_cell_length_b   10.64912000
_cell_length_c   12.23438701
_cell_angle_alpha   89.87840221
_cell_angle_beta   90.00000000
_cell_angle_gamma   90.00000000
_symmetry_Int_Tables_number   1
_chemical_formula_structural   Ho5Er6Sc(Si3Rh)4
_chemical_formula_sum   'Ho5 Er6 Sc1 Si12 Rh4'
_cell_volume   545.44638731
_cell_formula_units_Z   1
loop_
 _symmetry_equiv_pos_site_id
 _symmetry_equiv_pos_as_xyz
  1  'x, y, z'
loop_
 _atom_site_type_symbol
 _atom_site_label
 _atom_site_symmetry_multiplicity
 _atom_site_fract_x
 _atom_site_fract_y
 _atom_site_fract_z
 _atom_site_occupancy
  Ho  Ho0  1  0.750000  0.120661  0.977577  1
  Ho  Ho1  1  0.750000  0.377229  0.482046  1
  Ho  Ho2  1  0.750000  0.079144  0.398507  1
  Ho  Ho3  1  0.750000  0.419696  0.895677  1
  Ho  Ho4  1  0.750000  0.339240  0.199204  1
  Er  Er5  1  0.250000  0.879739  0.018850  1
  Er  Er6  1  0.250000  0.620689  0.519867  1
  Er  Er7  1  0.250000  0.921870  0.604137  1
  Er  Er8  1  0.250000  0.579915  0.103313  1
  Er  Er9  1  0.250000  0.660162  0.800432  1
  Er  Er10  1  0.250000  0.840628  0.300688  1
  Sc  Sc11  1  0.750000  0.161106  0.701709  1
  Si  Si12  1  0.250000  0.016675  0.820287  1
  Si  Si13  1  0.250000  0.485251  0.322465  1
  Si  Si14  1  0.750000  0.986070  0.177529  1
  Si  Si15  1  0.750000  0.515227  0.677580  1
  Si  Si16  1  0.250000  0.246132  0.836764  1
  Si  Si17  1  0.250000  0.251464  0.343694  1
  Si  Si18  1  0.750000  0.752495  0.158275  1
  Si  Si19  1  0.750000  0.747756  0.657962  1
  Si  Si20  1  0.250000  0.196870  0.549548  1
  Si  Si21  1  0.250000  0.300703  0.040153  1
  Si  Si22  1  0.750000  0.801037  0.458390  1
  Si  Si23  1  0.750000  0.699143  0.957688  1
  Rh  Rh24  1  0.250000  0.389884  0.680887  1
  Rh  Rh25  1  0.250000  0.109210  0.181642  1
  Rh  Rh26  1  0.750000  0.609578  0.318903  1
  Rh  Rh27  1  0.750000  0.892425  0.816226  1
