# generated using pymatgen
data_U2VWC4
_symmetry_space_group_name_H-M   'P 1'
_cell_length_a   3.22781200
_cell_length_b   5.59851100
_cell_length_c   10.90266100
_cell_angle_alpha   90.00000000
_cell_angle_beta   90.00000000
_cell_angle_gamma   90.00000000
_symmetry_Int_Tables_number   1
_chemical_formula_structural   U2VWC4
_chemical_formula_sum   'U4 V2 W2 C8'
_cell_volume   197.02134354
_cell_formula_units_Z   2
loop_
 _symmetry_equiv_pos_site_id
 _symmetry_equiv_pos_as_xyz
  1  'x, y, z'
loop_
 _atom_site_type_symbol
 _atom_site_label
 _atom_site_symmetry_multiplicity
 _atom_site_fract_x
 _atom_site_fract_y
 _atom_site_fract_z
 _atom_site_occupancy
  U  U0  1  0.250000  0.079900  0.861030  1
  U  U1  1  0.750000  0.922909  0.144202  1
  U  U2  1  0.250000  0.579900  0.638970  1
  U  U3  1  0.750000  0.422909  0.355798  1
  V  V4  1  0.250000  0.919378  0.397550  1
  V  V5  1  0.250000  0.419378  0.102450  1
  W  W6  1  0.750000  0.077792  0.599804  1
  W  W7  1  0.750000  0.577792  0.900196  1
  C  C8  1  0.250000  0.742140  0.996237  1
  C  C9  1  0.750000  0.256909  0.012763  1
  C  C10  1  0.250000  0.242140  0.503763  1
  C  C11  1  0.750000  0.756909  0.487237  1
  C  C12  1  0.250000  0.166352  0.246099  1
  C  C13  1  0.750000  0.334621  0.745443  1
  C  C14  1  0.250000  0.666352  0.253901  1
  C  C15  1  0.750000  0.834621  0.754557  1
