# generated using pymatgen
data_ErTm3ReRu7
_symmetry_space_group_name_H-M   'P 1'
_cell_length_a   5.19403774
_cell_length_b   5.40945654
_cell_length_c   8.92350500
_cell_angle_alpha   89.99999915
_cell_angle_beta   90.00258819
_cell_angle_gamma   121.38172489
_symmetry_Int_Tables_number   1
_chemical_formula_structural   ErTm3ReRu7
_chemical_formula_sum   'Er1 Tm3 Re1 Ru7'
_cell_volume   214.04648690
_cell_formula_units_Z   1
loop_
 _symmetry_equiv_pos_site_id
 _symmetry_equiv_pos_as_xyz
  1  'x, y, z'
loop_
 _atom_site_type_symbol
 _atom_site_label
 _atom_site_symmetry_multiplicity
 _atom_site_fract_x
 _atom_site_fract_y
 _atom_site_fract_z
 _atom_site_occupancy
  Er  Er0  1  0.327450  0.663726  0.433365  1
  Tm  Tm1  1  0.653416  0.326707  0.565574  1
  Tm  Tm2  1  0.653466  0.326732  0.934656  1
  Tm  Tm3  1  0.327801  0.663901  0.066557  1
  Re  Re4  1  0.686611  0.843306  0.750227  1
  Ru  Ru5  1  0.975566  0.987783  0.499362  1
  Ru  Ru6  1  0.975329  0.987665  0.000714  1
  Ru  Ru7  1  0.837486  0.167761  0.249661  1
  Ru  Ru8  1  0.837486  0.669725  0.249661  1
  Ru  Ru9  1  0.357567  0.178784  0.249713  1
  Ru  Ru10  1  0.183911  0.828757  0.750255  1
  Ru  Ru11  1  0.183911  0.355155  0.750255  1
