# generated using pymatgen
data_YbCr2(MoC2)2
_symmetry_space_group_name_H-M   'P 1'
_cell_length_a   8.02167200
_cell_length_b   8.02167200
_cell_length_c   3.27139600
_cell_angle_alpha   90.00000000
_cell_angle_beta   90.00000000
_cell_angle_gamma   90.00000000
_symmetry_Int_Tables_number   1
_chemical_formula_structural   YbCr2(MoC2)2
_chemical_formula_sum   'Yb2 Cr4 Mo4 C8'
_cell_volume   210.50524360
_cell_formula_units_Z   2
loop_
 _symmetry_equiv_pos_site_id
 _symmetry_equiv_pos_as_xyz
  1  'x, y, z'
loop_
 _atom_site_type_symbol
 _atom_site_label
 _atom_site_symmetry_multiplicity
 _atom_site_fract_x
 _atom_site_fract_y
 _atom_site_fract_z
 _atom_site_occupancy
  Yb  Yb0  1  0.000000  0.000000  0.000000  1
  Yb  Yb1  1  0.500000  0.500000  0.500000  1
  Cr  Cr2  1  0.302337  0.853057  0.500000  1
  Cr  Cr3  1  0.146943  0.302337  0.500000  1
  Cr  Cr4  1  0.697663  0.146943  0.500000  1
  Cr  Cr5  1  0.853057  0.697663  0.500000  1
  Mo  Mo6  1  0.381891  0.159439  0.000000  1
  Mo  Mo7  1  0.159439  0.618109  0.000000  1
  Mo  Mo8  1  0.618109  0.840561  0.000000  1
  Mo  Mo9  1  0.840561  0.381891  0.000000  1
  C  C10  1  0.759042  0.919781  0.500000  1
  C  C11  1  0.240958  0.080219  0.500000  1
  C  C12  1  0.919781  0.240958  0.500000  1
  C  C13  1  0.257526  0.382676  0.000000  1
  C  C14  1  0.382676  0.742474  0.000000  1
  C  C15  1  0.080219  0.759042  0.500000  1
  C  C16  1  0.617324  0.257526  0.000000  1
  C  C17  1  0.742474  0.617324  0.000000  1
