# generated using pymatgen
data_Nb2Se8I
_symmetry_space_group_name_H-M   'P 1'
_cell_length_a   9.54488575
_cell_length_b   9.54488618
_cell_length_c   9.54488609
_cell_angle_alpha   117.80135361
_cell_angle_beta   117.80136051
_cell_angle_gamma   93.85230989
_symmetry_Int_Tables_number   1
_chemical_formula_structural   Nb2Se8I
_chemical_formula_sum   'Nb4 Se16 I2'
_cell_volume   633.77437403
_cell_formula_units_Z   2
loop_
 _symmetry_equiv_pos_site_id
 _symmetry_equiv_pos_as_xyz
  1  'x, y, z'
loop_
 _atom_site_type_symbol
 _atom_site_label
 _atom_site_symmetry_multiplicity
 _atom_site_fract_x
 _atom_site_fract_y
 _atom_site_fract_z
 _atom_site_occupancy
  Nb  Nb0  1  0.000000  0.500000  0.500000  1
  Nb  Nb1  1  0.500000  0.000000  0.500000  1
  Nb  Nb2  1  0.250000  0.750000  0.500000  1
  Nb  Nb3  1  0.750000  0.250000  0.500000  1
  Se  Se4  1  0.340075  0.674348  0.753204  1
  Se  Se5  1  0.921143  0.586872  0.246796  1
  Se  Se6  1  0.325652  0.659925  0.246796  1
  Se  Se7  1  0.586872  0.340075  0.665727  1
  Se  Se8  1  0.674348  0.921143  0.334273  1
  Se  Se9  1  0.659925  0.413128  0.334273  1
  Se  Se10  1  0.196760  0.998546  0.435057  1
  Se  Se11  1  0.998546  0.563490  0.801785  1
  Se  Se12  1  0.761703  0.196760  0.198215  1
  Se  Se13  1  0.436510  0.001454  0.198215  1
  Se  Se14  1  0.803240  0.238297  0.801785  1
  Se  Se15  1  0.563490  0.761703  0.564943  1
  Se  Se16  1  0.001454  0.803240  0.564943  1
  Se  Se17  1  0.238297  0.436510  0.435057  1
  Se  Se18  1  0.413128  0.078857  0.753204  1
  Se  Se19  1  0.078857  0.325652  0.665727  1
  I  I20  1  0.845042  0.845042  0.000000  1
  I  I21  1  0.154958  0.154958  0.000000  1
