# generated using pymatgen
data_Ta2CrFe2Ir
_symmetry_space_group_name_H-M   'P 1'
_cell_length_a   4.79509800
_cell_length_b   4.84868321
_cell_length_c   8.20748900
_cell_angle_alpha   90.00000000
_cell_angle_beta   90.00000000
_cell_angle_gamma   119.63508785
_symmetry_Int_Tables_number   1
_chemical_formula_structural   Ta2CrFe2Ir
_chemical_formula_sum   'Ta4 Cr2 Fe4 Ir2'
_cell_volume   165.86221697
_cell_formula_units_Z   2
loop_
 _symmetry_equiv_pos_site_id
 _symmetry_equiv_pos_as_xyz
  1  'x, y, z'
loop_
 _atom_site_type_symbol
 _atom_site_label
 _atom_site_symmetry_multiplicity
 _atom_site_fract_x
 _atom_site_fract_y
 _atom_site_fract_z
 _atom_site_occupancy
  Ta  Ta0  1  0.330781  0.665404  0.428796  1
  Ta  Ta1  1  0.665378  0.334596  0.928796  1
  Ta  Ta2  1  0.665378  0.334596  0.571204  1
  Ta  Ta3  1  0.330781  0.665404  0.071204  1
  Cr  Cr4  1  0.640910  0.821213  0.750000  1
  Cr  Cr5  1  0.819696  0.178787  0.250000  1
  Fe  Fe6  1  0.180994  0.350133  0.750000  1
  Fe  Fe7  1  0.182565  0.831455  0.750000  1
  Fe  Fe8  1  0.351109  0.168545  0.250000  1
  Fe  Fe9  1  0.830860  0.649867  0.250000  1
  Ir  Ir10  1  0.000773  0.000000  0.000000  1
  Ir  Ir11  1  0.000773  0.000000  0.500000  1
