# generated using pymatgen
data_La2Y4CoBr10
_symmetry_space_group_name_H-M   'P 1'
_cell_length_a   7.48577182
_cell_length_b   9.40758858
_cell_length_c   9.22827000
_cell_angle_alpha   106.60678356
_cell_angle_beta   94.85919738
_cell_angle_gamma   106.25726493
_symmetry_Int_Tables_number   1
_chemical_formula_structural   La2Y4CoBr10
_chemical_formula_sum   'La2 Y4 Co1 Br10'
_cell_volume   588.21221557
_cell_formula_units_Z   1
loop_
 _symmetry_equiv_pos_site_id
 _symmetry_equiv_pos_as_xyz
  1  'x, y, z'
loop_
 _atom_site_type_symbol
 _atom_site_label
 _atom_site_symmetry_multiplicity
 _atom_site_fract_x
 _atom_site_fract_y
 _atom_site_fract_z
 _atom_site_occupancy
  La  La0  1  0.123407  0.047381  0.762816  1
  La  La1  1  0.876593  0.952619  0.237184  1
  Y  Y2  1  0.972156  0.295552  0.091810  1
  Y  Y3  1  0.027844  0.704448  0.908190  1
  Y  Y4  1  0.357002  0.134580  0.170767  1
  Y  Y5  1  0.642998  0.865420  0.829233  1
  Co  Co6  1  0.000000  0.000000  0.000000  1
  Br  Br7  1  0.341675  0.443045  0.265416  1
  Br  Br8  1  0.658325  0.556955  0.734584  1
  Br  Br9  1  0.262637  0.084067  0.450145  1
  Br  Br10  1  0.737363  0.915933  0.549855  1
  Br  Br11  1  0.080829  0.378000  0.828057  1
  Br  Br12  1  0.919171  0.622000  0.171943  1
  Br  Br13  1  0.445459  0.824102  0.085605  1
  Br  Br14  1  0.554541  0.175898  0.914395  1
  Br  Br15  1  0.772624  0.258827  0.338214  1
  Br  Br16  1  0.227376  0.741173  0.661786  1
