# generated using pymatgen
data_Tb4Ho8Co5Sb
_symmetry_space_group_name_H-M   'P 1'
_cell_length_a   8.26614901
_cell_length_b   8.26617877
_cell_length_c   8.26615061
_cell_angle_alpha   110.68277640
_cell_angle_beta   110.72851106
_cell_angle_gamma   107.02948001
_symmetry_Int_Tables_number   1
_chemical_formula_structural   Tb4Ho8Co5Sb
_chemical_formula_sum   'Tb4 Ho8 Co5 Sb1'
_cell_volume   434.21155285
_cell_formula_units_Z   1
loop_
 _symmetry_equiv_pos_site_id
 _symmetry_equiv_pos_as_xyz
  1  'x, y, z'
loop_
 _atom_site_type_symbol
 _atom_site_label
 _atom_site_symmetry_multiplicity
 _atom_site_fract_x
 _atom_site_fract_y
 _atom_site_fract_z
 _atom_site_occupancy
  Tb  Tb0  1  0.814486  0.710587  0.525074  1
  Tb  Tb1  1  0.185514  0.289413  0.474926  1
  Tb  Tb2  1  0.185513  0.710587  0.896101  1
  Tb  Tb3  1  0.814487  0.289413  0.103899  1
  Ho  Ho4  1  0.687088  0.378572  0.691487  1
  Ho  Ho5  1  0.312912  0.621428  0.308513  1
  Ho  Ho6  1  0.687089  0.995600  0.308512  1
  Ho  Ho7  1  0.312911  0.004400  0.691488  1
  Ho  Ho8  1  0.598068  0.791391  0.806674  1
  Ho  Ho9  1  0.401932  0.208609  0.193326  1
  Ho  Ho10  1  0.984717  0.791391  0.193323  1
  Ho  Ho11  1  0.015283  0.208609  0.806677  1
  Co  Co12  1  0.625043  0.000000  0.625043  1
  Co  Co13  1  0.374957  0.000000  0.374957  1
  Co  Co14  1  0.112344  0.612344  0.500000  1
  Co  Co15  1  0.887656  0.387656  0.500000  1
  Co  Co16  1  0.000000  0.000000  0.000000  1
  Sb  Sb17  1  0.500000  0.500000  0.000000  1
