# generated using pymatgen
data_Y2Er4CoRh
_symmetry_space_group_name_H-M   'P 1'
_cell_length_a   6.23115189
_cell_length_b   7.06924819
_cell_length_c   9.33310800
_cell_angle_alpha   90.00000000
_cell_angle_beta   90.00000000
_cell_angle_gamma   90.45145629
_symmetry_Int_Tables_number   1
_chemical_formula_structural   Y2Er4CoRh
_chemical_formula_sum   'Y4 Er8 Co2 Rh2'
_cell_volume   411.10653168
_cell_formula_units_Z   2
loop_
 _symmetry_equiv_pos_site_id
 _symmetry_equiv_pos_as_xyz
  1  'x, y, z'
loop_
 _atom_site_type_symbol
 _atom_site_label
 _atom_site_symmetry_multiplicity
 _atom_site_fract_x
 _atom_site_fract_y
 _atom_site_fract_z
 _atom_site_occupancy
  Y  Y0  1  0.625329  0.042507  0.250000  1
  Y  Y1  1  0.374671  0.957493  0.750000  1
  Y  Y2  1  0.140507  0.470199  0.750000  1
  Y  Y3  1  0.859493  0.529801  0.250000  1
  Er  Er4  1  0.175849  0.180483  0.064474  1
  Er  Er5  1  0.824151  0.819517  0.935526  1
  Er  Er6  1  0.672335  0.330022  0.933719  1
  Er  Er7  1  0.824151  0.819517  0.564474  1
  Er  Er8  1  0.327665  0.669978  0.066281  1
  Er  Er9  1  0.175849  0.180483  0.435526  1
  Er  Er10  1  0.327665  0.669978  0.433719  1
  Er  Er11  1  0.672335  0.330022  0.566281  1
  Co  Co12  1  0.444380  0.383689  0.250000  1
  Co  Co13  1  0.555620  0.616311  0.750000  1
  Rh  Rh14  1  0.943219  0.113821  0.750000  1
  Rh  Rh15  1  0.056781  0.886179  0.250000  1
