# generated using pymatgen
data_Dy3Er13(CoHg)4
_symmetry_space_group_name_H-M   'P 1'
_cell_length_a   9.38305205
_cell_length_b   9.38564543
_cell_length_c   9.38564400
_cell_angle_alpha   60.00000503
_cell_angle_beta   59.99086171
_cell_angle_gamma   59.99086260
_symmetry_Int_Tables_number   1
_chemical_formula_structural   Dy3Er13(CoHg)4
_chemical_formula_sum   'Dy3 Er13 Co4 Hg4'
_cell_volume   584.38272173
_cell_formula_units_Z   1
loop_
 _symmetry_equiv_pos_site_id
 _symmetry_equiv_pos_as_xyz
  1  'x, y, z'
loop_
 _atom_site_type_symbol
 _atom_site_label
 _atom_site_symmetry_multiplicity
 _atom_site_fract_x
 _atom_site_fract_y
 _atom_site_fract_z
 _atom_site_occupancy
  Dy  Dy0  1  0.598022  0.598294  0.598294  1
  Dy  Dy1  1  0.598022  0.598294  0.205390  1
  Dy  Dy2  1  0.598022  0.205390  0.598294  1
  Er  Er3  1  0.205580  0.598140  0.598140  1
  Er  Er4  1  0.061908  0.438323  0.438323  1
  Er  Er5  1  0.438173  0.061820  0.061820  1
  Er  Er6  1  0.438173  0.061820  0.438187  1
  Er  Er7  1  0.061908  0.438323  0.061445  1
  Er  Er8  1  0.438173  0.438187  0.061820  1
  Er  Er9  1  0.061908  0.061445  0.438323  1
  Er  Er10  1  0.188365  0.811588  0.811588  1
  Er  Er11  1  0.811938  0.188159  0.188159  1
  Er  Er12  1  0.811938  0.188159  0.811743  1
  Er  Er13  1  0.188365  0.811588  0.188459  1
  Er  Er14  1  0.811938  0.811743  0.188159  1
  Er  Er15  1  0.188365  0.188459  0.811588  1
  Co  Co16  1  0.390344  0.391453  0.391453  1
  Co  Co17  1  0.390344  0.391453  0.826752  1
  Co  Co18  1  0.390344  0.826752  0.391453  1
  Co  Co19  1  0.827230  0.390924  0.390924  1
  Hg  Hg20  1  0.834421  0.833909  0.833909  1
  Hg  Hg21  1  0.834421  0.833909  0.497761  1
  Hg  Hg22  1  0.834421  0.497761  0.833909  1
  Hg  Hg23  1  0.497676  0.834108  0.834108  1
