# generated using pymatgen
data_PrSm3Pu2O12
_symmetry_space_group_name_H-M   'P 1'
_cell_length_a   5.67379000
_cell_length_b   8.00194548
_cell_length_c   12.09608600
_cell_angle_alpha   74.07428854
_cell_angle_beta   90.00000000
_cell_angle_gamma   90.00000000
_symmetry_Int_Tables_number   1
_chemical_formula_structural   PrSm3Pu2O12
_chemical_formula_sum   'Pr2 Sm6 Pu4 O24'
_cell_volume   528.10030608
_cell_formula_units_Z   2
loop_
 _symmetry_equiv_pos_site_id
 _symmetry_equiv_pos_as_xyz
  1  'x, y, z'
loop_
 _atom_site_type_symbol
 _atom_site_label
 _atom_site_symmetry_multiplicity
 _atom_site_fract_x
 _atom_site_fract_y
 _atom_site_fract_z
 _atom_site_occupancy
  Pr  Pr0  1  0.690711  0.500000  0.750000  1
  Pr  Pr1  1  0.309289  0.500000  0.250000  1
  Sm  Sm2  1  0.743469  0.000000  0.750000  1
  Sm  Sm3  1  0.256531  0.000000  0.250000  1
  Sm  Sm4  1  0.186032  0.795541  0.577538  1
  Sm  Sm5  1  0.813968  0.795541  0.077538  1
  Sm  Sm6  1  0.186032  0.204459  0.922462  1
  Sm  Sm7  1  0.813968  0.204459  0.422462  1
  Pu  Pu8  1  0.253616  0.725605  0.884511  1
  Pu  Pu9  1  0.746384  0.725605  0.384511  1
  Pu  Pu10  1  0.253616  0.274395  0.615489  1
  Pu  Pu11  1  0.746384  0.274395  0.115489  1
  O  O12  1  0.041443  0.942433  0.896864  1
  O  O13  1  0.542991  0.850225  0.931453  1
  O  O14  1  0.958557  0.942433  0.396864  1
  O  O15  1  0.449000  0.797256  0.728752  1
  O  O16  1  0.457009  0.850225  0.431453  1
  O  O17  1  0.971249  0.716239  0.767059  1
  O  O18  1  0.551000  0.797256  0.228752  1
  O  O19  1  0.865485  0.633995  0.549098  1
  O  O20  1  0.372956  0.487229  0.884833  1
  O  O21  1  0.028751  0.716239  0.267059  1
  O  O22  1  0.372956  0.512771  0.615167  1
  O  O23  1  0.865485  0.366005  0.950902  1
  O  O24  1  0.134515  0.633995  0.049098  1
  O  O25  1  0.627044  0.487229  0.384833  1
  O  O26  1  0.971249  0.283761  0.732941  1
  O  O27  1  0.627044  0.512771  0.115167  1
  O  O28  1  0.134515  0.366005  0.450902  1
  O  O29  1  0.449000  0.202744  0.771248  1
  O  O30  1  0.028751  0.283761  0.232941  1
  O  O31  1  0.542991  0.149775  0.568547  1
  O  O32  1  0.551000  0.202744  0.271248  1
  O  O33  1  0.041443  0.057567  0.603136  1
  O  O34  1  0.457009  0.149775  0.068547  1
  O  O35  1  0.958557  0.057567  0.103136  1
