# generated using pymatgen
data_Ta5Nb7Al4(CuN)4
_symmetry_space_group_name_H-M   'P 1'
_cell_length_a   6.99664351
_cell_length_b   6.99678110
_cell_length_c   6.99214133
_cell_angle_alpha   90.12195007
_cell_angle_beta   90.03734731
_cell_angle_gamma   90.08949354
_symmetry_Int_Tables_number   1
_chemical_formula_structural   Ta5Nb7Al4(CuN)4
_chemical_formula_sum   'Ta5 Nb7 Al4 Cu4 N4'
_cell_volume   342.29190187
_cell_formula_units_Z   1
loop_
 _symmetry_equiv_pos_site_id
 _symmetry_equiv_pos_as_xyz
  1  'x, y, z'
loop_
 _atom_site_type_symbol
 _atom_site_label
 _atom_site_symmetry_multiplicity
 _atom_site_fract_x
 _atom_site_fract_y
 _atom_site_fract_z
 _atom_site_occupancy
  Ta  Ta0  1  0.791538  0.958679  0.375276  1
  Ta  Ta1  1  0.708046  0.041890  0.873759  1
  Ta  Ta2  1  0.208731  0.457358  0.126520  1
  Ta  Ta3  1  0.291151  0.542136  0.625449  1
  Ta  Ta4  1  0.957020  0.372370  0.790704  1
  Nb  Nb5  1  0.043284  0.872630  0.709800  1
  Nb  Nb6  1  0.456942  0.127223  0.209528  1
  Nb  Nb7  1  0.543442  0.627887  0.290575  1
  Nb  Nb8  1  0.374238  0.791153  0.957950  1
  Nb  Nb9  1  0.875225  0.708131  0.042403  1
  Nb  Nb10  1  0.125079  0.208310  0.457893  1
  Nb  Nb11  1  0.624370  0.292388  0.542175  1
  Al  Al12  1  0.573896  0.426346  0.926415  1
  Al  Al13  1  0.426076  0.926580  0.573470  1
  Al  Al14  1  0.925870  0.573259  0.426840  1
  Al  Al15  1  0.074045  0.072980  0.073317  1
  Cu  Cu16  1  0.177465  0.820255  0.321494  1
  Cu  Cu17  1  0.321383  0.179941  0.821355  1
  Cu  Cu18  1  0.824240  0.320039  0.176836  1
  Cu  Cu19  1  0.677630  0.680089  0.678555  1
  N  N20  1  0.875745  0.122165  0.624050  1
  N  N21  1  0.625787  0.880669  0.122576  1
  N  N22  1  0.124096  0.616973  0.876020  1
  N  N23  1  0.374701  0.380547  0.377038  1
