# generated using pymatgen
data_CeYMnCo16
_symmetry_space_group_name_H-M   'P 1'
_cell_length_a   6.27334054
_cell_length_b   6.27333911
_cell_length_c   6.27334086
_cell_angle_alpha   83.08198861
_cell_angle_beta   83.08199623
_cell_angle_gamma   83.08199770
_symmetry_Int_Tables_number   1
_chemical_formula_structural   CeYMnCo16
_chemical_formula_sum   'Ce1 Y1 Mn1 Co16'
_cell_volume   241.89428536
_cell_formula_units_Z   1
loop_
 _symmetry_equiv_pos_site_id
 _symmetry_equiv_pos_as_xyz
  1  'x, y, z'
loop_
 _atom_site_type_symbol
 _atom_site_label
 _atom_site_symmetry_multiplicity
 _atom_site_fract_x
 _atom_site_fract_y
 _atom_site_fract_z
 _atom_site_occupancy
  Ce  Ce0  1  0.652432  0.652432  0.652432  1
  Y  Y1  1  0.345182  0.345182  0.345182  1
  Mn  Mn2  1  0.097172  0.097172  0.097172  1
  Co  Co3  1  0.350407  0.846538  0.350407  1
  Co  Co4  1  0.350407  0.350407  0.846538  1
  Co  Co5  1  0.846538  0.350407  0.350407  1
  Co  Co6  1  0.653523  0.144267  0.653523  1
  Co  Co7  1  0.653523  0.653523  0.144267  1
  Co  Co8  1  0.144267  0.653523  0.653523  1
  Co  Co9  1  0.713162  0.289771  0.998190  1
  Co  Co10  1  0.998190  0.713162  0.289771  1
  Co  Co11  1  0.289771  0.998190  0.713162  1
  Co  Co12  1  0.998190  0.289771  0.713162  1
  Co  Co13  1  0.713162  0.998190  0.289771  1
  Co  Co14  1  0.289771  0.713162  0.998190  1
  Co  Co15  1  0.001392  0.001392  0.504466  1
  Co  Co16  1  0.504466  0.001392  0.001392  1
  Co  Co17  1  0.001392  0.504466  0.001392  1
  Co  Co18  1  0.897051  0.897051  0.897051  1
