# generated using pymatgen
data_HfZr5Ga6(NiPd2)2
_symmetry_space_group_name_H-M   'P 1'
_cell_length_a   7.16381797
_cell_length_b   7.17849351
_cell_length_c   6.90235400
_cell_angle_alpha   90.00000000
_cell_angle_beta   90.00000000
_cell_angle_gamma   120.03250951
_symmetry_Int_Tables_number   1
_chemical_formula_structural   HfZr5Ga6(NiPd2)2
_chemical_formula_sum   'Hf1 Zr5 Ga6 Ni2 Pd4'
_cell_volume   307.30056030
_cell_formula_units_Z   1
loop_
 _symmetry_equiv_pos_site_id
 _symmetry_equiv_pos_as_xyz
  1  'x, y, z'
loop_
 _atom_site_type_symbol
 _atom_site_label
 _atom_site_symmetry_multiplicity
 _atom_site_fract_x
 _atom_site_fract_y
 _atom_site_fract_z
 _atom_site_occupancy
  Hf  Hf0  1  0.000929  0.399063  0.250000  1
  Zr  Zr1  1  0.601369  0.602214  0.250000  1
  Zr  Zr2  1  0.029612  0.418584  0.750000  1
  Zr  Zr3  1  0.397721  0.999023  0.250000  1
  Zr  Zr4  1  0.388778  0.971080  0.750000  1
  Zr  Zr5  1  0.582953  0.610650  0.750000  1
  Ga  Ga6  1  0.271243  0.274398  0.499826  1
  Ga  Ga7  1  0.725099  0.995604  0.499836  1
  Ga  Ga8  1  0.003316  0.729981  0.498183  1
  Ga  Ga9  1  0.725099  0.995604  0.000164  1
  Ga  Ga10  1  0.271243  0.274398  0.000174  1
  Ga  Ga11  1  0.003316  0.729981  0.001817  1
  Ni  Ni12  1  0.330547  0.664461  0.466773  1
  Ni  Ni13  1  0.330547  0.664461  0.033227  1
  Pd  Pd14  1  0.000298  0.000224  0.750000  1
  Pd  Pd15  1  0.000127  0.003587  0.250000  1
  Pd  Pd16  1  0.668902  0.333344  0.515992  1
  Pd  Pd17  1  0.668902  0.333344  0.984008  1
