# generated using pymatgen
data_Pr3Al9Re(MoOs2)2
_symmetry_space_group_name_H-M   'P 1'
_cell_length_a   8.95933583
_cell_length_b   8.95933542
_cell_length_c   9.76279600
_cell_angle_alpha   90.00000000
_cell_angle_beta   90.00000000
_cell_angle_gamma   120.29568697
_symmetry_Int_Tables_number   1
_chemical_formula_structural   Pr3Al9Re(MoOs2)2
_chemical_formula_sum   'Pr6 Al18 Re2 Mo4 Os8'
_cell_volume   676.63543034
_cell_formula_units_Z   2
loop_
 _symmetry_equiv_pos_site_id
 _symmetry_equiv_pos_as_xyz
  1  'x, y, z'
loop_
 _atom_site_type_symbol
 _atom_site_label
 _atom_site_symmetry_multiplicity
 _atom_site_fract_x
 _atom_site_fract_y
 _atom_site_fract_z
 _atom_site_occupancy
  Pr  Pr0  1  0.195584  0.388493  0.250000  1
  Pr  Pr1  1  0.804416  0.611507  0.750000  1
  Pr  Pr2  1  0.611507  0.804416  0.250000  1
  Pr  Pr3  1  0.388493  0.195584  0.750000  1
  Pr  Pr4  1  0.194337  0.805663  0.250000  1
  Pr  Pr5  1  0.805663  0.194337  0.750000  1
  Al  Al6  1  0.333505  0.666495  0.005461  1
  Al  Al7  1  0.666495  0.333505  0.994539  1
  Al  Al8  1  0.666495  0.333505  0.505461  1
  Al  Al9  1  0.333505  0.666495  0.494539  1
  Al  Al10  1  0.165189  0.329719  0.574766  1
  Al  Al11  1  0.834811  0.670281  0.425234  1
  Al  Al12  1  0.670281  0.834811  0.574766  1
  Al  Al13  1  0.834811  0.670281  0.074766  1
  Al  Al14  1  0.329719  0.165189  0.425234  1
  Al  Al15  1  0.165189  0.329719  0.925234  1
  Al  Al16  1  0.164034  0.835966  0.575284  1
  Al  Al17  1  0.329719  0.165189  0.074766  1
  Al  Al18  1  0.835966  0.164034  0.424716  1
  Al  Al19  1  0.670281  0.834811  0.925234  1
  Al  Al20  1  0.835966  0.164034  0.075284  1
  Al  Al21  1  0.164034  0.835966  0.924716  1
  Al  Al22  1  0.000082  0.999918  0.250000  1
  Al  Al23  1  0.999918  0.000082  0.750000  1
  Re  Re24  1  0.571617  0.428383  0.250000  1
  Re  Re25  1  0.428383  0.571617  0.750000  1
  Mo  Mo26  1  0.568429  0.140544  0.250000  1
  Mo  Mo27  1  0.431571  0.859456  0.750000  1
  Mo  Mo28  1  0.859456  0.431571  0.250000  1
  Mo  Mo29  1  0.140544  0.568429  0.750000  1
  Os  Os30  1  0.500000  0.000000  0.000000  1
  Os  Os31  1  0.000000  0.500000  0.000000  1
  Os  Os32  1  0.500000  0.000000  0.500000  1
  Os  Os33  1  0.500000  0.500000  0.000000  1
  Os  Os34  1  0.000000  0.500000  0.500000  1
  Os  Os35  1  0.500000  0.500000  0.500000  1
  Os  Os36  1  0.000000  0.000000  0.000000  1
  Os  Os37  1  0.000000  0.000000  0.500000  1
