# generated using pymatgen
data_Ho3InNi3Sn2
_symmetry_space_group_name_H-M   'P 1'
_cell_length_a   7.41856644
_cell_length_b   7.40619027
_cell_length_c   3.74837300
_cell_angle_alpha   90.00000000
_cell_angle_beta   90.00000000
_cell_angle_gamma   119.94482355
_symmetry_Int_Tables_number   1
_chemical_formula_structural   Ho3InNi3Sn2
_chemical_formula_sum   'Ho3 In1 Ni3 Sn2'
_cell_volume   178.45531425
_cell_formula_units_Z   1
loop_
 _symmetry_equiv_pos_site_id
 _symmetry_equiv_pos_as_xyz
  1  'x, y, z'
loop_
 _atom_site_type_symbol
 _atom_site_label
 _atom_site_symmetry_multiplicity
 _atom_site_fract_x
 _atom_site_fract_y
 _atom_site_fract_z
 _atom_site_occupancy
  Ho  Ho0  1  0.000000  0.591006  0.500000  1
  Ho  Ho1  1  0.406007  0.407628  0.500000  1
  Ho  Ho2  1  0.593993  0.001621  0.500000  1
  In  In3  1  0.000000  0.258345  0.000000  1
  Ni  Ni4  1  0.336498  0.670016  0.000000  1
  Ni  Ni5  1  0.000000  0.992578  0.500000  1
  Ni  Ni6  1  0.663502  0.333516  0.000000  1
  Sn  Sn7  1  0.257605  0.001448  0.000000  1
  Sn  Sn8  1  0.742395  0.743842  0.000000  1
