# generated using pymatgen
data_Sc12Co4RuPb
_symmetry_space_group_name_H-M   'P 1'
_cell_length_a   7.74393141
_cell_length_b   7.74393058
_cell_length_c   7.74392996
_cell_angle_alpha   111.41793271
_cell_angle_beta   111.19450985
_cell_angle_gamma   105.86053402
_symmetry_Int_Tables_number   1
_chemical_formula_structural   Sc12Co4RuPb
_chemical_formula_sum   'Sc12 Co4 Ru1 Pb1'
_cell_volume   356.43122658
_cell_formula_units_Z   1
loop_
 _symmetry_equiv_pos_site_id
 _symmetry_equiv_pos_as_xyz
  1  'x, y, z'
loop_
 _atom_site_type_symbol
 _atom_site_label
 _atom_site_symmetry_multiplicity
 _atom_site_fract_x
 _atom_site_fract_y
 _atom_site_fract_z
 _atom_site_occupancy
  Sc  Sc0  1  0.422123  0.222492  0.199632  1
  Sc  Sc1  1  0.577877  0.777508  0.800368  1
  Sc  Sc2  1  0.022859  0.222492  0.800368  1
  Sc  Sc3  1  0.977141  0.777508  0.199632  1
  Sc  Sc4  1  0.309953  0.613069  0.303116  1
  Sc  Sc5  1  0.690047  0.386931  0.696884  1
  Sc  Sc6  1  0.309953  0.006836  0.696884  1
  Sc  Sc7  1  0.690047  0.993164  0.303116  1
  Sc  Sc8  1  0.184401  0.275159  0.459561  1
  Sc  Sc9  1  0.815599  0.724840  0.540439  1
  Sc  Sc10  1  0.184401  0.724840  0.909242  1
  Sc  Sc11  1  0.815599  0.275159  0.090758  1
  Co  Co12  1  0.369560  0.000000  0.369560  1
  Co  Co13  1  0.630440  0.000000  0.630440  1
  Co  Co14  1  0.117043  0.617043  0.500000  1
  Co  Co15  1  0.882957  0.382957  0.500000  1
  Ru  Ru16  1  0.000000  0.000000  0.000000  1
  Pb  Pb17  1  0.500000  0.500000  0.000000  1
