# generated using pymatgen
data_TbHo2Ga(SiIr3)2
_symmetry_space_group_name_H-M   'P 1'
_cell_length_a   5.56607300
_cell_length_b   5.56607408
_cell_length_c   15.45246900
_cell_angle_alpha   90.00000000
_cell_angle_beta   90.00000000
_cell_angle_gamma   120.00001140
_symmetry_Int_Tables_number   1
_chemical_formula_structural   TbHo2Ga(SiIr3)2
_chemical_formula_sum   'Tb2 Ho4 Ga2 Si4 Ir12'
_cell_volume   414.59717919
_cell_formula_units_Z   2
loop_
 _symmetry_equiv_pos_site_id
 _symmetry_equiv_pos_as_xyz
  1  'x, y, z'
loop_
 _atom_site_type_symbol
 _atom_site_label
 _atom_site_symmetry_multiplicity
 _atom_site_fract_x
 _atom_site_fract_y
 _atom_site_fract_z
 _atom_site_occupancy
  Tb  Tb0  1  0.333333  0.666667  0.750000  1
  Tb  Tb1  1  0.666667  0.333333  0.250000  1
  Ho  Ho2  1  0.333333  0.666667  0.539645  1
  Ho  Ho3  1  0.666667  0.333333  0.460355  1
  Ho  Ho4  1  0.666667  0.333333  0.039645  1
  Ho  Ho5  1  0.333333  0.666667  0.960355  1
  Ga  Ga6  1  0.000000  0.000000  0.000000  1
  Ga  Ga7  1  0.000000  0.000000  0.500000  1
  Si  Si8  1  0.000000  0.000000  0.250000  1
  Si  Si9  1  0.000000  0.000000  0.750000  1
  Si  Si10  1  0.333333  0.666667  0.250000  1
  Si  Si11  1  0.666667  0.333333  0.750000  1
  Ir  Ir12  1  0.168235  0.336471  0.132587  1
  Ir  Ir13  1  0.831765  0.663529  0.867413  1
  Ir  Ir14  1  0.663529  0.831765  0.132587  1
  Ir  Ir15  1  0.831765  0.663529  0.632587  1
  Ir  Ir16  1  0.336471  0.168235  0.867413  1
  Ir  Ir17  1  0.168235  0.336471  0.367413  1
  Ir  Ir18  1  0.168235  0.831765  0.132587  1
  Ir  Ir19  1  0.336471  0.168235  0.632587  1
  Ir  Ir20  1  0.831765  0.168235  0.867413  1
  Ir  Ir21  1  0.663529  0.831765  0.367413  1
  Ir  Ir22  1  0.831765  0.168235  0.632587  1
  Ir  Ir23  1  0.168235  0.831765  0.367413  1
