# generated using pymatgen
data_Dy4LuInSb2
_symmetry_space_group_name_H-M   'P 1'
_cell_length_a   6.43976903
_cell_length_b   8.93132114
_cell_length_c   8.94146105
_cell_angle_alpha   120.03758422
_cell_angle_beta   89.98849068
_cell_angle_gamma   90.00539605
_symmetry_Int_Tables_number   1
_chemical_formula_structural   Dy4LuInSb2
_chemical_formula_sum   'Dy8 Lu2 In2 Sb4'
_cell_volume   445.20548503
_cell_formula_units_Z   2
loop_
 _symmetry_equiv_pos_site_id
 _symmetry_equiv_pos_as_xyz
  1  'x, y, z'
loop_
 _atom_site_type_symbol
 _atom_site_label
 _atom_site_symmetry_multiplicity
 _atom_site_fract_x
 _atom_site_fract_y
 _atom_site_fract_z
 _atom_site_occupancy
  Dy  Dy0  1  0.000365  0.663751  0.331580  1
  Dy  Dy1  1  0.000376  0.336245  0.667821  1
  Dy  Dy2  1  0.749814  0.242107  0.004635  1
  Dy  Dy3  1  0.749810  0.757879  0.762527  1
  Dy  Dy4  1  0.749643  0.000001  0.239915  1
  Dy  Dy5  1  0.250835  0.759031  0.997772  1
  Dy  Dy6  1  0.250834  0.240977  0.238751  1
  Dy  Dy7  1  0.250365  0.000004  0.756954  1
  Lu  Lu8  1  0.500290  0.336364  0.667777  1
  Lu  Lu9  1  0.500286  0.663639  0.331423  1
  In  In10  1  0.746813  0.604802  0.000987  1
  In  In11  1  0.746796  0.395198  0.396178  1
  Sb  Sb12  1  0.747856  0.999997  0.608309  1
  Sb  Sb13  1  0.252121  0.393173  0.998411  1
  Sb  Sb14  1  0.252123  0.606833  0.605240  1
  Sb  Sb15  1  0.251680  0.999999  0.391721  1
