# generated using pymatgen
data_Pr2YCoSn6
_symmetry_space_group_name_H-M   'P 1'
_cell_length_a   8.56587153
_cell_length_b   8.56587262
_cell_length_c   13.41658500
_cell_angle_alpha   90.00000000
_cell_angle_beta   90.00000000
_cell_angle_gamma   148.56521685
_symmetry_Int_Tables_number   1
_chemical_formula_structural   Pr2YCoSn6
_chemical_formula_sum   'Pr4 Y2 Co2 Sn12'
_cell_volume   513.40789524
_cell_formula_units_Z   2
loop_
 _symmetry_equiv_pos_site_id
 _symmetry_equiv_pos_as_xyz
  1  'x, y, z'
loop_
 _atom_site_type_symbol
 _atom_site_label
 _atom_site_symmetry_multiplicity
 _atom_site_fract_x
 _atom_site_fract_y
 _atom_site_fract_z
 _atom_site_occupancy
  Pr  Pr0  1  0.900754  0.099246  0.091739  1
  Pr  Pr1  1  0.099246  0.900754  0.591739  1
  Pr  Pr2  1  0.099246  0.900754  0.908261  1
  Pr  Pr3  1  0.900754  0.099246  0.408261  1
  Y  Y4  1  0.898515  0.101485  0.750000  1
  Y  Y5  1  0.101485  0.898515  0.250000  1
  Co  Co6  1  0.296588  0.703412  0.250000  1
  Co  Co7  1  0.703412  0.296588  0.750000  1
  Sn  Sn8  1  0.753798  0.246202  0.571528  1
  Sn  Sn9  1  0.427817  0.572183  0.580641  1
  Sn  Sn10  1  0.572183  0.427817  0.419359  1
  Sn  Sn11  1  0.734074  0.265926  0.250000  1
  Sn  Sn12  1  0.265926  0.734074  0.750000  1
  Sn  Sn13  1  0.246202  0.753798  0.071528  1
  Sn  Sn14  1  0.246202  0.753798  0.428472  1
  Sn  Sn15  1  0.572183  0.427817  0.080641  1
  Sn  Sn16  1  0.452838  0.547162  0.250000  1
  Sn  Sn17  1  0.547162  0.452838  0.750000  1
  Sn  Sn18  1  0.753798  0.246202  0.928472  1
  Sn  Sn19  1  0.427817  0.572183  0.919359  1
