# generated using pymatgen
data_TbDy2Er(GaNi)4
_symmetry_space_group_name_H-M   'P 1'
_cell_length_a   4.26305700
_cell_length_b   6.79440595
_cell_length_c   7.42738207
_cell_angle_alpha   89.47970683
_cell_angle_beta   90.00000000
_cell_angle_gamma   90.00000000
_symmetry_Int_Tables_number   1
_chemical_formula_structural   TbDy2Er(GaNi)4
_chemical_formula_sum   'Tb1 Dy2 Er1 Ga4 Ni4'
_cell_volume   215.12480475
_cell_formula_units_Z   1
loop_
 _symmetry_equiv_pos_site_id
 _symmetry_equiv_pos_as_xyz
  1  'x, y, z'
loop_
 _atom_site_type_symbol
 _atom_site_label
 _atom_site_symmetry_multiplicity
 _atom_site_fract_x
 _atom_site_fract_y
 _atom_site_fract_z
 _atom_site_occupancy
  Tb  Tb0  1  0.250000  0.979576  0.305834  1
  Dy  Dy1  1  0.250000  0.480074  0.192943  1
  Dy  Dy2  1  0.750000  0.021041  0.695429  1
  Er  Er3  1  0.750000  0.520560  0.805355  1
  Ga  Ga4  1  0.250000  0.330587  0.574196  1
  Ga  Ga5  1  0.250000  0.827783  0.926077  1
  Ga  Ga6  1  0.750000  0.670916  0.427713  1
  Ga  Ga7  1  0.750000  0.173343  0.072374  1
  Ni  Ni8  1  0.250000  0.216970  0.899821  1
  Ni  Ni9  1  0.250000  0.715973  0.603051  1
  Ni  Ni10  1  0.750000  0.779160  0.097859  1
  Ni  Ni11  1  0.750000  0.284017  0.399348  1
