# generated using pymatgen
data_Y4Ga5Ir4Pd5
_symmetry_space_group_name_H-M   'P 1'
_cell_length_a   5.57937963
_cell_length_b   5.57937969
_cell_length_c   24.17537212
_cell_angle_alpha   89.99009425
_cell_angle_beta   90.00990641
_cell_angle_gamma   120.35390814
_symmetry_Int_Tables_number   1
_chemical_formula_structural   Y4Ga5Ir4Pd5
_chemical_formula_sum   'Y8 Ga10 Ir8 Pd10'
_cell_volume   649.40519893
_cell_formula_units_Z   2
loop_
 _symmetry_equiv_pos_site_id
 _symmetry_equiv_pos_as_xyz
  1  'x, y, z'
loop_
 _atom_site_type_symbol
 _atom_site_label
 _atom_site_symmetry_multiplicity
 _atom_site_fract_x
 _atom_site_fract_y
 _atom_site_fract_z
 _atom_site_occupancy
  Y  Y0  1  0.329252  0.670748  0.530290  1
  Y  Y1  1  0.670748  0.329252  0.469710  1
  Y  Y2  1  0.666267  0.333733  0.031392  1
  Y  Y3  1  0.333733  0.666267  0.968608  1
  Y  Y4  1  0.332961  0.667039  0.680227  1
  Y  Y5  1  0.667039  0.332961  0.319773  1
  Y  Y6  1  0.666984  0.333016  0.185325  1
  Y  Y7  1  0.333016  0.666984  0.814675  1
  Ga  Ga8  1  0.000000  0.000000  0.000000  1
  Ga  Ga9  1  0.000000  0.000000  0.500000  1
  Ga  Ga10  1  0.335003  0.664997  0.168153  1
  Ga  Ga11  1  0.664997  0.335003  0.831847  1
  Ga  Ga12  1  0.672364  0.327636  0.666888  1
  Ga  Ga13  1  0.327636  0.672364  0.333112  1
  Ga  Ga14  1  0.998470  0.001530  0.167804  1
  Ga  Ga15  1  0.001530  0.998470  0.832196  1
  Ga  Ga16  1  0.994570  0.005430  0.666272  1
  Ga  Ga17  1  0.005430  0.994570  0.333728  1
  Ir  Ir18  1  0.831300  0.168700  0.581399  1
  Ir  Ir19  1  0.168700  0.831300  0.418601  1
  Ir  Ir20  1  0.166449  0.333023  0.251641  1
  Ir  Ir21  1  0.833551  0.666977  0.748359  1
  Ir  Ir22  1  0.666977  0.833551  0.251641  1
  Ir  Ir23  1  0.333023  0.166449  0.748359  1
  Ir  Ir24  1  0.166366  0.833634  0.249152  1
  Ir  Ir25  1  0.833634  0.166366  0.750848  1
  Pd  Pd26  1  0.167968  0.336641  0.083359  1
  Pd  Pd27  1  0.832032  0.663359  0.916641  1
  Pd  Pd28  1  0.663359  0.832032  0.083359  1
  Pd  Pd29  1  0.830495  0.662583  0.583702  1
  Pd  Pd30  1  0.336641  0.167968  0.916641  1
  Pd  Pd31  1  0.169505  0.337417  0.416298  1
  Pd  Pd32  1  0.168752  0.831248  0.083496  1
  Pd  Pd33  1  0.337417  0.169505  0.583702  1
  Pd  Pd34  1  0.831248  0.168752  0.916504  1
  Pd  Pd35  1  0.662583  0.830495  0.416298  1
