# generated using pymatgen
data_Zr3Sc9Ga20
_symmetry_space_group_name_H-M   'P 1'
_cell_length_a   5.79759547
_cell_length_b   9.26996200
_cell_length_c   10.99938478
_cell_angle_alpha   90.00000000
_cell_angle_beta   90.08147906
_cell_angle_gamma   90.00000000
_symmetry_Int_Tables_number   1
_chemical_formula_structural   Zr3Sc9Ga20
_chemical_formula_sum   'Zr3 Sc9 Ga20'
_cell_volume   591.14472445
_cell_formula_units_Z   1
loop_
 _symmetry_equiv_pos_site_id
 _symmetry_equiv_pos_as_xyz
  1  'x, y, z'
loop_
 _atom_site_type_symbol
 _atom_site_label
 _atom_site_symmetry_multiplicity
 _atom_site_fract_x
 _atom_site_fract_y
 _atom_site_fract_z
 _atom_site_occupancy
  Zr  Zr0  1  0.853737  0.750000  0.068078  1
  Zr  Zr1  1  0.645632  0.750000  0.568527  1
  Zr  Zr2  1  0.146164  0.250000  0.931577  1
  Sc  Sc3  1  0.347646  0.250000  0.432098  1
  Sc  Sc4  1  0.889785  0.507916  0.354167  1
  Sc  Sc5  1  0.611306  0.992314  0.854688  1
  Sc  Sc6  1  0.110168  0.007736  0.644870  1
  Sc  Sc7  1  0.389618  0.492021  0.145619  1
  Sc  Sc8  1  0.110168  0.492264  0.644870  1
  Sc  Sc9  1  0.389618  0.007979  0.145619  1
  Sc  Sc10  1  0.889785  0.992084  0.354167  1
  Sc  Sc11  1  0.611306  0.507686  0.854688  1
  Ga  Ga12  1  0.873764  0.049693  0.094192  1
  Ga  Ga13  1  0.625798  0.450381  0.594514  1
  Ga  Ga14  1  0.126545  0.550049  0.905888  1
  Ga  Ga15  1  0.374638  0.950601  0.405596  1
  Ga  Ga16  1  0.126545  0.949951  0.905888  1
  Ga  Ga17  1  0.374638  0.549399  0.405596  1
  Ga  Ga18  1  0.873764  0.450307  0.094192  1
  Ga  Ga19  1  0.625798  0.049619  0.594514  1
  Ga  Ga20  1  0.163534  0.750000  0.251023  1
  Ga  Ga21  1  0.336436  0.750000  0.751135  1
  Ga  Ga22  1  0.837185  0.250000  0.748664  1
  Ga  Ga23  1  0.661866  0.250000  0.250676  1
  Ga  Ga24  1  0.381977  0.750000  0.007505  1
  Ga  Ga25  1  0.118796  0.750000  0.507712  1
  Ga  Ga26  1  0.619357  0.250000  0.992238  1
  Ga  Ga27  1  0.881914  0.250000  0.492404  1
  Ga  Ga28  1  0.620678  0.750000  0.294145  1
  Ga  Ga29  1  0.878637  0.750000  0.793985  1
  Ga  Ga30  1  0.380667  0.250000  0.706252  1
  Ga  Ga31  1  0.122531  0.250000  0.204912  1
