# generated using pymatgen
data_Ca2SmCd(Ru2O7)2
_symmetry_space_group_name_H-M   'P 1'
_cell_length_a   7.23606365
_cell_length_b   7.23606367
_cell_length_c   7.23875307
_cell_angle_alpha   60.84580160
_cell_angle_beta   60.84580059
_cell_angle_gamma   60.68705258
_symmetry_Int_Tables_number   1
_chemical_formula_structural   Ca2SmCd(Ru2O7)2
_chemical_formula_sum   'Ca2 Sm1 Cd1 Ru4 O14'
_cell_volume   272.80344925
_cell_formula_units_Z   1
loop_
 _symmetry_equiv_pos_site_id
 _symmetry_equiv_pos_as_xyz
  1  'x, y, z'
loop_
 _atom_site_type_symbol
 _atom_site_label
 _atom_site_symmetry_multiplicity
 _atom_site_fract_x
 _atom_site_fract_y
 _atom_site_fract_z
 _atom_site_occupancy
  Ca  Ca0  1  0.125000  0.625000  0.125000  1
  Ca  Ca1  1  0.625000  0.125000  0.125000  1
  Sm  Sm2  1  0.125000  0.125000  0.625000  1
  Cd  Cd3  1  0.125000  0.125000  0.125000  1
  Ru  Ru4  1  0.625000  0.125000  0.625000  1
  Ru  Ru5  1  0.625000  0.625000  0.125000  1
  Ru  Ru6  1  0.125000  0.625000  0.625000  1
  Ru  Ru7  1  0.625000  0.625000  0.625000  1
  O  O8  1  0.695671  0.695671  0.306426  1
  O  O9  1  0.950244  0.546080  0.551338  1
  O  O10  1  0.559775  0.942866  0.940221  1
  O  O11  1  0.945384  0.945384  0.558167  1
  O  O12  1  0.942866  0.559775  0.940221  1
  O  O13  1  0.546080  0.950244  0.551338  1
  O  O14  1  0.307134  0.690225  0.309779  1
  O  O15  1  0.299756  0.703920  0.698662  1
  O  O16  1  0.690225  0.307134  0.309779  1
  O  O17  1  0.703920  0.299756  0.698662  1
  O  O18  1  0.554329  0.554329  0.943574  1
  O  O19  1  0.304616  0.304616  0.691833  1
  O  O20  1  0.245106  0.245106  0.247032  1
  O  O21  1  0.004894  0.004894  0.002968  1
