# generated using pymatgen
data_Zr5Ta(TcGe)6
_symmetry_space_group_name_H-M   'P 1'
_cell_length_a   7.91635332
_cell_length_b   7.91854537
_cell_length_c   7.91635200
_cell_angle_alpha   126.19148427
_cell_angle_beta   128.88565683
_cell_angle_gamma   77.38744258
_symmetry_Int_Tables_number   1
_chemical_formula_structural   Zr5Ta(TcGe)6
_chemical_formula_sum   'Zr5 Ta1 Tc6 Ge6'
_cell_volume   302.43999377
_cell_formula_units_Z   1
loop_
 _symmetry_equiv_pos_site_id
 _symmetry_equiv_pos_as_xyz
  1  'x, y, z'
loop_
 _atom_site_type_symbol
 _atom_site_label
 _atom_site_symmetry_multiplicity
 _atom_site_fract_x
 _atom_site_fract_y
 _atom_site_fract_z
 _atom_site_occupancy
  Zr  Zr0  1  0.950047  0.492086  0.042039  1
  Zr  Zr1  1  0.047447  0.095922  0.548474  1
  Zr  Zr2  1  0.452509  0.501125  0.548616  1
  Zr  Zr3  1  0.750005  0.897457  0.647452  1
  Zr  Zr4  1  0.550147  0.092369  0.042221  1
  Ta  Ta5  1  0.250002  0.897941  0.147939  1
  Tc  Tc6  1  0.495362  0.238054  0.733482  1
  Tc  Tc7  1  0.004573  0.238054  0.242692  1
  Tc  Tc8  1  0.874397  0.500930  0.629362  1
  Tc  Tc9  1  0.625328  0.754959  0.126305  1
  Tc  Tc10  1  0.371567  0.500930  0.126533  1
  Tc  Tc11  1  0.128654  0.754959  0.629631  1
  Ge  Ge12  1  0.750137  0.494578  0.244443  1
  Ge  Ge13  1  0.170100  0.161412  0.001053  1
  Ge  Ge14  1  0.660359  0.161412  0.491312  1
  Ge  Ge15  1  0.329952  0.830920  0.491410  1
  Ge  Ge16  1  0.249902  0.498183  0.748280  1
  Ge  Ge17  1  0.839511  0.830920  0.000968  1
