# generated using pymatgen
data_Hf7Zr3Cu2SnSb5
_symmetry_space_group_name_H-M   'P 1'
_cell_length_a   8.59456073
_cell_length_b   8.59456142
_cell_length_c   5.78689200
_cell_angle_alpha   90.00000000
_cell_angle_beta   90.00000000
_cell_angle_gamma   120.01809270
_symmetry_Int_Tables_number   1
_chemical_formula_structural   Hf7Zr3Cu2SnSb5
_chemical_formula_sum   'Hf7 Zr3 Cu2 Sn1 Sb5'
_cell_volume   370.12140876
_cell_formula_units_Z   1
loop_
 _symmetry_equiv_pos_site_id
 _symmetry_equiv_pos_as_xyz
  1  'x, y, z'
loop_
 _atom_site_type_symbol
 _atom_site_label
 _atom_site_symmetry_multiplicity
 _atom_site_fract_x
 _atom_site_fract_y
 _atom_site_fract_z
 _atom_site_occupancy
  Hf  Hf0  1  0.666953  0.333197  0.998950  1
  Hf  Hf1  1  0.333197  0.666953  0.998950  1
  Hf  Hf2  1  0.333197  0.666953  0.501050  1
  Hf  Hf3  1  0.666953  0.333197  0.501050  1
  Hf  Hf4  1  0.734630  0.734630  0.750000  1
  Hf  Hf5  1  0.266396  0.999836  0.750000  1
  Hf  Hf6  1  0.999836  0.266396  0.750000  1
  Zr  Zr7  1  0.264816  0.264816  0.250000  1
  Zr  Zr8  1  0.733853  0.999835  0.250000  1
  Zr  Zr9  1  0.999835  0.733853  0.250000  1
  Cu  Cu10  1  0.000846  0.000846  0.506087  1
  Cu  Cu11  1  0.000846  0.000846  0.993913  1
  Sn  Sn12  1  0.384265  0.384265  0.750000  1
  Sb  Sb13  1  0.615165  0.999904  0.750000  1
  Sb  Sb14  1  0.999904  0.615165  0.750000  1
  Sb  Sb15  1  0.613589  0.613589  0.250000  1
  Sb  Sb16  1  0.385312  0.000408  0.250000  1
  Sb  Sb17  1  0.000408  0.385312  0.250000  1
