# generated using pymatgen
data_HfNi3AsPd
_symmetry_space_group_name_H-M   'P 1'
_cell_length_a   4.76592141
_cell_length_b   4.76592169
_cell_length_c   4.76592251
_cell_angle_alpha   62.61603855
_cell_angle_beta   62.61603731
_cell_angle_gamma   62.61602913
_symmetry_Int_Tables_number   1
_chemical_formula_structural   HfNi3AsPd
_chemical_formula_sum   'Hf1 Ni3 As1 Pd1'
_cell_volume   81.00527102
_cell_formula_units_Z   1
loop_
 _symmetry_equiv_pos_site_id
 _symmetry_equiv_pos_as_xyz
  1  'x, y, z'
loop_
 _atom_site_type_symbol
 _atom_site_label
 _atom_site_symmetry_multiplicity
 _atom_site_fract_x
 _atom_site_fract_y
 _atom_site_fract_z
 _atom_site_occupancy
  Hf  Hf0  1  0.247888  0.247888  0.247888  1
  Ni  Ni1  1  0.124308  0.625927  0.625927  1
  Ni  Ni2  1  0.625927  0.124308  0.625927  1
  Ni  Ni3  1  0.625927  0.625927  0.124308  1
  As  As4  1  0.626121  0.626121  0.626121  1
  Pd  Pd5  1  0.999828  0.999828  0.999828  1
