# generated using pymatgen
data_Zr6Zn21Pd2C
_symmetry_space_group_name_H-M   'P 1'
_cell_length_a   8.72808666
_cell_length_b   8.72808669
_cell_length_c   8.67015100
_cell_angle_alpha   60.21933251
_cell_angle_beta   60.21933241
_cell_angle_gamma   60.01617955
_symmetry_Int_Tables_number   1
_chemical_formula_structural   Zr6Zn21Pd2C
_chemical_formula_sum   'Zr6 Zn21 Pd2 C1'
_cell_volume   468.63534315
_cell_formula_units_Z   1
loop_
 _symmetry_equiv_pos_site_id
 _symmetry_equiv_pos_as_xyz
  1  'x, y, z'
loop_
 _atom_site_type_symbol
 _atom_site_label
 _atom_site_symmetry_multiplicity
 _atom_site_fract_x
 _atom_site_fract_y
 _atom_site_fract_z
 _atom_site_occupancy
  Zr  Zr0  1  0.690020  0.309980  0.311675  1
  Zr  Zr1  1  0.309980  0.690020  0.688325  1
  Zr  Zr2  1  0.309980  0.690020  0.311675  1
  Zr  Zr3  1  0.690020  0.309980  0.688325  1
  Zr  Zr4  1  0.311704  0.311704  0.688296  1
  Zr  Zr5  1  0.688296  0.688296  0.311704  1
  Zn  Zn6  1  0.119381  0.119381  0.122460  1
  Zn  Zn7  1  0.880619  0.880619  0.877540  1
  Zn  Zn8  1  0.119381  0.119381  0.638780  1
  Zn  Zn9  1  0.119408  0.639383  0.120605  1
  Zn  Zn10  1  0.880619  0.880619  0.361220  1
  Zn  Zn11  1  0.880592  0.360617  0.879395  1
  Zn  Zn12  1  0.639383  0.119408  0.120605  1
  Zn  Zn13  1  0.360617  0.880592  0.879395  1
  Zn  Zn14  1  0.500000  0.000000  0.000000  1
  Zn  Zn15  1  0.000000  0.500000  0.500000  1
  Zn  Zn16  1  0.000000  0.500000  0.000000  1
  Zn  Zn17  1  0.500000  0.000000  0.500000  1
  Zn  Zn18  1  0.500000  0.500000  0.000000  1
  Zn  Zn19  1  0.331248  0.331248  0.330954  1
  Zn  Zn20  1  0.668752  0.668752  0.669046  1
  Zn  Zn21  1  0.331248  0.331248  0.006551  1
  Zn  Zn22  1  0.333225  0.006333  0.330221  1
  Zn  Zn23  1  0.668752  0.668752  0.993449  1
  Zn  Zn24  1  0.666775  0.993667  0.669779  1
  Zn  Zn25  1  0.006333  0.333225  0.330221  1
  Zn  Zn26  1  0.993667  0.666775  0.669779  1
  Pd  Pd27  1  0.000000  0.000000  0.500000  1
  Pd  Pd28  1  0.000000  0.000000  0.000000  1
  C  C29  1  0.500000  0.500000  0.500000  1
