# generated using pymatgen
data_Li2Nd3Sm3(Co4P3)4
_symmetry_space_group_name_H-M   'P 1'
_cell_length_a   3.77895700
_cell_length_b   10.70839947
_cell_length_c   12.40533955
_cell_angle_alpha   90.03400597
_cell_angle_beta   90.00000000
_cell_angle_gamma   90.00000000
_symmetry_Int_Tables_number   1
_chemical_formula_structural   Li2Nd3Sm3(Co4P3)4
_chemical_formula_sum   'Li2 Nd3 Sm3 Co16 P12'
_cell_volume   502.00159092
_cell_formula_units_Z   1
loop_
 _symmetry_equiv_pos_site_id
 _symmetry_equiv_pos_as_xyz
  1  'x, y, z'
loop_
 _atom_site_type_symbol
 _atom_site_label
 _atom_site_symmetry_multiplicity
 _atom_site_fract_x
 _atom_site_fract_y
 _atom_site_fract_z
 _atom_site_occupancy
  Li  Li0  1  0.500000  0.499852  0.151296  1
  Li  Li1  1  0.000000  0.999987  0.848618  1
  Nd  Nd2  1  0.000000  0.499861  0.523033  1
  Nd  Nd3  1  0.500000  0.000273  0.477564  1
  Nd  Nd4  1  0.500000  0.818943  0.206194  1
  Sm  Sm5  1  0.500000  0.181634  0.205875  1
  Sm  Sm6  1  0.000000  0.681287  0.794059  1
  Sm  Sm7  1  0.000000  0.318481  0.793774  1
  Co  Co8  1  0.500000  0.499872  0.706439  1
  Co  Co9  1  0.000000  0.001311  0.293856  1
  Co  Co10  1  0.000000  0.499518  0.987086  1
  Co  Co11  1  0.500000  0.000519  0.011866  1
  Co  Co12  1  0.500000  0.332998  0.997008  1
  Co  Co13  1  0.500000  0.666579  0.996503  1
  Co  Co14  1  0.000000  0.167426  0.002541  1
  Co  Co15  1  0.000000  0.833089  0.002226  1
  Co  Co16  1  0.500000  0.296642  0.430525  1
  Co  Co17  1  0.500000  0.702978  0.431277  1
  Co  Co18  1  0.000000  0.203446  0.569639  1
  Co  Co19  1  0.000000  0.796669  0.570197  1
  Co  Co20  1  0.500000  0.879978  0.707515  1
  Co  Co21  1  0.500000  0.120049  0.707366  1
  Co  Co22  1  0.000000  0.619234  0.293389  1
  Co  Co23  1  0.000000  0.379778  0.292545  1
  P  P24  1  0.500000  0.499715  0.886753  1
  P  P25  1  0.000000  0.001109  0.112256  1
  P  P26  1  0.500000  0.499967  0.342653  1
  P  P27  1  0.000000  0.999988  0.657567  1
  P  P28  1  0.500000  0.305355  0.614957  1
  P  P29  1  0.500000  0.694325  0.615297  1
  P  P30  1  0.000000  0.194559  0.385135  1
  P  P31  1  0.000000  0.805097  0.386562  1
  P  P32  1  0.500000  0.844234  0.895835  1
  P  P33  1  0.500000  0.156014  0.895674  1
  P  P34  1  0.000000  0.654945  0.102930  1
  P  P35  1  0.000000  0.344289  0.103990  1
