# generated using pymatgen
data_Ac9Nd11Pb16
_symmetry_space_group_name_H-M   'P 1'
_cell_length_a   8.66730112
_cell_length_b   16.64685600
_cell_length_c   8.72683800
_cell_angle_alpha   90.00000000
_cell_angle_beta   89.84645616
_cell_angle_gamma   90.00000000
_symmetry_Int_Tables_number   1
_chemical_formula_structural   Ac9Nd11Pb16
_chemical_formula_sum   'Ac9 Nd11 Pb16'
_cell_volume   1259.13258342
_cell_formula_units_Z   1
loop_
 _symmetry_equiv_pos_site_id
 _symmetry_equiv_pos_as_xyz
  1  'x, y, z'
loop_
 _atom_site_type_symbol
 _atom_site_label
 _atom_site_symmetry_multiplicity
 _atom_site_fract_x
 _atom_site_fract_y
 _atom_site_fract_z
 _atom_site_occupancy
  Ac  Ac0  1  0.473118  0.600134  0.678005  1
  Ac  Ac1  1  0.972740  0.900991  0.820941  1
  Ac  Ac2  1  0.526246  0.096968  0.320420  1
  Ac  Ac3  1  0.026662  0.402634  0.178220  1
  Ac  Ac4  1  0.526246  0.403032  0.320420  1
  Ac  Ac5  1  0.026662  0.097366  0.178220  1
  Ac  Ac6  1  0.473118  0.899866  0.678005  1
  Ac  Ac7  1  0.972740  0.599009  0.820941  1
  Ac  Ac8  1  0.210300  0.250000  0.502676  1
  Nd  Nd9  1  0.627276  0.620125  0.157266  1
  Nd  Nd10  1  0.127554  0.878988  0.342609  1
  Nd  Nd11  1  0.373489  0.117936  0.842379  1
  Nd  Nd12  1  0.872363  0.381766  0.656650  1
  Nd  Nd13  1  0.373489  0.382064  0.842379  1
  Nd  Nd14  1  0.872363  0.118234  0.656650  1
  Nd  Nd15  1  0.627276  0.879875  0.157266  1
  Nd  Nd16  1  0.127554  0.621012  0.342609  1
  Nd  Nd17  1  0.790609  0.750000  0.496872  1
  Nd  Nd18  1  0.289803  0.750000  0.002668  1
  Nd  Nd19  1  0.709200  0.250000  0.997202  1
  Pb  Pb20  1  0.709754  0.454057  0.961363  1
  Pb  Pb21  1  0.208022  0.041362  0.542913  1
  Pb  Pb22  1  0.290818  0.953959  0.039740  1
  Pb  Pb23  1  0.790811  0.545712  0.458890  1
  Pb  Pb24  1  0.290818  0.546041  0.039740  1
  Pb  Pb25  1  0.790811  0.954288  0.458890  1
  Pb  Pb26  1  0.709754  0.045943  0.961363  1
  Pb  Pb27  1  0.208022  0.458638  0.542913  1
  Pb  Pb28  1  0.429757  0.750000  0.366450  1
  Pb  Pb29  1  0.928917  0.750000  0.132756  1
  Pb  Pb30  1  0.579685  0.250000  0.636848  1
  Pb  Pb31  1  0.069168  0.250000  0.877366  1
  Pb  Pb32  1  0.662935  0.750000  0.859035  1
  Pb  Pb33  1  0.162847  0.750000  0.642652  1
  Pb  Pb34  1  0.341405  0.250000  0.131748  1
  Pb  Pb35  1  0.827666  0.250000  0.354936  1
