# generated using pymatgen
data_Ho2Co6Tc(NiP2)3
_symmetry_space_group_name_H-M   'P 1'
_cell_length_a   3.68764100
_cell_length_b   10.34406200
_cell_length_c   11.77266800
_cell_angle_alpha   90.00000000
_cell_angle_beta   90.00000000
_cell_angle_gamma   90.00000000
_symmetry_Int_Tables_number   1
_chemical_formula_structural   Ho2Co6Tc(NiP2)3
_chemical_formula_sum   'Ho4 Co12 Tc2 Ni6 P12'
_cell_volume   449.07062397
_cell_formula_units_Z   2
loop_
 _symmetry_equiv_pos_site_id
 _symmetry_equiv_pos_as_xyz
  1  'x, y, z'
loop_
 _atom_site_type_symbol
 _atom_site_label
 _atom_site_symmetry_multiplicity
 _atom_site_fract_x
 _atom_site_fract_y
 _atom_site_fract_z
 _atom_site_occupancy
  Ho  Ho0  1  0.250000  0.583274  0.703001  1
  Ho  Ho1  1  0.250000  0.916726  0.203001  1
  Ho  Ho2  1  0.750000  0.415565  0.294536  1
  Ho  Ho3  1  0.750000  0.084435  0.794536  1
  Co  Co4  1  0.750000  0.591375  0.510161  1
  Co  Co5  1  0.750000  0.908625  0.010161  1
  Co  Co6  1  0.750000  0.778111  0.822563  1
  Co  Co7  1  0.750000  0.721889  0.322563  1
  Co  Co8  1  0.250000  0.886631  0.701904  1
  Co  Co9  1  0.250000  0.613369  0.201904  1
  Co  Co10  1  0.750000  0.117102  0.301562  1
  Co  Co11  1  0.750000  0.382898  0.801562  1
  Co  Co12  1  0.250000  0.465301  0.931399  1
  Co  Co13  1  0.250000  0.034699  0.431399  1
  Co  Co14  1  0.750000  0.533090  0.069247  1
  Co  Co15  1  0.750000  0.966910  0.569247  1
  Tc  Tc16  1  0.250000  0.710923  0.990845  1
  Tc  Tc17  1  0.250000  0.789077  0.490845  1
  Ni  Ni18  1  0.750000  0.284049  0.009884  1
  Ni  Ni19  1  0.750000  0.215951  0.509884  1
  Ni  Ni20  1  0.250000  0.407433  0.487522  1
  Ni  Ni21  1  0.250000  0.092567  0.987522  1
  Ni  Ni22  1  0.250000  0.220324  0.177365  1
  Ni  Ni23  1  0.250000  0.279676  0.677365  1
  P  P24  1  0.250000  0.420023  0.111691  1
  P  P25  1  0.250000  0.079977  0.611691  1
  P  P26  1  0.750000  0.578982  0.886740  1
  P  P27  1  0.750000  0.921018  0.386740  1
  P  P28  1  0.250000  0.271651  0.868940  1
  P  P29  1  0.250000  0.228349  0.368940  1
  P  P30  1  0.750000  0.729697  0.132787  1
  P  P31  1  0.750000  0.770303  0.632787  1
  P  P32  1  0.250000  0.598499  0.390113  1
  P  P33  1  0.250000  0.901501  0.890113  1
  P  P34  1  0.750000  0.399745  0.609743  1
  P  P35  1  0.750000  0.100255  0.109743  1
