# generated using pymatgen
data_DyU3(ReB6)2
_symmetry_space_group_name_H-M   'P 1'
_cell_length_a   3.63982700
_cell_length_b   9.29910312
_cell_length_c   11.39708615
_cell_angle_alpha   89.98161672
_cell_angle_beta   90.00000000
_cell_angle_gamma   90.00000000
_symmetry_Int_Tables_number   1
_chemical_formula_structural   DyU3(ReB6)2
_chemical_formula_sum   'Dy2 U6 Re4 B24'
_cell_volume   385.75859794
_cell_formula_units_Z   2
loop_
 _symmetry_equiv_pos_site_id
 _symmetry_equiv_pos_as_xyz
  1  'x, y, z'
loop_
 _atom_site_type_symbol
 _atom_site_label
 _atom_site_symmetry_multiplicity
 _atom_site_fract_x
 _atom_site_fract_y
 _atom_site_fract_z
 _atom_site_occupancy
  Dy  Dy0  1  0.000000  0.335952  0.407959  1
  Dy  Dy1  1  0.000000  0.664048  0.592041  1
  U  U2  1  0.000000  0.835707  0.092757  1
  U  U3  1  0.000000  0.164293  0.907243  1
  U  U4  1  0.000000  0.956150  0.396356  1
  U  U5  1  0.000000  0.043850  0.603644  1
  U  U6  1  0.000000  0.456762  0.103454  1
  U  U7  1  0.000000  0.543238  0.896546  1
  Re  Re8  1  0.000000  0.646528  0.316662  1
  Re  Re9  1  0.000000  0.353472  0.683338  1
  Re  Re10  1  0.000000  0.142633  0.177858  1
  Re  Re11  1  0.000000  0.857367  0.822142  1
  B  B12  1  0.500000  0.551416  0.430935  1
  B  B13  1  0.500000  0.448584  0.569065  1
  B  B14  1  0.500000  0.049499  0.067552  1
  B  B15  1  0.500000  0.950501  0.932448  1
  B  B16  1  0.500000  0.742266  0.423340  1
  B  B17  1  0.500000  0.257734  0.576660  1
  B  B18  1  0.500000  0.242905  0.076423  1
  B  B19  1  0.500000  0.757095  0.923577  1
  B  B20  1  0.500000  0.802708  0.273564  1
  B  B21  1  0.500000  0.197292  0.726436  1
  B  B22  1  0.500000  0.301458  0.225431  1
  B  B23  1  0.500000  0.698542  0.774569  1
  B  B24  1  0.500000  0.643994  0.187944  1
  B  B25  1  0.500000  0.356006  0.812056  1
  B  B26  1  0.500000  0.143467  0.311514  1
  B  B27  1  0.500000  0.856533  0.688486  1
  B  B28  1  0.500000  0.986023  0.219117  1
  B  B29  1  0.500000  0.013977  0.780883  1
  B  B30  1  0.500000  0.487191  0.281023  1
  B  B31  1  0.500000  0.512809  0.718977  1
  B  B32  1  0.500000  0.643057  0.039306  1
  B  B33  1  0.500000  0.356943  0.960694  1
  B  B34  1  0.500000  0.140159  0.461079  1
  B  B35  1  0.500000  0.859841  0.538921  1
