# generated using pymatgen
data_Li(Tb3Se4)2
_symmetry_space_group_name_H-M   'P 1'
_cell_length_a   8.15606535
_cell_length_b   8.15606953
_cell_length_c   8.15613800
_cell_angle_alpha   120.00383068
_cell_angle_beta   90.28844480
_cell_angle_gamma   119.66399227
_symmetry_Int_Tables_number   1
_chemical_formula_structural   Li(Tb3Se4)2
_chemical_formula_sum   'Li1 Tb6 Se8'
_cell_volume   384.59915571
_cell_formula_units_Z   1
loop_
 _symmetry_equiv_pos_site_id
 _symmetry_equiv_pos_as_xyz
  1  'x, y, z'
loop_
 _atom_site_type_symbol
 _atom_site_label
 _atom_site_symmetry_multiplicity
 _atom_site_fract_x
 _atom_site_fract_y
 _atom_site_fract_z
 _atom_site_occupancy
  Li  Li0  1  0.249986  0.000000  0.249985  1
  Tb  Tb1  1  0.250000  0.499998  0.249999  1
  Tb  Tb2  1  0.750002  0.000000  0.249998  1
  Tb  Tb3  1  0.249998  0.500000  0.749997  1
  Tb  Tb4  1  0.249996  0.000000  0.750002  1
  Tb  Tb5  1  0.750005  0.000000  0.750006  1
  Tb  Tb6  1  0.750002  0.500004  0.750002  1
  Se  Se7  1  0.004470  0.999999  0.004470  1
  Se  Se8  1  0.495552  0.999999  0.495552  1
  Se  Se9  1  0.002904  0.003231  0.500325  1
  Se  Se10  1  0.998588  0.500001  0.498591  1
  Se  Se11  1  0.497090  0.497405  0.500317  1
  Se  Se12  1  0.002911  0.502595  0.999686  1
  Se  Se13  1  0.501405  0.499999  0.001405  1
  Se  Se14  1  0.497093  0.996771  0.999673  1
