# generated using pymatgen
data_BaLaIn2Pt3
_symmetry_space_group_name_H-M   'P 1'
_cell_length_a   4.52828500
_cell_length_b   8.15865600
_cell_length_c   9.36819800
_cell_angle_alpha   90.00000000
_cell_angle_beta   90.00000000
_cell_angle_gamma   90.00000000
_symmetry_Int_Tables_number   1
_chemical_formula_structural   BaLaIn2Pt3
_chemical_formula_sum   'Ba2 La2 In4 Pt6'
_cell_volume   346.10544813
_cell_formula_units_Z   2
loop_
 _symmetry_equiv_pos_site_id
 _symmetry_equiv_pos_as_xyz
  1  'x, y, z'
loop_
 _atom_site_type_symbol
 _atom_site_label
 _atom_site_symmetry_multiplicity
 _atom_site_fract_x
 _atom_site_fract_y
 _atom_site_fract_z
 _atom_site_occupancy
  Ba  Ba0  1  0.000000  0.000000  0.273488  1
  Ba  Ba1  1  0.500001  0.500000  0.726513  1
  La  La2  1  0.000000  0.500000  0.351691  1
  La  La3  1  0.500001  0.000000  0.648310  1
  In  In4  1  0.500001  0.306325  0.108819  1
  In  In5  1  0.500001  0.693676  0.108819  1
  In  In6  1  0.000000  0.193675  0.891181  1
  In  In7  1  0.000000  0.806324  0.891181  1
  Pt  Pt8  1  0.000000  0.500000  0.028800  1
  Pt  Pt9  1  0.500001  0.264530  0.406972  1
  Pt  Pt10  1  0.500001  0.735470  0.406972  1
  Pt  Pt11  1  0.000000  0.235470  0.593029  1
  Pt  Pt12  1  0.000000  0.764530  0.593029  1
  Pt  Pt13  1  0.500001  0.000000  0.971201  1
