# generated using pymatgen
data_Tm6Al24Os5Pd3
_symmetry_space_group_name_H-M   'P 1'
_cell_length_a   8.80348885
_cell_length_b   8.82397397
_cell_length_c   9.52621400
_cell_angle_alpha   90.17025181
_cell_angle_beta   89.65471938
_cell_angle_gamma   119.43649905
_symmetry_Int_Tables_number   1
_chemical_formula_structural   Tm6Al24Os5Pd3
_chemical_formula_sum   'Tm6 Al24 Os5 Pd3'
_cell_volume   644.46632756
_cell_formula_units_Z   1
loop_
 _symmetry_equiv_pos_site_id
 _symmetry_equiv_pos_as_xyz
  1  'x, y, z'
loop_
 _atom_site_type_symbol
 _atom_site_label
 _atom_site_symmetry_multiplicity
 _atom_site_fract_x
 _atom_site_fract_y
 _atom_site_fract_z
 _atom_site_occupancy
  Tm  Tm0  1  0.187600  0.385169  0.251804  1
  Tm  Tm1  1  0.812400  0.614831  0.748196  1
  Tm  Tm2  1  0.611745  0.814916  0.252915  1
  Tm  Tm3  1  0.388255  0.185084  0.747085  1
  Tm  Tm4  1  0.197113  0.808362  0.252066  1
  Tm  Tm5  1  0.802887  0.191638  0.747934  1
  Al  Al6  1  0.334992  0.670670  0.029814  1
  Al  Al7  1  0.665008  0.329330  0.970186  1
  Al  Al8  1  0.669005  0.331585  0.527162  1
  Al  Al9  1  0.330995  0.668415  0.472838  1
  Al  Al10  1  0.157412  0.324768  0.576725  1
  Al  Al11  1  0.842588  0.675232  0.423275  1
  Al  Al12  1  0.674025  0.840994  0.576994  1
  Al  Al13  1  0.836941  0.676968  0.079870  1
  Al  Al14  1  0.325975  0.159006  0.423006  1
  Al  Al15  1  0.163059  0.323032  0.920130  1
  Al  Al16  1  0.163575  0.834971  0.576544  1
  Al  Al17  1  0.325130  0.158706  0.077426  1
  Al  Al18  1  0.836425  0.165029  0.423456  1
  Al  Al19  1  0.674870  0.841294  0.922574  1
  Al  Al20  1  0.831537  0.159185  0.078611  1
  Al  Al21  1  0.168463  0.840815  0.921389  1
  Al  Al22  1  0.561079  0.125496  0.249824  1
  Al  Al23  1  0.438921  0.874504  0.750176  1
  Al  Al24  1  0.874695  0.438292  0.252118  1
  Al  Al25  1  0.125305  0.561708  0.747882  1
  Al  Al26  1  0.561140  0.438323  0.249726  1
  Al  Al27  1  0.438860  0.561677  0.750274  1
  Al  Al28  1  0.998723  0.002883  0.250272  1
  Al  Al29  1  0.001277  0.997117  0.749728  1
  Os  Os30  1  0.500000  0.000000  0.000000  1
  Os  Os31  1  0.500000  0.000000  0.500000  1
  Os  Os32  1  0.000000  0.500000  0.500000  1
  Os  Os33  1  0.000000  0.000000  0.000000  1
  Os  Os34  1  0.000000  0.000000  0.500000  1
  Pd  Pd35  1  0.000000  0.500000  0.000000  1
  Pd  Pd36  1  0.500000  0.500000  0.000000  1
  Pd  Pd37  1  0.500000  0.500000  0.500000  1
