# generated using pymatgen
data_Ga8Bi3SbO18
_symmetry_space_group_name_H-M   'P 1'
_cell_length_a   5.99151200
_cell_length_b   8.07190819
_cell_length_c   8.39155421
_cell_angle_alpha   89.97474195
_cell_angle_beta   90.00000000
_cell_angle_gamma   90.00000000
_symmetry_Int_Tables_number   1
_chemical_formula_structural   Ga8Bi3SbO18
_chemical_formula_sum   'Ga8 Bi3 Sb1 O18'
_cell_volume   405.84014957
_cell_formula_units_Z   1
loop_
 _symmetry_equiv_pos_site_id
 _symmetry_equiv_pos_as_xyz
  1  'x, y, z'
loop_
 _atom_site_type_symbol
 _atom_site_label
 _atom_site_symmetry_multiplicity
 _atom_site_fract_x
 _atom_site_fract_y
 _atom_site_fract_z
 _atom_site_occupancy
  Ga  Ga0  1  0.500000  0.149543  0.660838  1
  Ga  Ga1  1  0.500000  0.849580  0.338628  1
  Ga  Ga2  1  0.500000  0.650264  0.838925  1
  Ga  Ga3  1  0.500000  0.353450  0.161636  1
  Ga  Ga4  1  0.259070  0.500244  0.501729  1
  Ga  Ga5  1  0.741537  0.999175  0.001877  1
  Ga  Ga6  1  0.740930  0.500244  0.501729  1
  Ga  Ga7  1  0.258463  0.999175  0.001877  1
  Bi  Bi8  1  0.000000  0.674487  0.170232  1
  Bi  Bi9  1  0.000000  0.821100  0.670709  1
  Bi  Bi10  1  0.000000  0.176574  0.325569  1
  Sb  Sb11  1  0.000000  0.307364  0.818858  1
  O  O12  1  0.500000  0.512353  0.009219  1
  O  O13  1  0.500000  0.999393  0.500726  1
  O  O14  1  0.242722  0.872697  0.210542  1
  O  O15  1  0.238486  0.129739  0.788461  1
  O  O16  1  0.756824  0.372323  0.292163  1
  O  O17  1  0.753153  0.630388  0.707319  1
  O  O18  1  0.761514  0.129739  0.788461  1
  O  O19  1  0.757278  0.872697  0.210542  1
  O  O20  1  0.246847  0.630388  0.707319  1
  O  O21  1  0.243176  0.372323  0.292163  1
  O  O22  1  0.500000  0.367401  0.592536  1
  O  O23  1  0.500000  0.631404  0.407444  1
  O  O24  1  0.000000  0.148026  0.062184  1
  O  O25  1  0.000000  0.850688  0.934977  1
  O  O26  1  0.000000  0.645263  0.435706  1
  O  O27  1  0.000000  0.347231  0.572256  1
  O  O28  1  0.500000  0.135382  0.089102  1
  O  O29  1  0.500000  0.871366  0.906271  1
