# generated using pymatgen
data_Pr10C4SCl14
_symmetry_space_group_name_H-M   'P 1'
_cell_length_a   8.81895696
_cell_length_b   10.34768754
_cell_length_c   10.79089096
_cell_angle_alpha   70.23321845
_cell_angle_beta   67.49630127
_cell_angle_gamma   69.40408144
_symmetry_Int_Tables_number   1
_chemical_formula_structural   Pr10C4SCl14
_chemical_formula_sum   'Pr10 C4 S1 Cl14'
_cell_volume   827.67611162
_cell_formula_units_Z   1
loop_
 _symmetry_equiv_pos_site_id
 _symmetry_equiv_pos_as_xyz
  1  'x, y, z'
loop_
 _atom_site_type_symbol
 _atom_site_label
 _atom_site_symmetry_multiplicity
 _atom_site_fract_x
 _atom_site_fract_y
 _atom_site_fract_z
 _atom_site_occupancy
  Pr  Pr0  1  0.355671  0.735295  0.831392  1
  Pr  Pr1  1  0.644329  0.264705  0.168608  1
  Pr  Pr2  1  0.185056  0.428821  0.045898  1
  Pr  Pr3  1  0.814944  0.571179  0.954102  1
  Pr  Pr4  1  0.083959  0.192015  0.876619  1
  Pr  Pr5  1  0.916041  0.807985  0.123381  1
  Pr  Pr6  1  0.246673  0.548529  0.633491  1
  Pr  Pr7  1  0.753327  0.451471  0.366509  1
  Pr  Pr8  1  0.036279  0.103858  0.266637  1
  Pr  Pr9  1  0.963721  0.896142  0.733363  1
  C  C10  1  0.879713  0.359027  0.174544  1
  C  C11  1  0.120287  0.640973  0.825456  1
  C  C12  1  0.955409  0.297292  0.060348  1
  C  C13  1  0.044591  0.702708  0.939652  1
  S  S14  1  0.500000  0.500000  0.000000  1
  Cl  Cl15  1  0.122010  0.818626  0.472265  1
  Cl  Cl16  1  0.877990  0.181374  0.527735  1
  Cl  Cl17  1  0.242354  0.012745  0.665891  1
  Cl  Cl18  1  0.757646  0.987255  0.334109  1
  Cl  Cl19  1  0.340272  0.164371  0.220828  1
  Cl  Cl20  1  0.659728  0.835629  0.779172  1
  Cl  Cl21  1  0.455609  0.374025  0.414220  1
  Cl  Cl22  1  0.544391  0.625975  0.585780  1
  Cl  Cl23  1  0.954739  0.445999  0.701201  1
  Cl  Cl24  1  0.045261  0.554001  0.298799  1
  Cl  Cl25  1  0.207061  0.920803  0.055933  1
  Cl  Cl26  1  0.792939  0.079197  0.944067  1
  Cl  Cl27  1  0.377872  0.282104  0.810286  1
  Cl  Cl28  1  0.622128  0.717896  0.189714  1
