# generated using pymatgen
data_Y3HoB16(IrRu)2
_symmetry_space_group_name_H-M   'P 1'
_cell_length_a   3.56640400
_cell_length_b   5.97376791
_cell_length_c   11.57890015
_cell_angle_alpha   89.88641972
_cell_angle_beta   90.00000000
_cell_angle_gamma   90.00000000
_symmetry_Int_Tables_number   1
_chemical_formula_structural   Y3HoB16(IrRu)2
_chemical_formula_sum   'Y3 Ho1 B16 Ir2 Ru2'
_cell_volume   246.68647518
_cell_formula_units_Z   1
loop_
 _symmetry_equiv_pos_site_id
 _symmetry_equiv_pos_as_xyz
  1  'x, y, z'
loop_
 _atom_site_type_symbol
 _atom_site_label
 _atom_site_symmetry_multiplicity
 _atom_site_fract_x
 _atom_site_fract_y
 _atom_site_fract_z
 _atom_site_occupancy
  Y  Y0  1  0.000000  0.370308  0.647558  1
  Y  Y1  1  0.000000  0.131212  0.151161  1
  Y  Y2  1  0.000000  0.868755  0.848916  1
  Ho  Ho3  1  0.000000  0.629765  0.352364  1
  B  B4  1  0.500000  0.789782  0.188388  1
  B  B5  1  0.500000  0.210001  0.811926  1
  B  B6  1  0.500000  0.289998  0.314374  1
  B  B7  1  0.500000  0.710726  0.685675  1
  B  B8  1  0.500000  0.863200  0.029447  1
  B  B9  1  0.500000  0.136725  0.970620  1
  B  B10  1  0.500000  0.364221  0.469036  1
  B  B11  1  0.500000  0.636084  0.530399  1
  B  B12  1  0.500000  0.887666  0.453574  1
  B  B13  1  0.500000  0.111752  0.546034  1
  B  B14  1  0.500000  0.387920  0.047387  1
  B  B15  1  0.500000  0.612140  0.952731  1
  B  B16  1  0.500000  0.974784  0.308769  1
  B  B17  1  0.500000  0.024653  0.691255  1
  B  B18  1  0.500000  0.476348  0.193370  1
  B  B19  1  0.500000  0.523940  0.806928  1
  Ir  Ir20  1  0.000000  0.644941  0.096407  1
  Ir  Ir21  1  0.000000  0.355072  0.904055  1
  Ru  Ru22  1  0.000000  0.140336  0.406995  1
  Ru  Ru23  1  0.000000  0.859671  0.592633  1
