# generated using pymatgen
data_Cs4In2Au7
_symmetry_space_group_name_H-M   'P 1'
_cell_length_a   10.89899342
_cell_length_b   10.89899335
_cell_length_c   10.89899315
_cell_angle_alpha   37.78451468
_cell_angle_beta   37.78451705
_cell_angle_gamma   37.78451497
_symmetry_Int_Tables_number   1
_chemical_formula_structural   Cs4In2Au7
_chemical_formula_sum   'Cs4 In2 Au7'
_cell_volume   436.09257260
_cell_formula_units_Z   1
loop_
 _symmetry_equiv_pos_site_id
 _symmetry_equiv_pos_as_xyz
  1  'x, y, z'
loop_
 _atom_site_type_symbol
 _atom_site_label
 _atom_site_symmetry_multiplicity
 _atom_site_fract_x
 _atom_site_fract_y
 _atom_site_fract_z
 _atom_site_occupancy
  Cs  Cs0  1  0.812982  0.812982  0.812982  1
  Cs  Cs1  1  0.684907  0.684907  0.684907  1
  Cs  Cs2  1  0.315093  0.315093  0.315093  1
  Cs  Cs3  1  0.187018  0.187018  0.187018  1
  In  In4  1  0.450612  0.450612  0.450612  1
  In  In5  1  0.549388  0.549388  0.549388  1
  Au  Au6  1  0.787723  0.787723  0.194425  1
  Au  Au7  1  0.212277  0.805575  0.212277  1
  Au  Au8  1  0.787723  0.194425  0.787723  1
  Au  Au9  1  0.805575  0.212277  0.212277  1
  Au  Au10  1  0.194425  0.787723  0.787723  1
  Au  Au11  1  0.000000  0.000000  0.000000  1
  Au  Au12  1  0.212277  0.212277  0.805575  1
