# generated using pymatgen
data_Zr4TiNb3Sb4
_symmetry_space_group_name_H-M   'P 1'
_cell_length_a   3.80258400
_cell_length_b   7.39982866
_cell_length_c   8.97783549
_cell_angle_alpha   90.33268282
_cell_angle_beta   90.00000000
_cell_angle_gamma   90.00000000
_symmetry_Int_Tables_number   1
_chemical_formula_structural   Zr4TiNb3Sb4
_chemical_formula_sum   'Zr4 Ti1 Nb3 Sb4'
_cell_volume   252.61829653
_cell_formula_units_Z   1
loop_
 _symmetry_equiv_pos_site_id
 _symmetry_equiv_pos_as_xyz
  1  'x, y, z'
loop_
 _atom_site_type_symbol
 _atom_site_label
 _atom_site_symmetry_multiplicity
 _atom_site_fract_x
 _atom_site_fract_y
 _atom_site_fract_z
 _atom_site_occupancy
  Zr  Zr0  1  0.250000  0.556437  0.832966  1
  Zr  Zr1  1  0.750000  0.943326  0.334813  1
  Zr  Zr2  1  0.250000  0.058135  0.665889  1
  Zr  Zr3  1  0.750000  0.449451  0.168886  1
  Ti  Ti4  1  0.250000  0.122308  0.060142  1
  Nb  Nb5  1  0.750000  0.872733  0.938326  1
  Nb  Nb6  1  0.250000  0.624754  0.438307  1
  Nb  Nb7  1  0.750000  0.371859  0.561086  1
  Sb  Sb8  1  0.750000  0.755585  0.639139  1
  Sb  Sb9  1  0.250000  0.748046  0.138783  1
  Sb  Sb10  1  0.750000  0.254021  0.866149  1
  Sb  Sb11  1  0.250000  0.243344  0.355512  1
