# generated using pymatgen
data_Nb(SnPd4)3
_symmetry_space_group_name_H-M   'P 1'
_cell_length_a   4.02542400
_cell_length_b   4.02542400
_cell_length_c   16.14198100
_cell_angle_alpha   90.00000000
_cell_angle_beta   90.00000000
_cell_angle_gamma   90.00000000
_symmetry_Int_Tables_number   1
_chemical_formula_structural   Nb(SnPd4)3
_chemical_formula_sum   'Nb1 Sn3 Pd12'
_cell_volume   261.56527965
_cell_formula_units_Z   1
loop_
 _symmetry_equiv_pos_site_id
 _symmetry_equiv_pos_as_xyz
  1  'x, y, z'
loop_
 _atom_site_type_symbol
 _atom_site_label
 _atom_site_symmetry_multiplicity
 _atom_site_fract_x
 _atom_site_fract_y
 _atom_site_fract_z
 _atom_site_occupancy
  Nb  Nb0  1  0.000000  0.000000  0.000000  1
  Sn  Sn1  1  0.000000  0.000000  0.251974  1
  Sn  Sn2  1  0.000000  0.000000  0.500000  1
  Sn  Sn3  1  0.000000  0.000000  0.748026  1
  Pd  Pd4  1  0.500000  0.500000  0.000000  1
  Pd  Pd5  1  0.500000  0.500000  0.246802  1
  Pd  Pd6  1  0.500000  0.500000  0.500000  1
  Pd  Pd7  1  0.500000  0.500000  0.753198  1
  Pd  Pd8  1  0.500000  0.000000  0.118942  1
  Pd  Pd9  1  0.500000  0.000000  0.374291  1
  Pd  Pd10  1  0.500000  0.000000  0.625709  1
  Pd  Pd11  1  0.500000  0.000000  0.881058  1
  Pd  Pd12  1  0.000000  0.500000  0.118942  1
  Pd  Pd13  1  0.000000  0.500000  0.374291  1
  Pd  Pd14  1  0.000000  0.500000  0.625709  1
  Pd  Pd15  1  0.000000  0.500000  0.881058  1
