# generated using pymatgen
data_Er4Sc8AlGaNi4
_symmetry_space_group_name_H-M   'P 1'
_cell_length_a   7.89873852
_cell_length_b   7.89873974
_cell_length_c   7.89873839
_cell_angle_alpha   111.61612509
_cell_angle_beta   110.35188170
_cell_angle_gamma   106.48886652
_symmetry_Int_Tables_number   1
_chemical_formula_structural   Er4Sc8AlGaNi4
_chemical_formula_sum   'Er4 Sc8 Al1 Ga1 Ni4'
_cell_volume   378.54533213
_cell_formula_units_Z   1
loop_
 _symmetry_equiv_pos_site_id
 _symmetry_equiv_pos_as_xyz
  1  'x, y, z'
loop_
 _atom_site_type_symbol
 _atom_site_label
 _atom_site_symmetry_multiplicity
 _atom_site_fract_x
 _atom_site_fract_y
 _atom_site_fract_z
 _atom_site_occupancy
  Er  Er0  1  0.187767  0.210287  0.398053  1
  Er  Er1  1  0.812233  0.210287  0.022520  1
  Er  Er2  1  0.187767  0.789713  0.977480  1
  Er  Er3  1  0.812233  0.789713  0.601947  1
  Sc  Sc4  1  0.032177  0.730202  0.301975  1
  Sc  Sc5  1  0.967823  0.269798  0.698025  1
  Sc  Sc6  1  0.571773  0.269798  0.301975  1
  Sc  Sc7  1  0.428227  0.730202  0.698025  1
  Sc  Sc8  1  0.673746  0.871743  0.197996  1
  Sc  Sc9  1  0.326254  0.524250  0.197996  1
  Sc  Sc10  1  0.326254  0.128257  0.802004  1
  Sc  Sc11  1  0.673746  0.475750  0.802004  1
  Al  Al12  1  0.500000  0.000000  0.500000  1
  Ga  Ga13  1  0.000000  0.500000  0.500000  1
  Ni  Ni14  1  0.645860  0.500000  0.145860  1
  Ni  Ni15  1  0.354140  0.500000  0.854140  1
  Ni  Ni16  1  0.865014  0.865014  0.000000  1
  Ni  Ni17  1  0.134986  0.134986  0.000000  1
