# generated using pymatgen
data_Pm2ErUO8
_symmetry_space_group_name_H-M   'P 1'
_cell_length_a   6.64870406
_cell_length_b   6.64870411
_cell_length_c   6.64870370
_cell_angle_alpha   131.59591034
_cell_angle_beta   131.59591642
_cell_angle_gamma   70.86799753
_symmetry_Int_Tables_number   1
_chemical_formula_structural   Pm2ErUO8
_chemical_formula_sum   'Pm2 Er1 U1 O8'
_cell_volume   160.98558498
_cell_formula_units_Z   1
loop_
 _symmetry_equiv_pos_site_id
 _symmetry_equiv_pos_as_xyz
  1  'x, y, z'
loop_
 _atom_site_type_symbol
 _atom_site_label
 _atom_site_symmetry_multiplicity
 _atom_site_fract_x
 _atom_site_fract_y
 _atom_site_fract_z
 _atom_site_occupancy
  Pm  Pm0  1  0.000000  0.000000  0.000000  1
  Pm  Pm1  1  0.750000  0.250000  0.500000  1
  Er  Er2  1  0.500000  0.500000  0.000000  1
  U  U3  1  0.250000  0.750000  0.500000  1
  O  O4  1  0.369439  0.399042  0.508771  1
  O  O5  1  0.890271  0.860668  0.491229  1
  O  O6  1  0.139332  0.109729  0.508771  1
  O  O7  1  0.600958  0.109729  0.970397  1
  O  O8  1  0.890271  0.399042  0.029603  1
  O  O9  1  0.600958  0.630561  0.491229  1
  O  O10  1  0.139332  0.630561  0.029603  1
  O  O11  1  0.369439  0.860668  0.970397  1
