# generated using pymatgen
data_LaY7(CoHg)2
_symmetry_space_group_name_H-M   'P 1'
_cell_length_a   9.55938933
_cell_length_b   9.55938871
_cell_length_c   9.59626200
_cell_angle_alpha   59.87231977
_cell_angle_beta   59.87232196
_cell_angle_gamma   59.95732245
_symmetry_Int_Tables_number   1
_chemical_formula_structural   LaY7(CoHg)2
_chemical_formula_sum   'La2 Y14 Co4 Hg4'
_cell_volume   618.68104284
_cell_formula_units_Z   2
loop_
 _symmetry_equiv_pos_site_id
 _symmetry_equiv_pos_as_xyz
  1  'x, y, z'
loop_
 _atom_site_type_symbol
 _atom_site_label
 _atom_site_symmetry_multiplicity
 _atom_site_fract_x
 _atom_site_fract_y
 _atom_site_fract_z
 _atom_site_occupancy
  La  La0  1  0.595014  0.595014  0.598867  1
  La  La1  1  0.595014  0.595014  0.211103  1
  Y  Y2  1  0.600557  0.197847  0.600798  1
  Y  Y3  1  0.197847  0.600557  0.600798  1
  Y  Y4  1  0.063729  0.437503  0.437982  1
  Y  Y5  1  0.437503  0.063729  0.060785  1
  Y  Y6  1  0.437503  0.063729  0.437982  1
  Y  Y7  1  0.063729  0.437503  0.060785  1
  Y  Y8  1  0.437271  0.437271  0.062729  1
  Y  Y9  1  0.062158  0.062158  0.437842  1
  Y  Y10  1  0.187788  0.813542  0.812332  1
  Y  Y11  1  0.813542  0.187788  0.186339  1
  Y  Y12  1  0.813542  0.187788  0.812332  1
  Y  Y13  1  0.187788  0.813542  0.186339  1
  Y  Y14  1  0.814113  0.814113  0.185887  1
  Y  Y15  1  0.189475  0.189475  0.810525  1
  Co  Co16  1  0.390356  0.390356  0.393987  1
  Co  Co17  1  0.390356  0.390356  0.825303  1
  Co  Co18  1  0.389213  0.827436  0.391676  1
  Co  Co19  1  0.827436  0.389213  0.391676  1
  Hg  Hg20  1  0.835611  0.835611  0.830390  1
  Hg  Hg21  1  0.835611  0.835611  0.498387  1
  Hg  Hg22  1  0.837088  0.497756  0.832577  1
  Hg  Hg23  1  0.497756  0.837088  0.832577  1
