# generated using pymatgen
data_SrMnIO6
_symmetry_space_group_name_H-M   'P 1'
_cell_length_a   5.21714377
_cell_length_b   5.21636095
_cell_length_c   5.40676313
_cell_angle_alpha   89.14653330
_cell_angle_beta   89.11080613
_cell_angle_gamma   117.79554403
_symmetry_Int_Tables_number   1
_chemical_formula_structural   SrMnIO6
_chemical_formula_sum   'Sr1 Mn1 I1 O6'
_cell_volume   130.10826571
_cell_formula_units_Z   1
loop_
 _symmetry_equiv_pos_site_id
 _symmetry_equiv_pos_as_xyz
  1  'x, y, z'
loop_
 _atom_site_type_symbol
 _atom_site_label
 _atom_site_symmetry_multiplicity
 _atom_site_fract_x
 _atom_site_fract_y
 _atom_site_fract_z
 _atom_site_occupancy
  Sr  Sr0  1  0.661417  0.340639  0.499825  1
  Mn  Mn1  1  0.331876  0.668703  0.999709  1
  I  I2  1  0.995413  0.004509  0.000192  1
  O  O3  1  0.023000  0.300977  0.784999  1
  O  O4  1  0.281606  0.959147  0.799702  1
  O  O5  1  0.282236  0.314910  0.187635  1
  O  O6  1  0.684736  0.718072  0.812101  1
  O  O7  1  0.698814  0.975228  0.216275  1
  O  O8  1  0.040902  0.717817  0.199561  1
