# generated using pymatgen
data_Y10Al3ReTe4
_symmetry_space_group_name_H-M   'P 1'
_cell_length_a   8.75960524
_cell_length_b   8.75960719
_cell_length_c   7.95772100
_cell_angle_alpha   90.28874958
_cell_angle_beta   90.28875618
_cell_angle_gamma   125.80121765
_symmetry_Int_Tables_number   1
_chemical_formula_structural   Y10Al3ReTe4
_chemical_formula_sum   'Y10 Al3 Re1 Te4'
_cell_volume   495.19889557
_cell_formula_units_Z   1
loop_
 _symmetry_equiv_pos_site_id
 _symmetry_equiv_pos_as_xyz
  1  'x, y, z'
loop_
 _atom_site_type_symbol
 _atom_site_label
 _atom_site_symmetry_multiplicity
 _atom_site_fract_x
 _atom_site_fract_y
 _atom_site_fract_z
 _atom_site_occupancy
  Y  Y0  1  0.996596  0.996596  0.009458  1
  Y  Y1  1  0.509651  0.509651  0.492776  1
  Y  Y2  1  0.818169  0.563476  0.184313  1
  Y  Y3  1  0.465341  0.209428  0.833943  1
  Y  Y4  1  0.954495  0.702962  0.652932  1
  Y  Y5  1  0.269915  0.024841  0.337817  1
  Y  Y6  1  0.209428  0.465341  0.833943  1
  Y  Y7  1  0.563476  0.818169  0.184313  1
  Y  Y8  1  0.024841  0.269915  0.337817  1
  Y  Y9  1  0.702962  0.954495  0.652932  1
  Al  Al10  1  0.120932  0.120932  0.627850  1
  Al  Al11  1  0.623047  0.623047  0.877806  1
  Al  Al12  1  0.377504  0.377504  0.120461  1
  Re  Re13  1  0.871745  0.871745  0.377085  1
  Te  Te14  1  0.219703  0.804931  0.991914  1
  Te  Te15  1  0.688518  0.278747  0.496363  1
  Te  Te16  1  0.804931  0.219703  0.991914  1
  Te  Te17  1  0.278747  0.688518  0.496363  1
