# generated using pymatgen
data_Ho4Al17SiIr6
_symmetry_space_group_name_H-M   'P 1'
_cell_length_a   7.54399228
_cell_length_b   7.54398363
_cell_length_c   9.40519300
_cell_angle_alpha   90.00000000
_cell_angle_beta   90.00000000
_cell_angle_gamma   119.67738251
_symmetry_Int_Tables_number   1
_chemical_formula_structural   Ho4Al17SiIr6
_chemical_formula_sum   'Ho4 Al17 Si1 Ir6'
_cell_volume   465.05359732
_cell_formula_units_Z   1
loop_
 _symmetry_equiv_pos_site_id
 _symmetry_equiv_pos_as_xyz
  1  'x, y, z'
loop_
 _atom_site_type_symbol
 _atom_site_label
 _atom_site_symmetry_multiplicity
 _atom_site_fract_x
 _atom_site_fract_y
 _atom_site_fract_z
 _atom_site_occupancy
  Ho  Ho0  1  0.994490  0.675594  0.250000  1
  Ho  Ho1  1  0.004123  0.330556  0.750000  1
  Ho  Ho2  1  0.675594  0.994490  0.250000  1
  Ho  Ho3  1  0.330556  0.004122  0.750000  1
  Al  Al4  1  0.874793  0.874793  0.750000  1
  Al  Al5  1  0.000651  0.336815  0.077073  1
  Al  Al6  1  0.998931  0.665762  0.924964  1
  Al  Al7  1  0.998931  0.665762  0.575036  1
  Al  Al8  1  0.336814  0.000651  0.422927  1
  Al  Al9  1  0.000651  0.336815  0.422927  1
  Al  Al10  1  0.665763  0.998932  0.575036  1
  Al  Al11  1  0.665763  0.998932  0.924964  1
  Al  Al12  1  0.336814  0.000651  0.077073  1
  Al  Al13  1  0.332433  0.332433  0.557124  1
  Al  Al14  1  0.663648  0.663648  0.447279  1
  Al  Al15  1  0.663648  0.663648  0.052721  1
  Al  Al16  1  0.332433  0.332433  0.942876  1
  Al  Al17  1  0.336322  0.549215  0.250000  1
  Al  Al18  1  0.661231  0.452078  0.750000  1
  Al  Al19  1  0.549216  0.336323  0.250000  1
  Al  Al20  1  0.452079  0.661231  0.750000  1
  Si  Si21  1  0.130348  0.130348  0.250000  1
  Ir  Ir22  1  0.670301  0.326562  0.000314  1
  Ir  Ir23  1  0.326562  0.670300  0.000313  1
  Ir  Ir24  1  0.326562  0.670300  0.499687  1
  Ir  Ir25  1  0.670301  0.326562  0.499686  1
  Ir  Ir26  1  0.000520  0.000520  0.007369  1
  Ir  Ir27  1  0.000520  0.000520  0.492631  1
