# generated using pymatgen
data_Ce2BeB3Ir5
_symmetry_space_group_name_H-M   'P 1'
_cell_length_a   7.57471825
_cell_length_b   6.43256878
_cell_length_c   5.67337637
_cell_angle_alpha   78.17625604
_cell_angle_beta   55.90035840
_cell_angle_gamma   46.91432969
_symmetry_Int_Tables_number   1
_chemical_formula_structural   Ce2BeB3Ir5
_chemical_formula_sum   'Ce2 Be1 B3 Ir5'
_cell_volume   159.76667666
_cell_formula_units_Z   1
loop_
 _symmetry_equiv_pos_site_id
 _symmetry_equiv_pos_as_xyz
  1  'x, y, z'
loop_
 _atom_site_type_symbol
 _atom_site_label
 _atom_site_symmetry_multiplicity
 _atom_site_fract_x
 _atom_site_fract_y
 _atom_site_fract_z
 _atom_site_occupancy
  Ce  Ce0  1  0.865815  0.867537  0.132463  1
  Ce  Ce1  1  0.137980  0.136953  0.863047  1
  Be  Be2  1  0.487870  0.783109  0.216891  1
  B  B3  1  0.207965  0.532420  0.467580  1
  B  B4  1  0.786686  0.473945  0.526055  1
  B  B5  1  0.528436  0.206137  0.793863  1
  Ir  Ir6  1  0.499935  0.498750  0.998628  1
  Ir  Ir7  1  0.243305  0.259888  0.248148  1
  Ir  Ir8  1  0.997313  0.001372  0.501250  1
  Ir  Ir9  1  0.493351  0.488035  0.511965  1
  Ir  Ir10  1  0.751342  0.751852  0.740112  1
