# generated using pymatgen
data_Er5Tm11In2(HgRh2)2
_symmetry_space_group_name_H-M   'P 1'
_cell_length_a   9.51713325
_cell_length_b   9.50521952
_cell_length_c   9.50521886
_cell_angle_alpha   59.90834464
_cell_angle_beta   59.94781271
_cell_angle_gamma   59.94781941
_symmetry_Int_Tables_number   1
_chemical_formula_structural   Er5Tm11In2(HgRh2)2
_chemical_formula_sum   'Er5 Tm11 In2 Hg2 Rh4'
_cell_volume   607.11527746
_cell_formula_units_Z   1
loop_
 _symmetry_equiv_pos_site_id
 _symmetry_equiv_pos_as_xyz
  1  'x, y, z'
loop_
 _atom_site_type_symbol
 _atom_site_label
 _atom_site_symmetry_multiplicity
 _atom_site_fract_x
 _atom_site_fract_y
 _atom_site_fract_z
 _atom_site_occupancy
  Er  Er0  1  0.060528  0.065229  0.437798  1
  Er  Er1  1  0.436544  0.065110  0.437802  1
  Er  Er2  1  0.060528  0.437798  0.065229  1
  Er  Er3  1  0.050902  0.649573  0.649573  1
  Er  Er4  1  0.436544  0.437802  0.065110  1
  Tm  Tm5  1  0.649122  0.053270  0.648501  1
  Tm  Tm6  1  0.189059  0.811765  0.189396  1
  Tm  Tm7  1  0.189059  0.189396  0.811765  1
  Tm  Tm8  1  0.809684  0.811700  0.189563  1
  Tm  Tm9  1  0.437165  0.062872  0.062872  1
  Tm  Tm10  1  0.811436  0.188561  0.188561  1
  Tm  Tm11  1  0.062493  0.437506  0.437506  1
  Tm  Tm12  1  0.809684  0.189563  0.811700  1
  Tm  Tm13  1  0.190277  0.809801  0.809801  1
  Tm  Tm14  1  0.649122  0.648501  0.053270  1
  Tm  Tm15  1  0.650014  0.649630  0.649630  1
  In  In16  1  0.418300  0.746872  0.416729  1
  In  In17  1  0.418300  0.416729  0.746872  1
  Hg  Hg18  1  0.414127  0.414182  0.414182  1
  Hg  Hg19  1  0.757505  0.414226  0.414226  1
  Rh  Rh20  1  0.857086  0.857435  0.427840  1
  Rh  Rh21  1  0.856658  0.857461  0.857461  1
  Rh  Rh22  1  0.428777  0.857180  0.857180  1
  Rh  Rh23  1  0.857086  0.427840  0.857435  1
