# generated using pymatgen
data_Hf7Nb3(Sn3B)2
_symmetry_space_group_name_H-M   'P 1'
_cell_length_a   8.40564800
_cell_length_b   8.40564689
_cell_length_c   5.66414600
_cell_angle_alpha   90.00000000
_cell_angle_beta   90.00000000
_cell_angle_gamma   119.99999649
_symmetry_Int_Tables_number   1
_chemical_formula_structural   Hf7Nb3(Sn3B)2
_chemical_formula_sum   'Hf7 Nb3 Sn6 B2'
_cell_volume   346.58313641
_cell_formula_units_Z   1
loop_
 _symmetry_equiv_pos_site_id
 _symmetry_equiv_pos_as_xyz
  1  'x, y, z'
loop_
 _atom_site_type_symbol
 _atom_site_label
 _atom_site_symmetry_multiplicity
 _atom_site_fract_x
 _atom_site_fract_y
 _atom_site_fract_z
 _atom_site_occupancy
  Hf  Hf0  1  0.666667  0.333333  0.000000  1
  Hf  Hf1  1  0.768399  0.768681  0.750304  1
  Hf  Hf2  1  0.231319  0.999718  0.750304  1
  Hf  Hf3  1  0.000282  0.231601  0.750304  1
  Hf  Hf4  1  0.231319  0.231601  0.249696  1
  Hf  Hf5  1  0.768399  0.999718  0.249696  1
  Hf  Hf6  1  0.000282  0.768681  0.249696  1
  Nb  Nb7  1  0.333333  0.666667  0.000000  1
  Nb  Nb8  1  0.333333  0.666667  0.500000  1
  Nb  Nb9  1  0.666667  0.333333  0.500000  1
  Sn  Sn10  1  0.401646  0.403720  0.747656  1
  Sn  Sn11  1  0.596280  0.997926  0.747656  1
  Sn  Sn12  1  0.002074  0.598354  0.747656  1
  Sn  Sn13  1  0.596280  0.598354  0.252344  1
  Sn  Sn14  1  0.401646  0.997926  0.252344  1
  Sn  Sn15  1  0.002074  0.403720  0.252344  1
  B  B16  1  0.000000  0.000000  0.000000  1
  B  B17  1  0.000000  0.000000  0.500000  1
