# generated using pymatgen
data_Ac2Y(TmPb2)2
_symmetry_space_group_name_H-M   'P 1'
_cell_length_a   8.48019700
_cell_length_b   16.13464800
_cell_length_c   8.51973300
_cell_angle_alpha   90.00000000
_cell_angle_beta   90.00000000
_cell_angle_gamma   90.00000000
_symmetry_Int_Tables_number   1
_chemical_formula_structural   Ac2Y(TmPb2)2
_chemical_formula_sum   'Ac8 Y4 Tm8 Pb16'
_cell_volume   1165.71241291
_cell_formula_units_Z   4
loop_
 _symmetry_equiv_pos_site_id
 _symmetry_equiv_pos_as_xyz
  1  'x, y, z'
loop_
 _atom_site_type_symbol
 _atom_site_label
 _atom_site_symmetry_multiplicity
 _atom_site_fract_x
 _atom_site_fract_y
 _atom_site_fract_z
 _atom_site_occupancy
  Ac  Ac0  1  0.481226  0.595347  0.676096  1
  Ac  Ac1  1  0.981226  0.904653  0.823904  1
  Ac  Ac2  1  0.518774  0.095347  0.323904  1
  Ac  Ac3  1  0.018774  0.404653  0.176096  1
  Ac  Ac4  1  0.518774  0.404653  0.323904  1
  Ac  Ac5  1  0.018774  0.095347  0.176096  1
  Ac  Ac6  1  0.481226  0.904653  0.676096  1
  Ac  Ac7  1  0.981226  0.595347  0.823904  1
  Y  Y8  1  0.805893  0.750000  0.493946  1
  Y  Y9  1  0.305893  0.750000  0.006054  1
  Y  Y10  1  0.194107  0.250000  0.506054  1
  Y  Y11  1  0.694107  0.250000  0.993946  1
  Tm  Tm12  1  0.642208  0.623862  0.156282  1
  Tm  Tm13  1  0.142208  0.876138  0.343718  1
  Tm  Tm14  1  0.357792  0.123862  0.843718  1
  Tm  Tm15  1  0.857792  0.376138  0.656282  1
  Tm  Tm16  1  0.357792  0.376138  0.843718  1
  Tm  Tm17  1  0.857792  0.123862  0.656282  1
  Tm  Tm18  1  0.642208  0.876138  0.156282  1
  Tm  Tm19  1  0.142208  0.623862  0.343718  1
  Pb  Pb20  1  0.693124  0.454797  0.951932  1
  Pb  Pb21  1  0.193124  0.045203  0.548068  1
  Pb  Pb22  1  0.306876  0.954797  0.048068  1
  Pb  Pb23  1  0.806876  0.545203  0.451932  1
  Pb  Pb24  1  0.306876  0.545203  0.048068  1
  Pb  Pb25  1  0.806876  0.954797  0.451932  1
  Pb  Pb26  1  0.693124  0.045203  0.951932  1
  Pb  Pb27  1  0.193124  0.454797  0.548068  1
  Pb  Pb28  1  0.446626  0.750000  0.363946  1
  Pb  Pb29  1  0.946626  0.750000  0.136054  1
  Pb  Pb30  1  0.553374  0.250000  0.636054  1
  Pb  Pb31  1  0.053374  0.250000  0.863946  1
  Pb  Pb32  1  0.669475  0.750000  0.856622  1
  Pb  Pb33  1  0.169475  0.750000  0.643378  1
  Pb  Pb34  1  0.330525  0.250000  0.143378  1
  Pb  Pb35  1  0.830525  0.250000  0.356622  1
