# generated using pymatgen
data_La2Pa(SnRh)3
_symmetry_space_group_name_H-M   'P 1'
_cell_length_a   7.66760047
_cell_length_b   7.72527080
_cell_length_c   4.03982800
_cell_angle_alpha   90.00000000
_cell_angle_beta   90.00000000
_cell_angle_gamma   120.24910649
_symmetry_Int_Tables_number   1
_chemical_formula_structural   La2Pa(SnRh)3
_chemical_formula_sum   'La2 Pa1 Sn3 Rh3'
_cell_volume   206.71455777
_cell_formula_units_Z   1
loop_
 _symmetry_equiv_pos_site_id
 _symmetry_equiv_pos_as_xyz
  1  'x, y, z'
loop_
 _atom_site_type_symbol
 _atom_site_label
 _atom_site_symmetry_multiplicity
 _atom_site_fract_x
 _atom_site_fract_y
 _atom_site_fract_z
 _atom_site_occupancy
  La  La0  1  0.411284  0.410986  0.000000  1
  La  La1  1  0.588716  0.999702  0.000000  1
  Pa  Pa2  1  0.000000  0.585688  0.000000  1
  Sn  Sn3  1  0.743931  0.748349  0.500000  1
  Sn  Sn4  1  0.000000  0.241108  0.500000  1
  Sn  Sn5  1  0.256069  0.004418  0.500000  1
  Rh  Rh6  1  0.287679  0.660063  0.500000  1
  Rh  Rh7  1  0.712321  0.372383  0.500000  1
  Rh  Rh8  1  0.000000  0.977303  0.000000  1
