# generated using pymatgen
data_Nd4Al4Pd2RuPt
_symmetry_space_group_name_H-M   'P 1'
_cell_length_a   4.43968700
_cell_length_b   7.13429947
_cell_length_c   7.98936277
_cell_angle_alpha   89.77900263
_cell_angle_beta   90.00000000
_cell_angle_gamma   90.00000000
_symmetry_Int_Tables_number   1
_chemical_formula_structural   Nd4Al4Pd2RuPt
_chemical_formula_sum   'Nd4 Al4 Pd2 Ru1 Pt1'
_cell_volume   253.05364619
_cell_formula_units_Z   1
loop_
 _symmetry_equiv_pos_site_id
 _symmetry_equiv_pos_as_xyz
  1  'x, y, z'
loop_
 _atom_site_type_symbol
 _atom_site_label
 _atom_site_symmetry_multiplicity
 _atom_site_fract_x
 _atom_site_fract_y
 _atom_site_fract_z
 _atom_site_occupancy
  Nd  Nd0  1  0.750000  0.467964  0.179021  1
  Nd  Nd1  1  0.250000  0.025467  0.680770  1
  Nd  Nd2  1  0.750000  0.962933  0.322713  1
  Nd  Nd3  1  0.250000  0.534394  0.812574  1
  Al  Al4  1  0.750000  0.851941  0.934792  1
  Al  Al5  1  0.250000  0.647680  0.437085  1
  Al  Al6  1  0.750000  0.367414  0.563391  1
  Al  Al7  1  0.250000  0.137697  0.065353  1
  Pd  Pd8  1  0.750000  0.215788  0.885978  1
  Pd  Pd9  1  0.250000  0.282321  0.384853  1
  Ru  Ru10  1  0.750000  0.730549  0.615654  1
  Pt  Pt11  1  0.250000  0.775852  0.117816  1
