# generated using pymatgen
data_Ni8Ge3Mo12PC2
_symmetry_space_group_name_H-M   'P 1'
_cell_length_a   7.79967105
_cell_length_b   7.79966984
_cell_length_c   7.78774557
_cell_angle_alpha   59.94932737
_cell_angle_beta   59.94933361
_cell_angle_gamma   59.99999216
_symmetry_Int_Tables_number   1
_chemical_formula_structural   Ni8Ge3Mo12PC2
_chemical_formula_sum   'Ni8 Ge3 Mo12 P1 C2'
_cell_volume   334.74661898
_cell_formula_units_Z   1
loop_
 _symmetry_equiv_pos_site_id
 _symmetry_equiv_pos_as_xyz
  1  'x, y, z'
loop_
 _atom_site_type_symbol
 _atom_site_label
 _atom_site_symmetry_multiplicity
 _atom_site_fract_x
 _atom_site_fract_y
 _atom_site_fract_z
 _atom_site_occupancy
  Ni  Ni0  1  0.332616  0.332616  0.002153  1
  Ni  Ni1  1  0.327375  0.327375  0.341783  1
  Ni  Ni2  1  0.246534  0.922625  0.908217  1
  Ni  Ni3  1  0.922625  0.922625  0.908217  1
  Ni  Ni4  1  0.003466  0.327375  0.341783  1
  Ni  Ni5  1  0.327375  0.003466  0.341783  1
  Ni  Ni6  1  0.917384  0.917384  0.247847  1
  Ni  Ni7  1  0.922625  0.246534  0.908217  1
  Ge  Ge8  1  0.125000  0.625000  0.125000  1
  Ge  Ge9  1  0.625000  0.125000  0.125000  1
  Ge  Ge10  1  0.125000  0.125000  0.125000  1
  Mo  Mo11  1  0.307407  0.693291  0.691895  1
  Mo  Mo12  1  0.692665  0.692665  0.306001  1
  Mo  Mo13  1  0.693291  0.307407  0.691895  1
  Mo  Mo14  1  0.308669  0.692665  0.306001  1
  Mo  Mo15  1  0.556709  0.942593  0.558105  1
  Mo  Mo16  1  0.557335  0.941331  0.943999  1
  Mo  Mo17  1  0.942593  0.556709  0.558105  1
  Mo  Mo18  1  0.941331  0.557335  0.943999  1
  Mo  Mo19  1  0.307407  0.307407  0.691895  1
  Mo  Mo20  1  0.557335  0.557335  0.943999  1
  Mo  Mo21  1  0.942593  0.942593  0.558105  1
  Mo  Mo22  1  0.692665  0.308669  0.306001  1
  P  P23  1  0.125000  0.125000  0.625000  1
  C  C24  1  0.500047  0.500047  0.499858  1
  C  C25  1  0.749953  0.749953  0.750142  1
