# generated using pymatgen
data_YbTc3P4Rh3
_symmetry_space_group_name_H-M   'P 1'
_cell_length_a   6.99819300
_cell_length_b   6.99787365
_cell_length_c   3.72731800
_cell_angle_alpha   90.00000000
_cell_angle_beta   90.00000000
_cell_angle_gamma   119.99795902
_symmetry_Int_Tables_number   1
_chemical_formula_structural   YbTc3P4Rh3
_chemical_formula_sum   'Yb1 Tc3 P4 Rh3'
_cell_volume   158.08403866
_cell_formula_units_Z   1
loop_
 _symmetry_equiv_pos_site_id
 _symmetry_equiv_pos_as_xyz
  1  'x, y, z'
loop_
 _atom_site_type_symbol
 _atom_site_label
 _atom_site_symmetry_multiplicity
 _atom_site_fract_x
 _atom_site_fract_y
 _atom_site_fract_z
 _atom_site_occupancy
  Yb  Yb0  1  0.999994  0.000001  0.500000  1
  Tc  Tc1  1  0.464777  0.928618  0.500000  1
  Tc  Tc2  1  0.463836  0.535261  0.500000  1
  Tc  Tc3  1  0.071389  0.536164  0.500000  1
  P  P4  1  0.666676  0.333313  0.500000  1
  P  P5  1  0.191099  0.381357  0.000000  1
  P  P6  1  0.190259  0.808879  0.000000  1
  P  P7  1  0.618639  0.809749  0.000000  1
  Rh  Rh8  1  0.803486  0.608023  0.000000  1
  Rh  Rh9  1  0.804529  0.196517  0.000000  1
  Rh  Rh10  1  0.391984  0.195450  0.000000  1
