# generated using pymatgen
data_TbPa(BN)2
_symmetry_space_group_name_H-M   'P 1'
_cell_length_a   6.21857900
_cell_length_b   6.21858036
_cell_length_c   3.32630400
_cell_angle_alpha   90.00000000
_cell_angle_beta   90.00000000
_cell_angle_gamma   146.21112003
_symmetry_Int_Tables_number   1
_chemical_formula_structural   TbPa(BN)2
_chemical_formula_sum   'Tb1 Pa1 B2 N2'
_cell_volume   71.53590024
_cell_formula_units_Z   1
loop_
 _symmetry_equiv_pos_site_id
 _symmetry_equiv_pos_as_xyz
  1  'x, y, z'
loop_
 _atom_site_type_symbol
 _atom_site_label
 _atom_site_symmetry_multiplicity
 _atom_site_fract_x
 _atom_site_fract_y
 _atom_site_fract_z
 _atom_site_occupancy
  Tb  Tb0  1  0.863571  0.136429  0.750000  1
  Pa  Pa1  1  0.142043  0.857957  0.250000  1
  B  B2  1  0.533139  0.466861  0.750000  1
  B  B3  1  0.464092  0.535908  0.250000  1
  N  N4  1  0.660721  0.339279  0.750000  1
  N  N5  1  0.336435  0.663565  0.250000  1
