# generated using pymatgen
data_Sc3SbAs2Rh3
_symmetry_space_group_name_H-M   'P 1'
_cell_length_a   6.71888900
_cell_length_b   6.71889050
_cell_length_c   4.04816300
_cell_angle_alpha   90.00000000
_cell_angle_beta   90.00000000
_cell_angle_gamma   119.99999755
_symmetry_Int_Tables_number   1
_chemical_formula_structural   Sc3SbAs2Rh3
_chemical_formula_sum   'Sc3 Sb1 As2 Rh3'
_cell_volume   158.26455576
_cell_formula_units_Z   1
loop_
 _symmetry_equiv_pos_site_id
 _symmetry_equiv_pos_as_xyz
  1  'x, y, z'
loop_
 _atom_site_type_symbol
 _atom_site_label
 _atom_site_symmetry_multiplicity
 _atom_site_fract_x
 _atom_site_fract_y
 _atom_site_fract_z
 _atom_site_occupancy
  Sc  Sc0  1  0.440120  0.440120  0.500000  1
  Sc  Sc1  1  0.559880  0.000000  0.500000  1
  Sc  Sc2  1  0.000000  0.559880  0.500000  1
  Sb  Sb3  1  0.000000  0.000000  0.500000  1
  As  As4  1  0.666667  0.333333  0.000000  1
  As  As5  1  0.333333  0.666667  0.000000  1
  Rh  Rh6  1  0.742986  0.742986  0.000000  1
  Rh  Rh7  1  0.257014  0.000000  0.000000  1
  Rh  Rh8  1  0.000000  0.257014  0.000000  1
