# generated using pymatgen
data_Pr8Dy12Si15B
_symmetry_space_group_name_H-M   'P 1'
_cell_length_a   7.54880210
_cell_length_b   7.78131130
_cell_length_c   14.80307736
_cell_angle_alpha   89.64886390
_cell_angle_beta   90.70399928
_cell_angle_gamma   89.94945447
_symmetry_Int_Tables_number   1
_chemical_formula_structural   Pr8Dy12Si15B
_chemical_formula_sum   'Pr8 Dy12 Si15 B1'
_cell_volume   869.44417061
_cell_formula_units_Z   1
loop_
 _symmetry_equiv_pos_site_id
 _symmetry_equiv_pos_as_xyz
  1  'x, y, z'
loop_
 _atom_site_type_symbol
 _atom_site_label
 _atom_site_symmetry_multiplicity
 _atom_site_fract_x
 _atom_site_fract_y
 _atom_site_fract_z
 _atom_site_occupancy
  Pr  Pr0  1  0.970238  0.815985  0.096274  1
  Pr  Pr1  1  0.473126  0.679810  0.401658  1
  Pr  Pr2  1  0.536097  0.324339  0.903209  1
  Pr  Pr3  1  0.025790  0.178598  0.599826  1
  Pr  Pr4  1  0.027217  0.183445  0.902328  1
  Pr  Pr5  1  0.526874  0.320241  0.599579  1
  Pr  Pr6  1  0.463856  0.683283  0.100548  1
  Pr  Pr7  1  0.973303  0.821857  0.401106  1
  Dy  Dy8  1  0.647232  0.992812  0.249102  1
  Dy  Dy9  1  0.143656  0.510067  0.249261  1
  Dy  Dy10  1  0.854704  0.488949  0.755666  1
  Dy  Dy11  1  0.355324  0.007860  0.752734  1
  Dy  Dy12  1  0.694873  0.799998  0.886050  1
  Dy  Dy13  1  0.181882  0.678921  0.623833  1
  Dy  Dy14  1  0.808723  0.335605  0.114499  1
  Dy  Dy15  1  0.316009  0.178728  0.375958  1
  Dy  Dy16  1  0.314244  0.182069  0.119906  1
  Dy  Dy17  1  0.817909  0.321387  0.376591  1
  Dy  Dy18  1  0.179304  0.675045  0.878068  1
  Dy  Dy19  1  0.682129  0.821003  0.623768  1
  Si  Si20  1  0.763202  0.621754  0.249748  1
  Si  Si21  1  0.262699  0.882331  0.248606  1
  Si  Si22  1  0.735125  0.115219  0.752602  1
  Si  Si23  1  0.237416  0.379127  0.750460  1
  Si  Si24  1  0.019702  0.117255  0.246134  1
  Si  Si25  1  0.521088  0.388380  0.248145  1
  Si  Si26  1  0.479074  0.612937  0.751725  1
  Si  Si27  1  0.976066  0.886530  0.751348  1
  Si  Si28  1  0.356185  0.969843  0.540228  1
  Si  Si29  1  0.639979  0.029889  0.040886  1
  Si  Si30  1  0.142846  0.468720  0.460700  1
  Si  Si31  1  0.125071  0.472169  0.035930  1
  Si  Si32  1  0.641494  0.031516  0.459985  1
  Si  Si33  1  0.360183  0.969178  0.958442  1
  Si  Si34  1  0.856679  0.531210  0.539921  1
  B  B35  1  0.890701  0.523941  0.955178  1
