# generated using pymatgen
data_Hf6BeZn(As2Ru3)2
_symmetry_space_group_name_H-M   'P 1'
_cell_length_a   7.63956993
_cell_length_b   7.63969004
_cell_length_c   7.63957148
_cell_angle_alpha   128.29207377
_cell_angle_beta   121.46293151
_cell_angle_gamma   81.85812948
_symmetry_Int_Tables_number   1
_chemical_formula_structural   Hf6BeZn(As2Ru3)2
_chemical_formula_sum   'Hf6 Be1 Zn1 As4 Ru6'
_cell_volume   287.28202462
_cell_formula_units_Z   1
loop_
 _symmetry_equiv_pos_site_id
 _symmetry_equiv_pos_as_xyz
  1  'x, y, z'
loop_
 _atom_site_type_symbol
 _atom_site_label
 _atom_site_symmetry_multiplicity
 _atom_site_fract_x
 _atom_site_fract_y
 _atom_site_fract_z
 _atom_site_occupancy
  Hf  Hf0  1  0.447747  0.650752  0.703004  1
  Hf  Hf1  1  0.546936  0.252352  0.205416  1
  Hf  Hf2  1  0.749956  0.858708  0.608751  1
  Hf  Hf3  1  0.250005  0.841538  0.091532  1
  Hf  Hf4  1  0.052403  0.255162  0.702759  1
  Hf  Hf5  1  0.952921  0.658224  0.205304  1
  Be  Be6  1  0.749889  0.259174  0.009286  1
  Zn  Zn7  1  0.250197  0.243543  0.493347  1
  As  As8  1  0.334085  0.587052  0.254678  1
  As  As9  1  0.667695  0.920588  0.254767  1
  As  As10  1  0.165822  0.920588  0.752893  1
  As  As11  1  0.832374  0.587052  0.752967  1
  Ru  Ru12  1  0.517143  0.496304  0.013456  1
  Ru  Ru13  1  0.982848  0.496304  0.479161  1
  Ru  Ru14  1  0.099100  0.254475  0.110707  1
  Ru  Ru15  1  0.856572  0.011652  0.111114  1
  Ru  Ru16  1  0.400538  0.011652  0.655081  1
  Ru  Ru17  1  0.643768  0.254475  0.655374  1
