# generated using pymatgen
data_La2PrCd3Ag2Ir
_symmetry_space_group_name_H-M   'P 1'
_cell_length_a   8.14109631
_cell_length_b   8.15486611
_cell_length_c   3.94447300
_cell_angle_alpha   90.00000000
_cell_angle_beta   90.00000000
_cell_angle_gamma   120.13068653
_symmetry_Int_Tables_number   1
_chemical_formula_structural   La2PrCd3Ag2Ir
_chemical_formula_sum   'La2 Pr1 Cd3 Ag2 Ir1'
_cell_volume   226.48837918
_cell_formula_units_Z   1
loop_
 _symmetry_equiv_pos_site_id
 _symmetry_equiv_pos_as_xyz
  1  'x, y, z'
loop_
 _atom_site_type_symbol
 _atom_site_label
 _atom_site_symmetry_multiplicity
 _atom_site_fract_x
 _atom_site_fract_y
 _atom_site_fract_z
 _atom_site_occupancy
  La  La0  1  0.572763  0.968396  0.000000  1
  La  La1  1  0.030603  0.603024  0.000000  1
  Pr  Pr2  1  0.396714  0.424289  0.000000  1
  Cd  Cd3  1  0.261066  0.006797  0.500000  1
  Cd  Cd4  1  0.998622  0.256773  0.500000  1
  Cd  Cd5  1  0.741227  0.736352  0.500000  1
  Ag  Ag6  1  0.666424  0.333301  0.500000  1
  Ag  Ag7  1  0.000254  0.000143  0.000000  1
  Ir  Ir8  1  0.332324  0.670925  0.500000  1
