# generated using pymatgen
data_Y4Er2Al24Ru7Pt
_symmetry_space_group_name_H-M   'P 1'
_cell_length_a   8.80983388
_cell_length_b   8.80983342
_cell_length_c   9.53279230
_cell_angle_alpha   89.82470237
_cell_angle_beta   90.17530313
_cell_angle_gamma   119.87622682
_symmetry_Int_Tables_number   1
_chemical_formula_structural   Y4Er2Al24Ru7Pt
_chemical_formula_sum   'Y4 Er2 Al24 Ru7 Pt1'
_cell_volume   641.54005321
_cell_formula_units_Z   1
loop_
 _symmetry_equiv_pos_site_id
 _symmetry_equiv_pos_as_xyz
  1  'x, y, z'
loop_
 _atom_site_type_symbol
 _atom_site_label
 _atom_site_symmetry_multiplicity
 _atom_site_fract_x
 _atom_site_fract_y
 _atom_site_fract_z
 _atom_site_occupancy
  Y  Y0  1  0.192094  0.386801  0.250262  1
  Y  Y1  1  0.807906  0.613199  0.749738  1
  Y  Y2  1  0.613199  0.807906  0.250262  1
  Y  Y3  1  0.386801  0.192094  0.749738  1
  Er  Er4  1  0.194785  0.805215  0.250462  1
  Er  Er5  1  0.805215  0.194785  0.749538  1
  Al  Al6  1  0.330665  0.669335  0.020062  1
  Al  Al7  1  0.669335  0.330665  0.979938  1
  Al  Al8  1  0.666953  0.333047  0.516717  1
  Al  Al9  1  0.333047  0.666953  0.483283  1
  Al  Al10  1  0.162474  0.323926  0.579014  1
  Al  Al11  1  0.837526  0.676074  0.420986  1
  Al  Al12  1  0.676074  0.837526  0.579014  1
  Al  Al13  1  0.842628  0.676486  0.078235  1
  Al  Al14  1  0.323926  0.162474  0.420986  1
  Al  Al15  1  0.157372  0.323514  0.921765  1
  Al  Al16  1  0.162586  0.837414  0.578327  1
  Al  Al17  1  0.323514  0.157372  0.078235  1
  Al  Al18  1  0.837414  0.162586  0.421673  1
  Al  Al19  1  0.676486  0.842628  0.921765  1
  Al  Al20  1  0.837484  0.162516  0.077791  1
  Al  Al21  1  0.162516  0.837484  0.922209  1
  Al  Al22  1  0.560099  0.121347  0.248658  1
  Al  Al23  1  0.439901  0.878653  0.751342  1
  Al  Al24  1  0.878653  0.439901  0.248658  1
  Al  Al25  1  0.121347  0.560099  0.751342  1
  Al  Al26  1  0.561965  0.438035  0.252021  1
  Al  Al27  1  0.438035  0.561965  0.747979  1
  Al  Al28  1  0.999949  0.000051  0.249986  1
  Al  Al29  1  0.000051  0.999949  0.750014  1
  Ru  Ru30  1  0.500000  0.000000  0.000000  1
  Ru  Ru31  1  0.000000  0.500000  0.000000  1
  Ru  Ru32  1  0.500000  0.000000  0.500000  1
  Ru  Ru33  1  0.000000  0.500000  0.500000  1
  Ru  Ru34  1  0.500000  0.500000  0.500000  1
  Ru  Ru35  1  0.000000  0.000000  0.000000  1
  Ru  Ru36  1  0.000000  0.000000  0.500000  1
  Pt  Pt37  1  0.500000  0.500000  0.000000  1
