# generated using pymatgen
data_Sn7IrOsRu
_symmetry_space_group_name_H-M   'P 1'
_cell_length_a   9.48614927
_cell_length_b   8.23233950
_cell_length_c   8.22857787
_cell_angle_alpha   70.56091154
_cell_angle_beta   54.80120992
_cell_angle_gamma   54.78069869
_symmetry_Int_Tables_number   1
_chemical_formula_structural   Sn7IrOsRu
_chemical_formula_sum   'Sn14 Ir2 Os2 Ru2'
_cell_volume   428.98224130
_cell_formula_units_Z   2
loop_
 _symmetry_equiv_pos_site_id
 _symmetry_equiv_pos_as_xyz
  1  'x, y, z'
loop_
 _atom_site_type_symbol
 _atom_site_label
 _atom_site_symmetry_multiplicity
 _atom_site_fract_x
 _atom_site_fract_y
 _atom_site_fract_z
 _atom_site_occupancy
  Sn  Sn0  1  0.675237  0.324885  0.000484  1
  Sn  Sn1  1  0.000150  0.002667  0.323901  1
  Sn  Sn2  1  0.324817  0.002285  0.675996  1
  Sn  Sn3  1  0.997686  0.674641  0.000299  1
  Sn  Sn4  1  0.327045  0.676006  0.000337  1
  Sn  Sn5  1  0.997644  0.002503  0.674800  1
  Sn  Sn6  1  0.672993  0.002881  0.324941  1
  Sn  Sn7  1  0.000114  0.323921  0.000526  1
  Sn  Sn8  1  0.252448  0.495288  0.500171  1
  Sn  Sn9  1  0.502571  0.247262  0.747930  1
  Sn  Sn10  1  0.749504  0.748103  0.753333  1
  Sn  Sn11  1  0.502626  0.748207  0.247158  1
  Sn  Sn12  1  0.751526  0.495405  0.499785  1
  Sn  Sn13  1  0.251376  0.246163  0.251401  1
  Ir  Ir14  1  0.999679  0.658135  0.341711  1
  Ir  Ir15  1  0.341217  0.658646  0.658080  1
  Os  Os16  1  0.655997  0.000161  0.999688  1
  Os  Os17  1  0.999810  0.346062  0.653735  1
  Ru  Ru18  1  0.653361  0.346571  0.346092  1
  Ru  Ru19  1  0.344196  0.000207  0.999632  1
