# generated using pymatgen
data_DyY2(In2Pt)2
_symmetry_space_group_name_H-M   'P 1'
_cell_length_a   7.82631787
_cell_length_b   7.84660394
_cell_length_c   3.93662600
_cell_angle_alpha   90.00000000
_cell_angle_beta   90.00000000
_cell_angle_gamma   120.02840608
_symmetry_Int_Tables_number   1
_chemical_formula_structural   DyY2(In2Pt)2
_chemical_formula_sum   'Dy1 Y2 In4 Pt2'
_cell_volume   209.30018903
_cell_formula_units_Z   1
loop_
 _symmetry_equiv_pos_site_id
 _symmetry_equiv_pos_as_xyz
  1  'x, y, z'
loop_
 _atom_site_type_symbol
 _atom_site_label
 _atom_site_symmetry_multiplicity
 _atom_site_fract_x
 _atom_site_fract_y
 _atom_site_fract_z
 _atom_site_occupancy
  Dy  Dy0  1  0.256360  0.951619  0.500000  1
  Y  Y1  1  0.049837  0.306993  0.500000  1
  Y  Y2  1  0.693116  0.742551  0.500000  1
  In  In3  1  0.666068  0.076767  0.000000  1
  In  In4  1  0.922470  0.589317  0.000000  1
  In  In5  1  0.410746  0.333550  0.000000  1
  In  In6  1  0.333451  0.667023  0.000000  1
  Pt  Pt7  1  0.666004  0.332415  0.500000  1
  Pt  Pt8  1  0.001950  0.999764  0.000000  1
