# generated using pymatgen
data_PrTm2Th(Ga3Ir)6
_symmetry_space_group_name_H-M   'P 1'
_cell_length_a   7.63425613
_cell_length_b   7.62964324
_cell_length_c   9.51593900
_cell_angle_alpha   90.00000000
_cell_angle_beta   90.00000000
_cell_angle_gamma   119.76179427
_symmetry_Int_Tables_number   1
_chemical_formula_structural   PrTm2Th(Ga3Ir)6
_chemical_formula_sum   'Pr1 Tm2 Th1 Ga18 Ir6'
_cell_volume   481.16129699
_cell_formula_units_Z   1
loop_
 _symmetry_equiv_pos_site_id
 _symmetry_equiv_pos_as_xyz
  1  'x, y, z'
loop_
 _atom_site_type_symbol
 _atom_site_label
 _atom_site_symmetry_multiplicity
 _atom_site_fract_x
 _atom_site_fract_y
 _atom_site_fract_z
 _atom_site_occupancy
  Pr  Pr0  1  0.669855  0.996751  0.750000  1
  Tm  Tm1  1  0.001384  0.330167  0.250000  1
  Tm  Tm2  1  0.329031  0.000934  0.250000  1
  Th  Th3  1  0.996585  0.669168  0.750000  1
  Ga  Ga4  1  0.131440  0.131989  0.750000  1
  Ga  Ga5  1  0.874669  0.876005  0.250000  1
  Ga  Ga6  1  0.002784  0.332008  0.574313  1
  Ga  Ga7  1  0.001867  0.664938  0.412187  1
  Ga  Ga8  1  0.001867  0.664938  0.087813  1
  Ga  Ga9  1  0.338056  0.005163  0.925525  1
  Ga  Ga10  1  0.002784  0.332008  0.925687  1
  Ga  Ga11  1  0.665154  0.002617  0.085517  1
  Ga  Ga12  1  0.665154  0.002617  0.414483  1
  Ga  Ga13  1  0.338056  0.005163  0.574475  1
  Ga  Ga14  1  0.330035  0.329818  0.070651  1
  Ga  Ga15  1  0.662968  0.665861  0.943540  1
  Ga  Ga16  1  0.662968  0.665861  0.556460  1
  Ga  Ga17  1  0.330035  0.329818  0.429349  1
  Ga  Ga18  1  0.339751  0.543756  0.750000  1
  Ga  Ga19  1  0.658816  0.450475  0.250000  1
  Ga  Ga20  1  0.542211  0.338035  0.750000  1
  Ga  Ga21  1  0.450645  0.660294  0.250000  1
  Ir  Ir22  1  0.673982  0.331613  0.499363  1
  Ir  Ir23  1  0.326623  0.670977  0.499148  1
  Ir  Ir24  1  0.326623  0.670977  0.000852  1
  Ir  Ir25  1  0.673982  0.331613  0.000637  1
  Ir  Ir26  1  0.001339  0.998219  0.499063  1
  Ir  Ir27  1  0.001339  0.998219  0.000937  1
