# generated using pymatgen
data_Tb3Pr(ZnIn)4
_symmetry_space_group_name_H-M   'P 1'
_cell_length_a   4.62957000
_cell_length_b   4.62956980
_cell_length_c   15.39666200
_cell_angle_alpha   90.00000000
_cell_angle_beta   90.00000000
_cell_angle_gamma   120.00000141
_symmetry_Int_Tables_number   1
_chemical_formula_structural   Tb3Pr(ZnIn)4
_chemical_formula_sum   'Tb3 Pr1 Zn4 In4'
_cell_volume   285.78438328
_cell_formula_units_Z   1
loop_
 _symmetry_equiv_pos_site_id
 _symmetry_equiv_pos_as_xyz
  1  'x, y, z'
loop_
 _atom_site_type_symbol
 _atom_site_label
 _atom_site_symmetry_multiplicity
 _atom_site_fract_x
 _atom_site_fract_y
 _atom_site_fract_z
 _atom_site_occupancy
  Tb  Tb0  1  0.000000  0.000000  0.496578  1
  Tb  Tb1  1  0.000000  0.000000  0.003422  1
  Tb  Tb2  1  0.000000  0.000000  0.250000  1
  Pr  Pr3  1  0.000000  0.000000  0.750000  1
  Zn  Zn4  1  0.333333  0.666667  0.345761  1
  Zn  Zn5  1  0.666667  0.333333  0.593584  1
  Zn  Zn6  1  0.666667  0.333333  0.906416  1
  Zn  Zn7  1  0.333333  0.666667  0.154239  1
  In  In8  1  0.333333  0.666667  0.869554  1
  In  In9  1  0.666667  0.333333  0.111678  1
  In  In10  1  0.666667  0.333333  0.388322  1
  In  In11  1  0.333333  0.666667  0.630446  1
