# generated using pymatgen
data_AcZn3Sn
_symmetry_space_group_name_H-M   'P 1'
_cell_length_a   6.45553374
_cell_length_b   6.45553569
_cell_length_c   6.45553311
_cell_angle_alpha   138.79446137
_cell_angle_beta   138.79444602
_cell_angle_gamma   59.68841143
_symmetry_Int_Tables_number   1
_chemical_formula_structural   AcZn3Sn
_chemical_formula_sum   'Ac1 Zn3 Sn1'
_cell_volume   115.57746481
_cell_formula_units_Z   1
loop_
 _symmetry_equiv_pos_site_id
 _symmetry_equiv_pos_as_xyz
  1  'x, y, z'
loop_
 _atom_site_type_symbol
 _atom_site_label
 _atom_site_symmetry_multiplicity
 _atom_site_fract_x
 _atom_site_fract_y
 _atom_site_fract_z
 _atom_site_occupancy
  Ac  Ac0  1  0.989874  0.989874  0.000000  1
  Zn  Zn1  1  0.761291  0.261291  0.500000  1
  Zn  Zn2  1  0.261291  0.761291  0.500000  1
  Zn  Zn3  1  0.371085  0.371085  0.000000  1
  Sn  Sn4  1  0.616459  0.616459  0.000000  1
