# generated using pymatgen
data_Pa2Ni5Ru
_symmetry_space_group_name_H-M   'P 1'
_cell_length_a   5.37133100
_cell_length_b   5.48910445
_cell_length_c   4.57324900
_cell_angle_alpha   90.00000000
_cell_angle_beta   90.00000000
_cell_angle_gamma   119.29275412
_symmetry_Int_Tables_number   1
_chemical_formula_structural   Pa2Ni5Ru
_chemical_formula_sum   'Pa2 Ni5 Ru1'
_cell_volume   117.59532576
_cell_formula_units_Z   1
loop_
 _symmetry_equiv_pos_site_id
 _symmetry_equiv_pos_as_xyz
  1  'x, y, z'
loop_
 _atom_site_type_symbol
 _atom_site_label
 _atom_site_symmetry_multiplicity
 _atom_site_fract_x
 _atom_site_fract_y
 _atom_site_fract_z
 _atom_site_occupancy
  Pa  Pa0  1  0.333882  0.667765  0.750000  1
  Pa  Pa1  1  0.668160  0.336319  0.250000  1
  Ni  Ni2  1  0.682696  0.839359  0.250000  1
  Ni  Ni3  1  0.156664  0.839359  0.250000  1
  Ni  Ni4  1  0.847064  0.694129  0.750000  1
  Ni  Ni5  1  0.315662  0.151763  0.750000  1
  Ni  Ni6  1  0.836100  0.151763  0.750000  1
  Ru  Ru7  1  0.159771  0.319542  0.250000  1
