# generated using pymatgen
data_Dy10Ir3Ru2Au
_symmetry_space_group_name_H-M   'P 1'
_cell_length_a   10.93864370
_cell_length_b   10.89289100
_cell_length_c   6.46053320
_cell_angle_alpha   90.00000000
_cell_angle_beta   89.90562781
_cell_angle_gamma   90.00000000
_symmetry_Int_Tables_number   1
_chemical_formula_structural   Dy10Ir3Ru2Au
_chemical_formula_sum   'Dy20 Ir6 Ru4 Au2'
_cell_volume   769.79379768
_cell_formula_units_Z   2
loop_
 _symmetry_equiv_pos_site_id
 _symmetry_equiv_pos_as_xyz
  1  'x, y, z'
loop_
 _atom_site_type_symbol
 _atom_site_label
 _atom_site_symmetry_multiplicity
 _atom_site_fract_x
 _atom_site_fract_y
 _atom_site_fract_z
 _atom_site_occupancy
  Dy  Dy0  1  0.293863  0.087118  0.377200  1
  Dy  Dy1  1  0.293863  0.912882  0.877200  1
  Dy  Dy2  1  0.697490  0.091222  0.868228  1
  Dy  Dy3  1  0.697490  0.908778  0.368228  1
  Dy  Dy4  1  0.578010  0.791976  0.879652  1
  Dy  Dy5  1  0.578010  0.208024  0.379652  1
  Dy  Dy6  1  0.410078  0.792693  0.379851  1
  Dy  Dy7  1  0.410078  0.207307  0.879851  1
  Dy  Dy8  1  0.207761  0.412179  0.619677  1
  Dy  Dy9  1  0.207761  0.587821  0.119677  1
  Dy  Dy10  1  0.792316  0.420398  0.120159  1
  Dy  Dy11  1  0.792316  0.579602  0.620159  1
  Dy  Dy12  1  0.918075  0.703170  0.134715  1
  Dy  Dy13  1  0.918075  0.296830  0.634715  1
  Dy  Dy14  1  0.094503  0.702078  0.619773  1
  Dy  Dy15  1  0.094503  0.297922  0.119773  1
  Dy  Dy16  1  0.009049  0.998862  0.500398  1
  Dy  Dy17  1  0.009049  0.001138  0.000398  1
  Dy  Dy18  1  0.499375  0.499208  0.000523  1
  Dy  Dy19  1  0.499375  0.500792  0.500523  1
  Ir  Ir20  1  0.152836  0.152959  0.749618  1
  Ir  Ir21  1  0.152836  0.847041  0.249618  1
  Ir  Ir22  1  0.653507  0.347073  0.748631  1
  Ir  Ir23  1  0.653507  0.652927  0.248631  1
  Ir  Ir24  1  0.347780  0.347215  0.250837  1
  Ir  Ir25  1  0.347780  0.652785  0.750837  1
  Ru  Ru26  1  0.500731  0.999893  0.125120  1
  Ru  Ru27  1  0.500731  0.000107  0.625120  1
  Ru  Ru28  1  0.999883  0.500583  0.874912  1
  Ru  Ru29  1  0.999883  0.499417  0.374912  1
  Au  Au30  1  0.844743  0.154716  0.250706  1
  Au  Au31  1  0.844743  0.845284  0.750706  1
