# generated using pymatgen
data_Er5TmPa2(ReB6)4
_symmetry_space_group_name_H-M   'P 1'
_cell_length_a   3.68372600
_cell_length_b   9.13197653
_cell_length_c   11.49880410
_cell_angle_alpha   90.32765616
_cell_angle_beta   90.00000000
_cell_angle_gamma   90.00000000
_symmetry_Int_Tables_number   1
_chemical_formula_structural   Er5TmPa2(ReB6)4
_chemical_formula_sum   'Er5 Tm1 Pa2 Re4 B24'
_cell_volume   386.80998802
_cell_formula_units_Z   1
loop_
 _symmetry_equiv_pos_site_id
 _symmetry_equiv_pos_as_xyz
  1  'x, y, z'
loop_
 _atom_site_type_symbol
 _atom_site_label
 _atom_site_symmetry_multiplicity
 _atom_site_fract_x
 _atom_site_fract_y
 _atom_site_fract_z
 _atom_site_occupancy
  Er  Er0  1  0.000000  0.823507  0.085500  1
  Er  Er1  1  0.000000  0.176478  0.914382  1
  Er  Er2  1  0.000000  0.944717  0.372243  1
  Er  Er3  1  0.000000  0.055286  0.627831  1
  Er  Er4  1  0.000000  0.443791  0.126119  1
  Tm  Tm5  1  0.000000  0.556326  0.873617  1
  Pa  Pa6  1  0.000000  0.321212  0.413166  1
  Pa  Pa7  1  0.000000  0.678776  0.586952  1
  Re  Re8  1  0.000000  0.635619  0.324065  1
  Re  Re9  1  0.000000  0.364527  0.676088  1
  Re  Re10  1  0.000000  0.140182  0.181235  1
  Re  Re11  1  0.000000  0.859529  0.818756  1
  B  B12  1  0.500000  0.553682  0.432861  1
  B  B13  1  0.500000  0.446347  0.567242  1
  B  B14  1  0.500000  0.053168  0.066868  1
  B  B15  1  0.500000  0.946674  0.933093  1
  B  B16  1  0.500000  0.749003  0.419317  1
  B  B17  1  0.500000  0.251039  0.580730  1
  B  B18  1  0.500000  0.248220  0.079757  1
  B  B19  1  0.500000  0.751482  0.920182  1
  B  B20  1  0.500000  0.791877  0.264913  1
  B  B21  1  0.500000  0.208245  0.735140  1
  B  B22  1  0.500000  0.292113  0.233625  1
  B  B23  1  0.500000  0.707644  0.766472  1
  B  B24  1  0.500000  0.631336  0.184765  1
  B  B25  1  0.500000  0.368944  0.815298  1
  B  B26  1  0.500000  0.131525  0.314099  1
  B  B27  1  0.500000  0.868397  0.685962  1
  B  B28  1  0.500000  0.981594  0.211833  1
  B  B29  1  0.500000  0.018348  0.788195  1
  B  B30  1  0.500000  0.482724  0.286191  1
  B  B31  1  0.500000  0.517403  0.714027  1
  B  B32  1  0.500000  0.604175  0.028783  1
  B  B33  1  0.500000  0.396115  0.970646  1
  B  B34  1  0.500000  0.108211  0.470062  1
  B  B35  1  0.500000  0.891779  0.529988  1
