# generated using pymatgen
data_UPaSbC2
_symmetry_space_group_name_H-M   'P 1'
_cell_length_a   6.73402755
_cell_length_b   6.73402783
_cell_length_c   6.73402775
_cell_angle_alpha   145.87053746
_cell_angle_beta   145.87053900
_cell_angle_gamma   49.03909515
_symmetry_Int_Tables_number   1
_chemical_formula_structural   UPaSbC2
_chemical_formula_sum   'U1 Pa1 Sb1 C2'
_cell_volume   95.70044388
_cell_formula_units_Z   1
loop_
 _symmetry_equiv_pos_site_id
 _symmetry_equiv_pos_as_xyz
  1  'x, y, z'
loop_
 _atom_site_type_symbol
 _atom_site_label
 _atom_site_symmetry_multiplicity
 _atom_site_fract_x
 _atom_site_fract_y
 _atom_site_fract_z
 _atom_site_occupancy
  U  U0  1  0.658712  0.658712  0.000000  1
  Pa  Pa1  1  0.344535  0.344535  0.000000  1
  Sb  Sb2  1  0.005332  0.005332  0.000000  1
  C  C3  1  0.745711  0.245711  0.500000  1
  C  C4  1  0.245711  0.745711  0.500000  1
