# generated using pymatgen
data_Sr6Mn3Co2O15
_symmetry_space_group_name_H-M   'P 1'
_cell_length_a   6.99869874
_cell_length_b   6.99869862
_cell_length_c   6.99869862
_cell_angle_alpha   87.56337304
_cell_angle_beta   87.56337228
_cell_angle_gamma   87.56336376
_symmetry_Int_Tables_number   1
_chemical_formula_structural   Sr6Mn3Co2O15
_chemical_formula_sum   'Sr6 Mn3 Co2 O15'
_cell_volume   341.90446123
_cell_formula_units_Z   1
loop_
 _symmetry_equiv_pos_site_id
 _symmetry_equiv_pos_as_xyz
  1  'x, y, z'
loop_
 _atom_site_type_symbol
 _atom_site_label
 _atom_site_symmetry_multiplicity
 _atom_site_fract_x
 _atom_site_fract_y
 _atom_site_fract_z
 _atom_site_occupancy
  Sr  Sr0  1  0.500000  0.857807  0.142193  1
  Sr  Sr1  1  0.142193  0.500000  0.857807  1
  Sr  Sr2  1  0.857807  0.142193  0.500000  1
  Sr  Sr3  1  0.000000  0.691602  0.308398  1
  Sr  Sr4  1  0.308398  0.000000  0.691602  1
  Sr  Sr5  1  0.691602  0.308398  0.000000  1
  Mn  Mn6  1  0.705746  0.705746  0.705746  1
  Mn  Mn7  1  0.294254  0.294254  0.294254  1
  Mn  Mn8  1  0.500000  0.500000  0.500000  1
  Co  Co9  1  0.902157  0.902157  0.902157  1
  Co  Co10  1  0.097843  0.097843  0.097843  1
  O  O11  1  0.349629  0.563363  0.273673  1
  O  O12  1  0.273673  0.349629  0.563363  1
  O  O13  1  0.563363  0.273673  0.349629  1
  O  O14  1  0.650371  0.726327  0.436637  1
  O  O15  1  0.436637  0.650371  0.726327  1
  O  O16  1  0.726327  0.436637  0.650371  1
  O  O17  1  0.210274  0.034913  0.345450  1
  O  O18  1  0.345450  0.210274  0.034913  1
  O  O19  1  0.034913  0.345450  0.210274  1
  O  O20  1  0.789726  0.654550  0.965087  1
  O  O21  1  0.965087  0.789726  0.654550  1
  O  O22  1  0.153412  0.846588  0.000000  1
  O  O23  1  0.846588  0.000000  0.153412  1
  O  O24  1  0.000000  0.153412  0.846588  1
  O  O25  1  0.654550  0.965087  0.789726  1
