# generated using pymatgen
data_Nd6Zn4Pd2Pt11
_symmetry_space_group_name_H-M   'P 1'
_cell_length_a   8.40456113
_cell_length_b   8.40456078
_cell_length_c   8.40391324
_cell_angle_alpha   109.42783736
_cell_angle_beta   109.42783102
_cell_angle_gamma   109.54565777
_symmetry_Int_Tables_number   1
_chemical_formula_structural   Nd6Zn4Pd2Pt11
_chemical_formula_sum   'Nd6 Zn4 Pd2 Pt11'
_cell_volume   457.04122193
_cell_formula_units_Z   1
loop_
 _symmetry_equiv_pos_site_id
 _symmetry_equiv_pos_as_xyz
  1  'x, y, z'
loop_
 _atom_site_type_symbol
 _atom_site_label
 _atom_site_symmetry_multiplicity
 _atom_site_fract_x
 _atom_site_fract_y
 _atom_site_fract_z
 _atom_site_occupancy
  Nd  Nd0  1  0.699625  0.699625  0.001768  1
  Nd  Nd1  1  0.300013  0.999731  0.300041  1
  Nd  Nd2  1  0.999731  0.300013  0.300041  1
  Nd  Nd3  1  0.300606  0.300606  0.999901  1
  Nd  Nd4  1  0.700386  0.000672  0.699448  1
  Nd  Nd5  1  0.000672  0.700386  0.699448  1
  Zn  Zn6  1  0.999891  0.999891  0.499928  1
  Zn  Zn7  1  0.999474  0.499566  0.999492  1
  Zn  Zn8  1  0.499566  0.999474  0.999492  1
  Zn  Zn9  1  0.499682  0.499682  0.500139  1
  Pd  Pd10  1  0.669030  0.338269  0.668912  1
  Pd  Pd11  1  0.338269  0.669030  0.668912  1
  Pt  Pt12  1  0.330503  0.330503  0.659568  1
  Pt  Pt13  1  0.670051  0.000967  0.330501  1
  Pt  Pt14  1  0.000967  0.670051  0.330501  1
  Pt  Pt15  1  0.670427  0.329879  0.999949  1
  Pt  Pt16  1  0.330303  0.660061  0.330541  1
  Pt  Pt17  1  0.000615  0.331042  0.670366  1
  Pt  Pt18  1  0.329879  0.670427  0.999949  1
  Pt  Pt19  1  0.331042  0.000615  0.670366  1
  Pt  Pt20  1  0.660061  0.330303  0.330541  1
  Pt  Pt21  1  0.669953  0.669953  0.340693  1
  Pt  Pt22  1  0.999255  0.999255  0.999502  1
