# generated using pymatgen
data_Pr6Co15Re2P12Rh
_symmetry_space_group_name_H-M   'P 1'
_cell_length_a   3.78198500
_cell_length_b   10.69267300
_cell_length_c   12.45065800
_cell_angle_alpha   90.00000000
_cell_angle_beta   90.00000000
_cell_angle_gamma   90.00000000
_symmetry_Int_Tables_number   1
_chemical_formula_structural   Pr6Co15Re2P12Rh
_chemical_formula_sum   'Pr6 Co15 Re2 P12 Rh1'
_cell_volume   503.49874396
_cell_formula_units_Z   1
loop_
 _symmetry_equiv_pos_site_id
 _symmetry_equiv_pos_as_xyz
  1  'x, y, z'
loop_
 _atom_site_type_symbol
 _atom_site_label
 _atom_site_symmetry_multiplicity
 _atom_site_fract_x
 _atom_site_fract_y
 _atom_site_fract_z
 _atom_site_occupancy
  Pr  Pr0  1  0.000000  0.500000  0.519006  1
  Pr  Pr1  1  0.500000  0.000000  0.477370  1
  Pr  Pr2  1  0.500000  0.818053  0.205489  1
  Pr  Pr3  1  0.500000  0.181947  0.205489  1
  Pr  Pr4  1  0.000000  0.685184  0.795669  1
  Pr  Pr5  1  0.000000  0.314816  0.795669  1
  Co  Co6  1  0.000000  0.000000  0.294988  1
  Co  Co7  1  0.000000  0.500000  0.990577  1
  Co  Co8  1  0.500000  0.000000  0.011947  1
  Co  Co9  1  0.500000  0.331516  0.993851  1
  Co  Co10  1  0.500000  0.668484  0.993851  1
  Co  Co11  1  0.000000  0.166765  0.008510  1
  Co  Co12  1  0.000000  0.833235  0.008510  1
  Co  Co13  1  0.500000  0.295028  0.428090  1
  Co  Co14  1  0.500000  0.704972  0.428090  1
  Co  Co15  1  0.000000  0.201174  0.569020  1
  Co  Co16  1  0.000000  0.798826  0.569020  1
  Co  Co17  1  0.500000  0.883277  0.711934  1
  Co  Co18  1  0.500000  0.116723  0.711934  1
  Co  Co19  1  0.000000  0.617988  0.287888  1
  Co  Co20  1  0.000000  0.382012  0.287888  1
  Re  Re21  1  0.500000  0.500000  0.153264  1
  Re  Re22  1  0.000000  0.000000  0.847277  1
  P  P23  1  0.500000  0.500000  0.892268  1
  P  P24  1  0.000000  0.000000  0.115037  1
  P  P25  1  0.500000  0.500000  0.342141  1
  P  P26  1  0.000000  0.000000  0.657262  1
  P  P27  1  0.500000  0.298371  0.610978  1
  P  P28  1  0.500000  0.701629  0.610978  1
  P  P29  1  0.000000  0.192917  0.385070  1
  P  P30  1  0.000000  0.807083  0.385070  1
  P  P31  1  0.500000  0.848480  0.896197  1
  P  P32  1  0.500000  0.151520  0.896197  1
  P  P33  1  0.000000  0.652945  0.105406  1
  P  P34  1  0.000000  0.347055  0.105406  1
  Rh  Rh35  1  0.500000  0.500000  0.702663  1
