# generated using pymatgen
data_Tm16Cd4CuRu3
_symmetry_space_group_name_H-M   'P 1'
_cell_length_a   9.52549778
_cell_length_b   9.54274032
_cell_length_c   9.54264942
_cell_angle_alpha   59.67932138
_cell_angle_beta   59.35741515
_cell_angle_gamma   59.35740008
_symmetry_Int_Tables_number   1
_chemical_formula_structural   Tm16Cd4CuRu3
_chemical_formula_sum   'Tm16 Cd4 Cu1 Ru3'
_cell_volume   605.87747728
_cell_formula_units_Z   1
loop_
 _symmetry_equiv_pos_site_id
 _symmetry_equiv_pos_as_xyz
  1  'x, y, z'
loop_
 _atom_site_type_symbol
 _atom_site_label
 _atom_site_symmetry_multiplicity
 _atom_site_fract_x
 _atom_site_fract_y
 _atom_site_fract_z
 _atom_site_occupancy
  Tm  Tm0  1  0.346845  0.349660  0.349663  1
  Tm  Tm1  1  0.347706  0.351021  0.953267  1
  Tm  Tm2  1  0.347701  0.953264  0.351028  1
  Tm  Tm3  1  0.960703  0.346321  0.346331  1
  Tm  Tm4  1  0.814793  0.188642  0.188641  1
  Tm  Tm5  1  0.184913  0.812011  0.812000  1
  Tm  Tm6  1  0.186756  0.811155  0.188713  1
  Tm  Tm7  1  0.815823  0.189269  0.805714  1
  Tm  Tm8  1  0.186755  0.188715  0.811151  1
  Tm  Tm9  1  0.815819  0.805713  0.189272  1
  Tm  Tm10  1  0.937188  0.562187  0.562192  1
  Tm  Tm11  1  0.557891  0.937254  0.937248  1
  Tm  Tm12  1  0.557743  0.938635  0.567549  1
  Tm  Tm13  1  0.937329  0.562135  0.939381  1
  Tm  Tm14  1  0.557758  0.567555  0.938621  1
  Tm  Tm15  1  0.937330  0.939389  0.562130  1
  Cd  Cd16  1  0.579094  0.580788  0.580790  1
  Cd  Cd17  1  0.580345  0.580000  0.257860  1
  Cd  Cd18  1  0.580342  0.257863  0.579999  1
  Cd  Cd19  1  0.254614  0.581591  0.581590  1
  Cu  Cu20  1  0.575404  0.141962  0.141968  1
  Ru  Ru21  1  0.146621  0.138495  0.138495  1
  Ru  Ru22  1  0.145259  0.141089  0.575308  1
  Ru  Ru23  1  0.145272  0.575289  0.141092  1
