# generated using pymatgen
data_TbHo15In4Ir3Pd
_symmetry_space_group_name_H-M   'P 1'
_cell_length_a   9.64832699
_cell_length_b   9.66108151
_cell_length_c   9.64911400
_cell_angle_alpha   60.04096855
_cell_angle_beta   59.99730168
_cell_angle_gamma   59.98532083
_symmetry_Int_Tables_number   1
_chemical_formula_structural   TbHo15In4Ir3Pd
_chemical_formula_sum   'Tb1 Ho15 In4 Ir3 Pd1'
_cell_volume   636.10292443
_cell_formula_units_Z   1
loop_
 _symmetry_equiv_pos_site_id
 _symmetry_equiv_pos_as_xyz
  1  'x, y, z'
loop_
 _atom_site_type_symbol
 _atom_site_label
 _atom_site_symmetry_multiplicity
 _atom_site_fract_x
 _atom_site_fract_y
 _atom_site_fract_z
 _atom_site_occupancy
  Tb  Tb0  1  0.440392  0.435001  0.062304  1
  Ho  Ho1  1  0.654035  0.647682  0.049630  1
  Ho  Ho2  1  0.185986  0.810111  0.194776  1
  Ho  Ho3  1  0.060751  0.439009  0.060241  1
  Ho  Ho4  1  0.185986  0.810111  0.809127  1
  Ho  Ho5  1  0.060751  0.439009  0.440000  1
  Ho  Ho6  1  0.810848  0.190356  0.189859  1
  Ho  Ho7  1  0.654035  0.647682  0.648655  1
  Ho  Ho8  1  0.810848  0.190356  0.808939  1
  Ho  Ho9  1  0.185960  0.195188  0.809426  1
  Ho  Ho10  1  0.046466  0.650668  0.651433  1
  Ho  Ho11  1  0.441091  0.060875  0.061602  1
  Ho  Ho12  1  0.061082  0.059821  0.439549  1
  Ho  Ho13  1  0.653352  0.051143  0.647754  1
  Ho  Ho14  1  0.810527  0.809327  0.190074  1
  Ho  Ho15  1  0.441091  0.060875  0.436432  1
  In  In16  1  0.416562  0.417268  0.417454  1
  In  In17  1  0.416562  0.417268  0.748717  1
  In  In18  1  0.416537  0.749346  0.417059  1
  In  In19  1  0.749771  0.416757  0.416737  1
  Ir  Ir20  1  0.856842  0.858923  0.858509  1
  Ir  Ir21  1  0.857472  0.425636  0.858445  1
  Ir  Ir22  1  0.856842  0.858923  0.425724  1
  Pd  Pd23  1  0.426214  0.858666  0.857559  1
