# generated using pymatgen
data_YbMg(SiPt)2
_symmetry_space_group_name_H-M   'P 1'
_cell_length_a   4.29043300
_cell_length_b   6.90763100
_cell_length_c   7.10683900
_cell_angle_alpha   90.00000000
_cell_angle_beta   90.00000000
_cell_angle_gamma   90.00000000
_symmetry_Int_Tables_number   1
_chemical_formula_structural   YbMg(SiPt)2
_chemical_formula_sum   'Yb2 Mg2 Si4 Pt4'
_cell_volume   210.62345434
_cell_formula_units_Z   2
loop_
 _symmetry_equiv_pos_site_id
 _symmetry_equiv_pos_as_xyz
  1  'x, y, z'
loop_
 _atom_site_type_symbol
 _atom_site_label
 _atom_site_symmetry_multiplicity
 _atom_site_fract_x
 _atom_site_fract_y
 _atom_site_fract_z
 _atom_site_occupancy
  Yb  Yb0  1  0.750000  0.508492  0.318418  1
  Yb  Yb1  1  0.750000  0.008492  0.181582  1
  Mg  Mg2  1  0.250000  0.497082  0.693355  1
  Mg  Mg3  1  0.250000  0.997082  0.806645  1
  Si  Si4  1  0.250000  0.821186  0.425204  1
  Si  Si5  1  0.250000  0.321186  0.074796  1
  Si  Si6  1  0.750000  0.166252  0.578105  1
  Si  Si7  1  0.750000  0.666252  0.921895  1
  Pt  Pt8  1  0.250000  0.201368  0.412388  1
  Pt  Pt9  1  0.250000  0.701368  0.087612  1
  Pt  Pt10  1  0.750000  0.805620  0.611648  1
  Pt  Pt11  1  0.750000  0.305620  0.888352  1
