# generated using pymatgen
data_ErTm3(SiPt2)4
_symmetry_space_group_name_H-M   'P 1'
_cell_length_a   5.49686321
_cell_length_b   6.96806900
_cell_length_c   7.27121607
_cell_angle_alpha   90.00000000
_cell_angle_beta   89.95400376
_cell_angle_gamma   90.00000000
_symmetry_Int_Tables_number   1
_chemical_formula_structural   ErTm3(SiPt2)4
_chemical_formula_sum   'Er1 Tm3 Si4 Pt8'
_cell_volume   278.50582471
_cell_formula_units_Z   1
loop_
 _symmetry_equiv_pos_site_id
 _symmetry_equiv_pos_as_xyz
  1  'x, y, z'
loop_
 _atom_site_type_symbol
 _atom_site_label
 _atom_site_symmetry_multiplicity
 _atom_site_fract_x
 _atom_site_fract_y
 _atom_site_fract_z
 _atom_site_occupancy
  Er  Er0  1  0.363878  0.750000  0.025831  1
  Tm  Tm1  1  0.136472  0.750000  0.525811  1
  Tm  Tm2  1  0.636651  0.250000  0.974017  1
  Tm  Tm3  1  0.864021  0.250000  0.474099  1
  Si  Si4  1  0.636107  0.750000  0.380819  1
  Si  Si5  1  0.864270  0.750000  0.880641  1
  Si  Si6  1  0.364344  0.250000  0.619785  1
  Si  Si7  1  0.136282  0.250000  0.119408  1
  Pt  Pt8  1  0.907166  0.549914  0.182450  1
  Pt  Pt9  1  0.593480  0.950055  0.682073  1
  Pt  Pt10  1  0.091339  0.050388  0.816669  1
  Pt  Pt11  1  0.407003  0.449682  0.318601  1
  Pt  Pt12  1  0.091339  0.449612  0.816669  1
  Pt  Pt13  1  0.407003  0.050318  0.318601  1
  Pt  Pt14  1  0.907166  0.950086  0.182450  1
  Pt  Pt15  1  0.593480  0.549945  0.682073  1
