# generated using pymatgen
data_ErTh3(Al3Rh)6
_symmetry_space_group_name_H-M   'P 1'
_cell_length_a   7.64202885
_cell_length_b   7.65124424
_cell_length_c   9.51585800
_cell_angle_alpha   90.00000000
_cell_angle_beta   90.00000000
_cell_angle_gamma   119.40991969
_symmetry_Int_Tables_number   1
_chemical_formula_structural   ErTh3(Al3Rh)6
_chemical_formula_sum   'Er1 Th3 Al18 Rh6'
_cell_volume   484.69782069
_cell_formula_units_Z   1
loop_
 _symmetry_equiv_pos_site_id
 _symmetry_equiv_pos_as_xyz
  1  'x, y, z'
loop_
 _atom_site_type_symbol
 _atom_site_label
 _atom_site_symmetry_multiplicity
 _atom_site_fract_x
 _atom_site_fract_y
 _atom_site_fract_z
 _atom_site_occupancy
  Er  Er0  1  0.328506  0.005766  0.250000  1
  Th  Th1  1  0.995057  0.670843  0.750000  1
  Th  Th2  1  0.004127  0.329323  0.250000  1
  Th  Th3  1  0.670171  0.994470  0.750000  1
  Al  Al4  1  0.134531  0.132121  0.750000  1
  Al  Al5  1  0.871317  0.870144  0.250000  1
  Al  Al6  1  0.005755  0.335479  0.574211  1
  Al  Al7  1  0.000920  0.669992  0.422145  1
  Al  Al8  1  0.000920  0.669992  0.077855  1
  Al  Al9  1  0.334968  0.004157  0.931677  1
  Al  Al10  1  0.005755  0.335479  0.925789  1
  Al  Al11  1  0.659329  0.995564  0.077814  1
  Al  Al12  1  0.659329  0.995564  0.422186  1
  Al  Al13  1  0.334968  0.004157  0.568323  1
  Al  Al14  1  0.336256  0.332441  0.052827  1
  Al  Al15  1  0.663272  0.663299  0.955776  1
  Al  Al16  1  0.663272  0.663299  0.544224  1
  Al  Al17  1  0.336256  0.332441  0.447173  1
  Al  Al18  1  0.341216  0.544564  0.750000  1
  Al  Al19  1  0.656786  0.449687  0.250000  1
  Al  Al20  1  0.544102  0.338504  0.750000  1
  Al  Al21  1  0.452657  0.662286  0.250000  1
  Rh  Rh22  1  0.673666  0.328235  0.499930  1
  Rh  Rh23  1  0.327374  0.671591  0.500006  1
  Rh  Rh24  1  0.327374  0.671591  0.999994  1
  Rh  Rh25  1  0.673666  0.328235  0.000070  1
  Rh  Rh26  1  0.999225  0.000388  0.500050  1
  Rh  Rh27  1  0.999225  0.000388  0.999950  1
