# generated using pymatgen
data_Dy5Ho3Ti12Si15As
_symmetry_space_group_name_H-M   'P 1'
_cell_length_a   7.05631880
_cell_length_b   7.04911911
_cell_length_c   12.96304213
_cell_angle_alpha   89.98678001
_cell_angle_beta   89.82153832
_cell_angle_gamma   89.94761074
_symmetry_Int_Tables_number   1
_chemical_formula_structural   Dy5Ho3Ti12Si15As
_chemical_formula_sum   'Dy5 Ho3 Ti12 Si15 As1'
_cell_volume   644.78908257
_cell_formula_units_Z   1
loop_
 _symmetry_equiv_pos_site_id
 _symmetry_equiv_pos_as_xyz
  1  'x, y, z'
loop_
 _atom_site_type_symbol
 _atom_site_label
 _atom_site_symmetry_multiplicity
 _atom_site_fract_x
 _atom_site_fract_y
 _atom_site_fract_z
 _atom_site_occupancy
  Dy  Dy0  1  0.341583  0.002237  0.466131  1
  Dy  Dy1  1  0.497117  0.842119  0.717381  1
  Dy  Dy2  1  0.502617  0.159026  0.216418  1
  Dy  Dy3  1  0.840609  0.496932  0.283193  1
  Dy  Dy4  1  0.158802  0.501820  0.783360  1
  Ho  Ho5  1  0.660297  0.995411  0.967381  1
  Ho  Ho6  1  0.999837  0.343333  0.532065  1
  Ho  Ho7  1  0.997926  0.659156  0.033528  1
  Ti  Ti8  1  0.325907  0.326546  0.999741  1
  Ti  Ti9  1  0.173186  0.826904  0.249960  1
  Ti  Ti10  1  0.823666  0.173756  0.750229  1
  Ti  Ti11  1  0.673229  0.672936  0.500055  1
  Ti  Ti12  1  0.153542  0.008996  0.875602  1
  Ti  Ti13  1  0.491860  0.651839  0.125710  1
  Ti  Ti14  1  0.509211  0.347702  0.626969  1
  Ti  Ti15  1  0.654218  0.494285  0.874733  1
  Ti  Ti16  1  0.347397  0.507731  0.373966  1
  Ti  Ti17  1  0.847686  0.992270  0.375801  1
  Ti  Ti18  1  0.007967  0.151457  0.124043  1
  Ti  Ti19  1  0.989844  0.844459  0.623261  1
  Si  Si20  1  0.368661  0.703262  0.934036  1
  Si  Si21  1  0.630111  0.297760  0.434739  1
  Si  Si22  1  0.703003  0.369537  0.065875  1
  Si  Si23  1  0.297314  0.630348  0.565906  1
  Si  Si24  1  0.797235  0.869304  0.184254  1
  Si  Si25  1  0.130722  0.202739  0.316051  1
  Si  Si26  1  0.869910  0.797878  0.815682  1
  Si  Si27  1  0.290855  0.952490  0.064513  1
  Si  Si28  1  0.547247  0.790214  0.314519  1
  Si  Si29  1  0.461308  0.211305  0.819346  1
  Si  Si30  1  0.790600  0.546721  0.685140  1
  Si  Si31  1  0.209172  0.452893  0.185303  1
  Si  Si32  1  0.709164  0.046792  0.564330  1
  Si  Si33  1  0.953077  0.290707  0.935541  1
  Si  Si34  1  0.047196  0.709547  0.434991  1
  As  As35  1  0.197922  0.129588  0.680245  1
