# generated using pymatgen
data_AlV(BMo)4
_symmetry_space_group_name_H-M   'P 1'
_cell_length_a   5.89893000
_cell_length_b   5.89893000
_cell_length_c   3.15398100
_cell_angle_alpha   90.00000000
_cell_angle_beta   90.00000000
_cell_angle_gamma   90.00000000
_symmetry_Int_Tables_number   1
_chemical_formula_structural   AlV(BMo)4
_chemical_formula_sum   'Al1 V1 B4 Mo4'
_cell_volume   109.75026006
_cell_formula_units_Z   1
loop_
 _symmetry_equiv_pos_site_id
 _symmetry_equiv_pos_as_xyz
  1  'x, y, z'
loop_
 _atom_site_type_symbol
 _atom_site_label
 _atom_site_symmetry_multiplicity
 _atom_site_fract_x
 _atom_site_fract_y
 _atom_site_fract_z
 _atom_site_occupancy
  Al  Al0  1  0.500000  0.500000  0.000000  1
  V  V1  1  0.000000  0.000000  0.000000  1
  B  B2  1  0.112002  0.610745  0.000000  1
  B  B3  1  0.887998  0.389255  0.000000  1
  B  B4  1  0.610745  0.887998  0.000000  1
  B  B5  1  0.389255  0.112002  0.000000  1
  Mo  Mo6  1  0.679426  0.172861  0.500000  1
  Mo  Mo7  1  0.320574  0.827139  0.500000  1
  Mo  Mo8  1  0.172861  0.320574  0.500000  1
  Mo  Mo9  1  0.827139  0.679426  0.500000  1
