# generated using pymatgen
data_Ce4In2PdPtRh2
_symmetry_space_group_name_H-M   'P 1'
_cell_length_a   7.78770506
_cell_length_b   7.78770526
_cell_length_c   3.75593700
_cell_angle_alpha   90.00000000
_cell_angle_beta   90.00000000
_cell_angle_gamma   89.40672572
_symmetry_Int_Tables_number   1
_chemical_formula_structural   Ce4In2PdPtRh2
_chemical_formula_sum   'Ce4 In2 Pd1 Pt1 Rh2'
_cell_volume   227.77917652
_cell_formula_units_Z   1
loop_
 _symmetry_equiv_pos_site_id
 _symmetry_equiv_pos_as_xyz
  1  'x, y, z'
loop_
 _atom_site_type_symbol
 _atom_site_label
 _atom_site_symmetry_multiplicity
 _atom_site_fract_x
 _atom_site_fract_y
 _atom_site_fract_z
 _atom_site_occupancy
  Ce  Ce0  1  0.664373  0.164373  0.500000  1
  Ce  Ce1  1  0.332428  0.832428  0.500000  1
  Ce  Ce2  1  0.178618  0.324992  0.500000  1
  Ce  Ce3  1  0.824992  0.678618  0.500000  1
  In  In4  1  0.999652  0.001054  0.000000  1
  In  In5  1  0.501054  0.499652  0.000000  1
  Pd  Pd6  1  0.868082  0.368082  0.000000  1
  Pt  Pt7  1  0.130223  0.630223  0.000000  1
  Rh  Rh8  1  0.636441  0.864137  0.000000  1
  Rh  Rh9  1  0.364137  0.136441  0.000000  1
