# generated using pymatgen
data_Tb3DyGa17GeIr6
_symmetry_space_group_name_H-M   'P 1'
_cell_length_a   7.62124401
_cell_length_b   7.60290143
_cell_length_c   9.50261600
_cell_angle_alpha   90.07581308
_cell_angle_beta   89.81712930
_cell_angle_gamma   119.86790092
_symmetry_Int_Tables_number   1
_chemical_formula_structural   Tb3DyGa17GeIr6
_chemical_formula_sum   'Tb3 Dy1 Ga17 Ge1 Ir6'
_cell_volume   477.47799927
_cell_formula_units_Z   1
loop_
 _symmetry_equiv_pos_site_id
 _symmetry_equiv_pos_as_xyz
  1  'x, y, z'
loop_
 _atom_site_type_symbol
 _atom_site_label
 _atom_site_symmetry_multiplicity
 _atom_site_fract_x
 _atom_site_fract_y
 _atom_site_fract_z
 _atom_site_occupancy
  Tb  Tb0  1  0.997796  0.667628  0.249237  1
  Tb  Tb1  1  0.002481  0.330686  0.752767  1
  Tb  Tb2  1  0.672528  0.000286  0.249201  1
  Dy  Dy3  1  0.330337  0.002682  0.749428  1
  Ga  Ga4  1  0.131345  0.125796  0.250991  1
  Ga  Ga5  1  0.872410  0.874422  0.749840  1
  Ga  Ga6  1  0.999249  0.670190  0.916835  1
  Ga  Ga7  1  0.000563  0.665924  0.580894  1
  Ga  Ga8  1  0.334629  0.998474  0.419634  1
  Ga  Ga9  1  0.000257  0.334929  0.421774  1
  Ga  Ga10  1  0.664989  0.000331  0.580881  1
  Ga  Ga11  1  0.659019  0.995207  0.917008  1
  Ga  Ga12  1  0.333890  0.997975  0.081037  1
  Ga  Ga13  1  0.331944  0.331241  0.564834  1
  Ga  Ga14  1  0.668924  0.668974  0.435286  1
  Ga  Ga15  1  0.668284  0.669170  0.066476  1
  Ga  Ga16  1  0.336239  0.332067  0.933270  1
  Ga  Ga17  1  0.345693  0.549315  0.251603  1
  Ga  Ga18  1  0.661575  0.453002  0.749110  1
  Ga  Ga19  1  0.547506  0.339451  0.249825  1
  Ga  Ga20  1  0.451125  0.658331  0.749370  1
  Ge  Ge21  1  0.997491  0.334757  0.082033  1
  Ir  Ir22  1  0.674524  0.328609  0.999696  1
  Ir  Ir23  1  0.320335  0.663867  0.000345  1
  Ir  Ir24  1  0.327291  0.670933  0.499993  1
  Ir  Ir25  1  0.671880  0.328211  0.498982  1
  Ir  Ir26  1  0.998592  0.006935  0.000271  1
  Ir  Ir27  1  0.999103  0.000605  0.499379  1
