# generated using pymatgen
data_NdEr4Bi3
_symmetry_space_group_name_H-M   'P 1'
_cell_length_a   8.31532700
_cell_length_b   9.47744800
_cell_length_c   12.12439600
_cell_angle_alpha   90.00000000
_cell_angle_beta   90.00000000
_cell_angle_gamma   90.00000000
_symmetry_Int_Tables_number   1
_chemical_formula_structural   NdEr4Bi3
_chemical_formula_sum   'Nd4 Er16 Bi12'
_cell_volume   955.50036077
_cell_formula_units_Z   4
loop_
 _symmetry_equiv_pos_site_id
 _symmetry_equiv_pos_as_xyz
  1  'x, y, z'
loop_
 _atom_site_type_symbol
 _atom_site_label
 _atom_site_symmetry_multiplicity
 _atom_site_fract_x
 _atom_site_fract_y
 _atom_site_fract_z
 _atom_site_occupancy
  Nd  Nd0  1  0.168018  0.750000  0.222971  1
  Nd  Nd1  1  0.331982  0.750000  0.722971  1
  Nd  Nd2  1  0.831982  0.250000  0.777029  1
  Nd  Nd3  1  0.668018  0.250000  0.277029  1
  Er  Er4  1  0.812983  0.564985  0.063123  1
  Er  Er5  1  0.687017  0.935015  0.563123  1
  Er  Er6  1  0.187017  0.064985  0.936877  1
  Er  Er7  1  0.312983  0.435015  0.436877  1
  Er  Er8  1  0.187017  0.435015  0.936877  1
  Er  Er9  1  0.312983  0.064985  0.436877  1
  Er  Er10  1  0.812983  0.935015  0.063123  1
  Er  Er11  1  0.687017  0.564985  0.563123  1
  Er  Er12  1  0.478585  0.750000  0.003437  1
  Er  Er13  1  0.021415  0.750000  0.503437  1
  Er  Er14  1  0.521415  0.250000  0.996563  1
  Er  Er15  1  0.978585  0.250000  0.496563  1
  Er  Er16  1  0.668892  0.750000  0.288526  1
  Er  Er17  1  0.831108  0.750000  0.788526  1
  Er  Er18  1  0.331108  0.250000  0.711474  1
  Er  Er19  1  0.168892  0.250000  0.211474  1
  Bi  Bi20  1  0.400570  0.750000  0.461855  1
  Bi  Bi21  1  0.099430  0.750000  0.961855  1
  Bi  Bi22  1  0.599430  0.250000  0.538145  1
  Bi  Bi23  1  0.900570  0.250000  0.038145  1
  Bi  Bi24  1  0.935927  0.505785  0.328602  1
  Bi  Bi25  1  0.564073  0.994215  0.828602  1
  Bi  Bi26  1  0.064073  0.005785  0.671398  1
  Bi  Bi27  1  0.435927  0.494215  0.171398  1
  Bi  Bi28  1  0.064073  0.494215  0.671398  1
  Bi  Bi29  1  0.435927  0.005785  0.171398  1
  Bi  Bi30  1  0.935927  0.994215  0.328602  1
  Bi  Bi31  1  0.564073  0.505785  0.828602  1
