# generated using pymatgen
data_Tm4Sn5PIr7
_symmetry_space_group_name_H-M   'P 1'
_cell_length_a   7.47621200
_cell_length_b   7.47621139
_cell_length_c   7.47621226
_cell_angle_alpha   109.33053335
_cell_angle_beta   109.54161953
_cell_angle_gamma   109.54160039
_symmetry_Int_Tables_number   1
_chemical_formula_structural   Tm4Sn5PIr7
_chemical_formula_sum   'Tm4 Sn5 P1 Ir7'
_cell_volume   321.67769685
_cell_formula_units_Z   1
loop_
 _symmetry_equiv_pos_site_id
 _symmetry_equiv_pos_as_xyz
  1  'x, y, z'
loop_
 _atom_site_type_symbol
 _atom_site_label
 _atom_site_symmetry_multiplicity
 _atom_site_fract_x
 _atom_site_fract_y
 _atom_site_fract_z
 _atom_site_occupancy
  Tm  Tm0  1  0.000000  0.987396  0.532659  1
  Tm  Tm1  1  0.000000  0.532659  0.987396  1
  Tm  Tm2  1  0.454736  0.987396  0.987396  1
  Tm  Tm3  1  0.545264  0.532659  0.532659  1
  Sn  Sn4  1  0.687166  0.702508  0.015342  1
  Sn  Sn5  1  0.312834  0.015342  0.328176  1
  Sn  Sn6  1  0.000000  0.286348  0.286348  1
  Sn  Sn7  1  0.312834  0.328176  0.015342  1
  Sn  Sn8  1  0.687166  0.015342  0.702508  1
  P  P9  1  0.000000  0.645882  0.645882  1
  Ir  Ir10  1  0.757808  0.256143  0.498335  1
  Ir  Ir11  1  0.757808  0.498335  0.256143  1
  Ir  Ir12  1  0.500000  0.261277  0.761277  1
  Ir  Ir13  1  0.242192  0.498335  0.740527  1
  Ir  Ir14  1  0.242192  0.740527  0.498335  1
  Ir  Ir15  1  0.500000  0.761277  0.261277  1
  Ir  Ir16  1  0.000000  0.950399  0.950399  1
