# generated using pymatgen
data_Y3Lu9TlCo5
_symmetry_space_group_name_H-M   'P 1'
_cell_length_a   8.13354512
_cell_length_b   8.13067991
_cell_length_c   8.13067900
_cell_angle_alpha   106.66178770
_cell_angle_beta   111.03222384
_cell_angle_gamma   110.74038118
_symmetry_Int_Tables_number   1
_chemical_formula_structural   Y3Lu9TlCo5
_chemical_formula_sum   'Y3 Lu9 Tl1 Co5'
_cell_volume   413.25158442
_cell_formula_units_Z   1
loop_
 _symmetry_equiv_pos_site_id
 _symmetry_equiv_pos_as_xyz
  1  'x, y, z'
loop_
 _atom_site_type_symbol
 _atom_site_label
 _atom_site_symmetry_multiplicity
 _atom_site_fract_x
 _atom_site_fract_y
 _atom_site_fract_z
 _atom_site_occupancy
  Y  Y0  1  0.476156  0.287562  0.188593  1
  Y  Y1  1  0.099704  0.287674  0.812030  1
  Y  Y2  1  0.900274  0.713651  0.186623  1
  Lu  Lu3  1  0.526644  0.713340  0.813306  1
  Lu  Lu4  1  0.307612  0.621001  0.315803  1
  Lu  Lu5  1  0.307612  0.991810  0.686612  1
  Lu  Lu6  1  0.692751  0.379819  0.686231  1
  Lu  Lu7  1  0.692751  0.006519  0.312931  1
  Lu  Lu8  1  0.193894  0.214928  0.407128  1
  Lu  Lu9  1  0.807286  0.787234  0.596819  1
  Lu  Lu10  1  0.193894  0.786766  0.978964  1
  Lu  Lu11  1  0.807286  0.210467  0.020053  1
  Tl  Tl12  1  0.999348  0.499998  0.499350  1
  Co  Co13  1  0.498621  0.615304  0.110905  1
  Co  Co14  1  0.498621  0.387717  0.883317  1
  Co  Co15  1  0.376669  0.999981  0.376689  1
  Co  Co16  1  0.622386  0.998424  0.623962  1
  Co  Co17  1  0.998489  0.997806  0.000684  1
