# generated using pymatgen
data_SmYNCl3
_symmetry_space_group_name_H-M   'P 1'
_cell_length_a   8.50479102
_cell_length_b   8.50479081
_cell_length_c   10.86969997
_cell_angle_alpha   59.82712838
_cell_angle_beta   59.82712933
_cell_angle_gamma   26.57508562
_symmetry_Int_Tables_number   1
_chemical_formula_structural   SmYNCl3
_chemical_formula_sum   'Sm2 Y2 N2 Cl6'
_cell_volume   301.19715861
_cell_formula_units_Z   2
loop_
 _symmetry_equiv_pos_site_id
 _symmetry_equiv_pos_as_xyz
  1  'x, y, z'
loop_
 _atom_site_type_symbol
 _atom_site_label
 _atom_site_symmetry_multiplicity
 _atom_site_fract_x
 _atom_site_fract_y
 _atom_site_fract_z
 _atom_site_occupancy
  Sm  Sm0  1  0.862583  0.862583  0.292044  1
  Sm  Sm1  1  0.137417  0.137417  0.707956  1
  Y  Y2  1  0.582973  0.582973  0.044759  1
  Y  Y3  1  0.417027  0.417027  0.955241  1
  N  N4  1  0.425471  0.425471  0.154396  1
  N  N5  1  0.574529  0.574529  0.845604  1
  Cl  Cl6  1  0.048553  0.048553  0.245313  1
  Cl  Cl7  1  0.951447  0.951447  0.754687  1
  Cl  Cl8  1  0.665057  0.665057  0.486664  1
  Cl  Cl9  1  0.334943  0.334943  0.513336  1
  Cl  Cl10  1  0.782750  0.782750  0.109698  1
  Cl  Cl11  1  0.217250  0.217250  0.890302  1
