# generated using pymatgen
data_ThAl2ZnGa
_symmetry_space_group_name_H-M   'P 1'
_cell_length_a   4.23336033
_cell_length_b   4.23336100
_cell_length_c   6.23095137
_cell_angle_alpha   70.14115324
_cell_angle_beta   70.14114207
_cell_angle_gamma   89.99998655
_symmetry_Int_Tables_number   1
_chemical_formula_structural   ThAl2ZnGa
_chemical_formula_sum   'Th1 Al2 Zn1 Ga1'
_cell_volume   97.93663066
_cell_formula_units_Z   1
loop_
 _symmetry_equiv_pos_site_id
 _symmetry_equiv_pos_as_xyz
  1  'x, y, z'
loop_
 _atom_site_type_symbol
 _atom_site_label
 _atom_site_symmetry_multiplicity
 _atom_site_fract_x
 _atom_site_fract_y
 _atom_site_fract_z
 _atom_site_occupancy
  Th  Th0  1  0.001552  0.001552  0.996897  1
  Al  Al1  1  0.752673  0.252673  0.494655  1
  Al  Al2  1  0.252673  0.752673  0.494655  1
  Zn  Zn3  1  0.384391  0.384391  0.231219  1
  Ga  Ga4  1  0.608712  0.608712  0.782575  1
