# generated using pymatgen
data_Ce4Hf5Si8W
_symmetry_space_group_name_H-M   'P 1'
_cell_length_a   7.25602331
_cell_length_b   7.25602331
_cell_length_c   13.38805800
_cell_angle_alpha   90.00000000
_cell_angle_beta   90.00000000
_cell_angle_gamma   89.83736763
_symmetry_Int_Tables_number   1
_chemical_formula_structural   Ce4Hf5Si8W
_chemical_formula_sum   'Ce8 Hf10 Si16 W2'
_cell_volume   704.87673046
_cell_formula_units_Z   2
loop_
 _symmetry_equiv_pos_site_id
 _symmetry_equiv_pos_as_xyz
  1  'x, y, z'
loop_
 _atom_site_type_symbol
 _atom_site_label
 _atom_site_symmetry_multiplicity
 _atom_site_fract_x
 _atom_site_fract_y
 _atom_site_fract_z
 _atom_site_occupancy
  Ce  Ce0  1  0.495609  0.159501  0.535270  1
  Ce  Ce1  1  0.504391  0.840499  0.035270  1
  Ce  Ce2  1  0.657990  0.005725  0.284738  1
  Ce  Ce3  1  0.342010  0.994275  0.784738  1
  Ce  Ce4  1  0.840499  0.504391  0.964730  1
  Ce  Ce5  1  0.159501  0.495609  0.464730  1
  Ce  Ce6  1  0.005725  0.657990  0.715262  1
  Ce  Ce7  1  0.994275  0.342010  0.215262  1
  Hf  Hf8  1  0.825899  0.825899  0.500000  1
  Hf  Hf9  1  0.174101  0.174101  0.000000  1
  Hf  Hf10  1  0.497679  0.351611  0.125879  1
  Hf  Hf11  1  0.502321  0.648389  0.625879  1
  Hf  Hf12  1  0.847887  0.004560  0.872031  1
  Hf  Hf13  1  0.152113  0.995440  0.372031  1
  Hf  Hf14  1  0.648389  0.502321  0.374121  1
  Hf  Hf15  1  0.351611  0.497679  0.874121  1
  Hf  Hf16  1  0.004560  0.847887  0.127969  1
  Hf  Hf17  1  0.995440  0.152113  0.627969  1
  Si  Si18  1  0.796991  0.136595  0.063496  1
  Si  Si19  1  0.203009  0.863405  0.563496  1
  Si  Si20  1  0.638359  0.699328  0.814457  1
  Si  Si21  1  0.361641  0.300672  0.314457  1
  Si  Si22  1  0.863405  0.203009  0.436504  1
  Si  Si23  1  0.136595  0.796991  0.936504  1
  Si  Si24  1  0.699328  0.638359  0.185543  1
  Si  Si25  1  0.300672  0.361641  0.685543  1
  Si  Si26  1  0.549967  0.206341  0.932155  1
  Si  Si27  1  0.450033  0.793659  0.432155  1
  Si  Si28  1  0.704214  0.955736  0.684922  1
  Si  Si29  1  0.295786  0.044264  0.184922  1
  Si  Si30  1  0.793659  0.450033  0.567845  1
  Si  Si31  1  0.206341  0.549967  0.067845  1
  Si  Si32  1  0.955736  0.704214  0.315078  1
  Si  Si33  1  0.044264  0.295786  0.815078  1
  W  W34  1  0.673278  0.326722  0.750000  1
  W  W35  1  0.326722  0.673278  0.250000  1
