# generated using pymatgen
data_Dy10Al3Ru
_symmetry_space_group_name_H-M   'P 1'
_cell_length_a   9.52993500
_cell_length_b   9.52993492
_cell_length_c   9.62757900
_cell_angle_alpha   90.00000000
_cell_angle_beta   90.00000000
_cell_angle_gamma   119.99999681
_symmetry_Int_Tables_number   1
_chemical_formula_structural   Dy10Al3Ru
_chemical_formula_sum   'Dy20 Al6 Ru2'
_cell_volume   757.22964828
_cell_formula_units_Z   2
loop_
 _symmetry_equiv_pos_site_id
 _symmetry_equiv_pos_as_xyz
  1  'x, y, z'
loop_
 _atom_site_type_symbol
 _atom_site_label
 _atom_site_symmetry_multiplicity
 _atom_site_fract_x
 _atom_site_fract_y
 _atom_site_fract_z
 _atom_site_occupancy
  Dy  Dy0  1  0.000000  0.000000  0.500000  1
  Dy  Dy1  1  0.000000  0.000000  0.000000  1
  Dy  Dy2  1  0.207040  0.792960  0.439763  1
  Dy  Dy3  1  0.207040  0.414081  0.439763  1
  Dy  Dy4  1  0.585919  0.792960  0.439763  1
  Dy  Dy5  1  0.792960  0.207040  0.560237  1
  Dy  Dy6  1  0.792960  0.585919  0.560237  1
  Dy  Dy7  1  0.414081  0.207040  0.560237  1
  Dy  Dy8  1  0.792960  0.207040  0.939763  1
  Dy  Dy9  1  0.792960  0.585919  0.939763  1
  Dy  Dy10  1  0.414081  0.207040  0.939763  1
  Dy  Dy11  1  0.207040  0.792960  0.060237  1
  Dy  Dy12  1  0.207040  0.414081  0.060237  1
  Dy  Dy13  1  0.585919  0.792960  0.060237  1
  Dy  Dy14  1  0.540154  0.459846  0.250000  1
  Dy  Dy15  1  0.540154  0.080307  0.250000  1
  Dy  Dy16  1  0.919693  0.459846  0.250000  1
  Dy  Dy17  1  0.459846  0.540154  0.750000  1
  Dy  Dy18  1  0.459846  0.919693  0.750000  1
  Dy  Dy19  1  0.080307  0.540154  0.750000  1
  Al  Al20  1  0.888667  0.111333  0.250000  1
  Al  Al21  1  0.888667  0.777335  0.250000  1
  Al  Al22  1  0.222665  0.111333  0.250000  1
  Al  Al23  1  0.111333  0.888667  0.750000  1
  Al  Al24  1  0.111333  0.222665  0.750000  1
  Al  Al25  1  0.777335  0.888667  0.750000  1
  Ru  Ru26  1  0.333333  0.666667  0.250000  1
  Ru  Ru27  1  0.666667  0.333333  0.750000  1
