# generated using pymatgen
data_Ho4Hf3ScPt4
_symmetry_space_group_name_H-M   'P 1'
_cell_length_a   4.66733100
_cell_length_b   7.00918211
_cell_length_c   8.25233208
_cell_angle_alpha   89.27842116
_cell_angle_beta   90.00000000
_cell_angle_gamma   90.00000000
_symmetry_Int_Tables_number   1
_chemical_formula_structural   Ho4Hf3ScPt4
_chemical_formula_sum   'Ho4 Hf3 Sc1 Pt4'
_cell_volume   269.94680979
_cell_formula_units_Z   1
loop_
 _symmetry_equiv_pos_site_id
 _symmetry_equiv_pos_as_xyz
  1  'x, y, z'
loop_
 _atom_site_type_symbol
 _atom_site_label
 _atom_site_symmetry_multiplicity
 _atom_site_fract_x
 _atom_site_fract_y
 _atom_site_fract_z
 _atom_site_occupancy
  Ho  Ho0  1  0.250000  0.981987  0.326102  1
  Ho  Ho1  1  0.250000  0.483890  0.176421  1
  Ho  Ho2  1  0.750000  0.015960  0.678739  1
  Ho  Ho3  1  0.750000  0.518483  0.818041  1
  Hf  Hf4  1  0.250000  0.857337  0.923950  1
  Hf  Hf5  1  0.250000  0.355499  0.574897  1
  Hf  Hf6  1  0.750000  0.146837  0.078383  1
  Sc  Sc7  1  0.750000  0.643606  0.420679  1
  Pt  Pt8  1  0.250000  0.232322  0.904569  1
  Pt  Pt9  1  0.250000  0.732402  0.604121  1
  Pt  Pt10  1  0.750000  0.770289  0.088586  1
  Pt  Pt11  1  0.750000  0.261388  0.405512  1
