# generated using pymatgen
data_Lu2Sc2MnB12Ir
_symmetry_space_group_name_H-M   'P 1'
_cell_length_a   3.48074900
_cell_length_b   8.90429342
_cell_length_c   11.25890528
_cell_angle_alpha   90.00484630
_cell_angle_beta   90.00000000
_cell_angle_gamma   90.00000000
_symmetry_Int_Tables_number   1
_chemical_formula_structural   Lu2Sc2MnB12Ir
_chemical_formula_sum   'Lu4 Sc4 Mn2 B24 Ir2'
_cell_volume   348.95412246
_cell_formula_units_Z   2
loop_
 _symmetry_equiv_pos_site_id
 _symmetry_equiv_pos_as_xyz
  1  'x, y, z'
loop_
 _atom_site_type_symbol
 _atom_site_label
 _atom_site_symmetry_multiplicity
 _atom_site_fract_x
 _atom_site_fract_y
 _atom_site_fract_z
 _atom_site_occupancy
  Lu  Lu0  1  0.500000  0.314643  0.409963  1
  Lu  Lu1  1  0.500000  0.685357  0.590037  1
  Lu  Lu2  1  0.500000  0.174445  0.917572  1
  Lu  Lu3  1  0.500000  0.825555  0.082428  1
  Sc  Sc4  1  0.500000  0.439415  0.125013  1
  Sc  Sc5  1  0.500000  0.560585  0.874987  1
  Sc  Sc6  1  0.500000  0.050122  0.628617  1
  Sc  Sc7  1  0.500000  0.949878  0.371383  1
  Mn  Mn8  1  0.500000  0.140488  0.182003  1
  Mn  Mn9  1  0.500000  0.859512  0.817997  1
  B  B10  1  0.000000  0.101194  0.472539  1
  B  B11  1  0.000000  0.898806  0.527461  1
  B  B12  1  0.000000  0.398372  0.972546  1
  B  B13  1  0.000000  0.601628  0.027454  1
  B  B14  1  0.000000  0.129804  0.315394  1
  B  B15  1  0.000000  0.870196  0.684606  1
  B  B16  1  0.000000  0.370196  0.819216  1
  B  B17  1  0.000000  0.629804  0.180784  1
  B  B18  1  0.000000  0.054383  0.067626  1
  B  B19  1  0.000000  0.945617  0.932374  1
  B  B20  1  0.000000  0.445929  0.565499  1
  B  B21  1  0.000000  0.554071  0.434501  1
  B  B22  1  0.000000  0.479471  0.285395  1
  B  B23  1  0.000000  0.520529  0.714605  1
  B  B24  1  0.000000  0.016305  0.787227  1
  B  B25  1  0.000000  0.983695  0.212773  1
  B  B26  1  0.000000  0.249594  0.081573  1
  B  B27  1  0.000000  0.750406  0.918427  1
  B  B28  1  0.000000  0.245644  0.579088  1
  B  B29  1  0.000000  0.754356  0.420912  1
  B  B30  1  0.000000  0.292046  0.233915  1
  B  B31  1  0.000000  0.707954  0.766085  1
  B  B32  1  0.000000  0.204750  0.736150  1
  B  B33  1  0.000000  0.795250  0.263850  1
  Ir  Ir34  1  0.500000  0.360557  0.680219  1
  Ir  Ir35  1  0.500000  0.639443  0.319781  1
