# generated using pymatgen
data_Sc12In(WI8)2
_symmetry_space_group_name_H-M   'P 1'
_cell_length_a   9.24974540
_cell_length_b   12.10026412
_cell_length_c   12.68453485
_cell_angle_alpha   117.11034410
_cell_angle_beta   101.11243920
_cell_angle_gamma   100.74121584
_symmetry_Int_Tables_number   1
_chemical_formula_structural   Sc12In(WI8)2
_chemical_formula_sum   'Sc12 In1 W2 I16'
_cell_volume   1177.34160374
_cell_formula_units_Z   1
loop_
 _symmetry_equiv_pos_site_id
 _symmetry_equiv_pos_as_xyz
  1  'x, y, z'
loop_
 _atom_site_type_symbol
 _atom_site_label
 _atom_site_symmetry_multiplicity
 _atom_site_fract_x
 _atom_site_fract_y
 _atom_site_fract_z
 _atom_site_occupancy
  Sc  Sc0  1  0.102543  0.253472  0.347678  1
  Sc  Sc1  1  0.897457  0.746528  0.652322  1
  Sc  Sc2  1  0.758167  0.537423  0.320015  1
  Sc  Sc3  1  0.241833  0.462577  0.679985  1
  Sc  Sc4  1  0.302983  0.746792  0.651357  1
  Sc  Sc5  1  0.697017  0.253208  0.348643  1
  Sc  Sc6  1  0.165432  0.537178  0.318947  1
  Sc  Sc7  1  0.834568  0.462822  0.681053  1
  Sc  Sc8  1  0.411215  0.365359  0.285959  1
  Sc  Sc9  1  0.588785  0.634641  0.714041  1
  Sc  Sc10  1  0.459985  0.317039  0.518706  1
  Sc  Sc11  1  0.540015  0.682961  0.481294  1
  In  In12  1  0.000000  0.500000  0.500000  1
  W  W13  1  0.325643  0.500009  0.499598  1
  W  W14  1  0.674358  0.499991  0.500402  1
  I  I15  1  0.395348  0.740063  0.886201  1
  I  I16  1  0.604652  0.259937  0.113799  1
  I  I17  1  0.188148  0.964111  0.783414  1
  I  I18  1  0.811852  0.035889  0.216586  1
  I  I19  1  0.334796  0.092231  0.249231  1
  I  I20  1  0.665204  0.907769  0.750769  1
  I  I21  1  0.563337  0.437701  0.799866  1
  I  I22  1  0.436663  0.562299  0.200134  1
  I  I23  1  0.307812  0.827729  0.462278  1
  I  I24  1  0.692188  0.172271  0.537722  1
  I  I25  1  0.166666  0.172912  0.536744  1
  I  I26  1  0.833334  0.827088  0.463256  1
  I  I27  1  0.927549  0.574023  0.161375  1
  I  I28  1  0.072451  0.425977  0.838625  1
  I  I29  1  0.923780  0.740391  0.887217  1
  I  I30  1  0.076220  0.259609  0.112783  1
