# generated using pymatgen
data_Er5P12Ir9Ru10
_symmetry_space_group_name_H-M   'P 1'
_cell_length_a   12.59271726
_cell_length_b   12.55716994
_cell_length_c   3.95621700
_cell_angle_alpha   90.00000000
_cell_angle_beta   90.00000000
_cell_angle_gamma   119.80987308
_symmetry_Int_Tables_number   1
_chemical_formula_structural   Er5P12Ir9Ru10
_chemical_formula_sum   'Er5 P12 Ir9 Ru10'
_cell_volume   542.81372158
_cell_formula_units_Z   1
loop_
 _symmetry_equiv_pos_site_id
 _symmetry_equiv_pos_as_xyz
  1  'x, y, z'
loop_
 _atom_site_type_symbol
 _atom_site_label
 _atom_site_symmetry_multiplicity
 _atom_site_fract_x
 _atom_site_fract_y
 _atom_site_fract_z
 _atom_site_occupancy
  Er  Er0  1  0.667552  0.332433  0.000000  1
  Er  Er1  1  0.333295  0.666598  0.000000  1
  Er  Er2  1  0.812675  0.000902  0.500000  1
  Er  Er3  1  0.185254  0.187447  0.500000  1
  Er  Er4  1  0.000259  0.813832  0.500000  1
  P  P5  1  0.632078  0.997591  0.000000  1
  P  P6  1  0.364502  0.370522  0.000000  1
  P  P7  1  0.006125  0.635555  0.000000  1
  P  P8  1  0.689472  0.518983  0.500000  1
  P  P9  1  0.829421  0.306743  0.500000  1
  P  P10  1  0.313228  0.829893  0.500000  1
  P  P11  1  0.516669  0.686605  0.500000  1
  P  P12  1  0.180796  0.001615  0.000000  1
  P  P13  1  0.819137  0.819217  0.000000  1
  P  P14  1  0.996368  0.181058  0.000000  1
  P  P15  1  0.480430  0.168205  0.500000  1
  P  P16  1  0.170396  0.483776  0.500000  1
  Ir  Ir17  1  0.624176  0.804343  0.000000  1
  Ir  Ir18  1  0.180841  0.376210  0.000000  1
  Ir  Ir19  1  0.374291  0.184860  0.000000  1
  Ir  Ir20  1  0.195416  0.820872  0.000000  1
  Ir  Ir21  1  0.810494  0.625556  0.000000  1
  Ir  Ir22  1  0.868186  0.504812  0.500000  1
  Ir  Ir23  1  0.494180  0.361205  0.500000  1
  Ir  Ir24  1  0.636685  0.128515  0.500000  1
  Ir  Ir25  1  0.999435  0.000164  0.000000  1
  Ru  Ru26  1  0.127733  0.640156  0.500000  1
  Ru  Ru27  1  0.361395  0.488455  0.500000  1
  Ru  Ru28  1  0.510230  0.870392  0.500000  1
  Ru  Ru29  1  0.715171  0.713510  0.500000  1
  Ru  Ru30  1  0.000810  0.286014  0.500000  1
  Ru  Ru31  1  0.450750  0.001430  0.000000  1
  Ru  Ru32  1  0.551465  0.547206  0.000000  1
  Ru  Ru33  1  0.998877  0.450179  0.000000  1
  Ru  Ru34  1  0.816248  0.193267  0.000000  1
  Ru  Ru35  1  0.285958  0.001883  0.500000  1
