# generated using pymatgen
data_Tb4Al18Re2PdPt3
_symmetry_space_group_name_H-M   'P 1'
_cell_length_a   7.62318106
_cell_length_b   7.62318181
_cell_length_c   9.54631667
_cell_angle_alpha   90.02188641
_cell_angle_beta   90.02188944
_cell_angle_gamma   118.64153512
_symmetry_Int_Tables_number   1
_chemical_formula_structural   Tb4Al18Re2PdPt3
_chemical_formula_sum   'Tb4 Al18 Re2 Pd1 Pt3'
_cell_volume   486.88065888
_cell_formula_units_Z   1
loop_
 _symmetry_equiv_pos_site_id
 _symmetry_equiv_pos_as_xyz
  1  'x, y, z'
loop_
 _atom_site_type_symbol
 _atom_site_label
 _atom_site_symmetry_multiplicity
 _atom_site_fract_x
 _atom_site_fract_y
 _atom_site_fract_z
 _atom_site_occupancy
  Tb  Tb0  1  0.993983  0.681051  0.249851  1
  Tb  Tb1  1  0.005942  0.319054  0.750229  1
  Tb  Tb2  1  0.680946  0.994058  0.249771  1
  Tb  Tb3  1  0.318949  0.006017  0.750149  1
  Al  Al4  1  0.132203  0.132233  0.249969  1
  Al  Al5  1  0.867767  0.867797  0.750031  1
  Al  Al6  1  0.001709  0.334611  0.076107  1
  Al  Al7  1  0.998032  0.665379  0.924209  1
  Al  Al8  1  0.998422  0.665776  0.576357  1
  Al  Al9  1  0.334224  0.001578  0.423643  1
  Al  Al10  1  0.002824  0.335241  0.423393  1
  Al  Al11  1  0.664759  0.997176  0.576607  1
  Al  Al12  1  0.665389  0.998291  0.923893  1
  Al  Al13  1  0.334621  0.001968  0.075791  1
  Al  Al14  1  0.329496  0.329627  0.549321  1
  Al  Al15  1  0.670373  0.670504  0.450679  1
  Al  Al16  1  0.670770  0.670677  0.048784  1
  Al  Al17  1  0.329323  0.329230  0.951216  1
  Al  Al18  1  0.343801  0.551035  0.249810  1
  Al  Al19  1  0.656028  0.448265  0.750005  1
  Al  Al20  1  0.551735  0.343972  0.249995  1
  Al  Al21  1  0.448965  0.656199  0.750190  1
  Re  Re22  1  0.999971  0.000029  0.000000  1
  Re  Re23  1  0.999651  0.000349  0.500000  1
  Pd  Pd24  1  0.671784  0.328216  0.500000  1
  Pt  Pt25  1  0.671454  0.328546  0.000000  1
  Pt  Pt26  1  0.328350  0.671650  0.000000  1
  Pt  Pt27  1  0.328529  0.671471  0.500000  1
