# generated using pymatgen
data_DyHoB8OsRh
_symmetry_space_group_name_H-M   'P 1'
_cell_length_a   3.57073100
_cell_length_b   5.96504108
_cell_length_c   11.55491800
_cell_angle_alpha   90.04627691
_cell_angle_beta   90.00000000
_cell_angle_gamma   90.00000000
_symmetry_Int_Tables_number   1
_chemical_formula_structural   DyHoB8OsRh
_chemical_formula_sum   'Dy2 Ho2 B16 Os2 Rh2'
_cell_volume   246.11455553
_cell_formula_units_Z   2
loop_
 _symmetry_equiv_pos_site_id
 _symmetry_equiv_pos_as_xyz
  1  'x, y, z'
loop_
 _atom_site_type_symbol
 _atom_site_label
 _atom_site_symmetry_multiplicity
 _atom_site_fract_x
 _atom_site_fract_y
 _atom_site_fract_z
 _atom_site_occupancy
  Dy  Dy0  1  0.500000  0.370464  0.149307  1
  Dy  Dy1  1  0.500000  0.629536  0.850693  1
  Ho  Ho2  1  0.500000  0.129838  0.649136  1
  Ho  Ho3  1  0.500000  0.870162  0.350864  1
  B  B4  1  0.000000  0.112186  0.047413  1
  B  B5  1  0.000000  0.887814  0.952587  1
  B  B6  1  0.000000  0.387544  0.546660  1
  B  B7  1  0.000000  0.612456  0.453340  1
  B  B8  1  0.000000  0.136243  0.470068  1
  B  B9  1  0.000000  0.863757  0.529932  1
  B  B10  1  0.000000  0.362927  0.970482  1
  B  B11  1  0.000000  0.637073  0.029518  1
  B  B12  1  0.000000  0.021355  0.193540  1
  B  B13  1  0.000000  0.978645  0.806460  1
  B  B14  1  0.000000  0.474069  0.691808  1
  B  B15  1  0.000000  0.525931  0.308192  1
  B  B16  1  0.000000  0.210383  0.313415  1
  B  B17  1  0.000000  0.789617  0.686585  1
  B  B18  1  0.000000  0.288319  0.812511  1
  B  B19  1  0.000000  0.711681  0.187489  1
  Os  Os20  1  0.500000  0.357529  0.406957  1
  Os  Os21  1  0.500000  0.642471  0.593043  1
  Rh  Rh22  1  0.500000  0.141371  0.904894  1
  Rh  Rh23  1  0.500000  0.858629  0.095106  1
