# generated using pymatgen
data_Th2Si4(PRu4)3
_symmetry_space_group_name_H-M   'P 1'
_cell_length_a   9.57365900
_cell_length_b   9.57365834
_cell_length_c   3.99849600
_cell_angle_alpha   90.00000000
_cell_angle_beta   90.00000000
_cell_angle_gamma   119.99999193
_symmetry_Int_Tables_number   1
_chemical_formula_structural   Th2Si4(PRu4)3
_chemical_formula_sum   'Th2 Si4 P3 Ru12'
_cell_volume   317.38267173
_cell_formula_units_Z   1
loop_
 _symmetry_equiv_pos_site_id
 _symmetry_equiv_pos_as_xyz
  1  'x, y, z'
loop_
 _atom_site_type_symbol
 _atom_site_label
 _atom_site_symmetry_multiplicity
 _atom_site_fract_x
 _atom_site_fract_y
 _atom_site_fract_z
 _atom_site_occupancy
  Th  Th0  1  0.666667  0.333333  0.500000  1
  Th  Th1  1  0.333333  0.666667  0.000000  1
  Si  Si2  1  0.609457  0.714714  0.500000  1
  Si  Si3  1  0.000000  0.000000  0.000000  1
  Si  Si4  1  0.285286  0.894743  0.500000  1
  Si  Si5  1  0.105257  0.390543  0.500000  1
  P  P6  1  0.895363  0.583825  0.000000  1
  P  P7  1  0.416175  0.311537  0.000000  1
  P  P8  1  0.688463  0.104637  0.000000  1
  Ru  Ru9  1  0.561932  0.953755  0.500000  1
  Ru  Ru10  1  0.391823  0.438068  0.500000  1
  Ru  Ru11  1  0.905273  0.111664  0.500000  1
  Ru  Ru12  1  0.206391  0.094727  0.500000  1
  Ru  Ru13  1  0.888336  0.793609  0.500000  1
  Ru  Ru14  1  0.723833  0.884202  0.000000  1
  Ru  Ru15  1  0.115798  0.839629  0.000000  1
  Ru  Ru16  1  0.160371  0.276167  0.000000  1
  Ru  Ru17  1  0.426636  0.071216  0.000000  1
  Ru  Ru18  1  0.928784  0.355421  0.000000  1
  Ru  Ru19  1  0.644579  0.573364  0.000000  1
  Ru  Ru20  1  0.046245  0.608177  0.500000  1
