# generated using pymatgen
data_CeNb5(SnRu2)6
_symmetry_space_group_name_H-M   'P 1'
_cell_length_a   4.39212800
_cell_length_b   7.00366700
_cell_length_c   13.15872400
_cell_angle_alpha   90.00000000
_cell_angle_beta   89.99886845
_cell_angle_gamma   90.00000000
_symmetry_Int_Tables_number   1
_chemical_formula_structural   CeNb5(SnRu2)6
_chemical_formula_sum   'Ce1 Nb5 Sn6 Ru12'
_cell_volume   404.77553437
_cell_formula_units_Z   1
loop_
 _symmetry_equiv_pos_site_id
 _symmetry_equiv_pos_as_xyz
  1  'x, y, z'
loop_
 _atom_site_type_symbol
 _atom_site_label
 _atom_site_symmetry_multiplicity
 _atom_site_fract_x
 _atom_site_fract_y
 _atom_site_fract_z
 _atom_site_occupancy
  Ce  Ce0  1  0.000000  0.499999  0.000000  1
  Nb  Nb1  1  0.499980  0.000000  0.170583  1
  Nb  Nb2  1  0.000003  0.499999  0.333808  1
  Nb  Nb3  1  0.499999  0.000000  0.500000  1
  Nb  Nb4  1  0.999997  0.499999  0.666192  1
  Nb  Nb5  1  0.500019  0.000000  0.829417  1
  Sn  Sn6  1  0.000000  0.000000  0.000000  1
  Sn  Sn7  1  0.500006  0.499999  0.172404  1
  Sn  Sn8  1  0.999984  0.000000  0.339026  1
  Sn  Sn9  1  0.499999  0.499999  0.500000  1
  Sn  Sn10  1  0.000015  0.000000  0.660975  1
  Sn  Sn11  1  0.499993  0.499999  0.827596  1
  Ru  Ru12  1  0.500000  0.228792  0.000000  1
  Ru  Ru13  1  0.500000  0.771207  0.000000  1
  Ru  Ru14  1  0.999996  0.238950  0.174221  1
  Ru  Ru15  1  0.999996  0.761050  0.174221  1
  Ru  Ru16  1  0.499979  0.248066  0.336491  1
  Ru  Ru17  1  0.499979  0.751933  0.336491  1
  Ru  Ru18  1  0.000000  0.256266  0.500000  1
  Ru  Ru19  1  0.000000  0.743732  0.500000  1
  Ru  Ru20  1  0.500022  0.248066  0.663509  1
  Ru  Ru21  1  0.500022  0.751933  0.663509  1
  Ru  Ru22  1  0.000004  0.238950  0.825779  1
  Ru  Ru23  1  0.000004  0.761050  0.825779  1
