# generated using pymatgen
data_Nb6CdNiS12
_symmetry_space_group_name_H-M   'P 1'
_cell_length_a   5.84693800
_cell_length_b   5.84693950
_cell_length_c   12.70807900
_cell_angle_alpha   90.00000000
_cell_angle_beta   90.00000000
_cell_angle_gamma   120.00000281
_symmetry_Int_Tables_number   1
_chemical_formula_structural   Nb6CdNiS12
_chemical_formula_sum   'Nb6 Cd1 Ni1 S12'
_cell_volume   376.24229451
_cell_formula_units_Z   1
loop_
 _symmetry_equiv_pos_site_id
 _symmetry_equiv_pos_as_xyz
  1  'x, y, z'
loop_
 _atom_site_type_symbol
 _atom_site_label
 _atom_site_symmetry_multiplicity
 _atom_site_fract_x
 _atom_site_fract_y
 _atom_site_fract_z
 _atom_site_occupancy
  Nb  Nb0  1  0.000000  0.000000  0.518021  1
  Nb  Nb1  1  0.000000  0.000000  0.981979  1
  Nb  Nb2  1  0.333333  0.666667  0.981453  1
  Nb  Nb3  1  0.666667  0.333333  0.984560  1
  Nb  Nb4  1  0.666667  0.333333  0.515440  1
  Nb  Nb5  1  0.333333  0.666667  0.518547  1
  Cd  Cd6  1  0.333333  0.666667  0.250000  1
  Ni  Ni7  1  0.666667  0.333333  0.750000  1
  S  S8  1  0.331592  0.326976  0.393144  1
  S  S9  1  0.673024  0.004617  0.393144  1
  S  S10  1  0.995383  0.668408  0.393144  1
  S  S11  1  0.333600  0.333714  0.638779  1
  S  S12  1  0.000113  0.666400  0.638779  1
  S  S13  1  0.666286  0.999887  0.638779  1
  S  S14  1  0.666286  0.666400  0.861221  1
  S  S15  1  0.333600  0.999887  0.861221  1
  S  S16  1  0.000113  0.333714  0.861221  1
  S  S17  1  0.673024  0.668408  0.106856  1
  S  S18  1  0.995383  0.326976  0.106856  1
  S  S19  1  0.331592  0.004617  0.106856  1
