# generated using pymatgen
data_TbPr2Sn2Hg3
_symmetry_space_group_name_H-M   'P 1'
_cell_length_a   6.46260688
_cell_length_b   6.46260667
_cell_length_c   10.68780600
_cell_angle_alpha   90.00000000
_cell_angle_beta   90.00000000
_cell_angle_gamma   102.38036546
_symmetry_Int_Tables_number   1
_chemical_formula_structural   TbPr2Sn2Hg3
_chemical_formula_sum   'Tb2 Pr4 Sn4 Hg6'
_cell_volume   435.99908787
_cell_formula_units_Z   2
loop_
 _symmetry_equiv_pos_site_id
 _symmetry_equiv_pos_as_xyz
  1  'x, y, z'
loop_
 _atom_site_type_symbol
 _atom_site_label
 _atom_site_symmetry_multiplicity
 _atom_site_fract_x
 _atom_site_fract_y
 _atom_site_fract_z
 _atom_site_occupancy
  Tb  Tb0  1  0.634229  0.634229  0.250000  1
  Tb  Tb1  1  0.365771  0.365771  0.750000  1
  Pr  Pr2  1  0.201259  0.798741  0.500000  1
  Pr  Pr3  1  0.201259  0.798741  0.000000  1
  Pr  Pr4  1  0.798741  0.201259  0.500000  1
  Pr  Pr5  1  0.798741  0.201259  0.000000  1
  Sn  Sn6  1  0.318210  0.318210  0.046068  1
  Sn  Sn7  1  0.681790  0.681790  0.953932  1
  Sn  Sn8  1  0.318210  0.318210  0.453932  1
  Sn  Sn9  1  0.681790  0.681790  0.546068  1
  Hg  Hg10  1  0.013583  0.013583  0.250000  1
  Hg  Hg11  1  0.986417  0.986417  0.750000  1
  Hg  Hg12  1  0.507699  0.074284  0.250000  1
  Hg  Hg13  1  0.925716  0.492301  0.750000  1
  Hg  Hg14  1  0.492301  0.925716  0.750000  1
  Hg  Hg15  1  0.074284  0.507699  0.250000  1
