# generated using pymatgen
data_PrNd2GaSn3Ir2
_symmetry_space_group_name_H-M   'P 1'
_cell_length_a   7.52898104
_cell_length_b   7.53836364
_cell_length_c   4.27900700
_cell_angle_alpha   90.00000000
_cell_angle_beta   90.00000000
_cell_angle_gamma   120.07737293
_symmetry_Int_Tables_number   1
_chemical_formula_structural   PrNd2GaSn3Ir2
_chemical_formula_sum   'Pr1 Nd2 Ga1 Sn3 Ir2'
_cell_volume   210.15889899
_cell_formula_units_Z   1
loop_
 _symmetry_equiv_pos_site_id
 _symmetry_equiv_pos_as_xyz
  1  'x, y, z'
loop_
 _atom_site_type_symbol
 _atom_site_label
 _atom_site_symmetry_multiplicity
 _atom_site_fract_x
 _atom_site_fract_y
 _atom_site_fract_z
 _atom_site_occupancy
  Pr  Pr0  1  0.594233  0.008239  0.000000  1
  Nd  Nd1  1  0.990414  0.586552  0.000000  1
  Nd  Nd2  1  0.413507  0.404243  0.000000  1
  Ga  Ga3  1  0.332217  0.665145  0.500000  1
  Sn  Sn4  1  0.252611  0.009889  0.500000  1
  Sn  Sn5  1  0.991364  0.244294  0.500000  1
  Sn  Sn6  1  0.756656  0.746182  0.500000  1
  Ir  Ir7  1  0.667379  0.335464  0.500000  1
  Ir  Ir8  1  0.001619  0.999992  0.000000  1
