# generated using pymatgen
data_Ba2InSnAu2
_symmetry_space_group_name_H-M   'P 1'
_cell_length_a   6.55109623
_cell_length_b   6.53592869
_cell_length_c   6.53592929
_cell_angle_alpha   135.02263750
_cell_angle_beta   99.14882818
_cell_angle_gamma   97.63934248
_symmetry_Int_Tables_number   1
_chemical_formula_structural   Ba2InSnAu2
_chemical_formula_sum   'Ba2 In1 Sn1 Au2'
_cell_volume   182.81605233
_cell_formula_units_Z   1
loop_
 _symmetry_equiv_pos_site_id
 _symmetry_equiv_pos_as_xyz
  1  'x, y, z'
loop_
 _atom_site_type_symbol
 _atom_site_label
 _atom_site_symmetry_multiplicity
 _atom_site_fract_x
 _atom_site_fract_y
 _atom_site_fract_z
 _atom_site_occupancy
  Ba  Ba0  1  0.696299  0.697228  0.999071  1
  Ba  Ba1  1  0.113179  0.614335  0.498843  1
  In  In2  1  0.298241  0.985338  0.312903  1
  Sn  Sn3  1  0.674453  0.984712  0.689741  1
  Au  Au4  1  0.538154  0.315102  0.223053  1
  Au  Au5  1  0.095094  0.318705  0.776390  1
