# generated using pymatgen
data_Lu20Hg6OsPd
_symmetry_space_group_name_H-M   'P 1'
_cell_length_a   9.47705300
_cell_length_b   9.47705305
_cell_length_c   9.41969200
_cell_angle_alpha   90.00000000
_cell_angle_beta   90.00000000
_cell_angle_gamma   119.99999633
_symmetry_Int_Tables_number   1
_chemical_formula_structural   Lu20Hg6OsPd
_chemical_formula_sum   'Lu20 Hg6 Os1 Pd1'
_cell_volume   732.67938410
_cell_formula_units_Z   1
loop_
 _symmetry_equiv_pos_site_id
 _symmetry_equiv_pos_as_xyz
  1  'x, y, z'
loop_
 _atom_site_type_symbol
 _atom_site_label
 _atom_site_symmetry_multiplicity
 _atom_site_fract_x
 _atom_site_fract_y
 _atom_site_fract_z
 _atom_site_occupancy
  Lu  Lu0  1  0.209148  0.790852  0.940860  1
  Lu  Lu1  1  0.209148  0.418296  0.940860  1
  Lu  Lu2  1  0.581704  0.790852  0.940860  1
  Lu  Lu3  1  0.792723  0.207277  0.058437  1
  Lu  Lu4  1  0.792723  0.585446  0.058437  1
  Lu  Lu5  1  0.414554  0.207277  0.058437  1
  Lu  Lu6  1  0.792723  0.207277  0.441563  1
  Lu  Lu7  1  0.792723  0.585446  0.441563  1
  Lu  Lu8  1  0.414554  0.207277  0.441563  1
  Lu  Lu9  1  0.209148  0.790852  0.559140  1
  Lu  Lu10  1  0.209148  0.418296  0.559140  1
  Lu  Lu11  1  0.581704  0.790852  0.559140  1
  Lu  Lu12  1  0.538809  0.461191  0.750000  1
  Lu  Lu13  1  0.538809  0.077619  0.750000  1
  Lu  Lu14  1  0.922381  0.461191  0.750000  1
  Lu  Lu15  1  0.457421  0.542579  0.250000  1
  Lu  Lu16  1  0.457421  0.914842  0.250000  1
  Lu  Lu17  1  0.085158  0.542579  0.250000  1
  Lu  Lu18  1  0.000000  0.000000  0.001280  1
  Lu  Lu19  1  0.000000  0.000000  0.498720  1
  Hg  Hg20  1  0.881455  0.118545  0.750000  1
  Hg  Hg21  1  0.881455  0.762911  0.750000  1
  Hg  Hg22  1  0.237089  0.118545  0.750000  1
  Hg  Hg23  1  0.119854  0.880146  0.250000  1
  Hg  Hg24  1  0.119854  0.239708  0.250000  1
  Hg  Hg25  1  0.760292  0.880146  0.250000  1
  Os  Os26  1  0.333333  0.666667  0.750000  1
  Pd  Pd27  1  0.666667  0.333333  0.250000  1
