# generated using pymatgen
data_La3As2Se
_symmetry_space_group_name_H-M   'P 1'
_cell_length_a   7.54925496
_cell_length_b   7.54925514
_cell_length_c   7.54925613
_cell_angle_alpha   146.46643291
_cell_angle_beta   131.95295236
_cell_angle_gamma   59.86212931
_symmetry_Int_Tables_number   1
_chemical_formula_structural   La3As2Se
_chemical_formula_sum   'La3 As2 Se1'
_cell_volume   175.15745515
_cell_formula_units_Z   1
loop_
 _symmetry_equiv_pos_site_id
 _symmetry_equiv_pos_as_xyz
  1  'x, y, z'
loop_
 _atom_site_type_symbol
 _atom_site_label
 _atom_site_symmetry_multiplicity
 _atom_site_fract_x
 _atom_site_fract_y
 _atom_site_fract_z
 _atom_site_occupancy
  La  La0  1  0.000000  0.000000  0.000000  1
  La  La1  1  0.670251  0.670251  0.000000  1
  La  La2  1  0.329749  0.329749  0.000000  1
  As  As3  1  0.165859  0.665859  0.500000  1
  As  As4  1  0.834141  0.334141  0.500000  1
  Se  Se5  1  0.500000  0.000000  0.500000  1
