# generated using pymatgen
data_Na3Sr3InP4
_symmetry_space_group_name_H-M   'P 1'
_cell_length_a   9.61152300
_cell_length_b   9.61152317
_cell_length_c   7.45557800
_cell_angle_alpha   90.00000000
_cell_angle_beta   90.00000000
_cell_angle_gamma   120.00000284
_symmetry_Int_Tables_number   1
_chemical_formula_structural   Na3Sr3InP4
_chemical_formula_sum   'Na6 Sr6 In2 P8'
_cell_volume   596.48065653
_cell_formula_units_Z   2
loop_
 _symmetry_equiv_pos_site_id
 _symmetry_equiv_pos_as_xyz
  1  'x, y, z'
loop_
 _atom_site_type_symbol
 _atom_site_label
 _atom_site_symmetry_multiplicity
 _atom_site_fract_x
 _atom_site_fract_y
 _atom_site_fract_z
 _atom_site_occupancy
  Na  Na0  1  0.135935  0.864065  0.168998  1
  Na  Na1  1  0.271869  0.135935  0.668998  1
  Na  Na2  1  0.864065  0.728131  0.668998  1
  Na  Na3  1  0.728131  0.864065  0.168998  1
  Na  Na4  1  0.864065  0.135935  0.668998  1
  Na  Na5  1  0.135935  0.271869  0.168998  1
  Sr  Sr6  1  0.950579  0.475289  0.999908  1
  Sr  Sr7  1  0.524711  0.049421  0.999908  1
  Sr  Sr8  1  0.475289  0.950579  0.499908  1
  Sr  Sr9  1  0.049421  0.524711  0.499908  1
  Sr  Sr10  1  0.524711  0.475289  0.999908  1
  Sr  Sr11  1  0.475289  0.524711  0.499908  1
  In  In12  1  0.666667  0.333333  0.372943  1
  In  In13  1  0.333333  0.666667  0.872943  1
  P  P14  1  0.814677  0.185323  0.273966  1
  P  P15  1  0.185323  0.370646  0.773966  1
  P  P16  1  0.814677  0.629354  0.273966  1
  P  P17  1  0.666667  0.333333  0.729543  1
  P  P18  1  0.629354  0.814677  0.773966  1
  P  P19  1  0.333333  0.666667  0.229543  1
  P  P20  1  0.185323  0.814677  0.773966  1
  P  P21  1  0.370646  0.185323  0.273966  1
