# generated using pymatgen
data_La8Pr12Si15Tc
_symmetry_space_group_name_H-M   'P 1'
_cell_length_a   7.98245846
_cell_length_b   7.96738880
_cell_length_c   15.39918100
_cell_angle_alpha   89.93567392
_cell_angle_beta   89.69049560
_cell_angle_gamma   90.02502301
_symmetry_Int_Tables_number   1
_chemical_formula_structural   La8Pr12Si15Tc
_chemical_formula_sum   'La8 Pr12 Si15 Tc1'
_cell_volume   979.36290258
_cell_formula_units_Z   1
loop_
 _symmetry_equiv_pos_site_id
 _symmetry_equiv_pos_as_xyz
  1  'x, y, z'
loop_
 _atom_site_type_symbol
 _atom_site_label
 _atom_site_symmetry_multiplicity
 _atom_site_fract_x
 _atom_site_fract_y
 _atom_site_fract_z
 _atom_site_occupancy
  La  La0  1  0.369080  0.013460  0.451495  1
  La  La1  1  0.479953  0.884618  0.697094  1
  La  La2  1  0.511627  0.124386  0.199371  1
  La  La3  1  0.875740  0.488162  0.300851  1
  La  La4  1  0.130716  0.500818  0.796318  1
  La  La5  1  0.627364  0.987895  0.949275  1
  La  La6  1  0.008001  0.376045  0.552146  1
  La  La7  1  0.988020  0.626317  0.049993  1
  Pr  Pr8  1  0.307235  0.304297  0.998150  1
  Pr  Pr9  1  0.193281  0.810193  0.249851  1
  Pr  Pr10  1  0.825197  0.190235  0.748622  1
  Pr  Pr11  1  0.694821  0.688671  0.502618  1
  Pr  Pr12  1  0.132009  0.982872  0.872301  1
  Pr  Pr13  1  0.517009  0.629111  0.126426  1
  Pr  Pr14  1  0.474178  0.361591  0.628725  1
  Pr  Pr15  1  0.627993  0.515094  0.874886  1
  Pr  Pr16  1  0.373255  0.483738  0.374004  1
  Pr  Pr17  1  0.872313  0.019056  0.376448  1
  Pr  Pr18  1  0.982825  0.128036  0.124722  1
  Pr  Pr19  1  0.023821  0.880031  0.626759  1
  Si  Si20  1  0.333867  0.695243  0.952048  1
  Si  Si21  1  0.663957  0.301265  0.451847  1
  Si  Si22  1  0.698129  0.333599  0.049049  1
  Si  Si23  1  0.302096  0.667878  0.546530  1
  Si  Si24  1  0.804830  0.832326  0.203501  1
  Si  Si25  1  0.167552  0.198311  0.297281  1
  Si  Si26  1  0.831498  0.801218  0.799225  1
  Si  Si27  1  0.288011  0.920891  0.058585  1
  Si  Si28  1  0.580668  0.786266  0.311075  1
  Si  Si29  1  0.421753  0.212988  0.812588  1
  Si  Si30  1  0.778478  0.584237  0.691773  1
  Si  Si31  1  0.212081  0.422520  0.190074  1
  Si  Si32  1  0.704802  0.075451  0.558690  1
  Si  Si33  1  0.920685  0.286731  0.941126  1
  Si  Si34  1  0.079098  0.715713  0.440634  1
  Tc  Tc35  1  0.198057  0.170733  0.695926  1
