# generated using pymatgen
data_Dy8Sc12Ga5Sn11
_symmetry_space_group_name_H-M   'P 1'
_cell_length_a   7.49822188
_cell_length_b   7.87146073
_cell_length_c   14.77852500
_cell_angle_alpha   90.00000000
_cell_angle_beta   90.00000000
_cell_angle_gamma   89.75682545
_symmetry_Int_Tables_number   1
_chemical_formula_structural   Dy8Sc12Ga5Sn11
_chemical_formula_sum   'Dy8 Sc12 Ga5 Sn11'
_cell_volume   872.24964135
_cell_formula_units_Z   1
loop_
 _symmetry_equiv_pos_site_id
 _symmetry_equiv_pos_as_xyz
  1  'x, y, z'
loop_
 _atom_site_type_symbol
 _atom_site_label
 _atom_site_symmetry_multiplicity
 _atom_site_fract_x
 _atom_site_fract_y
 _atom_site_fract_z
 _atom_site_occupancy
  Dy  Dy0  1  0.997791  0.176511  0.094782  1
  Dy  Dy1  1  0.007484  0.824529  0.902657  1
  Dy  Dy2  1  0.496078  0.681899  0.900834  1
  Dy  Dy3  1  0.007484  0.824529  0.597343  1
  Dy  Dy4  1  0.498314  0.324722  0.094396  1
  Dy  Dy5  1  0.997791  0.176511  0.405218  1
  Dy  Dy6  1  0.498314  0.324722  0.405604  1
  Dy  Dy7  1  0.496078  0.681899  0.599166  1
  Sc  Sc8  1  0.182063  0.499191  0.750000  1
  Sc  Sc9  1  0.821728  0.509365  0.250000  1
  Sc  Sc10  1  0.321890  0.990029  0.250000  1
  Sc  Sc11  1  0.672055  0.008150  0.750000  1
  Sc  Sc12  1  0.332481  0.161776  0.633491  1
  Sc  Sc13  1  0.665332  0.831726  0.368816  1
  Sc  Sc14  1  0.165397  0.668385  0.368851  1
  Sc  Sc15  1  0.665332  0.831726  0.131184  1
  Sc  Sc16  1  0.836035  0.330279  0.631824  1
  Sc  Sc17  1  0.332481  0.161776  0.866509  1
  Sc  Sc18  1  0.836035  0.330279  0.868176  1
  Sc  Sc19  1  0.165397  0.668385  0.131149  1
  Ga  Ga20  1  0.033192  0.115206  0.750000  1
  Ga  Ga21  1  0.968425  0.876185  0.250000  1
  Ga  Ga22  1  0.468290  0.624024  0.250000  1
  Ga  Ga23  1  0.531944  0.375452  0.750000  1
  Ga  Ga24  1  0.297831  0.865167  0.750000  1
  Sn  Sn25  1  0.700443  0.140615  0.250000  1
  Sn  Sn26  1  0.200483  0.359241  0.250000  1
  Sn  Sn27  1  0.799288  0.640281  0.750000  1
  Sn  Sn28  1  0.178300  0.456258  0.541012  1
  Sn  Sn29  1  0.821904  0.542750  0.460817  1
  Sn  Sn30  1  0.323250  0.958637  0.459547  1
  Sn  Sn31  1  0.821904  0.542750  0.039183  1
  Sn  Sn32  1  0.678819  0.041076  0.540608  1
  Sn  Sn33  1  0.178300  0.456258  0.958988  1
  Sn  Sn34  1  0.678819  0.041076  0.959392  1
  Sn  Sn35  1  0.323250  0.958637  0.040453  1
