# generated using pymatgen
data_Tb4Pr2FeBr10
_symmetry_space_group_name_H-M   'P 1'
_cell_length_a   7.46772704
_cell_length_b   9.18501278
_cell_length_c   9.37465658
_cell_angle_alpha   108.87220592
_cell_angle_beta   96.97849221
_cell_angle_gamma   103.97036575
_symmetry_Int_Tables_number   1
_chemical_formula_structural   Tb4Pr2FeBr10
_chemical_formula_sum   'Tb4 Pr2 Fe1 Br10'
_cell_volume   576.33785199
_cell_formula_units_Z   1
loop_
 _symmetry_equiv_pos_site_id
 _symmetry_equiv_pos_as_xyz
  1  'x, y, z'
loop_
 _atom_site_type_symbol
 _atom_site_label
 _atom_site_symmetry_multiplicity
 _atom_site_fract_x
 _atom_site_fract_y
 _atom_site_fract_z
 _atom_site_occupancy
  Tb  Tb0  1  0.876644  0.955370  0.749212  1
  Tb  Tb1  1  0.123356  0.044630  0.250788  1
  Tb  Tb2  1  0.359844  0.131605  0.680531  1
  Tb  Tb3  1  0.640156  0.868395  0.319469  1
  Pr  Pr4  1  0.032372  0.722933  0.413295  1
  Pr  Pr5  1  0.967628  0.277067  0.586705  1
  Fe  Fe6  1  0.000000  0.000000  0.500000  1
  Br  Br7  1  0.459736  0.824708  0.584093  1
  Br  Br8  1  0.540264  0.175292  0.415907  1
  Br  Br9  1  0.909979  0.638441  0.679800  1
  Br  Br10  1  0.090021  0.361559  0.320200  1
  Br  Br11  1  0.247999  0.084127  0.954756  1
  Br  Br12  1  0.752001  0.915873  0.045244  1
  Br  Br13  1  0.359692  0.448839  0.772924  1
  Br  Br14  1  0.640308  0.551161  0.227076  1
  Br  Br15  1  0.777106  0.249849  0.852419  1
  Br  Br16  1  0.222894  0.750151  0.147581  1
