# generated using pymatgen
data_Tb3Er5In3Os
_symmetry_space_group_name_H-M   'P 1'
_cell_length_a   10.34997800
_cell_length_b   10.35039554
_cell_length_c   7.09378500
_cell_angle_alpha   90.00000000
_cell_angle_beta   90.00000000
_cell_angle_gamma   120.00111250
_symmetry_Int_Tables_number   1
_chemical_formula_structural   Tb3Er5In3Os
_chemical_formula_sum   'Tb6 Er10 In6 Os2'
_cell_volume   658.11252814
_cell_formula_units_Z   2
loop_
 _symmetry_equiv_pos_site_id
 _symmetry_equiv_pos_as_xyz
  1  'x, y, z'
loop_
 _atom_site_type_symbol
 _atom_site_label
 _atom_site_symmetry_multiplicity
 _atom_site_fract_x
 _atom_site_fract_y
 _atom_site_fract_z
 _atom_site_occupancy
  Tb  Tb0  1  0.532881  0.065755  0.793818  1
  Tb  Tb1  1  0.934247  0.467133  0.793821  1
  Tb  Tb2  1  0.532885  0.467126  0.793822  1
  Tb  Tb3  1  0.467119  0.934245  0.293818  1
  Tb  Tb4  1  0.065753  0.532867  0.293821  1
  Tb  Tb5  1  0.467115  0.532874  0.293822  1
  Er  Er6  1  0.822853  0.645690  0.498269  1
  Er  Er7  1  0.354320  0.177151  0.498270  1
  Er  Er8  1  0.822836  0.177143  0.498265  1
  Er  Er9  1  0.177147  0.354310  0.998269  1
  Er  Er10  1  0.645680  0.822849  0.998270  1
  Er  Er11  1  0.177164  0.822857  0.998265  1
  Er  Er12  1  0.666667  0.333319  0.172683  1
  Er  Er13  1  0.333333  0.666681  0.672683  1
  Er  Er14  1  0.000002  0.999996  0.778839  1
  Er  Er15  1  0.999998  0.000004  0.278839  1
  In  In16  1  0.837304  0.674613  0.041063  1
  In  In17  1  0.325378  0.162677  0.041060  1
  In  In18  1  0.837314  0.162680  0.041039  1
  In  In19  1  0.162696  0.325387  0.541063  1
  In  In20  1  0.674622  0.837323  0.541060  1
  In  In21  1  0.162686  0.837320  0.541039  1
  Os  Os22  1  0.666673  0.333337  0.567004  1
  Os  Os23  1  0.333327  0.666663  0.067004  1
