# generated using pymatgen
data_Pa6P13OsRh19
_symmetry_space_group_name_H-M   'P 1'
_cell_length_a   13.39787000
_cell_length_b   13.39786883
_cell_length_c   3.91964500
_cell_angle_alpha   90.00000000
_cell_angle_beta   90.00000000
_cell_angle_gamma   119.99999796
_symmetry_Int_Tables_number   1
_chemical_formula_structural   Pa6P13OsRh19
_chemical_formula_sum   'Pa6 P13 Os1 Rh19'
_cell_volume   609.32480283
_cell_formula_units_Z   1
loop_
 _symmetry_equiv_pos_site_id
 _symmetry_equiv_pos_as_xyz
  1  'x, y, z'
loop_
 _atom_site_type_symbol
 _atom_site_label
 _atom_site_symmetry_multiplicity
 _atom_site_fract_x
 _atom_site_fract_y
 _atom_site_fract_z
 _atom_site_occupancy
  Pa  Pa0  1  0.526579  0.717441  0.248714  1
  Pa  Pa1  1  0.282559  0.809138  0.248714  1
  Pa  Pa2  1  0.190862  0.473421  0.248714  1
  Pa  Pa3  1  0.471456  0.282080  0.751477  1
  Pa  Pa4  1  0.717920  0.189376  0.751477  1
  Pa  Pa5  1  0.810624  0.528544  0.751477  1
  P  P6  1  0.527038  0.139206  0.251238  1
  P  P7  1  0.860794  0.387833  0.251238  1
  P  P8  1  0.612167  0.472962  0.251238  1
  P  P9  1  0.946593  0.718332  0.253769  1
  P  P10  1  0.281668  0.228261  0.253769  1
  P  P11  1  0.771739  0.053407  0.253769  1
  P  P12  1  0.387282  0.525969  0.748960  1
  P  P13  1  0.474031  0.861312  0.748960  1
  P  P14  1  0.138688  0.612718  0.748960  1
  P  P15  1  0.717947  0.771779  0.746341  1
  P  P16  1  0.228221  0.946168  0.746341  1
  P  P17  1  0.053832  0.282053  0.746341  1
  P  P18  1  0.000000  0.000000  0.000078  1
  Os  Os19  1  0.333333  0.666667  0.749280  1
  Rh  Rh20  1  0.917958  0.250079  0.253905  1
  Rh  Rh21  1  0.749921  0.667879  0.253905  1
  Rh  Rh22  1  0.332121  0.082042  0.253905  1
  Rh  Rh23  1  0.434477  0.015206  0.751475  1
  Rh  Rh24  1  0.984794  0.419271  0.751475  1
  Rh  Rh25  1  0.580729  0.565523  0.751475  1
  Rh  Rh26  1  0.666667  0.333333  0.249339  1
  Rh  Rh27  1  0.091794  0.184309  0.252240  1
  Rh  Rh28  1  0.815691  0.907484  0.252240  1
  Rh  Rh29  1  0.092516  0.908206  0.252240  1
  Rh  Rh30  1  0.015859  0.580520  0.248817  1
  Rh  Rh31  1  0.419480  0.435339  0.248817  1
  Rh  Rh32  1  0.564661  0.984141  0.248817  1
  Rh  Rh33  1  0.668790  0.918796  0.746522  1
  Rh  Rh34  1  0.081204  0.749994  0.746522  1
  Rh  Rh35  1  0.250006  0.331210  0.746522  1
  Rh  Rh36  1  0.907782  0.816025  0.746977  1
  Rh  Rh37  1  0.183975  0.091758  0.746977  1
  Rh  Rh38  1  0.908242  0.092218  0.746977  1
