# generated using pymatgen
data_Y16Cd4Pd3Pt
_symmetry_space_group_name_H-M   'P 1'
_cell_length_a   9.74570216
_cell_length_b   9.73979886
_cell_length_c   9.73979900
_cell_angle_alpha   60.00000293
_cell_angle_beta   60.02003840
_cell_angle_gamma   60.02004428
_symmetry_Int_Tables_number   1
_chemical_formula_structural   Y16Cd4Pd3Pt
_chemical_formula_sum   'Y16 Cd4 Pd3 Pt1'
_cell_volume   653.92753024
_cell_formula_units_Z   1
loop_
 _symmetry_equiv_pos_site_id
 _symmetry_equiv_pos_as_xyz
  1  'x, y, z'
loop_
 _atom_site_type_symbol
 _atom_site_label
 _atom_site_symmetry_multiplicity
 _atom_site_fract_x
 _atom_site_fract_y
 _atom_site_fract_z
 _atom_site_occupancy
  Y  Y0  1  0.355215  0.353013  0.353013  1
  Y  Y1  1  0.355215  0.353013  0.938758  1
  Y  Y2  1  0.355215  0.938758  0.353013  1
  Y  Y3  1  0.937469  0.354177  0.354177  1
  Y  Y4  1  0.809301  0.189717  0.189717  1
  Y  Y5  1  0.189819  0.810261  0.810261  1
  Y  Y6  1  0.189819  0.810261  0.189660  1
  Y  Y7  1  0.809301  0.189717  0.811266  1
  Y  Y8  1  0.189819  0.189660  0.810261  1
  Y  Y9  1  0.809301  0.811266  0.189717  1
  Y  Y10  1  0.934559  0.565399  0.565399  1
  Y  Y11  1  0.565425  0.935029  0.935029  1
  Y  Y12  1  0.565425  0.935029  0.564517  1
  Y  Y13  1  0.934559  0.565399  0.934642  1
  Y  Y14  1  0.565425  0.564517  0.935029  1
  Y  Y15  1  0.934559  0.934642  0.565399  1
  Cd  Cd16  1  0.581982  0.582247  0.582247  1
  Cd  Cd17  1  0.581982  0.582247  0.253525  1
  Cd  Cd18  1  0.581982  0.253525  0.582247  1
  Cd  Cd19  1  0.254016  0.581995  0.581995  1
  Pd  Pd20  1  0.144105  0.144632  0.144632  1
  Pd  Pd21  1  0.144105  0.144632  0.566631  1
  Pd  Pd22  1  0.144105  0.566631  0.144632  1
  Pt  Pt23  1  0.567297  0.144234  0.144234  1
