# generated using pymatgen
data_Sm2ErPa(ReN3)4
_symmetry_space_group_name_H-M   'P 1'
_cell_length_a   5.41827300
_cell_length_b   5.71750381
_cell_length_c   7.76041200
_cell_angle_alpha   90.00000000
_cell_angle_beta   90.00000000
_cell_angle_gamma   90.16693430
_symmetry_Int_Tables_number   1
_chemical_formula_structural   Sm2ErPa(ReN3)4
_chemical_formula_sum   'Sm2 Er1 Pa1 Re4 N12'
_cell_volume   240.40875611
_cell_formula_units_Z   1
loop_
 _symmetry_equiv_pos_site_id
 _symmetry_equiv_pos_as_xyz
  1  'x, y, z'
loop_
 _atom_site_type_symbol
 _atom_site_label
 _atom_site_symmetry_multiplicity
 _atom_site_fract_x
 _atom_site_fract_y
 _atom_site_fract_z
 _atom_site_occupancy
  Sm  Sm0  1  0.497320  0.562615  0.750000  1
  Sm  Sm1  1  0.004685  0.064520  0.750000  1
  Er  Er2  1  0.025900  0.935250  0.250000  1
  Pa  Pa3  1  0.450258  0.431881  0.250000  1
  Re  Re4  1  0.517551  0.008951  0.502230  1
  Re  Re5  1  0.980636  0.509829  0.998805  1
  Re  Re6  1  0.980636  0.509829  0.501195  1
  Re  Re7  1  0.517551  0.008951  0.997770  1
  N  N8  1  0.702001  0.294071  0.537749  1
  N  N9  1  0.308221  0.690702  0.053387  1
  N  N10  1  0.201459  0.198158  0.053296  1
  N  N11  1  0.431194  0.983344  0.750000  1
  N  N12  1  0.913602  0.517497  0.250000  1
  N  N13  1  0.308221  0.690702  0.446613  1
  N  N14  1  0.798210  0.793949  0.963998  1
  N  N15  1  0.702001  0.294071  0.962251  1
  N  N16  1  0.798210  0.793949  0.536002  1
  N  N17  1  0.069528  0.487699  0.750000  1
  N  N18  1  0.201459  0.198158  0.446704  1
  N  N19  1  0.591358  0.025880  0.250000  1
