# generated using pymatgen
data_FeSe23
_symmetry_space_group_name_H-M   'P 1'
_cell_length_a   5.48466520
_cell_length_b   10.08254414
_cell_length_c   15.64949600
_cell_angle_alpha   98.94882388
_cell_angle_beta   86.30809311
_cell_angle_gamma   94.29197879
_symmetry_Int_Tables_number   1
_chemical_formula_structural   FeSe23
_chemical_formula_sum   'Fe1 Se23'
_cell_volume   851.25283311
_cell_formula_units_Z   1
loop_
 _symmetry_equiv_pos_site_id
 _symmetry_equiv_pos_as_xyz
  1  'x, y, z'
loop_
 _atom_site_type_symbol
 _atom_site_label
 _atom_site_symmetry_multiplicity
 _atom_site_fract_x
 _atom_site_fract_y
 _atom_site_fract_z
 _atom_site_occupancy
  Fe  Fe0  1  0.444962  0.231023  0.304622  1
  Se  Se1  1  0.578553  0.806062  0.385591  1
  Se  Se2  1  0.939991  0.357334  0.149552  1
  Se  Se3  1  0.657516  0.185186  0.421578  1
  Se  Se4  1  0.318909  0.785152  0.509993  1
  Se  Se5  1  0.182656  0.274733  0.026330  1
  Se  Se6  1  0.779235  0.734321  0.029544  1
  Se  Se7  1  0.145461  0.366409  0.379209  1
  Se  Se8  1  0.742960  0.593015  0.353478  1
  Se  Se9  1  0.735360  0.158813  0.199170  1
  Se  Se10  1  0.321570  0.911771  0.141660  1
  Se  Se11  1  0.767075  0.615472  0.624386  1
  Se  Se12  1  0.244222  0.352785  0.619815  1
  Se  Se13  1  0.226057  0.866833  0.868128  1
  Se  Se14  1  0.750521  0.116090  0.851952  1
  Se  Se15  1  0.057925  0.714482  0.134870  1
  Se  Se16  1  0.583201  0.821260  0.626494  1
  Se  Se17  1  0.412724  0.154182  0.550520  1
  Se  Se18  1  0.994259  0.669079  0.894903  1
  Se  Se19  1  0.992442  0.313265  0.901745  1
  Se  Se20  1  0.411361  0.464757  0.276839  1
  Se  Se21  1  0.161005  0.057314  0.267096  1
  Se  Se22  1  0.527997  0.481358  0.713167  1
  Se  Se23  1  0.024035  0.969305  0.769362  1
