# generated using pymatgen
data_LiU5P13Rh20
_symmetry_space_group_name_H-M   'P 1'
_cell_length_a   13.43706683
_cell_length_b   13.30610820
_cell_length_c   3.88214485
_cell_angle_alpha   90.05371882
_cell_angle_beta   89.92661586
_cell_angle_gamma   119.82198852
_symmetry_Int_Tables_number   1
_chemical_formula_structural   LiU5P13Rh20
_chemical_formula_sum   'Li1 U5 P13 Rh20'
_cell_volume   602.19028181
_cell_formula_units_Z   1
loop_
 _symmetry_equiv_pos_site_id
 _symmetry_equiv_pos_as_xyz
  1  'x, y, z'
loop_
 _atom_site_type_symbol
 _atom_site_label
 _atom_site_symmetry_multiplicity
 _atom_site_fract_x
 _atom_site_fract_y
 _atom_site_fract_z
 _atom_site_occupancy
  Li  Li0  1  0.525789  0.717696  0.249741  1
  U  U1  1  0.284244  0.808318  0.247246  1
  U  U2  1  0.192850  0.475032  0.249432  1
  U  U3  1  0.471956  0.280482  0.751487  1
  U  U4  1  0.719699  0.192149  0.751720  1
  U  U5  1  0.808094  0.526715  0.751935  1
  P  P6  1  0.525973  0.136711  0.249506  1
  P  P7  1  0.861050  0.387536  0.250793  1
  P  P8  1  0.608724  0.476749  0.250730  1
  P  P9  1  0.943836  0.714292  0.252945  1
  P  P10  1  0.287013  0.230660  0.253449  1
  P  P11  1  0.768310  0.052311  0.254578  1
  P  P12  1  0.390286  0.530506  0.749556  1
  P  P13  1  0.476209  0.858333  0.748740  1
  P  P14  1  0.134883  0.610405  0.749398  1
  P  P15  1  0.713622  0.771739  0.746002  1
  P  P16  1  0.230471  0.942590  0.746896  1
  P  P17  1  0.057469  0.287264  0.747667  1
  P  P18  1  0.001160  0.000913  0.006232  1
  Rh  Rh19  1  0.328660  0.666258  0.749772  1
  Rh  Rh20  1  0.921230  0.249781  0.253760  1
  Rh  Rh21  1  0.750193  0.672099  0.252694  1
  Rh  Rh22  1  0.329188  0.075281  0.253073  1
  Rh  Rh23  1  0.438966  0.018680  0.750190  1
  Rh  Rh24  1  0.978879  0.416535  0.751071  1
  Rh  Rh25  1  0.583506  0.566809  0.750560  1
  Rh  Rh26  1  0.665324  0.334900  0.252418  1
  Rh  Rh27  1  0.096052  0.188751  0.249739  1
  Rh  Rh28  1  0.814347  0.905824  0.242784  1
  Rh  Rh29  1  0.091259  0.905151  0.251895  1
  Rh  Rh30  1  0.020370  0.581956  0.249336  1
  Rh  Rh31  1  0.416529  0.440647  0.248044  1
  Rh  Rh32  1  0.561698  0.977974  0.248177  1
  Rh  Rh33  1  0.670450  0.919692  0.744955  1
  Rh  Rh34  1  0.077278  0.748495  0.748146  1
  Rh  Rh35  1  0.252932  0.331176  0.745484  1
  Rh  Rh36  1  0.903920  0.812286  0.749554  1
  Rh  Rh37  1  0.187447  0.092059  0.750486  1
  Rh  Rh38  1  0.910133  0.095248  0.749810  1
