# generated using pymatgen
data_Al2TcH7
_symmetry_space_group_name_H-M   'P 1'
_cell_length_a   4.42440523
_cell_length_b   4.39537625
_cell_length_c   5.65937182
_cell_angle_alpha   111.91572030
_cell_angle_beta   111.77732097
_cell_angle_gamma   60.30962952
_symmetry_Int_Tables_number   1
_chemical_formula_structural   Al2TcH7
_chemical_formula_sum   'Al2 Tc1 H7'
_cell_volume   86.30135326
_cell_formula_units_Z   1
loop_
 _symmetry_equiv_pos_site_id
 _symmetry_equiv_pos_as_xyz
  1  'x, y, z'
loop_
 _atom_site_type_symbol
 _atom_site_label
 _atom_site_symmetry_multiplicity
 _atom_site_fract_x
 _atom_site_fract_y
 _atom_site_fract_z
 _atom_site_occupancy
  Al  Al0  1  0.211048  0.731318  0.047337  1
  Al  Al1  1  0.442820  0.955024  0.715033  1
  Tc  Tc2  1  0.826739  0.342959  0.881226  1
  H  H3  1  0.459017  0.314868  0.633869  1
  H  H4  1  0.325892  0.842980  0.381291  1
  H  H5  1  0.644246  0.738611  0.103171  1
  H  H6  1  0.196449  0.369480  0.126963  1
  H  H7  1  0.827726  0.175354  0.114111  1
  H  H8  1  0.010906  0.946327  0.661094  1
  H  H9  1  0.826717  0.511008  0.648828  1
