# generated using pymatgen
data_CeThMn6P7Rh6
_symmetry_space_group_name_H-M   'P 1'
_cell_length_a   9.47557400
_cell_length_b   9.47557467
_cell_length_c   3.85194800
_cell_angle_alpha   90.00000000
_cell_angle_beta   90.00000000
_cell_angle_gamma   119.99999254
_symmetry_Int_Tables_number   1
_chemical_formula_structural   CeThMn6P7Rh6
_chemical_formula_sum   'Ce1 Th1 Mn6 P7 Rh6'
_cell_volume   299.51747517
_cell_formula_units_Z   1
loop_
 _symmetry_equiv_pos_site_id
 _symmetry_equiv_pos_as_xyz
  1  'x, y, z'
loop_
 _atom_site_type_symbol
 _atom_site_label
 _atom_site_symmetry_multiplicity
 _atom_site_fract_x
 _atom_site_fract_y
 _atom_site_fract_z
 _atom_site_occupancy
  Ce  Ce0  1  0.333333  0.666667  0.000000  1
  Th  Th1  1  0.000000  0.000000  0.500000  1
  Mn  Mn2  1  0.551060  0.063050  0.000000  1
  Mn  Mn3  1  0.936950  0.488009  0.000000  1
  Mn  Mn4  1  0.511991  0.448940  0.000000  1
  Mn  Mn5  1  0.787555  0.234776  0.500000  1
  Mn  Mn6  1  0.765224  0.552779  0.500000  1
  Mn  Mn7  1  0.447221  0.212445  0.500000  1
  P  P8  1  0.772777  0.039822  0.000000  1
  P  P9  1  0.960178  0.732955  0.000000  1
  P  P10  1  0.267045  0.227223  0.000000  1
  P  P11  1  0.387751  0.940713  0.500000  1
  P  P12  1  0.059287  0.447038  0.500000  1
  P  P13  1  0.552962  0.612249  0.500000  1
  P  P14  1  0.666667  0.333333  0.000000  1
  Rh  Rh15  1  0.033425  0.269936  0.000000  1
  Rh  Rh16  1  0.730064  0.763489  0.000000  1
  Rh  Rh17  1  0.236511  0.966575  0.000000  1
  Rh  Rh18  1  0.613389  0.895029  0.500000  1
  Rh  Rh19  1  0.104971  0.718359  0.500000  1
  Rh  Rh20  1  0.281641  0.386611  0.500000  1
