# generated using pymatgen
data_Ba7U2HgSe12
_symmetry_space_group_name_H-M   'P 1'
_cell_length_a   9.07689042
_cell_length_b   9.07689018
_cell_length_c   9.07689064
_cell_angle_alpha   87.82594843
_cell_angle_beta   87.82594450
_cell_angle_gamma   87.82596361
_symmetry_Int_Tables_number   1
_chemical_formula_structural   Ba7U2HgSe12
_chemical_formula_sum   'Ba7 U2 Hg1 Se12'
_cell_volume   746.26930877
_cell_formula_units_Z   1
loop_
 _symmetry_equiv_pos_site_id
 _symmetry_equiv_pos_as_xyz
  1  'x, y, z'
loop_
 _atom_site_type_symbol
 _atom_site_label
 _atom_site_symmetry_multiplicity
 _atom_site_fract_x
 _atom_site_fract_y
 _atom_site_fract_z
 _atom_site_occupancy
  Ba  Ba0  1  0.891240  0.608760  0.250000  1
  Ba  Ba1  1  0.250000  0.891240  0.608760  1
  Ba  Ba2  1  0.608760  0.250000  0.891240  1
  Ba  Ba3  1  0.750000  0.126658  0.373342  1
  Ba  Ba4  1  0.373342  0.750000  0.126658  1
  Ba  Ba5  1  0.126658  0.373342  0.750000  1
  Ba  Ba6  1  0.750000  0.750000  0.750000  1
  U  U7  1  0.502057  0.502057  0.502057  1
  U  U8  1  0.997943  0.997943  0.997943  1
  Hg  Hg9  1  0.250000  0.250000  0.250000  1
  Se  Se10  1  0.213833  0.575080  0.439756  1
  Se  Se11  1  0.439756  0.213833  0.575080  1
  Se  Se12  1  0.575080  0.439756  0.213833  1
  Se  Se13  1  0.921128  0.060434  0.704868  1
  Se  Se14  1  0.704868  0.921128  0.060434  1
  Se  Se15  1  0.060434  0.704868  0.921128  1
  Se  Se16  1  0.795132  0.439566  0.578872  1
  Se  Se17  1  0.578872  0.795132  0.439566  1
  Se  Se18  1  0.439566  0.578872  0.795132  1
  Se  Se19  1  0.060244  0.924920  0.286167  1
  Se  Se20  1  0.286167  0.060244  0.924920  1
  Se  Se21  1  0.924920  0.286167  0.060244  1
