# generated using pymatgen
data_ScVRe4O17F
_symmetry_space_group_name_H-M   'P 1'
_cell_length_a   8.28364576
_cell_length_b   8.28364437
_cell_length_c   9.18437954
_cell_angle_alpha   89.36511707
_cell_angle_beta   90.63488176
_cell_angle_gamma   138.38301661
_symmetry_Int_Tables_number   1
_chemical_formula_structural   ScVRe4O17F
_chemical_formula_sum   'Sc1 V1 Re4 O17 F1'
_cell_volume   418.53042943
_cell_formula_units_Z   1
loop_
 _symmetry_equiv_pos_site_id
 _symmetry_equiv_pos_as_xyz
  1  'x, y, z'
loop_
 _atom_site_type_symbol
 _atom_site_label
 _atom_site_symmetry_multiplicity
 _atom_site_fract_x
 _atom_site_fract_y
 _atom_site_fract_z
 _atom_site_occupancy
  Sc  Sc0  1  0.877123  0.122877  0.769455  1
  V  V1  1  0.120075  0.879925  0.276953  1
  Re  Re2  1  0.520329  0.479671  0.686782  1
  Re  Re3  1  0.485009  0.514991  0.187909  1
  Re  Re4  1  0.224500  0.775500  0.875442  1
  Re  Re5  1  0.768861  0.231139  0.369195  1
  O  O6  1  0.072488  0.927512  0.431554  1
  O  O7  1  0.575355  0.424645  0.851702  1
  O  O8  1  0.428767  0.571233  0.349354  1
  O  O9  1  0.595534  0.404466  0.548631  1
  O  O10  1  0.410429  0.589571  0.046144  1
  O  O11  1  0.960861  0.539038  0.325165  1
  O  O12  1  0.037506  0.469652  0.832424  1
  O  O13  1  0.460962  0.039139  0.325165  1
  O  O14  1  0.530348  0.962494  0.832424  1
  O  O15  1  0.801270  0.198730  0.553261  1
  O  O16  1  0.194033  0.805967  0.058685  1
  O  O17  1  0.860433  0.139567  0.265159  1
  O  O18  1  0.132803  0.867197  0.767411  1
  O  O19  1  0.798691  0.697431  0.179052  1
  O  O20  1  0.209233  0.302630  0.674437  1
  O  O21  1  0.302569  0.201309  0.179052  1
  O  O22  1  0.697370  0.790767  0.674437  1
  F  F23  1  0.935455  0.064545  0.946149  1
