# generated using pymatgen
data_Pr2Er8In8Pd3Pt
_symmetry_space_group_name_H-M   'P 1'
_cell_length_a   3.61036800
_cell_length_b   8.21294143
_cell_length_c   18.35808599
_cell_angle_alpha   90.05865964
_cell_angle_beta   90.00000000
_cell_angle_gamma   90.00000000
_symmetry_Int_Tables_number   1
_chemical_formula_structural   Pr2Er8In8Pd3Pt
_chemical_formula_sum   'Pr2 Er8 In8 Pd3 Pt1'
_cell_volume   544.34892453
_cell_formula_units_Z   1
loop_
 _symmetry_equiv_pos_site_id
 _symmetry_equiv_pos_as_xyz
  1  'x, y, z'
loop_
 _atom_site_type_symbol
 _atom_site_label
 _atom_site_symmetry_multiplicity
 _atom_site_fract_x
 _atom_site_fract_y
 _atom_site_fract_z
 _atom_site_occupancy
  Pr  Pr0  1  0.000000  0.999846  0.000149  1
  Pr  Pr1  1  0.000000  0.500339  0.500241  1
  Er  Er2  1  0.000000  0.121995  0.414951  1
  Er  Er3  1  0.000000  0.876520  0.584545  1
  Er  Er4  1  0.000000  0.377638  0.915097  1
  Er  Er5  1  0.000000  0.623007  0.085991  1
  Er  Er6  1  0.000000  0.246698  0.217837  1
  Er  Er7  1  0.000000  0.758718  0.782413  1
  Er  Er8  1  0.000000  0.258876  0.717529  1
  Er  Er9  1  0.000000  0.736479  0.280972  1
  In  In10  1  0.500000  0.417339  0.347331  1
  In  In11  1  0.500000  0.581138  0.654136  1
  In  In12  1  0.500000  0.081286  0.845763  1
  In  In13  1  0.500000  0.922818  0.154392  1
  In  In14  1  0.500000  0.303859  0.066867  1
  In  In15  1  0.500000  0.695777  0.932410  1
  In  In16  1  0.500000  0.195541  0.567549  1
  In  In17  1  0.500000  0.803430  0.431722  1
  Pd  Pd18  1  0.500000  0.026382  0.304143  1
  Pd  Pd19  1  0.500000  0.972860  0.695776  1
  Pd  Pd20  1  0.500000  0.472933  0.804009  1
  Pt  Pt21  1  0.500000  0.526521  0.196176  1
