# generated using pymatgen
data_ErTh5PtCl15
_symmetry_space_group_name_H-M   'P 1'
_cell_length_a   9.83319504
_cell_length_b   9.83319543
_cell_length_c   9.83319540
_cell_angle_alpha   110.46739938
_cell_angle_beta   108.97544183
_cell_angle_gamma   108.97543390
_symmetry_Int_Tables_number   1
_chemical_formula_structural   ErTh5PtCl15
_chemical_formula_sum   'Er1 Th5 Pt1 Cl15'
_cell_volume   731.75120746
_cell_formula_units_Z   1
loop_
 _symmetry_equiv_pos_site_id
 _symmetry_equiv_pos_as_xyz
  1  'x, y, z'
loop_
 _atom_site_type_symbol
 _atom_site_label
 _atom_site_symmetry_multiplicity
 _atom_site_fract_x
 _atom_site_fract_y
 _atom_site_fract_z
 _atom_site_occupancy
  Er  Er0  1  0.000000  0.246810  0.246810  1
  Th  Th1  1  0.000000  0.742670  0.742670  1
  Th  Th2  1  0.248431  0.004941  0.253372  1
  Th  Th3  1  0.751569  0.004941  0.756511  1
  Th  Th4  1  0.248431  0.253372  0.004941  1
  Th  Th5  1  0.751569  0.756511  0.004941  1
  Pt  Pt6  1  0.000000  0.995444  0.995444  1
  Cl  Cl7  1  0.488506  0.245409  0.245409  1
  Cl  Cl8  1  0.511494  0.756903  0.756903  1
  Cl  Cl9  1  0.000000  0.245409  0.756903  1
  Cl  Cl10  1  0.000000  0.756903  0.245409  1
  Cl  Cl11  1  0.236685  0.486106  0.249421  1
  Cl  Cl12  1  0.763315  0.012736  0.249421  1
  Cl  Cl13  1  0.755611  0.509273  0.753663  1
  Cl  Cl14  1  0.244389  0.998051  0.753663  1
  Cl  Cl15  1  0.236685  0.249421  0.486106  1
  Cl  Cl16  1  0.755611  0.753663  0.509273  1
  Cl  Cl17  1  0.763315  0.249421  0.012736  1
  Cl  Cl18  1  0.244389  0.753663  0.998051  1
  Cl  Cl19  1  0.000000  0.491379  0.491379  1
  Cl  Cl20  1  0.500000  0.993486  0.493486  1
  Cl  Cl21  1  0.500000  0.493486  0.993486  1
