# generated using pymatgen
data_Y7Ho9MgIn3Pd4
_symmetry_space_group_name_H-M   'P 1'
_cell_length_a   9.73872448
_cell_length_b   9.71685393
_cell_length_c   9.72518400
_cell_angle_alpha   59.97163734
_cell_angle_beta   60.04598259
_cell_angle_gamma   60.10956221
_symmetry_Int_Tables_number   1
_chemical_formula_structural   Y7Ho9MgIn3Pd4
_chemical_formula_sum   'Y7 Ho9 Mg1 In3 Pd4'
_cell_volume   651.36804069
_cell_formula_units_Z   1
loop_
 _symmetry_equiv_pos_site_id
 _symmetry_equiv_pos_as_xyz
  1  'x, y, z'
loop_
 _atom_site_type_symbol
 _atom_site_label
 _atom_site_symmetry_multiplicity
 _atom_site_fract_x
 _atom_site_fract_y
 _atom_site_fract_z
 _atom_site_occupancy
  Y  Y0  1  0.809154  0.809311  0.190768  1
  Y  Y1  1  0.935585  0.564371  0.564827  1
  Y  Y2  1  0.563936  0.936072  0.936064  1
  Y  Y3  1  0.563936  0.936072  0.563926  1
  Y  Y4  1  0.935585  0.564371  0.935216  1
  Y  Y5  1  0.564339  0.563807  0.935927  1
  Y  Y6  1  0.935589  0.935770  0.564320  1
  Ho  Ho7  1  0.351763  0.351051  0.351225  1
  Ho  Ho8  1  0.351763  0.351051  0.945963  1
  Ho  Ho9  1  0.351728  0.945287  0.351493  1
  Ho  Ho10  1  0.942092  0.352155  0.352877  1
  Ho  Ho11  1  0.809331  0.190937  0.190297  1
  Ho  Ho12  1  0.188094  0.811884  0.811286  1
  Ho  Ho13  1  0.188094  0.811884  0.188738  1
  Ho  Ho14  1  0.809331  0.190937  0.809434  1
  Ho  Ho15  1  0.187610  0.188643  0.811874  1
  Mg  Mg16  1  0.266011  0.577885  0.578051  1
  In  In17  1  0.582278  0.583535  0.583513  1
  In  In18  1  0.582278  0.583535  0.250672  1
  In  In19  1  0.582169  0.250936  0.583447  1
  Pd  Pd20  1  0.143360  0.143958  0.144317  1
  Pd  Pd21  1  0.143360  0.143958  0.568365  1
  Pd  Pd22  1  0.144063  0.567945  0.143996  1
  Pd  Pd23  1  0.568546  0.144642  0.143406  1
