# generated using pymatgen
data_Tm6TaO11F
_symmetry_space_group_name_H-M   'P 1'
_cell_length_a   6.39185556
_cell_length_b   6.41994911
_cell_length_c   6.38495354
_cell_angle_alpha   99.03583571
_cell_angle_beta   98.74223495
_cell_angle_gamma   98.94921187
_symmetry_Int_Tables_number   1
_chemical_formula_structural   Tm6TaO11F
_chemical_formula_sum   'Tm6 Ta1 O11 F1'
_cell_volume   251.39337976
_cell_formula_units_Z   1
loop_
 _symmetry_equiv_pos_site_id
 _symmetry_equiv_pos_as_xyz
  1  'x, y, z'
loop_
 _atom_site_type_symbol
 _atom_site_label
 _atom_site_symmetry_multiplicity
 _atom_site_fract_x
 _atom_site_fract_y
 _atom_site_fract_z
 _atom_site_occupancy
  Tm  Tm0  1  0.701393  0.871651  0.400104  1
  Tm  Tm1  1  0.389729  0.690829  0.843891  1
  Tm  Tm2  1  0.856662  0.392570  0.689334  1
  Tm  Tm3  1  0.312503  0.145130  0.609810  1
  Tm  Tm4  1  0.622183  0.289167  0.135310  1
  Tm  Tm5  1  0.125615  0.610795  0.314029  1
  Ta  Ta6  1  0.005278  0.998175  0.001575  1
  O  O7  1  0.174748  0.431528  0.583479  1
  O  O8  1  0.588208  0.181150  0.433939  1
  O  O9  1  0.568405  0.418378  0.831256  1
  O  O10  1  0.812661  0.568935  0.406223  1
  O  O11  1  0.411665  0.819204  0.559754  1
  O  O12  1  0.921007  0.043851  0.697144  1
  O  O13  1  0.963111  0.304262  0.080693  1
  O  O14  1  0.306828  0.078116  0.956729  1
  O  O15  1  0.074027  0.957311  0.308091  1
  O  O16  1  0.049068  0.694517  0.924926  1
  O  O17  1  0.692322  0.923706  0.047105  1
  F  F18  1  0.424587  0.580726  0.176606  1
