# generated using pymatgen
data_NdEu2In3Sn2Pd
_symmetry_space_group_name_H-M   'P 1'
_cell_length_a   7.76111800
_cell_length_b   7.77646401
_cell_length_c   4.64255900
_cell_angle_alpha   90.00000000
_cell_angle_beta   90.00000000
_cell_angle_gamma   119.93475065
_symmetry_Int_Tables_number   1
_chemical_formula_structural   NdEu2In3Sn2Pd
_chemical_formula_sum   'Nd1 Eu2 In3 Sn2 Pd1'
_cell_volume   242.81733479
_cell_formula_units_Z   1
loop_
 _symmetry_equiv_pos_site_id
 _symmetry_equiv_pos_as_xyz
  1  'x, y, z'
loop_
 _atom_site_type_symbol
 _atom_site_label
 _atom_site_symmetry_multiplicity
 _atom_site_fract_x
 _atom_site_fract_y
 _atom_site_fract_z
 _atom_site_occupancy
  Nd  Nd0  1  0.401804  0.000000  0.500000  1
  Eu  Eu1  1  0.999521  0.403668  0.500000  1
  Eu  Eu2  1  0.595853  0.596332  0.500000  1
  In  In3  1  0.766356  0.000000  0.000000  1
  In  In4  1  0.000402  0.767942  0.000000  1
  In  In5  1  0.232459  0.232058  0.000000  1
  Sn  Sn6  1  0.334033  0.671202  0.000000  1
  Sn  Sn7  1  0.662831  0.328798  0.000000  1
  Pd  Pd8  1  0.006741  0.000000  0.500000  1
