# generated using pymatgen
data_La6Tb3Dy(Sn3Cl)2
_symmetry_space_group_name_H-M   'P 1'
_cell_length_a   9.50184800
_cell_length_b   9.50184908
_cell_length_c   6.75480700
_cell_angle_alpha   90.00000000
_cell_angle_beta   90.00000000
_cell_angle_gamma   119.99999623
_symmetry_Int_Tables_number   1
_chemical_formula_structural   La6Tb3Dy(Sn3Cl)2
_chemical_formula_sum   'La6 Tb3 Dy1 Sn6 Cl2'
_cell_volume   528.15305952
_cell_formula_units_Z   1
loop_
 _symmetry_equiv_pos_site_id
 _symmetry_equiv_pos_as_xyz
  1  'x, y, z'
loop_
 _atom_site_type_symbol
 _atom_site_label
 _atom_site_symmetry_multiplicity
 _atom_site_fract_x
 _atom_site_fract_y
 _atom_site_fract_z
 _atom_site_occupancy
  La  La0  1  0.737984  0.000013  0.750043  1
  La  La1  1  0.737984  0.737971  0.249957  1
  La  La2  1  0.999987  0.262016  0.249957  1
  La  La3  1  0.999987  0.737971  0.750043  1
  La  La4  1  0.262029  0.262016  0.750043  1
  La  La5  1  0.262029  0.000013  0.249957  1
  Tb  Tb6  1  0.333333  0.666667  0.500000  1
  Tb  Tb7  1  0.666667  0.333333  0.500000  1
  Tb  Tb8  1  0.333333  0.666667  0.000000  1
  Dy  Dy9  1  0.666667  0.333333  0.000000  1
  Sn  Sn10  1  0.608197  0.608077  0.750073  1
  Sn  Sn11  1  0.999879  0.608077  0.249927  1
  Sn  Sn12  1  0.608197  0.000121  0.249927  1
  Sn  Sn13  1  0.391923  0.000121  0.750073  1
  Sn  Sn14  1  0.999879  0.391803  0.750073  1
  Sn  Sn15  1  0.391923  0.391803  0.249927  1
  Cl  Cl16  1  0.000000  0.000000  0.500000  1
  Cl  Cl17  1  0.000000  0.000000  0.000000  1
