# generated using pymatgen
data_Nd5Sb3Se
_symmetry_space_group_name_H-M   'P 1'
_cell_length_a   9.42034000
_cell_length_b   9.42034058
_cell_length_c   6.73612000
_cell_angle_alpha   90.00000000
_cell_angle_beta   90.00000000
_cell_angle_gamma   119.99999094
_symmetry_Int_Tables_number   1
_chemical_formula_structural   Nd5Sb3Se
_chemical_formula_sum   'Nd10 Sb6 Se2'
_cell_volume   517.69464029
_cell_formula_units_Z   2
loop_
 _symmetry_equiv_pos_site_id
 _symmetry_equiv_pos_as_xyz
  1  'x, y, z'
loop_
 _atom_site_type_symbol
 _atom_site_label
 _atom_site_symmetry_multiplicity
 _atom_site_fract_x
 _atom_site_fract_y
 _atom_site_fract_z
 _atom_site_occupancy
  Nd  Nd0  1  0.742147  0.742147  0.250000  1
  Nd  Nd1  1  0.257853  0.000000  0.250000  1
  Nd  Nd2  1  0.000000  0.257853  0.250000  1
  Nd  Nd3  1  0.257853  0.257853  0.750000  1
  Nd  Nd4  1  0.742147  0.000000  0.750000  1
  Nd  Nd5  1  0.000000  0.742147  0.750000  1
  Nd  Nd6  1  0.666667  0.333333  0.500000  1
  Nd  Nd7  1  0.333333  0.666667  0.500000  1
  Nd  Nd8  1  0.333333  0.666667  0.000000  1
  Nd  Nd9  1  0.666667  0.333333  0.000000  1
  Sb  Sb10  1  0.393139  0.393139  0.250000  1
  Sb  Sb11  1  0.606861  0.000000  0.250000  1
  Sb  Sb12  1  0.000000  0.606861  0.250000  1
  Sb  Sb13  1  0.606861  0.606861  0.750000  1
  Sb  Sb14  1  0.393139  0.000000  0.750000  1
  Sb  Sb15  1  0.000000  0.393139  0.750000  1
  Se  Se16  1  0.000000  0.000000  0.500000  1
  Se  Se17  1  0.000000  0.000000  0.000000  1
