# generated using pymatgen
data_Dy2Y2B16MoW3
_symmetry_space_group_name_H-M   'P 1'
_cell_length_a   3.62803100
_cell_length_b   6.04315301
_cell_length_c   11.67666702
_cell_angle_alpha   90.00010078
_cell_angle_beta   90.00000000
_cell_angle_gamma   90.00000000
_symmetry_Int_Tables_number   1
_chemical_formula_structural   Dy2Y2B16MoW3
_chemical_formula_sum   'Dy2 Y2 B16 Mo1 W3'
_cell_volume   256.00796397
_cell_formula_units_Z   1
loop_
 _symmetry_equiv_pos_site_id
 _symmetry_equiv_pos_as_xyz
  1  'x, y, z'
loop_
 _atom_site_type_symbol
 _atom_site_label
 _atom_site_symmetry_multiplicity
 _atom_site_fract_x
 _atom_site_fract_y
 _atom_site_fract_z
 _atom_site_occupancy
  Dy  Dy0  1  0.000000  0.627002  0.350316  1
  Dy  Dy1  1  0.000000  0.372961  0.649908  1
  Y  Y2  1  0.000000  0.127211  0.149632  1
  Y  Y3  1  0.000000  0.873109  0.850238  1
  B  B4  1  0.500000  0.476417  0.193452  1
  B  B5  1  0.500000  0.522982  0.806642  1
  B  B6  1  0.500000  0.976540  0.306693  1
  B  B7  1  0.500000  0.023678  0.693412  1
  B  B8  1  0.500000  0.287352  0.313721  1
  B  B9  1  0.500000  0.712535  0.686419  1
  B  B10  1  0.500000  0.787246  0.186425  1
  B  B11  1  0.500000  0.213314  0.813916  1
  B  B12  1  0.500000  0.366498  0.468078  1
  B  B13  1  0.500000  0.633452  0.531937  1
  B  B14  1  0.500000  0.866853  0.031771  1
  B  B15  1  0.500000  0.133678  0.967908  1
  B  B16  1  0.500000  0.385934  0.047257  1
  B  B17  1  0.500000  0.613572  0.952393  1
  B  B18  1  0.500000  0.886132  0.452562  1
  B  B19  1  0.500000  0.113925  0.547445  1
  Mo  Mo20  1  0.000000  0.369531  0.915969  1
  W  W21  1  0.000000  0.130882  0.415511  1
  W  W22  1  0.000000  0.869037  0.584400  1
  W  W23  1  0.000000  0.630157  0.083996  1
