# generated using pymatgen
data_AcTeCl
_symmetry_space_group_name_H-M   'P 1'
_cell_length_a   4.68296900
_cell_length_b   8.22547600
_cell_length_c   9.69630100
_cell_angle_alpha   90.00000000
_cell_angle_beta   90.00000000
_cell_angle_gamma   90.00000000
_symmetry_Int_Tables_number   1
_chemical_formula_structural   AcTeCl
_chemical_formula_sum   'Ac4 Te4 Cl4'
_cell_volume   373.49811226
_cell_formula_units_Z   4
loop_
 _symmetry_equiv_pos_site_id
 _symmetry_equiv_pos_as_xyz
  1  'x, y, z'
loop_
 _atom_site_type_symbol
 _atom_site_label
 _atom_site_symmetry_multiplicity
 _atom_site_fract_x
 _atom_site_fract_y
 _atom_site_fract_z
 _atom_site_occupancy
  Ac  Ac0  1  0.250000  0.238327  0.631780  1
  Ac  Ac1  1  0.250000  0.738327  0.868220  1
  Ac  Ac2  1  0.750000  0.761673  0.368220  1
  Ac  Ac3  1  0.750000  0.261673  0.131780  1
  Te  Te4  1  0.250000  0.461496  0.331402  1
  Te  Te5  1  0.250000  0.961496  0.168598  1
  Te  Te6  1  0.750000  0.538504  0.668598  1
  Te  Te7  1  0.750000  0.038504  0.831402  1
  Cl  Cl8  1  0.250000  0.865364  0.559750  1
  Cl  Cl9  1  0.250000  0.365364  0.940250  1
  Cl  Cl10  1  0.750000  0.134636  0.440250  1
  Cl  Cl11  1  0.750000  0.634636  0.059750  1
