# generated using pymatgen
data_YbTmLu6(B6Ru)4
_symmetry_space_group_name_H-M   'P 1'
_cell_length_a   3.59969800
_cell_length_b   9.03988013
_cell_length_c   11.41636006
_cell_angle_alpha   89.94474662
_cell_angle_beta   90.00000000
_cell_angle_gamma   90.00000000
_symmetry_Int_Tables_number   1
_chemical_formula_structural   YbTmLu6(B6Ru)4
_chemical_formula_sum   'Yb1 Tm1 Lu6 B24 Ru4'
_cell_volume   371.49775542
_cell_formula_units_Z   1
loop_
 _symmetry_equiv_pos_site_id
 _symmetry_equiv_pos_as_xyz
  1  'x, y, z'
loop_
 _atom_site_type_symbol
 _atom_site_label
 _atom_site_symmetry_multiplicity
 _atom_site_fract_x
 _atom_site_fract_y
 _atom_site_fract_z
 _atom_site_occupancy
  Yb  Yb0  1  0.000000  0.322923  0.413622  1
  Tm  Tm1  1  0.000000  0.676678  0.585089  1
  Lu  Lu2  1  0.000000  0.821649  0.086254  1
  Lu  Lu3  1  0.000000  0.178960  0.914706  1
  Lu  Lu4  1  0.000000  0.944087  0.371492  1
  Lu  Lu5  1  0.000000  0.057526  0.627865  1
  Lu  Lu6  1  0.000000  0.443270  0.128763  1
  Lu  Lu7  1  0.000000  0.555987  0.872643  1
  B  B8  1  0.500000  0.554261  0.432928  1
  B  B9  1  0.500000  0.446053  0.567312  1
  B  B10  1  0.500000  0.052964  0.065743  1
  B  B11  1  0.500000  0.946163  0.933382  1
  B  B12  1  0.500000  0.749508  0.419629  1
  B  B13  1  0.500000  0.250840  0.581026  1
  B  B14  1  0.500000  0.248563  0.079683  1
  B  B15  1  0.500000  0.750828  0.920320  1
  B  B16  1  0.500000  0.792533  0.265253  1
  B  B17  1  0.500000  0.208443  0.735142  1
  B  B18  1  0.500000  0.290747  0.233591  1
  B  B19  1  0.500000  0.708327  0.765963  1
  B  B20  1  0.500000  0.631653  0.184665  1
  B  B21  1  0.500000  0.368920  0.816230  1
  B  B22  1  0.500000  0.130332  0.314532  1
  B  B23  1  0.500000  0.869111  0.684500  1
  B  B24  1  0.500000  0.981748  0.211821  1
  B  B25  1  0.500000  0.018088  0.787338  1
  B  B26  1  0.500000  0.482994  0.287042  1
  B  B27  1  0.500000  0.517712  0.713194  1
  B  B28  1  0.500000  0.606241  0.029417  1
  B  B29  1  0.500000  0.394035  0.971078  1
  B  B30  1  0.500000  0.102073  0.471791  1
  B  B31  1  0.500000  0.896213  0.528636  1
  Ru  Ru32  1  0.000000  0.640097  0.319857  1
  Ru  Ru33  1  0.000000  0.361682  0.680947  1
  Ru  Ru34  1  0.000000  0.136584  0.177581  1
  Ru  Ru35  1  0.000000  0.862204  0.820963  1
