# generated using pymatgen
data_NaNdB2Pt7Au
_symmetry_space_group_name_H-M   'P 1'
_cell_length_a   5.52660300
_cell_length_b   5.52660087
_cell_length_c   7.56809000
_cell_angle_alpha   90.00000000
_cell_angle_beta   90.00000000
_cell_angle_gamma   119.99999480
_symmetry_Int_Tables_number   1
_chemical_formula_structural   NaNdB2Pt7Au
_chemical_formula_sum   'Na1 Nd1 B2 Pt7 Au1'
_cell_volume   200.18582028
_cell_formula_units_Z   1
loop_
 _symmetry_equiv_pos_site_id
 _symmetry_equiv_pos_as_xyz
  1  'x, y, z'
loop_
 _atom_site_type_symbol
 _atom_site_label
 _atom_site_symmetry_multiplicity
 _atom_site_fract_x
 _atom_site_fract_y
 _atom_site_fract_z
 _atom_site_occupancy
  Na  Na0  1  0.000000  0.000000  0.000000  1
  Nd  Nd1  1  0.000000  0.000000  0.500000  1
  B  B2  1  0.333333  0.666667  0.000000  1
  B  B3  1  0.666667  0.333333  0.000000  1
  Pt  Pt4  1  0.666667  0.333333  0.500000  1
  Pt  Pt5  1  0.500456  0.000912  0.195071  1
  Pt  Pt6  1  0.500456  0.000912  0.804929  1
  Pt  Pt7  1  0.999088  0.499544  0.195071  1
  Pt  Pt8  1  0.999088  0.499544  0.804929  1
  Pt  Pt9  1  0.500456  0.499544  0.195071  1
  Pt  Pt10  1  0.500456  0.499544  0.804929  1
  Au  Au11  1  0.333333  0.666667  0.500000  1
