# generated using pymatgen
data_MgZr3Si6Ir7
_symmetry_space_group_name_H-M   'P 1'
_cell_length_a   6.98612428
_cell_length_b   6.98612353
_cell_length_c   6.98612369
_cell_angle_alpha   109.20793737
_cell_angle_beta   109.20794203
_cell_angle_gamma   109.20794760
_symmetry_Int_Tables_number   1
_chemical_formula_structural   MgZr3Si6Ir7
_chemical_formula_sum   'Mg1 Zr3 Si6 Ir7'
_cell_volume   265.00201741
_cell_formula_units_Z   1
loop_
 _symmetry_equiv_pos_site_id
 _symmetry_equiv_pos_as_xyz
  1  'x, y, z'
loop_
 _atom_site_type_symbol
 _atom_site_label
 _atom_site_symmetry_multiplicity
 _atom_site_fract_x
 _atom_site_fract_y
 _atom_site_fract_z
 _atom_site_occupancy
  Mg  Mg0  1  0.500000  0.500000  0.500000  1
  Zr  Zr1  1  0.000000  0.000000  0.500000  1
  Zr  Zr2  1  0.000000  0.500000  0.000000  1
  Zr  Zr3  1  0.500000  0.000000  0.000000  1
  Si  Si4  1  0.006466  0.321228  0.321228  1
  Si  Si5  1  0.993534  0.678772  0.678772  1
  Si  Si6  1  0.321228  0.006466  0.321228  1
  Si  Si7  1  0.678772  0.993534  0.678772  1
  Si  Si8  1  0.321228  0.321228  0.006466  1
  Si  Si9  1  0.678772  0.678772  0.993534  1
  Ir  Ir10  1  0.500000  0.750113  0.249887  1
  Ir  Ir11  1  0.500000  0.249887  0.750113  1
  Ir  Ir12  1  0.249887  0.500000  0.750113  1
  Ir  Ir13  1  0.750113  0.500000  0.249887  1
  Ir  Ir14  1  0.750113  0.249887  0.500000  1
  Ir  Ir15  1  0.249887  0.750113  0.500000  1
  Ir  Ir16  1  0.000000  0.000000  0.000000  1
