# generated using pymatgen
data_CeDy15(AlCo)4
_symmetry_space_group_name_H-M   'P 1'
_cell_length_a   9.35263481
_cell_length_b   9.42153216
_cell_length_c   9.35263500
_cell_angle_alpha   60.24160641
_cell_angle_beta   59.99999581
_cell_angle_gamma   60.24160780
_symmetry_Int_Tables_number   1
_chemical_formula_structural   CeDy15(AlCo)4
_chemical_formula_sum   'Ce1 Dy15 Al4 Co4'
_cell_volume   584.85858096
_cell_formula_units_Z   1
loop_
 _symmetry_equiv_pos_site_id
 _symmetry_equiv_pos_as_xyz
  1  'x, y, z'
loop_
 _atom_site_type_symbol
 _atom_site_label
 _atom_site_symmetry_multiplicity
 _atom_site_fract_x
 _atom_site_fract_y
 _atom_site_fract_z
 _atom_site_occupancy
  Ce  Ce0  1  0.158680  0.523959  0.158680  1
  Dy  Dy1  1  0.690533  0.310231  0.690533  1
  Dy  Dy2  1  0.690533  0.310231  0.308705  1
  Dy  Dy3  1  0.938482  0.561605  0.561432  1
  Dy  Dy4  1  0.550853  0.148231  0.150458  1
  Dy  Dy5  1  0.150458  0.148231  0.550853  1
  Dy  Dy6  1  0.937140  0.935745  0.563558  1
  Dy  Dy7  1  0.308132  0.693712  0.308132  1
  Dy  Dy8  1  0.563558  0.935745  0.937140  1
  Dy  Dy9  1  0.563558  0.935745  0.563558  1
  Dy  Dy10  1  0.690024  0.693712  0.308132  1
  Dy  Dy11  1  0.561432  0.561605  0.938482  1
  Dy  Dy12  1  0.938482  0.561605  0.938482  1
  Dy  Dy13  1  0.308132  0.693712  0.690024  1
  Dy  Dy14  1  0.150458  0.148231  0.150458  1
  Dy  Dy15  1  0.308705  0.310231  0.690533  1
  Al  Al16  1  0.922844  0.231469  0.922844  1
  Al  Al17  1  0.923757  0.921883  0.923757  1
  Al  Al18  1  0.923757  0.921883  0.230604  1
  Al  Al19  1  0.230604  0.921883  0.923757  1
  Co  Co20  1  0.350899  0.368721  0.929483  1
  Co  Co21  1  0.358604  0.924188  0.358604  1
  Co  Co22  1  0.929483  0.368721  0.350899  1
  Co  Co23  1  0.350899  0.368721  0.350899  1
