# generated using pymatgen
data_Ca2Er3Si12Ir19
_symmetry_space_group_name_H-M   'P 1'
_cell_length_a   12.82826700
_cell_length_b   12.82826629
_cell_length_c   3.98534500
_cell_angle_alpha   90.00000000
_cell_angle_beta   90.00000000
_cell_angle_gamma   120.00000441
_symmetry_Int_Tables_number   1
_chemical_formula_structural   Ca2Er3Si12Ir19
_chemical_formula_sum   'Ca2 Er3 Si12 Ir19'
_cell_volume   567.97927936
_cell_formula_units_Z   1
loop_
 _symmetry_equiv_pos_site_id
 _symmetry_equiv_pos_as_xyz
  1  'x, y, z'
loop_
 _atom_site_type_symbol
 _atom_site_label
 _atom_site_symmetry_multiplicity
 _atom_site_fract_x
 _atom_site_fract_y
 _atom_site_fract_z
 _atom_site_occupancy
  Ca  Ca0  1  0.666667  0.333333  0.000000  1
  Ca  Ca1  1  0.333333  0.666667  0.000000  1
  Er  Er2  1  0.816348  0.816348  0.500000  1
  Er  Er3  1  0.183652  0.000000  0.500000  1
  Er  Er4  1  0.000000  0.183652  0.500000  1
  Si  Si5  1  0.687004  0.167492  0.500000  1
  Si  Si6  1  0.832508  0.519511  0.500000  1
  Si  Si7  1  0.480489  0.312996  0.500000  1
  Si  Si8  1  0.167492  0.687004  0.500000  1
  Si  Si9  1  0.519511  0.832508  0.500000  1
  Si  Si10  1  0.312996  0.480489  0.500000  1
  Si  Si11  1  0.630772  0.630772  0.000000  1
  Si  Si12  1  0.369228  0.000000  0.000000  1
  Si  Si13  1  0.000000  0.369228  0.000000  1
  Si  Si14  1  0.181123  0.181123  0.000000  1
  Si  Si15  1  0.818877  0.000000  0.000000  1
  Si  Si16  1  0.000000  0.818877  0.000000  1
  Ir  Ir17  1  0.807631  0.182775  0.000000  1
  Ir  Ir18  1  0.817225  0.624857  0.000000  1
  Ir  Ir19  1  0.375143  0.192369  0.000000  1
  Ir  Ir20  1  0.182775  0.807631  0.000000  1
  Ir  Ir21  1  0.624857  0.817225  0.000000  1
  Ir  Ir22  1  0.192369  0.375143  0.000000  1
  Ir  Ir23  1  0.446439  0.446439  0.000000  1
  Ir  Ir24  1  0.553561  0.000000  0.000000  1
  Ir  Ir25  1  0.000000  0.553561  0.000000  1
  Ir  Ir26  1  0.282063  0.282063  0.500000  1
  Ir  Ir27  1  0.717937  0.000000  0.500000  1
  Ir  Ir28  1  0.000000  0.717937  0.500000  1
  Ir  Ir29  1  0.873592  0.360198  0.500000  1
  Ir  Ir30  1  0.639802  0.513396  0.500000  1
  Ir  Ir31  1  0.486604  0.126408  0.500000  1
  Ir  Ir32  1  0.360198  0.873592  0.500000  1
  Ir  Ir33  1  0.513396  0.639802  0.500000  1
  Ir  Ir34  1  0.126408  0.486604  0.500000  1
  Ir  Ir35  1  0.000000  0.000000  0.000000  1
