# generated using pymatgen
data_KEu4Se5
_symmetry_space_group_name_H-M   'P 1'
_cell_length_a   7.62249815
_cell_length_b   7.62249752
_cell_length_c   10.82550704
_cell_angle_alpha   61.74134203
_cell_angle_beta   61.74134343
_cell_angle_gamma   33.20863191
_symmetry_Int_Tables_number   1
_chemical_formula_structural   KEu4Se5
_chemical_formula_sum   'K1 Eu4 Se5'
_cell_volume   299.51063645
_cell_formula_units_Z   1
loop_
 _symmetry_equiv_pos_site_id
 _symmetry_equiv_pos_as_xyz
  1  'x, y, z'
loop_
 _atom_site_type_symbol
 _atom_site_label
 _atom_site_symmetry_multiplicity
 _atom_site_fract_x
 _atom_site_fract_y
 _atom_site_fract_z
 _atom_site_occupancy
  K  K0  1  0.000000  0.000000  0.000000  1
  Eu  Eu1  1  0.596256  0.596256  0.606003  1
  Eu  Eu2  1  0.204815  0.204815  0.198435  1
  Eu  Eu3  1  0.795185  0.795185  0.801565  1
  Eu  Eu4  1  0.403744  0.403744  0.393997  1
  Se  Se5  1  0.206283  0.206283  0.685302  1
  Se  Se6  1  0.793717  0.793717  0.314698  1
  Se  Se7  1  0.390120  0.390120  0.888864  1
  Se  Se8  1  0.000000  0.000000  0.500000  1
  Se  Se9  1  0.609880  0.609880  0.111136  1
