# generated using pymatgen
data_CeNd2(As2Rh3)3
_symmetry_space_group_name_H-M   'P 1'
_cell_length_a   4.05740900
_cell_length_b   8.50443466
_cell_length_c   9.89641800
_cell_angle_alpha   107.35826507
_cell_angle_beta   90.00000000
_cell_angle_gamma   103.80076863
_symmetry_Int_Tables_number   1
_chemical_formula_structural   CeNd2(As2Rh3)3
_chemical_formula_sum   'Ce1 Nd2 As6 Rh9'
_cell_volume   315.58978044
_cell_formula_units_Z   1
loop_
 _symmetry_equiv_pos_site_id
 _symmetry_equiv_pos_as_xyz
  1  'x, y, z'
loop_
 _atom_site_type_symbol
 _atom_site_label
 _atom_site_symmetry_multiplicity
 _atom_site_fract_x
 _atom_site_fract_y
 _atom_site_fract_z
 _atom_site_occupancy
  Ce  Ce0  1  0.000000  0.000000  0.000000  1
  Nd  Nd1  1  0.843214  0.686429  0.301392  1
  Nd  Nd2  1  0.156786  0.313571  0.698608  1
  As  As3  1  0.804556  0.609112  0.872348  1
  As  As4  1  0.195444  0.390888  0.127652  1
  As  As5  1  0.539361  0.078722  0.782011  1
  As  As6  1  0.460639  0.921278  0.217989  1
  As  As7  1  0.638405  0.276811  0.454659  1
  As  As8  1  0.361595  0.723189  0.545341  1
  Rh  Rh9  1  0.957565  0.915131  0.672745  1
  Rh  Rh10  1  0.042435  0.084869  0.327255  1
  Rh  Rh11  1  0.781408  0.562814  0.608108  1
  Rh  Rh12  1  0.218592  0.437186  0.391892  1
  Rh  Rh13  1  0.380577  0.761155  0.797771  1
  Rh  Rh14  1  0.619423  0.238845  0.202229  1
  Rh  Rh15  1  0.500000  0.000000  0.500000  1
  Rh  Rh16  1  0.680314  0.360629  0.962054  1
  Rh  Rh17  1  0.319686  0.639371  0.037946  1
