# generated using pymatgen
data_AgS4IO14
_symmetry_space_group_name_H-M   'P 1'
_cell_length_a   5.94974083
_cell_length_b   7.07978388
_cell_length_c   9.32333660
_cell_angle_alpha   107.26715066
_cell_angle_beta   91.22781521
_cell_angle_gamma   104.44264404
_symmetry_Int_Tables_number   1
_chemical_formula_structural   AgS4IO14
_chemical_formula_sum   'Ag1 S4 I1 O14'
_cell_volume   361.23427611
_cell_formula_units_Z   1
loop_
 _symmetry_equiv_pos_site_id
 _symmetry_equiv_pos_as_xyz
  1  'x, y, z'
loop_
 _atom_site_type_symbol
 _atom_site_label
 _atom_site_symmetry_multiplicity
 _atom_site_fract_x
 _atom_site_fract_y
 _atom_site_fract_z
 _atom_site_occupancy
  Ag  Ag0  1  0.500000  0.000000  0.000000  1
  S  S1  1  0.939653  0.730875  0.760322  1
  S  S2  1  0.060347  0.269125  0.239678  1
  S  S3  1  0.664058  0.317270  0.753903  1
  S  S4  1  0.335942  0.682730  0.246097  1
  I  I5  1  0.500000  0.500000  0.500000  1
  O  O6  1  0.863932  0.656903  0.589861  1
  O  O7  1  0.136068  0.343097  0.410139  1
  O  O8  1  0.476811  0.407762  0.703337  1
  O  O9  1  0.523189  0.592238  0.296663  1
  O  O10  1  0.189280  0.812845  0.781927  1
  O  O11  1  0.810720  0.187155  0.218073  1
  O  O12  1  0.794562  0.846510  0.847408  1
  O  O13  1  0.205438  0.153490  0.152592  1
  O  O14  1  0.607563  0.283102  0.895008  1
  O  O15  1  0.392437  0.716898  0.104992  1
  O  O16  1  0.902929  0.517209  0.803726  1
  O  O17  1  0.097071  0.482791  0.196274  1
  O  O18  1  0.723925  0.163804  0.634317  1
  O  O19  1  0.276075  0.836196  0.365683  1
