# generated using pymatgen
data_Li4Ca2HoLuSi8
_symmetry_space_group_name_H-M   'P 1'
_cell_length_a   3.77529600
_cell_length_b   7.78517496
_cell_length_c   10.38125699
_cell_angle_alpha   89.31240840
_cell_angle_beta   90.00000000
_cell_angle_gamma   90.00000000
_symmetry_Int_Tables_number   1
_chemical_formula_structural   Li4Ca2HoLuSi8
_chemical_formula_sum   'Li4 Ca2 Ho1 Lu1 Si8'
_cell_volume   305.09708176
_cell_formula_units_Z   1
loop_
 _symmetry_equiv_pos_site_id
 _symmetry_equiv_pos_as_xyz
  1  'x, y, z'
loop_
 _atom_site_type_symbol
 _atom_site_label
 _atom_site_symmetry_multiplicity
 _atom_site_fract_x
 _atom_site_fract_y
 _atom_site_fract_z
 _atom_site_occupancy
  Li  Li0  1  0.250000  0.999194  0.389626  1
  Li  Li1  1  0.750000  0.000823  0.610231  1
  Li  Li2  1  0.250000  0.489136  0.109053  1
  Li  Li3  1  0.750000  0.510607  0.891251  1
  Ca  Ca4  1  0.250000  0.637741  0.634898  1
  Ca  Ca5  1  0.750000  0.362741  0.364820  1
  Ho  Ho6  1  0.250000  0.129688  0.864933  1
  Lu  Lu7  1  0.750000  0.871346  0.135221  1
  Si  Si8  1  0.750000  0.258947  0.061189  1
  Si  Si9  1  0.250000  0.740599  0.941553  1
  Si  Si10  1  0.750000  0.773759  0.423984  1
  Si  Si11  1  0.250000  0.227428  0.574208  1
  Si  Si12  1  0.750000  0.844115  0.828059  1
  Si  Si13  1  0.250000  0.152689  0.172939  1
  Si  Si14  1  0.750000  0.332531  0.685084  1
  Si  Si15  1  0.250000  0.668656  0.312951  1
