# generated using pymatgen
data_HoEr5Tc2
_symmetry_space_group_name_H-M   'P 1'
_cell_length_a   6.20880400
_cell_length_b   7.39886400
_cell_length_c   9.07338000
_cell_angle_alpha   90.00000000
_cell_angle_beta   90.00000000
_cell_angle_gamma   90.00000000
_symmetry_Int_Tables_number   1
_chemical_formula_structural   HoEr5Tc2
_chemical_formula_sum   'Ho2 Er10 Tc4'
_cell_volume   416.81380510
_cell_formula_units_Z   2
loop_
 _symmetry_equiv_pos_site_id
 _symmetry_equiv_pos_as_xyz
  1  'x, y, z'
loop_
 _atom_site_type_symbol
 _atom_site_label
 _atom_site_symmetry_multiplicity
 _atom_site_fract_x
 _atom_site_fract_y
 _atom_site_fract_z
 _atom_site_occupancy
  Ho  Ho0  1  0.874099  0.541339  0.250000  1
  Ho  Ho1  1  0.625901  0.041339  0.250000  1
  Er  Er2  1  0.344857  0.676622  0.061888  1
  Er  Er3  1  0.155143  0.176622  0.438112  1
  Er  Er4  1  0.654983  0.323458  0.562205  1
  Er  Er5  1  0.845017  0.823458  0.937795  1
  Er  Er6  1  0.654983  0.323458  0.937795  1
  Er  Er7  1  0.845017  0.823458  0.562205  1
  Er  Er8  1  0.344857  0.676622  0.438112  1
  Er  Er9  1  0.155143  0.176622  0.061888  1
  Er  Er10  1  0.126564  0.458739  0.750000  1
  Er  Er11  1  0.373436  0.958739  0.750000  1
  Tc  Tc12  1  0.043507  0.885449  0.250000  1
  Tc  Tc13  1  0.456493  0.385449  0.250000  1
  Tc  Tc14  1  0.956389  0.114311  0.750000  1
  Tc  Tc15  1  0.543611  0.614311  0.750000  1
