# generated using pymatgen
data_Tb4YbDy3(B6Ru)4
_symmetry_space_group_name_H-M   'P 1'
_cell_length_a   3.67174300
_cell_length_b   9.15931156
_cell_length_c   11.54492002
_cell_angle_alpha   89.91225839
_cell_angle_beta   90.00000000
_cell_angle_gamma   90.00000000
_symmetry_Int_Tables_number   1
_chemical_formula_structural   Tb4YbDy3(B6Ru)4
_chemical_formula_sum   'Tb4 Yb1 Dy3 B24 Ru4'
_cell_volume   388.26257171
_cell_formula_units_Z   1
loop_
 _symmetry_equiv_pos_site_id
 _symmetry_equiv_pos_as_xyz
  1  'x, y, z'
loop_
 _atom_site_type_symbol
 _atom_site_label
 _atom_site_symmetry_multiplicity
 _atom_site_fract_x
 _atom_site_fract_y
 _atom_site_fract_z
 _atom_site_occupancy
  Tb  Tb0  1  0.000000  0.675161  0.585109  1
  Tb  Tb1  1  0.000000  0.822965  0.086281  1
  Tb  Tb2  1  0.000000  0.177466  0.914503  1
  Tb  Tb3  1  0.000000  0.944007  0.371200  1
  Yb  Yb4  1  0.000000  0.324134  0.413725  1
  Dy  Dy5  1  0.000000  0.058353  0.628174  1
  Dy  Dy6  1  0.000000  0.442836  0.129789  1
  Dy  Dy7  1  0.000000  0.556136  0.871966  1
  B  B8  1  0.500000  0.553557  0.432381  1
  B  B9  1  0.500000  0.445551  0.567333  1
  B  B10  1  0.500000  0.053655  0.067013  1
  B  B11  1  0.500000  0.945692  0.932115  1
  B  B12  1  0.500000  0.747534  0.419034  1
  B  B13  1  0.500000  0.252646  0.580692  1
  B  B14  1  0.500000  0.247382  0.080857  1
  B  B15  1  0.500000  0.752022  0.919337  1
  B  B16  1  0.500000  0.790365  0.266308  1
  B  B17  1  0.500000  0.210406  0.733679  1
  B  B18  1  0.500000  0.289971  0.233621  1
  B  B19  1  0.500000  0.709618  0.766517  1
  B  B20  1  0.500000  0.631811  0.186177  1
  B  B21  1  0.500000  0.368303  0.814755  1
  B  B22  1  0.500000  0.131954  0.313825  1
  B  B23  1  0.500000  0.868486  0.685409  1
  B  B24  1  0.500000  0.984262  0.211629  1
  B  B25  1  0.500000  0.016057  0.787271  1
  B  B26  1  0.500000  0.483937  0.287914  1
  B  B27  1  0.500000  0.515694  0.712581  1
  B  B28  1  0.500000  0.608321  0.030233  1
  B  B29  1  0.500000  0.391709  0.970482  1
  B  B30  1  0.500000  0.105933  0.471024  1
  B  B31  1  0.500000  0.894032  0.529624  1
  Ru  Ru32  1  0.000000  0.638693  0.320763  1
  Ru  Ru33  1  0.000000  0.362084  0.679977  1
  Ru  Ru34  1  0.000000  0.137323  0.177554  1
  Ru  Ru35  1  0.000000  0.861943  0.821150  1
