# generated using pymatgen
data_HoTa6Sn5Sb
_symmetry_space_group_name_H-M   'P 1'
_cell_length_a   5.77832700
_cell_length_b   5.77832814
_cell_length_c   9.59214200
_cell_angle_alpha   90.00000000
_cell_angle_beta   90.00000000
_cell_angle_gamma   119.99999920
_symmetry_Int_Tables_number   1
_chemical_formula_structural   HoTa6Sn5Sb
_chemical_formula_sum   'Ho1 Ta6 Sn5 Sb1'
_cell_volume   277.36429301
_cell_formula_units_Z   1
loop_
 _symmetry_equiv_pos_site_id
 _symmetry_equiv_pos_as_xyz
  1  'x, y, z'
loop_
 _atom_site_type_symbol
 _atom_site_label
 _atom_site_symmetry_multiplicity
 _atom_site_fract_x
 _atom_site_fract_y
 _atom_site_fract_z
 _atom_site_occupancy
  Ho  Ho0  1  0.000000  0.000000  0.995724  1
  Ta  Ta1  1  0.000000  0.500000  0.751945  1
  Ta  Ta2  1  0.500000  0.500000  0.751945  1
  Ta  Ta3  1  0.500000  0.000000  0.751945  1
  Ta  Ta4  1  0.000000  0.500000  0.250557  1
  Ta  Ta5  1  0.500000  0.500000  0.250557  1
  Ta  Ta6  1  0.500000  0.000000  0.250557  1
  Sn  Sn7  1  0.666667  0.333333  0.500764  1
  Sn  Sn8  1  0.333333  0.666667  0.500764  1
  Sn  Sn9  1  0.666667  0.333333  0.000888  1
  Sn  Sn10  1  0.333333  0.666667  0.000888  1
  Sn  Sn11  1  0.000000  0.000000  0.334869  1
  Sb  Sb12  1  0.000000  0.000000  0.658595  1
