# generated using pymatgen
data_Ti8PbSe16
_symmetry_space_group_name_H-M   'P 1'
_cell_length_a   7.09174800
_cell_length_b   7.09174756
_cell_length_c   14.80597700
_cell_angle_alpha   90.00000000
_cell_angle_beta   90.00000000
_cell_angle_gamma   119.99999270
_symmetry_Int_Tables_number   1
_chemical_formula_structural   Ti8PbSe16
_chemical_formula_sum   'Ti8 Pb1 Se16'
_cell_volume   644.87315318
_cell_formula_units_Z   1
loop_
 _symmetry_equiv_pos_site_id
 _symmetry_equiv_pos_as_xyz
  1  'x, y, z'
loop_
 _atom_site_type_symbol
 _atom_site_label
 _atom_site_symmetry_multiplicity
 _atom_site_fract_x
 _atom_site_fract_y
 _atom_site_fract_z
 _atom_site_occupancy
  Ti  Ti0  1  0.502752  0.497248  0.740640  1
  Ti  Ti1  1  0.497248  0.502752  0.259360  1
  Ti  Ti2  1  0.502752  0.005503  0.740640  1
  Ti  Ti3  1  0.497248  0.994497  0.259360  1
  Ti  Ti4  1  0.994497  0.497248  0.740640  1
  Ti  Ti5  1  0.005503  0.502752  0.259360  1
  Ti  Ti6  1  0.000000  0.000000  0.738781  1
  Ti  Ti7  1  0.000000  0.000000  0.261219  1
  Pb  Pb8  1  0.000000  0.000000  0.000000  1
  Se  Se9  1  0.832408  0.664817  0.152890  1
  Se  Se10  1  0.833241  0.666483  0.635512  1
  Se  Se11  1  0.832408  0.167592  0.152890  1
  Se  Se12  1  0.833241  0.166759  0.635512  1
  Se  Se13  1  0.333333  0.666667  0.152487  1
  Se  Se14  1  0.333333  0.666667  0.638761  1
  Se  Se15  1  0.335183  0.167592  0.152890  1
  Se  Se16  1  0.333517  0.166759  0.635512  1
  Se  Se17  1  0.664817  0.832408  0.847110  1
  Se  Se18  1  0.666483  0.833241  0.364488  1
  Se  Se19  1  0.666667  0.333333  0.847513  1
  Se  Se20  1  0.666667  0.333333  0.361239  1
  Se  Se21  1  0.167592  0.832408  0.847110  1
  Se  Se22  1  0.166759  0.833241  0.364488  1
  Se  Se23  1  0.167592  0.335183  0.847110  1
  Se  Se24  1  0.166759  0.333517  0.364488  1
