# generated using pymatgen
data_Sr6ErTm(RhO6)2
_symmetry_space_group_name_H-M   'P 1'
_cell_length_a   6.83506136
_cell_length_b   6.83506200
_cell_length_c   6.83506031
_cell_angle_alpha   92.24633818
_cell_angle_beta   92.24633263
_cell_angle_gamma   92.24633831
_symmetry_Int_Tables_number   1
_chemical_formula_structural   Sr6ErTm(RhO6)2
_chemical_formula_sum   'Sr6 Er1 Tm1 Rh2 O12'
_cell_volume   318.56482141
_cell_formula_units_Z   1
loop_
 _symmetry_equiv_pos_site_id
 _symmetry_equiv_pos_as_xyz
  1  'x, y, z'
loop_
 _atom_site_type_symbol
 _atom_site_label
 _atom_site_symmetry_multiplicity
 _atom_site_fract_x
 _atom_site_fract_y
 _atom_site_fract_z
 _atom_site_occupancy
  Sr  Sr0  1  0.380596  0.750000  0.119403  1
  Sr  Sr1  1  0.880869  0.619131  0.250000  1
  Sr  Sr2  1  0.749999  0.119404  0.380596  1
  Sr  Sr3  1  0.250000  0.880868  0.619132  1
  Sr  Sr4  1  0.119403  0.380596  0.750000  1
  Sr  Sr5  1  0.619132  0.250000  0.880868  1
  Er  Er6  1  0.750000  0.750000  0.750000  1
  Tm  Tm7  1  0.250000  0.250000  0.250000  1
  Rh  Rh8  1  0.000266  0.000266  0.000266  1
  Rh  Rh9  1  0.499734  0.499734  0.499734  1
  O  O10  1  0.707518  0.907885  0.041850  1
  O  O11  1  0.959451  0.292638  0.093025  1
  O  O12  1  0.540547  0.406974  0.207362  1
  O  O13  1  0.093025  0.959452  0.292637  1
  O  O14  1  0.207362  0.540548  0.406974  1
  O  O15  1  0.592115  0.792481  0.458150  1
  O  O16  1  0.406974  0.207363  0.540548  1
  O  O17  1  0.792482  0.458150  0.592114  1
  O  O18  1  0.907885  0.041850  0.707518  1
  O  O19  1  0.458150  0.592114  0.792482  1
  O  O20  1  0.041850  0.707518  0.907886  1
  O  O21  1  0.292637  0.093026  0.959451  1
