# generated using pymatgen
data_Sr4NbIr3O16
_symmetry_space_group_name_H-M   'P 1'
_cell_length_a   5.18318238
_cell_length_b   5.58383100
_cell_length_c   13.06298000
_cell_angle_alpha   90.00000000
_cell_angle_beta   90.00000000
_cell_angle_gamma   90.09501753
_symmetry_Int_Tables_number   1
_chemical_formula_structural   Sr4NbIr3O16
_chemical_formula_sum   'Sr4 Nb1 Ir3 O16'
_cell_volume   378.06843615
_cell_formula_units_Z   1
loop_
 _symmetry_equiv_pos_site_id
 _symmetry_equiv_pos_as_xyz
  1  'x, y, z'
loop_
 _atom_site_type_symbol
 _atom_site_label
 _atom_site_symmetry_multiplicity
 _atom_site_fract_x
 _atom_site_fract_y
 _atom_site_fract_z
 _atom_site_occupancy
  Sr  Sr0  1  0.750000  0.000000  0.663218  1
  Sr  Sr1  1  0.250000  0.500000  0.841054  1
  Sr  Sr2  1  0.250000  0.000000  0.336205  1
  Sr  Sr3  1  0.750000  0.500000  0.161106  1
  Nb  Nb4  1  0.750000  0.000000  0.920981  1
  Ir  Ir5  1  0.750000  0.500000  0.430435  1
  Ir  Ir6  1  0.250000  0.000000  0.071217  1
  Ir  Ir7  1  0.250000  0.500000  0.567500  1
  O  O8  1  0.132702  0.284830  0.666673  1
  O  O9  1  0.627575  0.218868  0.824692  1
  O  O10  1  0.872425  0.781132  0.824692  1
  O  O11  1  0.367298  0.715170  0.666673  1
  O  O12  1  0.871254  0.713641  0.330835  1
  O  O13  1  0.383050  0.796675  0.172516  1
  O  O14  1  0.116950  0.203325  0.172516  1
  O  O15  1  0.628746  0.286359  0.330835  1
  O  O16  1  0.563208  0.318967  0.542051  1
  O  O17  1  0.067659  0.191761  0.961380  1
  O  O18  1  0.432341  0.808239  0.961380  1
  O  O19  1  0.936792  0.681033  0.542051  1
  O  O20  1  0.436084  0.681957  0.455686  1
  O  O21  1  0.949401  0.807940  0.050308  1
  O  O22  1  0.550599  0.192060  0.050308  1
  O  O23  1  0.063916  0.318043  0.455686  1
