# generated using pymatgen
data_LaPrY4RuI10
_symmetry_space_group_name_H-M   'P 1'
_cell_length_a   7.87340319
_cell_length_b   9.92931295
_cell_length_c   9.87782205
_cell_angle_alpha   106.53273324
_cell_angle_beta   95.45585655
_cell_angle_gamma   105.13246579
_symmetry_Int_Tables_number   1
_chemical_formula_structural   LaPrY4RuI10
_chemical_formula_sum   'La1 Pr1 Y4 Ru1 I10'
_cell_volume   702.55768175
_cell_formula_units_Z   1
loop_
 _symmetry_equiv_pos_site_id
 _symmetry_equiv_pos_as_xyz
  1  'x, y, z'
loop_
 _atom_site_type_symbol
 _atom_site_label
 _atom_site_symmetry_multiplicity
 _atom_site_fract_x
 _atom_site_fract_y
 _atom_site_fract_z
 _atom_site_occupancy
  La  La0  1  0.114455  0.042395  0.770410  1
  Pr  Pr1  1  0.884312  0.956934  0.228470  1
  Y  Y2  1  0.969755  0.290136  0.087567  1
  Y  Y3  1  0.648833  0.872365  0.833949  1
  Y  Y4  1  0.351031  0.126951  0.164890  1
  Y  Y5  1  0.031340  0.711007  0.914483  1
  Ru  Ru6  1  0.005259  0.002456  0.990384  1
  I  I7  1  0.344873  0.445974  0.268550  1
  I  I8  1  0.656294  0.553563  0.733891  1
  I  I9  1  0.731426  0.913270  0.547507  1
  I  I10  1  0.082830  0.379980  0.826706  1
  I  I11  1  0.914939  0.624840  0.177988  1
  I  I12  1  0.451819  0.819810  0.091980  1
  I  I13  1  0.552234  0.181856  0.911218  1
  I  I14  1  0.771887  0.257787  0.339786  1
  I  I15  1  0.229466  0.736602  0.662270  1
  I  I16  1  0.259247  0.084072  0.449952  1
