# generated using pymatgen
data_Nd2PtI
_symmetry_space_group_name_H-M   'P 1'
_cell_length_a   8.45377043
_cell_length_b   8.45376986
_cell_length_c   8.45377028
_cell_angle_alpha   29.32362270
_cell_angle_beta   29.32362720
_cell_angle_gamma   29.32362002
_symmetry_Int_Tables_number   1
_chemical_formula_structural   Nd2PtI
_chemical_formula_sum   'Nd2 Pt1 I1'
_cell_volume   128.22772607
_cell_formula_units_Z   1
loop_
 _symmetry_equiv_pos_site_id
 _symmetry_equiv_pos_as_xyz
  1  'x, y, z'
loop_
 _atom_site_type_symbol
 _atom_site_label
 _atom_site_symmetry_multiplicity
 _atom_site_fract_x
 _atom_site_fract_y
 _atom_site_fract_z
 _atom_site_occupancy
  Nd  Nd0  1  0.228898  0.228898  0.228898  1
  Nd  Nd1  1  0.771102  0.771102  0.771102  1
  Pt  Pt2  1  0.500000  0.500000  0.500000  1
  I  I3  1  0.000000  0.000000  0.000000  1
