# generated using pymatgen
data_Yb12GaSi7Ir8
_symmetry_space_group_name_H-M   'P 1'
_cell_length_a   5.62979700
_cell_length_b   7.63518698
_cell_length_c   13.30325100
_cell_angle_alpha   89.85052417
_cell_angle_beta   90.00000000
_cell_angle_gamma   90.00000000
_symmetry_Int_Tables_number   1
_chemical_formula_structural   Yb12GaSi7Ir8
_chemical_formula_sum   'Yb12 Ga1 Si7 Ir8'
_cell_volume   571.83234865
_cell_formula_units_Z   1
loop_
 _symmetry_equiv_pos_site_id
 _symmetry_equiv_pos_as_xyz
  1  'x, y, z'
loop_
 _atom_site_type_symbol
 _atom_site_label
 _atom_site_symmetry_multiplicity
 _atom_site_fract_x
 _atom_site_fract_y
 _atom_site_fract_z
 _atom_site_occupancy
  Yb  Yb0  1  0.139071  0.606861  0.097591  1
  Yb  Yb1  1  0.139071  0.893139  0.902409  1
  Yb  Yb2  1  0.854482  0.106418  0.401819  1
  Yb  Yb3  1  0.854482  0.393582  0.598181  1
  Yb  Yb4  1  0.860066  0.393080  0.902409  1
  Yb  Yb5  1  0.860066  0.106920  0.097591  1
  Yb  Yb6  1  0.143689  0.894153  0.598216  1
  Yb  Yb7  1  0.143689  0.605847  0.401784  1
  Yb  Yb8  1  0.365017  0.266761  0.250029  1
  Yb  Yb9  1  0.365017  0.233239  0.749971  1
  Yb  Yb10  1  0.636300  0.767304  0.248852  1
  Yb  Yb11  1  0.636300  0.732696  0.751148  1
  Ga  Ga12  1  0.389422  0.250000  0.500000  1
  Si  Si13  1  0.406267  0.250000  0.000000  1
  Si  Si14  1  0.596941  0.750000  0.500000  1
  Si  Si15  1  0.593757  0.750000  0.000000  1
  Si  Si16  1  0.845383  0.416282  0.248854  1
  Si  Si17  1  0.845383  0.083718  0.751146  1
  Si  Si18  1  0.154318  0.916363  0.248461  1
  Si  Si19  1  0.154318  0.583637  0.751539  1
  Ir  Ir20  1  0.639608  0.473032  0.092192  1
  Ir  Ir21  1  0.639608  0.026968  0.907808  1
  Ir  Ir22  1  0.362285  0.963364  0.403461  1
  Ir  Ir23  1  0.362285  0.536636  0.596539  1
  Ir  Ir24  1  0.359038  0.526636  0.908109  1
  Ir  Ir25  1  0.359038  0.973364  0.091891  1
  Ir  Ir26  1  0.647547  0.018483  0.595396  1
  Ir  Ir27  1  0.647547  0.481517  0.404604  1
