# generated using pymatgen
data_Mg3Ta6VB20
_symmetry_space_group_name_H-M   'P 1'
_cell_length_a   6.12405520
_cell_length_b   6.97484907
_cell_length_c   7.38724342
_cell_angle_alpha   94.23781605
_cell_angle_beta   102.01919560
_cell_angle_gamma   116.04945764
_symmetry_Int_Tables_number   1
_chemical_formula_structural   Mg3Ta6VB20
_chemical_formula_sum   'Mg3 Ta6 V1 B20'
_cell_volume   272.31978595
_cell_formula_units_Z   1
loop_
 _symmetry_equiv_pos_site_id
 _symmetry_equiv_pos_as_xyz
  1  'x, y, z'
loop_
 _atom_site_type_symbol
 _atom_site_label
 _atom_site_symmetry_multiplicity
 _atom_site_fract_x
 _atom_site_fract_y
 _atom_site_fract_z
 _atom_site_occupancy
  Mg  Mg0  1  0.497747  0.998040  0.996878  1
  Mg  Mg1  1  0.999417  0.201597  0.603627  1
  Mg  Mg2  1  0.002943  0.601182  0.800968  1
  Ta  Ta3  1  0.500938  0.798863  0.400466  1
  Ta  Ta4  1  0.000675  0.400918  0.200257  1
  Ta  Ta5  1  0.500342  0.202561  0.598265  1
  Ta  Ta6  1  0.999507  0.803969  0.398588  1
  Ta  Ta7  1  0.500434  0.600458  0.799184  1
  Ta  Ta8  1  0.499507  0.396630  0.199287  1
  V  V9  1  0.997187  0.995153  0.004020  1
  B  B10  1  0.330848  0.230951  0.869622  1
  B  B11  1  0.332754  0.634172  0.064912  1
  B  B12  1  0.163386  0.363436  0.932315  1
  B  B13  1  0.330812  0.034028  0.259579  1
  B  B14  1  0.165788  0.766916  0.129848  1
  B  B15  1  0.836346  0.232342  0.868808  1
  B  B16  1  0.163599  0.165415  0.331941  1
  B  B17  1  0.833894  0.634258  0.063220  1
  B  B18  1  0.332546  0.432452  0.468125  1
  B  B19  1  0.665814  0.364034  0.934812  1
  B  B20  1  0.832879  0.032373  0.264315  1
  B  B21  1  0.667271  0.768262  0.129748  1
  B  B22  1  0.333774  0.835386  0.670147  1
  B  B23  1  0.166616  0.566900  0.535535  1
  B  B24  1  0.665372  0.165857  0.331944  1
  B  B25  1  0.835715  0.434081  0.468432  1
  B  B26  1  0.166665  0.966486  0.734000  1
  B  B27  1  0.836672  0.836650  0.669878  1
  B  B28  1  0.671210  0.569707  0.534891  1
  B  B29  1  0.669341  0.966924  0.736388  1
