# generated using pymatgen
data_La3Er4P12Pd17
_symmetry_space_group_name_H-M   'P 1'
_cell_length_a   12.40927364
_cell_length_b   12.40927237
_cell_length_c   13.69543264
_cell_angle_alpha   67.98615694
_cell_angle_beta   67.98616002
_cell_angle_gamma   18.68949184
_symmetry_Int_Tables_number   1
_chemical_formula_structural   La3Er4P12Pd17
_chemical_formula_sum   'La3 Er4 P12 Pd17'
_cell_volume   625.13566562
_cell_formula_units_Z   1
loop_
 _symmetry_equiv_pos_site_id
 _symmetry_equiv_pos_as_xyz
  1  'x, y, z'
loop_
 _atom_site_type_symbol
 _atom_site_label
 _atom_site_symmetry_multiplicity
 _atom_site_fract_x
 _atom_site_fract_y
 _atom_site_fract_z
 _atom_site_occupancy
  La  La0  1  0.500000  0.500000  0.500000  1
  La  La1  1  0.417696  0.417696  0.261181  1
  La  La2  1  0.582304  0.582304  0.738819  1
  Er  Er3  1  0.364735  0.364735  0.000470  1
  Er  Er4  1  0.635265  0.635265  0.999530  1
  Er  Er5  1  0.235002  0.235002  0.314420  1
  Er  Er6  1  0.764998  0.764998  0.685580  1
  P  P7  1  0.062321  0.062321  0.927373  1
  P  P8  1  0.937679  0.937679  0.072627  1
  P  P9  1  0.886913  0.886913  0.832321  1
  P  P10  1  0.113087  0.113087  0.167679  1
  P  P11  1  0.189959  0.189959  0.622460  1
  P  P12  1  0.810041  0.810041  0.377540  1
  P  P13  1  0.361381  0.361381  0.584321  1
  P  P14  1  0.638619  0.638619  0.415679  1
  P  P15  1  0.010443  0.010443  0.668969  1
  P  P16  1  0.989557  0.989557  0.331031  1
  P  P17  1  0.230288  0.230288  0.884582  1
  P  P18  1  0.769712  0.769712  0.115418  1
  Pd  Pd19  1  0.837980  0.837980  0.191945  1
  Pd  Pd20  1  0.162020  0.162020  0.808055  1
  Pd  Pd21  1  0.027360  0.027360  0.122059  1
  Pd  Pd22  1  0.972640  0.972640  0.877941  1
  Pd  Pd23  1  0.887894  0.887894  0.460070  1
  Pd  Pd24  1  0.112106  0.112106  0.539930  1
  Pd  Pd25  1  0.500000  0.500000  0.000000  1
  Pd  Pd26  1  0.549865  0.549865  0.248849  1
  Pd  Pd27  1  0.450135  0.450135  0.751151  1
  Pd  Pd28  1  0.295149  0.295149  0.492583  1
  Pd  Pd29  1  0.704851  0.704851  0.507417  1
  Pd  Pd30  1  0.671261  0.671261  0.224150  1
  Pd  Pd31  1  0.328739  0.328739  0.775850  1
  Pd  Pd32  1  0.904177  0.904177  0.648071  1
  Pd  Pd33  1  0.095823  0.095823  0.351929  1
  Pd  Pd34  1  0.215253  0.215253  0.067611  1
  Pd  Pd35  1  0.784747  0.784747  0.932389  1
