# generated using pymatgen
data_Pr5NdTh4AgSn6I
_symmetry_space_group_name_H-M   'P 1'
_cell_length_a   9.64881200
_cell_length_b   9.64580765
_cell_length_c   6.65687100
_cell_angle_alpha   90.00000000
_cell_angle_beta   90.00000000
_cell_angle_gamma   120.01030379
_symmetry_Int_Tables_number   1
_chemical_formula_structural   Pr5NdTh4AgSn6I
_chemical_formula_sum   'Pr5 Nd1 Th4 Ag1 Sn6 I1'
_cell_volume   536.49800736
_cell_formula_units_Z   1
loop_
 _symmetry_equiv_pos_site_id
 _symmetry_equiv_pos_as_xyz
  1  'x, y, z'
loop_
 _atom_site_type_symbol
 _atom_site_label
 _atom_site_symmetry_multiplicity
 _atom_site_fract_x
 _atom_site_fract_y
 _atom_site_fract_z
 _atom_site_occupancy
  Pr  Pr0  1  0.722097  0.000000  0.247759  1
  Pr  Pr1  1  0.999766  0.278299  0.752156  1
  Pr  Pr2  1  0.999984  0.721802  0.247874  1
  Pr  Pr3  1  0.721467  0.721701  0.752156  1
  Pr  Pr4  1  0.278181  0.278198  0.247874  1
  Nd  Nd5  1  0.278248  0.000000  0.752064  1
  Th  Th6  1  0.333367  0.666973  0.500220  1
  Th  Th7  1  0.666395  0.333027  0.500220  1
  Th  Th8  1  0.666515  0.333178  0.999772  1
  Th  Th9  1  0.333336  0.666822  0.999772  1
  Ag  Ag10  1  0.001064  0.000000  0.999355  1
  Sn  Sn11  1  0.619656  0.000000  0.751306  1
  Sn  Sn12  1  0.379061  0.000000  0.248527  1
  Sn  Sn13  1  0.000440  0.621569  0.751290  1
  Sn  Sn14  1  0.000004  0.379088  0.248791  1
  Sn  Sn15  1  0.378871  0.378431  0.751290  1
  Sn  Sn16  1  0.620915  0.620912  0.248791  1
  I  I17  1  0.000634  0.000000  0.500782  1
