# generated using pymatgen
data_Sc3Zn2Hg3Ir
_symmetry_space_group_name_H-M   'P 1'
_cell_length_a   7.80522500
_cell_length_b   7.80522550
_cell_length_c   3.34530600
_cell_angle_alpha   90.00000000
_cell_angle_beta   90.00000000
_cell_angle_gamma   119.99999364
_symmetry_Int_Tables_number   1
_chemical_formula_structural   Sc3Zn2Hg3Ir
_chemical_formula_sum   'Sc3 Zn2 Hg3 Ir1'
_cell_volume   176.49702555
_cell_formula_units_Z   1
loop_
 _symmetry_equiv_pos_site_id
 _symmetry_equiv_pos_as_xyz
  1  'x, y, z'
loop_
 _atom_site_type_symbol
 _atom_site_label
 _atom_site_symmetry_multiplicity
 _atom_site_fract_x
 _atom_site_fract_y
 _atom_site_fract_z
 _atom_site_occupancy
  Sc  Sc0  1  0.588442  0.628976  0.000000  1
  Sc  Sc1  1  0.371024  0.959464  0.000000  1
  Sc  Sc2  1  0.040536  0.411558  0.000000  1
  Zn  Zn3  1  0.000000  0.000000  0.000000  1
  Zn  Zn4  1  0.666667  0.333333  0.500000  1
  Hg  Hg5  1  0.977020  0.705231  0.500000  1
  Hg  Hg6  1  0.294769  0.271789  0.500000  1
  Hg  Hg7  1  0.728211  0.022980  0.500000  1
  Ir  Ir8  1  0.333333  0.666667  0.500000  1
