# generated using pymatgen
data_CeY7(WC2)4
_symmetry_space_group_name_H-M   'P 1'
_cell_length_a   5.74254842
_cell_length_b   5.74254873
_cell_length_c   9.96656654
_cell_angle_alpha   89.64391902
_cell_angle_beta   89.64392055
_cell_angle_gamma   90.04522931
_symmetry_Int_Tables_number   1
_chemical_formula_structural   CeY7(WC2)4
_chemical_formula_sum   'Ce1 Y7 W4 C8'
_cell_volume   328.65330426
_cell_formula_units_Z   1
loop_
 _symmetry_equiv_pos_site_id
 _symmetry_equiv_pos_as_xyz
  1  'x, y, z'
loop_
 _atom_site_type_symbol
 _atom_site_label
 _atom_site_symmetry_multiplicity
 _atom_site_fract_x
 _atom_site_fract_y
 _atom_site_fract_z
 _atom_site_occupancy
  Ce  Ce0  1  0.801474  0.801474  0.659085  1
  Y  Y1  1  0.198885  0.198885  0.341675  1
  Y  Y2  1  0.302310  0.700462  0.842840  1
  Y  Y3  1  0.700462  0.302310  0.842840  1
  Y  Y4  1  0.701154  0.300856  0.158051  1
  Y  Y5  1  0.300856  0.701154  0.158051  1
  Y  Y6  1  0.198558  0.198558  0.657078  1
  Y  Y7  1  0.798620  0.798620  0.342652  1
  W  W8  1  0.318567  0.675470  0.498065  1
  W  W9  1  0.823528  0.823528  0.001936  1
  W  W10  1  0.179900  0.179900  0.001216  1
  W  W11  1  0.675470  0.318567  0.498065  1
  C  C12  1  0.000314  0.000314  0.153794  1
  C  C13  1  0.498949  0.498949  0.650769  1
  C  C14  1  0.495057  0.998800  0.497507  1
  C  C15  1  0.498481  0.498481  0.345754  1
  C  C16  1  0.004286  0.004286  0.850387  1
  C  C17  1  0.501891  0.002441  0.001362  1
  C  C18  1  0.002441  0.501891  0.001362  1
  C  C19  1  0.998800  0.495057  0.497507  1
