# generated using pymatgen
data_Ta8V2ZnSi5
_symmetry_space_group_name_H-M   'P 1'
_cell_length_a   7.53637420
_cell_length_b   7.53637385
_cell_length_c   7.53637372
_cell_angle_alpha   129.37966338
_cell_angle_beta   129.37966135
_cell_angle_gamma   74.40044060
_symmetry_Int_Tables_number   1
_chemical_formula_structural   Ta8V2ZnSi5
_chemical_formula_sum   'Ta8 V2 Zn1 Si5'
_cell_volume   249.26286105
_cell_formula_units_Z   1
loop_
 _symmetry_equiv_pos_site_id
 _symmetry_equiv_pos_as_xyz
  1  'x, y, z'
loop_
 _atom_site_type_symbol
 _atom_site_label
 _atom_site_symmetry_multiplicity
 _atom_site_fract_x
 _atom_site_fract_y
 _atom_site_fract_z
 _atom_site_occupancy
  Ta  Ta0  1  0.017751  0.512187  0.829120  1
  Ta  Ta1  1  0.683067  0.188631  0.170880  1
  Ta  Ta2  1  0.512187  0.683067  0.494436  1
  Ta  Ta3  1  0.188631  0.017751  0.505564  1
  Ta  Ta4  1  0.987813  0.482249  0.170880  1
  Ta  Ta5  1  0.311369  0.816933  0.829120  1
  Ta  Ta6  1  0.482249  0.311369  0.494436  1
  Ta  Ta7  1  0.816933  0.987813  0.505564  1
  V  V8  1  0.001517  0.001517  0.000000  1
  V  V9  1  0.498483  0.498483  0.000000  1
  Zn  Zn10  1  0.750000  0.750000  0.000000  1
  Si  Si11  1  0.250000  0.250000  0.000000  1
  Si  Si12  1  0.633694  0.133694  0.767387  1
  Si  Si13  1  0.366306  0.866306  0.232613  1
  Si  Si14  1  0.133694  0.366306  0.500000  1
  Si  Si15  1  0.866306  0.633694  0.500000  1
