# generated using pymatgen
data_Yb2Si14IrRh5
_symmetry_space_group_name_H-M   'P 1'
_cell_length_a   7.98402497
_cell_length_b   7.99266681
_cell_length_c   7.99266600
_cell_angle_alpha   56.98305154
_cell_angle_beta   56.95835002
_cell_angle_gamma   56.95835752
_symmetry_Int_Tables_number   1
_chemical_formula_structural   Yb2Si14IrRh5
_chemical_formula_sum   'Yb2 Si14 Ir1 Rh5'
_cell_volume   335.42398746
_cell_formula_units_Z   1
loop_
 _symmetry_equiv_pos_site_id
 _symmetry_equiv_pos_as_xyz
  1  'x, y, z'
loop_
 _atom_site_type_symbol
 _atom_site_label
 _atom_site_symmetry_multiplicity
 _atom_site_fract_x
 _atom_site_fract_y
 _atom_site_fract_z
 _atom_site_occupancy
  Yb  Yb0  1  0.999882  0.999870  0.000347  1
  Yb  Yb1  1  0.500118  0.499653  0.500130  1
  Si  Si2  1  0.750000  0.748987  0.751013  1
  Si  Si3  1  0.250000  0.249945  0.250055  1
  Si  Si4  1  0.850592  0.068062  0.671848  1
  Si  Si5  1  0.673223  0.850739  0.064709  1
  Si  Si6  1  0.065618  0.673934  0.849581  1
  Si  Si7  1  0.649408  0.828152  0.431938  1
  Si  Si8  1  0.434382  0.650419  0.826066  1
  Si  Si9  1  0.826777  0.435291  0.649261  1
  Si  Si10  1  0.174070  0.563691  0.350892  1
  Si  Si11  1  0.564864  0.350290  0.172191  1
  Si  Si12  1  0.350458  0.171360  0.568191  1
  Si  Si13  1  0.935136  0.327809  0.149710  1
  Si  Si14  1  0.325930  0.149108  0.936309  1
  Si  Si15  1  0.149542  0.931809  0.328640  1
  Ir  Ir16  1  0.750000  0.070942  0.429058  1
  Rh  Rh17  1  0.071457  0.428193  0.750414  1
  Rh  Rh18  1  0.250000  0.929456  0.570544  1
  Rh  Rh19  1  0.571133  0.250479  0.927777  1
  Rh  Rh20  1  0.928867  0.572223  0.249521  1
  Rh  Rh21  1  0.428543  0.749586  0.071807  1
