# generated using pymatgen
data_Tb16CdNi4Hg3
_symmetry_space_group_name_H-M   'P 1'
_cell_length_a   9.55680465
_cell_length_b   9.52961523
_cell_length_c   9.52961500
_cell_angle_alpha   59.99999732
_cell_angle_beta   60.09406573
_cell_angle_gamma   60.09406506
_symmetry_Int_Tables_number   1
_chemical_formula_structural   Tb16CdNi4Hg3
_chemical_formula_sum   'Tb16 Cd1 Ni4 Hg3'
_cell_volume   614.56021431
_cell_formula_units_Z   1
loop_
 _symmetry_equiv_pos_site_id
 _symmetry_equiv_pos_as_xyz
  1  'x, y, z'
loop_
 _atom_site_type_symbol
 _atom_site_label
 _atom_site_symmetry_multiplicity
 _atom_site_fract_x
 _atom_site_fract_y
 _atom_site_fract_z
 _atom_site_occupancy
  Tb  Tb0  1  0.349426  0.348937  0.348937  1
  Tb  Tb1  1  0.349426  0.348937  0.952700  1
  Tb  Tb2  1  0.349426  0.952700  0.348937  1
  Tb  Tb3  1  0.948522  0.350493  0.350493  1
  Tb  Tb4  1  0.810725  0.189915  0.189915  1
  Tb  Tb5  1  0.188732  0.810690  0.810690  1
  Tb  Tb6  1  0.188732  0.810690  0.189888  1
  Tb  Tb7  1  0.810725  0.189915  0.809446  1
  Tb  Tb8  1  0.188732  0.189888  0.810690  1
  Tb  Tb9  1  0.810725  0.809446  0.189915  1
  Tb  Tb10  1  0.936201  0.563569  0.563569  1
  Tb  Tb11  1  0.562251  0.937015  0.937015  1
  Tb  Tb12  1  0.562251  0.937015  0.563719  1
  Tb  Tb13  1  0.936201  0.563569  0.936660  1
  Tb  Tb14  1  0.562251  0.563719  0.937015  1
  Tb  Tb15  1  0.936201  0.936660  0.563569  1
  Cd  Cd16  1  0.258446  0.580518  0.580518  1
  Ni  Ni17  1  0.142644  0.142861  0.142861  1
  Ni  Ni18  1  0.142644  0.142861  0.571635  1
  Ni  Ni19  1  0.142644  0.571635  0.142861  1
  Ni  Ni20  1  0.573198  0.142267  0.142267  1
  Hg  Hg21  1  0.583298  0.585120  0.585120  1
  Hg  Hg22  1  0.583298  0.585120  0.246460  1
  Hg  Hg23  1  0.583298  0.246460  0.585120  1
