# generated using pymatgen
data_Tm3LuTc5Ru3
_symmetry_space_group_name_H-M   'P 1'
_cell_length_a   5.28175434
_cell_length_b   5.28175482
_cell_length_c   9.03933201
_cell_angle_alpha   90.00361409
_cell_angle_beta   89.99638756
_cell_angle_gamma   121.68989843
_symmetry_Int_Tables_number   1
_chemical_formula_structural   Tm3LuTc5Ru3
_chemical_formula_sum   'Tm3 Lu1 Tc5 Ru3'
_cell_volume   214.57207672
_cell_formula_units_Z   1
loop_
 _symmetry_equiv_pos_site_id
 _symmetry_equiv_pos_as_xyz
  1  'x, y, z'
loop_
 _atom_site_type_symbol
 _atom_site_label
 _atom_site_symmetry_multiplicity
 _atom_site_fract_x
 _atom_site_fract_y
 _atom_site_fract_z
 _atom_site_occupancy
  Tm  Tm0  1  0.335416  0.664584  0.435046  1
  Tm  Tm1  1  0.665189  0.334811  0.563174  1
  Tm  Tm2  1  0.665179  0.334821  0.936981  1
  Lu  Lu3  1  0.335541  0.664459  0.064972  1
  Tc  Tc4  1  0.170666  0.342938  0.750229  1
  Tc  Tc5  1  0.171959  0.828041  0.750230  1
  Tc  Tc6  1  0.340066  0.174571  0.249690  1
  Tc  Tc7  1  0.825429  0.659934  0.249690  1
  Tc  Tc8  1  0.657062  0.829334  0.750229  1
  Ru  Ru9  1  0.004211  0.995789  0.001528  1
  Ru  Ru10  1  0.825007  0.174993  0.249666  1
  Ru  Ru11  1  0.004275  0.995725  0.498565  1
