# generated using pymatgen
data_Ta2NiS6(OF)12
_symmetry_space_group_name_H-M   'P 1'
_cell_length_a   9.05587800
_cell_length_b   8.22932182
_cell_length_c   15.63033962
_cell_angle_alpha   87.72874421
_cell_angle_beta   90.00000000
_cell_angle_gamma   90.00000000
_symmetry_Int_Tables_number   1
_chemical_formula_structural   Ta2NiS6(OF)12
_chemical_formula_sum   'Ta4 Ni2 S12 O24 F24'
_cell_volume   1163.91619091
_cell_formula_units_Z   2
loop_
 _symmetry_equiv_pos_site_id
 _symmetry_equiv_pos_as_xyz
  1  'x, y, z'
loop_
 _atom_site_type_symbol
 _atom_site_label
 _atom_site_symmetry_multiplicity
 _atom_site_fract_x
 _atom_site_fract_y
 _atom_site_fract_z
 _atom_site_occupancy
  Ta  Ta0  1  0.994977  0.258071  0.357901  1
  Ta  Ta1  1  0.005023  0.741929  0.642099  1
  Ta  Ta2  1  0.505023  0.258071  0.857901  1
  Ta  Ta3  1  0.494977  0.741929  0.142099  1
  Ni  Ni4  1  0.000000  0.000000  0.000000  1
  Ni  Ni5  1  0.500000  0.000000  0.500000  1
  S  S6  1  0.747192  0.760471  0.400275  1
  S  S7  1  0.247192  0.239529  0.099725  1
  S  S8  1  0.243379  0.774750  0.887759  1
  S  S9  1  0.756621  0.225250  0.112241  1
  S  S10  1  0.508753  0.289547  0.342838  1
  S  S11  1  0.743379  0.225250  0.612241  1
  S  S12  1  0.252808  0.239529  0.599725  1
  S  S13  1  0.752808  0.760471  0.900275  1
  S  S14  1  0.491247  0.710453  0.657162  1
  S  S15  1  0.256621  0.774750  0.387759  1
  S  S16  1  0.991247  0.289547  0.842838  1
  S  S17  1  0.008753  0.710453  0.157162  1
  O  O18  1  0.834262  0.377776  0.106199  1
  O  O19  1  0.329248  0.094016  0.570607  1
  O  O20  1  0.317720  0.394737  0.577023  1
  O  O21  1  0.170752  0.094016  0.070607  1
  O  O22  1  0.334277  0.917503  0.419382  1
  O  O23  1  0.542544  0.816459  0.721881  1
  O  O24  1  0.165738  0.622224  0.893801  1
  O  O25  1  0.165723  0.917503  0.919382  1
  O  O26  1  0.024809  0.782811  0.070144  1
  O  O27  1  0.817720  0.605263  0.922977  1
  O  O28  1  0.670752  0.905984  0.429393  1
  O  O29  1  0.975191  0.217189  0.929856  1
  O  O30  1  0.829248  0.905984  0.929393  1
  O  O31  1  0.475191  0.782811  0.570144  1
  O  O32  1  0.334262  0.622224  0.393801  1
  O  O33  1  0.524809  0.217189  0.429856  1
  O  O34  1  0.182280  0.394737  0.077023  1
  O  O35  1  0.457456  0.183541  0.278119  1
  O  O36  1  0.042544  0.183541  0.778119  1
  O  O37  1  0.957456  0.816459  0.221881  1
  O  O38  1  0.665723  0.082497  0.580618  1
  O  O39  1  0.834277  0.082497  0.080618  1
  O  O40  1  0.682280  0.605263  0.422977  1
  O  O41  1  0.665738  0.377776  0.606199  1
  F  F42  1  0.186982  0.274835  0.408880  1
  F  F43  1  0.493330  0.511204  0.167427  1
  F  F44  1  0.584356  0.776158  0.252218  1
  F  F45  1  0.005049  0.972559  0.618258  1
  F  F46  1  0.506670  0.488796  0.832573  1
  F  F47  1  0.415644  0.223842  0.747782  1
  F  F48  1  0.686982  0.725165  0.091120  1
  F  F49  1  0.915644  0.776158  0.752218  1
  F  F50  1  0.800093  0.242504  0.305272  1
  F  F51  1  0.300093  0.757496  0.194728  1
  F  F52  1  0.084356  0.223842  0.247782  1
  F  F53  1  0.199907  0.757496  0.694728  1
  F  F54  1  0.596113  0.288546  0.967844  1
  F  F55  1  0.096113  0.711454  0.532156  1
  F  F56  1  0.699907  0.242504  0.805272  1
  F  F57  1  0.403887  0.711454  0.032156  1
  F  F58  1  0.994951  0.027441  0.381742  1
  F  F59  1  0.993330  0.488796  0.332573  1
  F  F60  1  0.903887  0.288546  0.467844  1
  F  F61  1  0.505049  0.027441  0.881742  1
  F  F62  1  0.494951  0.972559  0.118258  1
  F  F63  1  0.313018  0.274835  0.908880  1
  F  F64  1  0.813018  0.725165  0.591120  1
  F  F65  1  0.006670  0.511204  0.667427  1
