# generated using pymatgen
data_PrAg3Pd2
_symmetry_space_group_name_H-M   'P 1'
_cell_length_a   5.50564449
_cell_length_b   5.50564428
_cell_length_c   5.50564485
_cell_angle_alpha   120.61058051
_cell_angle_beta   118.78312035
_cell_angle_gamma   90.53309659
_symmetry_Int_Tables_number   1
_chemical_formula_structural   PrAg3Pd2
_chemical_formula_sum   'Pr1 Ag3 Pd2'
_cell_volume   118.50537897
_cell_formula_units_Z   1
loop_
 _symmetry_equiv_pos_site_id
 _symmetry_equiv_pos_as_xyz
  1  'x, y, z'
loop_
 _atom_site_type_symbol
 _atom_site_label
 _atom_site_symmetry_multiplicity
 _atom_site_fract_x
 _atom_site_fract_y
 _atom_site_fract_z
 _atom_site_occupancy
  Pr  Pr0  1  0.005928  0.005928  0.000000  1
  Ag  Ag1  1  0.622263  0.373295  0.751032  1
  Ag  Ag2  1  0.622263  0.871231  0.248968  1
  Ag  Ag3  1  0.252474  0.752474  0.500000  1
  Pd  Pd4  1  0.622586  0.373536  0.249050  1
  Pd  Pd5  1  0.124486  0.373536  0.750950  1
