# generated using pymatgen
data_Tb5Ho5(CoBi2)2
_symmetry_space_group_name_H-M   'P 1'
_cell_length_a   8.00832330
_cell_length_b   8.90558800
_cell_length_c   12.42227202
_cell_angle_alpha   90.00000000
_cell_angle_beta   89.93468673
_cell_angle_gamma   90.00000000
_symmetry_Int_Tables_number   1
_chemical_formula_structural   Tb5Ho5(CoBi2)2
_chemical_formula_sum   'Tb10 Ho10 Co4 Bi8'
_cell_volume   885.94130439
_cell_formula_units_Z   2
loop_
 _symmetry_equiv_pos_site_id
 _symmetry_equiv_pos_as_xyz
  1  'x, y, z'
loop_
 _atom_site_type_symbol
 _atom_site_label
 _atom_site_symmetry_multiplicity
 _atom_site_fract_x
 _atom_site_fract_y
 _atom_site_fract_z
 _atom_site_occupancy
  Tb  Tb0  1  0.346998  0.750000  0.700060  1
  Tb  Tb1  1  0.653002  0.250000  0.299940  1
  Tb  Tb2  1  0.846842  0.250000  0.800499  1
  Tb  Tb3  1  0.153158  0.750000  0.199501  1
  Tb  Tb4  1  0.884524  0.750000  0.810845  1
  Tb  Tb5  1  0.115476  0.250000  0.189155  1
  Tb  Tb6  1  0.384504  0.250000  0.689401  1
  Tb  Tb7  1  0.615496  0.750000  0.310599  1
  Tb  Tb8  1  0.051909  0.750000  0.497919  1
  Tb  Tb9  1  0.948091  0.250000  0.502081  1
  Ho  Ho10  1  0.675323  0.537988  0.562925  1
  Ho  Ho11  1  0.324677  0.462012  0.437075  1
  Ho  Ho12  1  0.175671  0.462129  0.937135  1
  Ho  Ho13  1  0.324677  0.037988  0.437075  1
  Ho  Ho14  1  0.824329  0.537871  0.062865  1
  Ho  Ho15  1  0.675323  0.962012  0.562925  1
  Ho  Ho16  1  0.824329  0.962129  0.062865  1
  Ho  Ho17  1  0.175671  0.037871  0.937135  1
  Ho  Ho18  1  0.552202  0.250000  0.002190  1
  Ho  Ho19  1  0.447798  0.750000  0.997810  1
  Co  Co20  1  0.065954  0.750000  0.991806  1
  Co  Co21  1  0.934046  0.250000  0.008194  1
  Co  Co22  1  0.565396  0.250000  0.508181  1
  Co  Co23  1  0.434604  0.750000  0.491819  1
  Bi  Bi24  1  0.571619  0.509548  0.827303  1
  Bi  Bi25  1  0.428381  0.490452  0.172697  1
  Bi  Bi26  1  0.072019  0.490468  0.673556  1
  Bi  Bi27  1  0.428381  0.009548  0.172697  1
  Bi  Bi28  1  0.927981  0.509532  0.326444  1
  Bi  Bi29  1  0.571619  0.990452  0.827303  1
  Bi  Bi30  1  0.927981  0.990468  0.326444  1
  Bi  Bi31  1  0.072019  0.009532  0.673556  1
