# generated using pymatgen
data_TbDy9(SiBi2)2
_symmetry_space_group_name_H-M   'P 1'
_cell_length_a   8.07885000
_cell_length_b   9.22159600
_cell_length_c   12.06786000
_cell_angle_alpha   90.00000000
_cell_angle_beta   90.00000000
_cell_angle_gamma   90.00000000
_symmetry_Int_Tables_number   1
_chemical_formula_structural   TbDy9(SiBi2)2
_chemical_formula_sum   'Tb2 Dy18 Si4 Bi8'
_cell_volume   899.05425273
_cell_formula_units_Z   2
loop_
 _symmetry_equiv_pos_site_id
 _symmetry_equiv_pos_as_xyz
  1  'x, y, z'
loop_
 _atom_site_type_symbol
 _atom_site_label
 _atom_site_symmetry_multiplicity
 _atom_site_fract_x
 _atom_site_fract_y
 _atom_site_fract_z
 _atom_site_occupancy
  Tb  Tb0  1  0.165680  0.750000  0.212111  1
  Tb  Tb1  1  0.334320  0.750000  0.712111  1
  Dy  Dy2  1  0.821304  0.552826  0.062575  1
  Dy  Dy3  1  0.678696  0.947174  0.562575  1
  Dy  Dy4  1  0.178804  0.052992  0.937498  1
  Dy  Dy5  1  0.321196  0.447008  0.437498  1
  Dy  Dy6  1  0.178804  0.447008  0.937498  1
  Dy  Dy7  1  0.321196  0.052992  0.437498  1
  Dy  Dy8  1  0.821304  0.947174  0.062575  1
  Dy  Dy9  1  0.678696  0.552826  0.562575  1
  Dy  Dy10  1  0.834043  0.250000  0.788010  1
  Dy  Dy11  1  0.665957  0.250000  0.288010  1
  Dy  Dy12  1  0.461301  0.750000  0.001368  1
  Dy  Dy13  1  0.038699  0.750000  0.501368  1
  Dy  Dy14  1  0.539223  0.250000  0.998816  1
  Dy  Dy15  1  0.960777  0.250000  0.498816  1
  Dy  Dy16  1  0.637966  0.750000  0.295024  1
  Dy  Dy17  1  0.862034  0.750000  0.795024  1
  Dy  Dy18  1  0.362537  0.250000  0.704894  1
  Dy  Dy19  1  0.137463  0.250000  0.204894  1
  Si  Si20  1  0.411838  0.750000  0.478005  1
  Si  Si21  1  0.088162  0.750000  0.978005  1
  Si  Si22  1  0.588150  0.250000  0.521357  1
  Si  Si23  1  0.911850  0.250000  0.021357  1
  Bi  Bi24  1  0.932374  0.510230  0.325836  1
  Bi  Bi25  1  0.567626  0.989770  0.825836  1
  Bi  Bi26  1  0.066839  0.010804  0.674300  1
  Bi  Bi27  1  0.433161  0.489196  0.174300  1
  Bi  Bi28  1  0.066839  0.489196  0.674300  1
  Bi  Bi29  1  0.433161  0.010804  0.174300  1
  Bi  Bi30  1  0.932374  0.989770  0.325836  1
  Bi  Bi31  1  0.567626  0.510230  0.825836  1
