# generated using pymatgen
data_Bi3Ru3RhPbO14
_symmetry_space_group_name_H-M   'P 1'
_cell_length_a   7.31733056
_cell_length_b   7.31733022
_cell_length_c   7.31732871
_cell_angle_alpha   60.72733887
_cell_angle_beta   60.72734538
_cell_angle_gamma   60.72734271
_symmetry_Int_Tables_number   1
_chemical_formula_structural   Bi3Ru3RhPbO14
_chemical_formula_sum   'Bi3 Ru3 Rh1 Pb1 O14'
_cell_volume   281.58740206
_cell_formula_units_Z   1
loop_
 _symmetry_equiv_pos_site_id
 _symmetry_equiv_pos_as_xyz
  1  'x, y, z'
loop_
 _atom_site_type_symbol
 _atom_site_label
 _atom_site_symmetry_multiplicity
 _atom_site_fract_x
 _atom_site_fract_y
 _atom_site_fract_z
 _atom_site_occupancy
  Bi  Bi0  1  0.125000  0.125000  0.625000  1
  Bi  Bi1  1  0.125000  0.625000  0.125000  1
  Bi  Bi2  1  0.625000  0.125000  0.125000  1
  Ru  Ru3  1  0.625000  0.625000  0.125000  1
  Ru  Ru4  1  0.625000  0.125000  0.625000  1
  Ru  Ru5  1  0.125000  0.625000  0.625000  1
  Rh  Rh6  1  0.625000  0.625000  0.625000  1
  Pb  Pb7  1  0.125000  0.125000  0.125000  1
  O  O8  1  0.254863  0.254863  0.254863  1
  O  O9  1  0.995137  0.995137  0.995137  1
  O  O10  1  0.543840  0.957953  0.543840  1
  O  O11  1  0.300531  0.698703  0.300531  1
  O  O12  1  0.543840  0.543840  0.957953  1
  O  O13  1  0.957953  0.543840  0.543840  1
  O  O14  1  0.551297  0.949469  0.949469  1
  O  O15  1  0.949469  0.949469  0.551297  1
  O  O16  1  0.949469  0.551297  0.949469  1
  O  O17  1  0.698703  0.300531  0.300531  1
  O  O18  1  0.292047  0.706160  0.706160  1
  O  O19  1  0.706160  0.292047  0.706160  1
  O  O20  1  0.300531  0.300531  0.698703  1
  O  O21  1  0.706160  0.706160  0.292047  1
