# generated using pymatgen
data_Y2Cd(BPt2)3
_symmetry_space_group_name_H-M   'P 1'
_cell_length_a   5.44315427
_cell_length_b   5.40061270
_cell_length_c   7.64562400
_cell_angle_alpha   90.00000000
_cell_angle_beta   90.00000000
_cell_angle_gamma   119.74178691
_symmetry_Int_Tables_number   1
_chemical_formula_structural   Y2Cd(BPt2)3
_chemical_formula_sum   'Y2 Cd1 B3 Pt6'
_cell_volume   195.14677440
_cell_formula_units_Z   1
loop_
 _symmetry_equiv_pos_site_id
 _symmetry_equiv_pos_as_xyz
  1  'x, y, z'
loop_
 _atom_site_type_symbol
 _atom_site_label
 _atom_site_symmetry_multiplicity
 _atom_site_fract_x
 _atom_site_fract_y
 _atom_site_fract_z
 _atom_site_occupancy
  Y  Y0  1  0.500000  0.500000  0.341034  1
  Y  Y1  1  0.500000  0.000000  0.992299  1
  Cd  Cd2  1  0.000000  0.500000  0.666667  1
  B  B3  1  0.000000  0.500000  0.166667  1
  B  B4  1  0.500000  0.500000  0.826355  1
  B  B5  1  0.500000  0.000000  0.506978  1
  Pt  Pt6  1  0.285252  0.142627  0.666667  1
  Pt  Pt7  1  0.153683  0.850373  0.335336  1
  Pt  Pt8  1  0.846317  0.696691  0.997997  1
  Pt  Pt9  1  0.846317  0.149627  0.335336  1
  Pt  Pt10  1  0.153683  0.303309  0.997997  1
  Pt  Pt11  1  0.714748  0.857373  0.666667  1
