# generated using pymatgen
data_YHo19AlBi11
_symmetry_space_group_name_H-M   'P 1'
_cell_length_a   8.20758791
_cell_length_b   9.47301600
_cell_length_c   11.99794200
_cell_angle_alpha   90.00000000
_cell_angle_beta   90.28411398
_cell_angle_gamma   90.00000000
_symmetry_Int_Tables_number   1
_chemical_formula_structural   YHo19AlBi11
_chemical_formula_sum   'Y1 Ho19 Al1 Bi11'
_cell_volume   932.83585926
_cell_formula_units_Z   1
loop_
 _symmetry_equiv_pos_site_id
 _symmetry_equiv_pos_as_xyz
  1  'x, y, z'
loop_
 _atom_site_type_symbol
 _atom_site_label
 _atom_site_symmetry_multiplicity
 _atom_site_fract_x
 _atom_site_fract_y
 _atom_site_fract_z
 _atom_site_occupancy
  Y  Y0  1  0.811221  0.250000  0.280920  1
  Ho  Ho1  1  0.354659  0.750000  0.207181  1
  Ho  Ho2  1  0.852591  0.750000  0.284995  1
  Ho  Ho3  1  0.648240  0.250000  0.784613  1
  Ho  Ho4  1  0.149678  0.250000  0.715605  1
  Ho  Ho5  1  0.685995  0.569413  0.055485  1
  Ho  Ho6  1  0.193829  0.936069  0.440492  1
  Ho  Ho7  1  0.307640  0.052684  0.941243  1
  Ho  Ho8  1  0.806274  0.436256  0.558917  1
  Ho  Ho9  1  0.307640  0.447316  0.941243  1
  Ho  Ho10  1  0.806274  0.063744  0.558917  1
  Ho  Ho11  1  0.685995  0.930587  0.055485  1
  Ho  Ho12  1  0.193829  0.563931  0.440492  1
  Ho  Ho13  1  0.474804  0.250000  0.488599  1
  Ho  Ho14  1  0.977598  0.250000  0.011117  1
  Ho  Ho15  1  0.525717  0.750000  0.511717  1
  Ho  Ho16  1  0.034639  0.750000  0.989150  1
  Ho  Ho17  1  0.312793  0.250000  0.219615  1
  Ho  Ho18  1  0.678645  0.750000  0.786010  1
  Ho  Ho19  1  0.190230  0.750000  0.722621  1
  Al  Al20  1  0.408784  0.750000  0.958462  1
  Bi  Bi21  1  0.908906  0.750000  0.544156  1
  Bi  Bi22  1  0.592319  0.250000  0.042929  1
  Bi  Bi23  1  0.092313  0.250000  0.457394  1
  Bi  Bi24  1  0.564275  0.995376  0.325844  1
  Bi  Bi25  1  0.063915  0.503796  0.175465  1
  Bi  Bi26  1  0.435878  0.496272  0.675270  1
  Bi  Bi27  1  0.935626  0.003871  0.824742  1
  Bi  Bi28  1  0.435878  0.003728  0.675270  1
  Bi  Bi29  1  0.935626  0.496129  0.824742  1
  Bi  Bi30  1  0.564275  0.504624  0.325844  1
  Bi  Bi31  1  0.063915  0.996204  0.175465  1
