# generated using pymatgen
data_DyHf(NiP)3
_symmetry_space_group_name_H-M   'P 1'
_cell_length_a   3.73471800
_cell_length_b   10.15359100
_cell_length_c   12.27971500
_cell_angle_alpha   90.00000000
_cell_angle_beta   90.00000000
_cell_angle_gamma   90.00000000
_symmetry_Int_Tables_number   1
_chemical_formula_structural   DyHf(NiP)3
_chemical_formula_sum   'Dy4 Hf4 Ni12 P12'
_cell_volume   465.65660518
_cell_formula_units_Z   4
loop_
 _symmetry_equiv_pos_site_id
 _symmetry_equiv_pos_as_xyz
  1  'x, y, z'
loop_
 _atom_site_type_symbol
 _atom_site_label
 _atom_site_symmetry_multiplicity
 _atom_site_fract_x
 _atom_site_fract_y
 _atom_site_fract_z
 _atom_site_occupancy
  Dy  Dy0  1  0.250000  0.071207  0.207279  1
  Dy  Dy1  1  0.750000  0.928793  0.792721  1
  Dy  Dy2  1  0.750000  0.571207  0.292721  1
  Dy  Dy3  1  0.250000  0.428793  0.707279  1
  Hf  Hf4  1  0.250000  0.159475  0.497548  1
  Hf  Hf5  1  0.750000  0.840525  0.502452  1
  Hf  Hf6  1  0.750000  0.659475  0.002452  1
  Hf  Hf7  1  0.250000  0.340525  0.997548  1
  Ni  Ni8  1  0.250000  0.728438  0.663940  1
  Ni  Ni9  1  0.750000  0.271562  0.336060  1
  Ni  Ni10  1  0.750000  0.228438  0.836060  1
  Ni  Ni11  1  0.250000  0.771562  0.163940  1
  Ni  Ni12  1  0.250000  0.365588  0.218360  1
  Ni  Ni13  1  0.750000  0.634412  0.781640  1
  Ni  Ni14  1  0.750000  0.865588  0.281640  1
  Ni  Ni15  1  0.250000  0.134412  0.718360  1
  Ni  Ni16  1  0.250000  0.598953  0.483432  1
  Ni  Ni17  1  0.750000  0.401047  0.516568  1
  Ni  Ni18  1  0.750000  0.098953  0.016568  1
  Ni  Ni19  1  0.250000  0.901047  0.983432  1
  P  P20  1  0.250000  0.945110  0.621954  1
  P  P21  1  0.750000  0.054890  0.378046  1
  P  P22  1  0.750000  0.445110  0.878046  1
  P  P23  1  0.250000  0.554890  0.121954  1
  P  P24  1  0.250000  0.393650  0.402809  1
  P  P25  1  0.750000  0.606350  0.597191  1
  P  P26  1  0.750000  0.893650  0.097191  1
  P  P27  1  0.250000  0.106350  0.902809  1
  P  P28  1  0.250000  0.770800  0.355324  1
  P  P29  1  0.750000  0.229200  0.644676  1
  P  P30  1  0.750000  0.270800  0.144676  1
  P  P31  1  0.250000  0.729200  0.855324  1
