# generated using pymatgen
data_ErTm2In3Pt2Au
_symmetry_space_group_name_H-M   'P 1'
_cell_length_a   7.71568836
_cell_length_b   7.70838458
_cell_length_c   3.82415000
_cell_angle_alpha   90.00000000
_cell_angle_beta   90.00000000
_cell_angle_gamma   119.96337092
_symmetry_Int_Tables_number   1
_chemical_formula_structural   ErTm2In3Pt2Au
_chemical_formula_sum   'Er1 Tm2 In3 Pt2 Au1'
_cell_volume   197.04425692
_cell_formula_units_Z   1
loop_
 _symmetry_equiv_pos_site_id
 _symmetry_equiv_pos_as_xyz
  1  'x, y, z'
loop_
 _atom_site_type_symbol
 _atom_site_label
 _atom_site_symmetry_multiplicity
 _atom_site_fract_x
 _atom_site_fract_y
 _atom_site_fract_z
 _atom_site_occupancy
  Er  Er0  1  0.985365  0.590376  0.500000  1
  Tm  Tm1  1  0.605110  0.014693  0.500000  1
  Tm  Tm2  1  0.409561  0.394846  0.500000  1
  In  In3  1  0.736423  0.738273  0.000000  1
  In  In4  1  0.001570  0.263308  0.000000  1
  In  In5  1  0.262065  0.998678  0.000000  1
  Pt  Pt6  1  0.665771  0.332602  0.000000  1
  Pt  Pt7  1  0.000062  0.000398  0.500000  1
  Au  Au8  1  0.334073  0.666824  0.000000  1
