# generated using pymatgen
data_Ga6ReRh
_symmetry_space_group_name_H-M   'P 1'
_cell_length_a   6.59395721
_cell_length_b   6.59395721
_cell_length_c   6.83108200
_cell_angle_alpha   90.00000000
_cell_angle_beta   90.00000000
_cell_angle_gamma   89.48647045
_symmetry_Int_Tables_number   1
_chemical_formula_structural   Ga6ReRh
_chemical_formula_sum   'Ga12 Re2 Rh2'
_cell_volume   297.00537168
_cell_formula_units_Z   2
loop_
 _symmetry_equiv_pos_site_id
 _symmetry_equiv_pos_as_xyz
  1  'x, y, z'
loop_
 _atom_site_type_symbol
 _atom_site_label
 _atom_site_symmetry_multiplicity
 _atom_site_fract_x
 _atom_site_fract_y
 _atom_site_fract_z
 _atom_site_occupancy
  Ga  Ga0  1  0.000000  0.500000  0.500000  1
  Ga  Ga1  1  0.500000  0.000000  0.000000  1
  Ga  Ga2  1  0.500000  0.000000  0.500000  1
  Ga  Ga3  1  0.000000  0.500000  0.000000  1
  Ga  Ga4  1  0.347700  0.652300  0.238282  1
  Ga  Ga5  1  0.652300  0.347700  0.238282  1
  Ga  Ga6  1  0.158223  0.158223  0.732149  1
  Ga  Ga7  1  0.841777  0.841777  0.732149  1
  Ga  Ga8  1  0.652300  0.347700  0.761718  1
  Ga  Ga9  1  0.347700  0.652300  0.761718  1
  Ga  Ga10  1  0.841777  0.841777  0.267851  1
  Ga  Ga11  1  0.158223  0.158223  0.267851  1
  Re  Re12  1  0.161191  0.838809  0.500000  1
  Re  Re13  1  0.838809  0.161191  0.500000  1
  Rh  Rh14  1  0.342575  0.342575  0.000000  1
  Rh  Rh15  1  0.657425  0.657425  0.000000  1
