# generated using pymatgen
data_Gd4NbIO12
_symmetry_space_group_name_H-M   'P 1'
_cell_length_a   5.41533000
_cell_length_b   7.68153396
_cell_length_c   11.47368000
_cell_angle_alpha   76.16215347
_cell_angle_beta   90.00000000
_cell_angle_gamma   90.00000000
_symmetry_Int_Tables_number   1
_chemical_formula_structural   Gd4NbIO12
_chemical_formula_sum   'Gd8 Nb2 I2 O24'
_cell_volume   463.43020508
_cell_formula_units_Z   2
loop_
 _symmetry_equiv_pos_site_id
 _symmetry_equiv_pos_as_xyz
  1  'x, y, z'
loop_
 _atom_site_type_symbol
 _atom_site_label
 _atom_site_symmetry_multiplicity
 _atom_site_fract_x
 _atom_site_fract_y
 _atom_site_fract_z
 _atom_site_occupancy
  Gd  Gd0  1  0.740556  0.985184  0.756309  1
  Gd  Gd1  1  0.259444  0.985184  0.256309  1
  Gd  Gd2  1  0.193314  0.790941  0.576655  1
  Gd  Gd3  1  0.806686  0.790941  0.076655  1
  Gd  Gd4  1  0.690297  0.514876  0.749767  1
  Gd  Gd5  1  0.309703  0.514876  0.249767  1
  Gd  Gd6  1  0.192402  0.201754  0.923954  1
  Gd  Gd7  1  0.807598  0.201754  0.423954  1
  Nb  Nb8  1  0.253770  0.717261  0.890259  1
  Nb  Nb9  1  0.746230  0.717261  0.390259  1
  I  I10  1  0.254186  0.275339  0.615842  1
  I  I11  1  0.745814  0.275339  0.115842  1
  O  O12  1  0.025237  0.944023  0.903730  1
  O  O13  1  0.521876  0.862577  0.929300  1
  O  O14  1  0.974763  0.944023  0.403730  1
  O  O15  1  0.476271  0.782277  0.722041  1
  O  O16  1  0.478124  0.862577  0.429300  1
  O  O17  1  0.983063  0.719313  0.768334  1
  O  O18  1  0.523729  0.782277  0.222041  1
  O  O19  1  0.853825  0.630211  0.552914  1
  O  O20  1  0.365630  0.483082  0.882421  1
  O  O21  1  0.016937  0.719313  0.268334  1
  O  O22  1  0.378592  0.502355  0.608829  1
  O  O23  1  0.859111  0.364237  0.957258  1
  O  O24  1  0.146175  0.630211  0.052914  1
  O  O25  1  0.634370  0.483082  0.382421  1
  O  O26  1  0.985597  0.302437  0.721402  1
  O  O27  1  0.621408  0.502355  0.108829  1
  O  O28  1  0.140889  0.364237  0.457258  1
  O  O29  1  0.437980  0.201926  0.764352  1
  O  O30  1  0.014403  0.302437  0.221402  1
  O  O31  1  0.522856  0.156854  0.565349  1
  O  O32  1  0.562020  0.201926  0.264352  1
  O  O33  1  0.062975  0.065355  0.611285  1
  O  O34  1  0.477144  0.156854  0.065349  1
  O  O35  1  0.937025  0.065355  0.111285  1
