# generated using pymatgen
data_Nd4Ti5Ir9
_symmetry_space_group_name_H-M   'P 1'
_cell_length_a   12.59258240
_cell_length_b   12.59258268
_cell_length_c   12.59258310
_cell_angle_alpha   25.93640818
_cell_angle_beta   25.93641664
_cell_angle_gamma   25.93640999
_symmetry_Int_Tables_number   1
_chemical_formula_structural   Nd4Ti5Ir9
_chemical_formula_sum   'Nd4 Ti5 Ir9'
_cell_volume   336.45534309
_cell_formula_units_Z   1
loop_
 _symmetry_equiv_pos_site_id
 _symmetry_equiv_pos_as_xyz
  1  'x, y, z'
loop_
 _atom_site_type_symbol
 _atom_site_label
 _atom_site_symmetry_multiplicity
 _atom_site_fract_x
 _atom_site_fract_y
 _atom_site_fract_z
 _atom_site_occupancy
  Nd  Nd0  1  0.950803  0.950803  0.950803  1
  Nd  Nd1  1  0.049197  0.049197  0.049197  1
  Nd  Nd2  1  0.853292  0.853292  0.853292  1
  Nd  Nd3  1  0.146708  0.146708  0.146708  1
  Ti  Ti4  1  0.500000  0.500000  0.500000  1
  Ti  Ti5  1  0.721845  0.721845  0.721845  1
  Ti  Ti6  1  0.278155  0.278155  0.278155  1
  Ti  Ti7  1  0.609691  0.609691  0.609691  1
  Ti  Ti8  1  0.390309  0.390309  0.390309  1
  Ir  Ir9  1  0.500000  0.500000  0.000000  1
  Ir  Ir10  1  0.000000  0.500000  0.500000  1
  Ir  Ir11  1  0.500000  0.000000  0.500000  1
  Ir  Ir12  1  0.386944  0.894481  0.386944  1
  Ir  Ir13  1  0.386944  0.386944  0.894481  1
  Ir  Ir14  1  0.894481  0.386944  0.386944  1
  Ir  Ir15  1  0.613056  0.105519  0.613056  1
  Ir  Ir16  1  0.613056  0.613056  0.105519  1
  Ir  Ir17  1  0.105519  0.613056  0.613056  1
