# generated using pymatgen
data_Tl4Os2Cl10O
_symmetry_space_group_name_H-M   'P 1'
_cell_length_a   7.27173250
_cell_length_b   7.27173348
_cell_length_c   10.16066200
_cell_angle_alpha   110.96745778
_cell_angle_beta   110.96746075
_cell_angle_gamma   89.99998937
_symmetry_Int_Tables_number   1
_chemical_formula_structural   Tl4Os2Cl10O
_chemical_formula_sum   'Tl4 Os2 Cl10 O1'
_cell_volume   463.40042754
_cell_formula_units_Z   1
loop_
 _symmetry_equiv_pos_site_id
 _symmetry_equiv_pos_as_xyz
  1  'x, y, z'
loop_
 _atom_site_type_symbol
 _atom_site_label
 _atom_site_symmetry_multiplicity
 _atom_site_fract_x
 _atom_site_fract_y
 _atom_site_fract_z
 _atom_site_occupancy
  Tl  Tl0  1  0.500000  0.000000  0.000000  1
  Tl  Tl1  1  0.000000  0.500000  0.000000  1
  Tl  Tl2  1  0.750000  0.250000  0.500000  1
  Tl  Tl3  1  0.250000  0.750000  0.500000  1
  Os  Os4  1  0.104516  0.104516  0.209032  1
  Os  Os5  1  0.895484  0.895484  0.790969  1
  Cl  Cl6  1  0.345410  0.345410  0.227306  1
  Cl  Cl7  1  0.881897  0.345410  0.227306  1
  Cl  Cl8  1  0.345410  0.881897  0.227306  1
  Cl  Cl9  1  0.881897  0.881897  0.227306  1
  Cl  Cl10  1  0.238391  0.238391  0.476782  1
  Cl  Cl11  1  0.761610  0.761610  0.523218  1
  Cl  Cl12  1  0.118103  0.118103  0.772694  1
  Cl  Cl13  1  0.654590  0.118103  0.772694  1
  Cl  Cl14  1  0.118103  0.654590  0.772694  1
  Cl  Cl15  1  0.654590  0.654590  0.772694  1
  O  O16  1  0.000000  0.000000  0.000000  1
