# generated using pymatgen
data_Zr2Co9B6W
_symmetry_space_group_name_H-M   'P 1'
_cell_length_a   5.67471931
_cell_length_b   5.67472055
_cell_length_c   5.67471965
_cell_angle_alpha   95.69639428
_cell_angle_beta   95.69639987
_cell_angle_gamma   95.69640886
_symmetry_Int_Tables_number   1
_chemical_formula_structural   Zr2Co9B6W
_chemical_formula_sum   'Zr2 Co9 B6 W1'
_cell_volume   179.83757984
_cell_formula_units_Z   1
loop_
 _symmetry_equiv_pos_site_id
 _symmetry_equiv_pos_as_xyz
  1  'x, y, z'
loop_
 _atom_site_type_symbol
 _atom_site_label
 _atom_site_symmetry_multiplicity
 _atom_site_fract_x
 _atom_site_fract_y
 _atom_site_fract_z
 _atom_site_occupancy
  Zr  Zr0  1  0.680684  0.680684  0.680684  1
  Zr  Zr1  1  0.319316  0.319316  0.319316  1
  Co  Co2  1  0.000000  0.000000  0.500000  1
  Co  Co3  1  0.500000  0.000000  0.000000  1
  Co  Co4  1  0.000000  0.500000  0.000000  1
  Co  Co5  1  0.703505  0.199037  0.703505  1
  Co  Co6  1  0.703505  0.703505  0.199037  1
  Co  Co7  1  0.199037  0.703505  0.703505  1
  Co  Co8  1  0.296495  0.800963  0.296495  1
  Co  Co9  1  0.296495  0.296495  0.800963  1
  Co  Co10  1  0.800963  0.296495  0.296495  1
  B  B11  1  0.615588  0.384412  0.000000  1
  B  B12  1  0.000000  0.615588  0.384412  1
  B  B13  1  0.384412  0.000000  0.615588  1
  B  B14  1  0.000000  0.384412  0.615588  1
  B  B15  1  0.615588  0.000000  0.384412  1
  B  B16  1  0.384412  0.615588  0.000000  1
  W  W17  1  0.000000  0.000000  0.000000  1
