# generated using pymatgen
data_LiPr16Cd3Ir4
_symmetry_space_group_name_H-M   'P 1'
_cell_length_a   10.06075867
_cell_length_b   10.06075786
_cell_length_c   10.06075825
_cell_angle_alpha   59.93737809
_cell_angle_beta   59.93737717
_cell_angle_gamma   59.93737864
_symmetry_Int_Tables_number   1
_chemical_formula_structural   LiPr16Cd3Ir4
_chemical_formula_sum   'Li1 Pr16 Cd3 Ir4'
_cell_volume   719.05126172
_cell_formula_units_Z   1
loop_
 _symmetry_equiv_pos_site_id
 _symmetry_equiv_pos_as_xyz
  1  'x, y, z'
loop_
 _atom_site_type_symbol
 _atom_site_label
 _atom_site_symmetry_multiplicity
 _atom_site_fract_x
 _atom_site_fract_y
 _atom_site_fract_z
 _atom_site_occupancy
  Li  Li0  1  0.571536  0.571536  0.571536  1
  Pr  Pr1  1  0.348006  0.348006  0.348006  1
  Pr  Pr2  1  0.347597  0.347597  0.957170  1
  Pr  Pr3  1  0.347597  0.957170  0.347597  1
  Pr  Pr4  1  0.957170  0.347597  0.347597  1
  Pr  Pr5  1  0.809394  0.191470  0.191470  1
  Pr  Pr6  1  0.188034  0.811006  0.811006  1
  Pr  Pr7  1  0.191470  0.809394  0.191470  1
  Pr  Pr8  1  0.811006  0.188034  0.811006  1
  Pr  Pr9  1  0.191470  0.191470  0.809394  1
  Pr  Pr10  1  0.811006  0.811006  0.188034  1
  Pr  Pr11  1  0.939306  0.561517  0.561517  1
  Pr  Pr12  1  0.560772  0.938869  0.938869  1
  Pr  Pr13  1  0.561517  0.939306  0.561517  1
  Pr  Pr14  1  0.938869  0.560772  0.938869  1
  Pr  Pr15  1  0.561517  0.561517  0.939306  1
  Pr  Pr16  1  0.938869  0.938869  0.560772  1
  Cd  Cd17  1  0.580927  0.580927  0.259837  1
  Cd  Cd18  1  0.580927  0.259837  0.580927  1
  Cd  Cd19  1  0.259837  0.580927  0.580927  1
  Ir  Ir20  1  0.141854  0.141854  0.141854  1
  Ir  Ir21  1  0.142583  0.142583  0.576151  1
  Ir  Ir22  1  0.142583  0.576151  0.142583  1
  Ir  Ir23  1  0.576151  0.142583  0.142583  1
