# generated using pymatgen
data_Dy12Tc3Se
_symmetry_space_group_name_H-M   'P 1'
_cell_length_a   6.34069003
_cell_length_b   7.46131991
_cell_length_c   9.18840800
_cell_angle_alpha   90.00000000
_cell_angle_beta   90.00000000
_cell_angle_gamma   89.60398276
_symmetry_Int_Tables_number   1
_chemical_formula_structural   Dy12Tc3Se
_chemical_formula_sum   'Dy12 Tc3 Se1'
_cell_volume   434.69243388
_cell_formula_units_Z   1
loop_
 _symmetry_equiv_pos_site_id
 _symmetry_equiv_pos_as_xyz
  1  'x, y, z'
loop_
 _atom_site_type_symbol
 _atom_site_label
 _atom_site_symmetry_multiplicity
 _atom_site_fract_x
 _atom_site_fract_y
 _atom_site_fract_z
 _atom_site_occupancy
  Dy  Dy0  1  0.329119  0.677984  0.068954  1
  Dy  Dy1  1  0.166886  0.179511  0.434932  1
  Dy  Dy2  1  0.660345  0.308077  0.558502  1
  Dy  Dy3  1  0.850628  0.833877  0.943062  1
  Dy  Dy4  1  0.660345  0.308077  0.941498  1
  Dy  Dy5  1  0.850628  0.833877  0.556938  1
  Dy  Dy6  1  0.329119  0.677984  0.431046  1
  Dy  Dy7  1  0.166886  0.179511  0.065068  1
  Dy  Dy8  1  0.865664  0.539383  0.250000  1
  Dy  Dy9  1  0.619897  0.034094  0.250000  1
  Dy  Dy10  1  0.128632  0.448074  0.750000  1
  Dy  Dy11  1  0.364226  0.979222  0.750000  1
  Tc  Tc12  1  0.034609  0.881324  0.250000  1
  Tc  Tc13  1  0.464662  0.383830  0.250000  1
  Tc  Tc14  1  0.945290  0.116121  0.750000  1
  Se  Se15  1  0.563062  0.619055  0.750000  1
