# generated using pymatgen
data_Nd3Mn2Mo3O14
_symmetry_space_group_name_H-M   'P 1'
_cell_length_a   7.25647673
_cell_length_b   7.25642335
_cell_length_c   7.25644294
_cell_angle_alpha   116.68452121
_cell_angle_beta   63.31526245
_cell_angle_gamma   116.68452909
_symmetry_Int_Tables_number   1
_chemical_formula_structural   Nd3Mn2Mo3O14
_chemical_formula_sum   'Nd3 Mn2 Mo3 O14'
_cell_volume   290.01991702
_cell_formula_units_Z   1
loop_
 _symmetry_equiv_pos_site_id
 _symmetry_equiv_pos_as_xyz
  1  'x, y, z'
loop_
 _atom_site_type_symbol
 _atom_site_label
 _atom_site_symmetry_multiplicity
 _atom_site_fract_x
 _atom_site_fract_y
 _atom_site_fract_z
 _atom_site_occupancy
  Nd  Nd0  1  0.999972  0.499996  0.000013  1
  Nd  Nd1  1  0.500007  0.000002  0.999994  1
  Nd  Nd2  1  0.500044  0.499980  0.499951  1
  Mn  Mn3  1  0.499718  0.500223  0.000170  1
  Mn  Mn4  1  0.000108  0.000134  0.500161  1
  Mo  Mo5  1  0.500022  0.000011  0.500039  1
  Mo  Mo6  1  0.999962  0.500005  0.499993  1
  Mo  Mo7  1  0.000055  0.999963  0.999991  1
  O  O8  1  0.618444  0.381539  0.118426  1
  O  O9  1  0.381550  0.618431  0.881528  1
  O  O10  1  0.079200  0.320476  0.179492  1
  O  O11  1  0.679518  0.920830  0.179503  1
  O  O12  1  0.679513  0.320469  0.579175  1
  O  O13  1  0.920848  0.679495  0.820462  1
  O  O14  1  0.320508  0.079186  0.820480  1
  O  O15  1  0.320490  0.679493  0.420820  1
  O  O16  1  0.650273  0.909229  0.590711  1
  O  O17  1  0.090752  0.349662  0.590718  1
  O  O18  1  0.090746  0.909241  0.150218  1
  O  O19  1  0.349720  0.090723  0.409249  1
  O  O20  1  0.909268  0.650203  0.409237  1
  O  O21  1  0.909281  0.090711  0.849668  1
