# generated using pymatgen
data_TcP4W3O20
_symmetry_space_group_name_H-M   'P 1'
_cell_length_a   5.33453110
_cell_length_b   6.70702747
_cell_length_c   11.39609688
_cell_angle_alpha   89.88694080
_cell_angle_beta   90.14021121
_cell_angle_gamma   89.97959519
_symmetry_Int_Tables_number   1
_chemical_formula_structural   TcP4W3O20
_chemical_formula_sum   'Tc1 P4 W3 O20'
_cell_volume   407.73716086
_cell_formula_units_Z   1
loop_
 _symmetry_equiv_pos_site_id
 _symmetry_equiv_pos_as_xyz
  1  'x, y, z'
loop_
 _atom_site_type_symbol
 _atom_site_label
 _atom_site_symmetry_multiplicity
 _atom_site_fract_x
 _atom_site_fract_y
 _atom_site_fract_z
 _atom_site_occupancy
  Tc  Tc0  1  0.506636  0.323172  0.062051  1
  P  P1  1  0.517528  0.524995  0.341401  1
  P  P2  1  0.018177  0.473754  0.657242  1
  P  P3  1  0.511106  0.973262  0.846989  1
  P  P4  1  0.019092  0.031464  0.153391  1
  W  W5  1  0.003597  0.664803  0.942628  1
  W  W6  1  0.512045  0.169148  0.564056  1
  W  W7  1  0.012394  0.828022  0.434821  1
  O  O8  1  0.223342  0.012853  0.501262  1
  O  O9  1  0.724793  0.987321  0.498152  1
  O  O10  1  0.227589  0.486815  0.006679  1
  O  O11  1  0.729947  0.522057  0.989605  1
  O  O12  1  0.300027  0.666164  0.370615  1
  O  O13  1  0.797471  0.334365  0.633011  1
  O  O14  1  0.291303  0.838416  0.885822  1
  O  O15  1  0.814566  0.172344  0.110718  1
  O  O16  1  0.515124  0.482419  0.210259  1
  O  O17  1  0.017056  0.529298  0.788600  1
  O  O18  1  0.482793  0.010026  0.714644  1
  O  O19  1  0.976493  0.982042  0.283333  1
  O  O20  1  0.001804  0.830576  0.084415  1
  O  O21  1  0.500605  0.175310  0.910041  1
  O  O22  1  0.001265  0.666407  0.586463  1
  O  O23  1  0.497544  0.332390  0.413481  1
  O  O24  1  0.283207  0.118231  0.137447  1
  O  O25  1  0.766012  0.868589  0.869249  1
  O  O26  1  0.267665  0.364683  0.632127  1
  O  O27  1  0.768819  0.631073  0.371497  1
