# generated using pymatgen
data_Nd2Si7(IrRh)6
_symmetry_space_group_name_H-M   'P 1'
_cell_length_a   9.78683700
_cell_length_b   9.78683648
_cell_length_c   3.91802800
_cell_angle_alpha   90.00000000
_cell_angle_beta   90.00000000
_cell_angle_gamma   120.00001189
_symmetry_Int_Tables_number   1
_chemical_formula_structural   Nd2Si7(IrRh)6
_chemical_formula_sum   'Nd2 Si7 Ir6 Rh6'
_cell_volume   324.99958197
_cell_formula_units_Z   1
loop_
 _symmetry_equiv_pos_site_id
 _symmetry_equiv_pos_as_xyz
  1  'x, y, z'
loop_
 _atom_site_type_symbol
 _atom_site_label
 _atom_site_symmetry_multiplicity
 _atom_site_fract_x
 _atom_site_fract_y
 _atom_site_fract_z
 _atom_site_occupancy
  Nd  Nd0  1  0.333333  0.666667  0.750867  1
  Nd  Nd1  1  0.666667  0.333333  0.249133  1
  Si  Si2  1  0.000000  0.000000  0.500000  1
  Si  Si3  1  0.889613  0.599868  0.752294  1
  Si  Si4  1  0.400132  0.289746  0.752294  1
  Si  Si5  1  0.710254  0.110387  0.752294  1
  Si  Si6  1  0.110387  0.400132  0.247706  1
  Si  Si7  1  0.599868  0.710254  0.247706  1
  Si  Si8  1  0.289746  0.889613  0.247706  1
  Ir  Ir9  1  0.619671  0.558652  0.751632  1
  Ir  Ir10  1  0.441348  0.061020  0.751632  1
  Ir  Ir11  1  0.938980  0.380329  0.751632  1
  Ir  Ir12  1  0.380329  0.441348  0.248368  1
  Ir  Ir13  1  0.558652  0.938980  0.248368  1
  Ir  Ir14  1  0.061020  0.619671  0.248368  1
  Rh  Rh15  1  0.116514  0.856624  0.743186  1
  Rh  Rh16  1  0.143376  0.259890  0.743186  1
  Rh  Rh17  1  0.740110  0.883486  0.743186  1
  Rh  Rh18  1  0.883486  0.143376  0.256814  1
  Rh  Rh19  1  0.856624  0.740110  0.256814  1
  Rh  Rh20  1  0.259890  0.116514  0.256814  1
