# generated using pymatgen
data_NaCr2(As2O7)2
_symmetry_space_group_name_H-M   'P 1'
_cell_length_a   4.98286890
_cell_length_b   7.26040401
_cell_length_c   8.16735188
_cell_angle_alpha   90.67451314
_cell_angle_beta   93.08777108
_cell_angle_gamma   105.05723581
_symmetry_Int_Tables_number   1
_chemical_formula_structural   NaCr2(As2O7)2
_chemical_formula_sum   'Na1 Cr2 As4 O14'
_cell_volume   284.81492813
_cell_formula_units_Z   1
loop_
 _symmetry_equiv_pos_site_id
 _symmetry_equiv_pos_as_xyz
  1  'x, y, z'
loop_
 _atom_site_type_symbol
 _atom_site_label
 _atom_site_symmetry_multiplicity
 _atom_site_fract_x
 _atom_site_fract_y
 _atom_site_fract_z
 _atom_site_occupancy
  Na  Na0  1  0.934807  0.993946  0.005953  1
  Cr  Cr1  1  0.499647  0.498679  0.000348  1
  Cr  Cr2  1  0.999045  0.999651  0.500554  1
  As  As3  1  0.025729  0.631212  0.752988  1
  As  As4  1  0.974665  0.369146  0.247516  1
  As  As5  1  0.611011  0.236522  0.690250  1
  As  As6  1  0.388272  0.764819  0.309970  1
  O  O7  1  0.295030  0.535609  0.795040  1
  O  O8  1  0.705027  0.464605  0.206197  1
  O  O9  1  0.788746  0.462400  0.616654  1
  O  O10  1  0.213063  0.537756  0.382567  1
  O  O11  1  0.826807  0.084845  0.687633  1
  O  O12  1  0.169318  0.913925  0.312615  1
  O  O13  1  0.850592  0.674698  0.916959  1
  O  O14  1  0.147029  0.323302  0.083015  1
  O  O15  1  0.332983  0.191537  0.548268  1
  O  O16  1  0.664494  0.809192  0.453203  1
  O  O17  1  0.147978  0.834569  0.647696  1
  O  O18  1  0.851277  0.163891  0.350642  1
  O  O19  1  0.549344  0.255090  0.892025  1
  O  O20  1  0.461436  0.747706  0.109708  1
