# generated using pymatgen
data_Dy4AlGaSi2
_symmetry_space_group_name_H-M   'P 1'
_cell_length_a   3.96943600
_cell_length_b   5.80570593
_cell_length_c   8.02621403
_cell_angle_alpha   90.06207583
_cell_angle_beta   90.00000000
_cell_angle_gamma   90.00000000
_symmetry_Int_Tables_number   1
_chemical_formula_structural   Dy4AlGaSi2
_chemical_formula_sum   'Dy4 Al1 Ga1 Si2'
_cell_volume   184.96702848
_cell_formula_units_Z   1
loop_
 _symmetry_equiv_pos_site_id
 _symmetry_equiv_pos_as_xyz
  1  'x, y, z'
loop_
 _atom_site_type_symbol
 _atom_site_label
 _atom_site_symmetry_multiplicity
 _atom_site_fract_x
 _atom_site_fract_y
 _atom_site_fract_z
 _atom_site_occupancy
  Dy  Dy0  1  0.250000  0.380301  0.678384  1
  Dy  Dy1  1  0.250000  0.120397  0.179475  1
  Dy  Dy2  1  0.750000  0.611059  0.324249  1
  Dy  Dy3  1  0.750000  0.891665  0.819321  1
  Al  Al4  1  0.250000  0.627516  0.036361  1
  Ga  Ga5  1  0.250000  0.868470  0.538006  1
  Si  Si6  1  0.750000  0.127386  0.462677  1
  Si  Si7  1  0.750000  0.373206  0.961523  1
