# generated using pymatgen
data_Sm3Th(Ta3Si4)2
_symmetry_space_group_name_H-M   'P 1'
_cell_length_a   6.95431490
_cell_length_b   7.17080644
_cell_length_c   13.49323596
_cell_angle_alpha   90.12586510
_cell_angle_beta   90.25202444
_cell_angle_gamma   90.02287082
_symmetry_Int_Tables_number   1
_chemical_formula_structural   Sm3Th(Ta3Si4)2
_chemical_formula_sum   'Sm6 Th2 Ta12 Si16'
_cell_volume   672.87312312
_cell_formula_units_Z   2
loop_
 _symmetry_equiv_pos_site_id
 _symmetry_equiv_pos_as_xyz
  1  'x, y, z'
loop_
 _atom_site_type_symbol
 _atom_site_label
 _atom_site_symmetry_multiplicity
 _atom_site_fract_x
 _atom_site_fract_y
 _atom_site_fract_z
 _atom_site_occupancy
  Sm  Sm0  1  0.496909  0.669708  0.902825  1
  Sm  Sm1  1  0.994350  0.829647  0.595824  1
  Sm  Sm2  1  0.503091  0.330292  0.097175  1
  Sm  Sm3  1  0.005650  0.170353  0.404176  1
  Sm  Sm4  1  0.504879  0.329854  0.405057  1
  Sm  Sm5  1  0.495121  0.670146  0.594943  1
  Th  Th6  1  0.004498  0.169703  0.095784  1
  Th  Th7  1  0.995502  0.830297  0.904216  1
  Ta  Ta8  1  0.160121  0.489786  0.750631  1
  Ta  Ta9  1  0.839879  0.510214  0.249369  1
  Ta  Ta10  1  0.338868  0.987535  0.250328  1
  Ta  Ta11  1  0.661132  0.012465  0.749672  1
  Ta  Ta12  1  0.336331  0.175240  0.625806  1
  Ta  Ta13  1  0.663669  0.824760  0.374194  1
  Ta  Ta14  1  0.164792  0.673848  0.374407  1
  Ta  Ta15  1  0.666250  0.827542  0.126134  1
  Ta  Ta16  1  0.835208  0.326152  0.625593  1
  Ta  Ta17  1  0.333750  0.172458  0.873866  1
  Ta  Ta18  1  0.836845  0.325773  0.873991  1
  Ta  Ta19  1  0.163155  0.674227  0.126009  1
  Si  Si20  1  0.038477  0.126924  0.748282  1
  Si  Si21  1  0.961523  0.873076  0.251718  1
  Si  Si22  1  0.461589  0.626351  0.250107  1
  Si  Si23  1  0.538411  0.373649  0.749893  1
  Si  Si24  1  0.298036  0.880247  0.747857  1
  Si  Si25  1  0.701964  0.119753  0.252143  1
  Si  Si26  1  0.205541  0.380894  0.251840  1
  Si  Si27  1  0.794459  0.619106  0.748160  1
  Si  Si28  1  0.159680  0.461636  0.543019  1
  Si  Si29  1  0.840320  0.538364  0.456981  1
  Si  Si30  1  0.340101  0.961867  0.457187  1
  Si  Si31  1  0.835443  0.540629  0.043789  1
  Si  Si32  1  0.659899  0.038133  0.542813  1
  Si  Si33  1  0.164557  0.459371  0.956211  1
  Si  Si34  1  0.656405  0.041662  0.956674  1
  Si  Si35  1  0.343595  0.958338  0.043326  1
