# generated using pymatgen
data_Dy2Lu3(In2Pd)2
_symmetry_space_group_name_H-M   'P 1'
_cell_length_a   3.57779300
_cell_length_b   8.12746135
_cell_length_c   18.08454454
_cell_angle_alpha   89.74780439
_cell_angle_beta   90.00000000
_cell_angle_gamma   90.00000000
_symmetry_Int_Tables_number   1
_chemical_formula_structural   Dy2Lu3(In2Pd)2
_chemical_formula_sum   'Dy4 Lu6 In8 Pd4'
_cell_volume   525.86406158
_cell_formula_units_Z   2
loop_
 _symmetry_equiv_pos_site_id
 _symmetry_equiv_pos_as_xyz
  1  'x, y, z'
loop_
 _atom_site_type_symbol
 _atom_site_label
 _atom_site_symmetry_multiplicity
 _atom_site_fract_x
 _atom_site_fract_y
 _atom_site_fract_z
 _atom_site_occupancy
  Dy  Dy0  1  0.000000  0.500000  0.500000  1
  Dy  Dy1  1  0.000000  0.000000  0.000000  1
  Dy  Dy2  1  0.000000  0.738608  0.282103  1
  Dy  Dy3  1  0.000000  0.261392  0.717897  1
  Lu  Lu4  1  0.000000  0.761550  0.781546  1
  Lu  Lu5  1  0.000000  0.238450  0.218454  1
  Lu  Lu6  1  0.000000  0.616683  0.084513  1
  Lu  Lu7  1  0.000000  0.383317  0.915487  1
  Lu  Lu8  1  0.000000  0.880847  0.584910  1
  Lu  Lu9  1  0.000000  0.119153  0.415090  1
  In  In10  1  0.500000  0.705623  0.933827  1
  In  In11  1  0.500000  0.294377  0.066173  1
  In  In12  1  0.500000  0.798395  0.435119  1
  In  In13  1  0.500000  0.201605  0.564881  1
  In  In14  1  0.500000  0.583320  0.650772  1
  In  In15  1  0.500000  0.416680  0.349228  1
  In  In16  1  0.500000  0.917907  0.150196  1
  In  In17  1  0.500000  0.082093  0.849804  1
  Pd  Pd18  1  0.500000  0.518949  0.194371  1
  Pd  Pd19  1  0.500000  0.481051  0.805629  1
  Pd  Pd20  1  0.500000  0.972366  0.695864  1
  Pd  Pd21  1  0.500000  0.027634  0.304136  1
