# generated using pymatgen
data_Tb9Ho3Tc4
_symmetry_space_group_name_H-M   'P 1'
_cell_length_a   6.28821094
_cell_length_b   7.41357083
_cell_length_c   9.22214379
_cell_angle_alpha   90.04126951
_cell_angle_beta   89.73852711
_cell_angle_gamma   89.96053027
_symmetry_Int_Tables_number   1
_chemical_formula_structural   Tb9Ho3Tc4
_chemical_formula_sum   'Tb9 Ho3 Tc4'
_cell_volume   429.91410442
_cell_formula_units_Z   1
loop_
 _symmetry_equiv_pos_site_id
 _symmetry_equiv_pos_as_xyz
  1  'x, y, z'
loop_
 _atom_site_type_symbol
 _atom_site_label
 _atom_site_symmetry_multiplicity
 _atom_site_fract_x
 _atom_site_fract_y
 _atom_site_fract_z
 _atom_site_occupancy
  Tb  Tb0  1  0.662447  0.176125  0.062884  1
  Tb  Tb1  1  0.370441  0.543272  0.249325  1
  Tb  Tb2  1  0.128840  0.042519  0.249631  1
  Tb  Tb3  1  0.838160  0.676317  0.436579  1
  Tb  Tb4  1  0.337204  0.823646  0.936448  1
  Tb  Tb5  1  0.163098  0.323298  0.563752  1
  Tb  Tb6  1  0.663326  0.175599  0.437213  1
  Tb  Tb7  1  0.871833  0.957046  0.750048  1
  Tb  Tb8  1  0.628459  0.457596  0.750755  1
  Ho  Ho9  1  0.161535  0.324432  0.937475  1
  Ho  Ho10  1  0.337123  0.824923  0.562984  1
  Ho  Ho11  1  0.837609  0.675695  0.062633  1
  Tc  Tc12  1  0.960428  0.387404  0.248101  1
  Tc  Tc13  1  0.458254  0.113112  0.750633  1
  Tc  Tc14  1  0.540140  0.886338  0.250992  1
  Tc  Tc15  1  0.041103  0.612679  0.750549  1
