# generated using pymatgen
data_Hf6Ti4(GaGe)3
_symmetry_space_group_name_H-M   'P 1'
_cell_length_a   7.87808780
_cell_length_b   7.85714488
_cell_length_c   5.39224300
_cell_angle_alpha   90.00000000
_cell_angle_beta   90.00000000
_cell_angle_gamma   120.12446696
_symmetry_Int_Tables_number   1
_chemical_formula_structural   Hf6Ti4(GaGe)3
_chemical_formula_sum   'Hf6 Ti4 Ga3 Ge3'
_cell_volume   288.69522477
_cell_formula_units_Z   1
loop_
 _symmetry_equiv_pos_site_id
 _symmetry_equiv_pos_as_xyz
  1  'x, y, z'
loop_
 _atom_site_type_symbol
 _atom_site_label
 _atom_site_symmetry_multiplicity
 _atom_site_fract_x
 _atom_site_fract_y
 _atom_site_fract_z
 _atom_site_occupancy
  Hf  Hf0  1  0.249806  0.000566  0.250000  1
  Hf  Hf1  1  0.750255  0.998438  0.750000  1
  Hf  Hf2  1  0.002928  0.246164  0.250000  1
  Hf  Hf3  1  0.997306  0.752385  0.750000  1
  Hf  Hf4  1  0.757982  0.755833  0.250000  1
  Hf  Hf5  1  0.241834  0.243253  0.750000  1
  Ti  Ti6  1  0.333047  0.669214  0.999639  1
  Ti  Ti7  1  0.666977  0.332393  0.999668  1
  Ti  Ti8  1  0.666977  0.332393  0.500332  1
  Ti  Ti9  1  0.333047  0.669214  0.500361  1
  Ga  Ga10  1  0.999767  0.396994  0.750000  1
  Ga  Ga11  1  0.400521  0.400709  0.250000  1
  Ga  Ga12  1  0.598702  0.599290  0.750000  1
  Ge  Ge13  1  0.606987  0.000282  0.250000  1
  Ge  Ge14  1  0.394129  0.000808  0.750000  1
  Ge  Ge15  1  0.999736  0.602063  0.250000  1
