# generated using pymatgen
data_Sr2Cr(PO4)2
_symmetry_space_group_name_H-M   'P 1'
_cell_length_a   6.42134781
_cell_length_b   6.42134745
_cell_length_c   6.64457413
_cell_angle_alpha   75.62848379
_cell_angle_beta   75.62848724
_cell_angle_gamma   48.12294857
_symmetry_Int_Tables_number   1
_chemical_formula_structural   Sr2Cr(PO4)2
_chemical_formula_sum   'Sr2 Cr1 P2 O8'
_cell_volume   196.31861541
_cell_formula_units_Z   1
loop_
 _symmetry_equiv_pos_site_id
 _symmetry_equiv_pos_as_xyz
  1  'x, y, z'
loop_
 _atom_site_type_symbol
 _atom_site_label
 _atom_site_symmetry_multiplicity
 _atom_site_fract_x
 _atom_site_fract_y
 _atom_site_fract_z
 _atom_site_occupancy
  Sr  Sr0  1  0.829162  0.829162  0.215530  1
  Sr  Sr1  1  0.170838  0.170838  0.784470  1
  Cr  Cr2  1  0.500000  0.500000  0.500000  1
  P  P3  1  0.145971  0.145971  0.288044  1
  P  P4  1  0.854029  0.854029  0.711956  1
  O  O5  1  0.105376  0.625396  0.565542  1
  O  O6  1  0.374604  0.894624  0.434458  1
  O  O7  1  0.894624  0.374604  0.434458  1
  O  O8  1  0.625396  0.105376  0.565542  1
  O  O9  1  0.271904  0.271904  0.135474  1
  O  O10  1  0.949422  0.949422  0.831019  1
  O  O11  1  0.050578  0.050578  0.168981  1
  O  O12  1  0.728096  0.728096  0.864526  1
