# generated using pymatgen
data_Zr10CdSnBi4
_symmetry_space_group_name_H-M   'P 1'
_cell_length_a   5.69599662
_cell_length_b   8.58144408
_cell_length_c   8.58144426
_cell_angle_alpha   83.67641134
_cell_angle_beta   70.61714587
_cell_angle_gamma   70.61714337
_symmetry_Int_Tables_number   1
_chemical_formula_structural   Zr10CdSnBi4
_chemical_formula_sum   'Zr10 Cd1 Sn1 Bi4'
_cell_volume   373.25911272
_cell_formula_units_Z   1
loop_
 _symmetry_equiv_pos_site_id
 _symmetry_equiv_pos_as_xyz
  1  'x, y, z'
loop_
 _atom_site_type_symbol
 _atom_site_label
 _atom_site_symmetry_multiplicity
 _atom_site_fract_x
 _atom_site_fract_y
 _atom_site_fract_z
 _atom_site_occupancy
  Zr  Zr0  1  0.250000  0.500000  0.500000  1
  Zr  Zr1  1  0.750000  0.500000  0.500000  1
  Zr  Zr2  1  0.076113  0.144705  0.703491  1
  Zr  Zr3  1  0.924309  0.855295  0.296509  1
  Zr  Zr4  1  0.779604  0.296509  0.144705  1
  Zr  Zr5  1  0.423887  0.296509  0.855295  1
  Zr  Zr6  1  0.220818  0.703491  0.855295  1
  Zr  Zr7  1  0.575691  0.703491  0.144705  1
  Zr  Zr8  1  0.720396  0.855295  0.703491  1
  Zr  Zr9  1  0.279182  0.144705  0.296509  1
  Cd  Cd10  1  0.750000  0.000000  0.000000  1
  Sn  Sn11  1  0.250000  0.000000  0.000000  1
  Bi  Bi12  1  0.164897  0.500000  0.170207  1
  Bi  Bi13  1  0.835103  0.500000  0.829793  1
  Bi  Bi14  1  0.335103  0.829793  0.500000  1
  Bi  Bi15  1  0.664897  0.170207  0.500000  1
