# generated using pymatgen
data_Sr4Yb3Tm3Pt8
_symmetry_space_group_name_H-M   'P 1'
_cell_length_a   7.68519600
_cell_length_b   7.80708286
_cell_length_c   14.79927554
_cell_angle_alpha   90.07917241
_cell_angle_beta   90.00000000
_cell_angle_gamma   90.00000000
_symmetry_Int_Tables_number   1
_chemical_formula_structural   Sr4Yb3Tm3Pt8
_chemical_formula_sum   'Sr8 Yb6 Tm6 Pt16'
_cell_volume   887.94032246
_cell_formula_units_Z   2
loop_
 _symmetry_equiv_pos_site_id
 _symmetry_equiv_pos_as_xyz
  1  'x, y, z'
loop_
 _atom_site_type_symbol
 _atom_site_label
 _atom_site_symmetry_multiplicity
 _atom_site_fract_x
 _atom_site_fract_y
 _atom_site_fract_z
 _atom_site_occupancy
  Sr  Sr0  1  0.500179  0.325935  0.903613  1
  Sr  Sr1  1  0.000179  0.174065  0.596387  1
  Sr  Sr2  1  0.500208  0.676505  0.405258  1
  Sr  Sr3  1  0.000208  0.823495  0.094742  1
  Sr  Sr4  1  0.499977  0.675419  0.095528  1
  Sr  Sr5  1  0.999977  0.824581  0.404472  1
  Sr  Sr6  1  0.500100  0.323935  0.596728  1
  Sr  Sr7  1  0.000100  0.176065  0.903272  1
  Yb  Yb8  1  0.339841  0.832756  0.622809  1
  Yb  Yb9  1  0.839841  0.667244  0.877191  1
  Yb  Yb10  1  0.177834  0.495640  0.750087  1
  Yb  Yb11  1  0.677834  0.004360  0.749913  1
  Yb  Yb12  1  0.821273  0.507171  0.250143  1
  Yb  Yb13  1  0.321273  0.992829  0.249857  1
  Tm  Tm14  1  0.340386  0.833797  0.875665  1
  Tm  Tm15  1  0.840386  0.666203  0.624335  1
  Tm  Tm16  1  0.659166  0.167652  0.375650  1
  Tm  Tm17  1  0.159166  0.332348  0.124350  1
  Tm  Tm18  1  0.660226  0.166804  0.124184  1
  Tm  Tm19  1  0.160226  0.333196  0.375816  1
  Pt  Pt20  1  0.333752  0.048124  0.044128  1
  Pt  Pt21  1  0.833752  0.451876  0.455872  1
  Pt  Pt22  1  0.669694  0.954329  0.541426  1
  Pt  Pt23  1  0.169694  0.545671  0.958574  1
  Pt  Pt24  1  0.659033  0.961801  0.958338  1
  Pt  Pt25  1  0.159033  0.538199  0.541662  1
  Pt  Pt26  1  0.339341  0.051176  0.453204  1
  Pt  Pt27  1  0.839341  0.448824  0.046796  1
  Pt  Pt28  1  0.545908  0.635529  0.752059  1
  Pt  Pt29  1  0.045908  0.864471  0.747941  1
  Pt  Pt30  1  0.454628  0.361194  0.249355  1
  Pt  Pt31  1  0.954628  0.138806  0.250645  1
  Pt  Pt32  1  0.302466  0.118803  0.753494  1
  Pt  Pt33  1  0.802466  0.381197  0.746506  1
  Pt  Pt34  1  0.695990  0.885938  0.249939  1
  Pt  Pt35  1  0.195990  0.614062  0.250061  1
