# generated using pymatgen
data_Sn3Bi4MoO14
_symmetry_space_group_name_H-M   'P 1'
_cell_length_a   7.67147982
_cell_length_b   7.72023703
_cell_length_c   7.75394700
_cell_angle_alpha   59.61945804
_cell_angle_beta   59.89075815
_cell_angle_gamma   89.71363157
_symmetry_Int_Tables_number   1
_chemical_formula_structural   Sn3Bi4MoO14
_chemical_formula_sum   'Sn3 Bi4 Mo1 O14'
_cell_volume   323.12621018
_cell_formula_units_Z   1
loop_
 _symmetry_equiv_pos_site_id
 _symmetry_equiv_pos_as_xyz
  1  'x, y, z'
loop_
 _atom_site_type_symbol
 _atom_site_label
 _atom_site_symmetry_multiplicity
 _atom_site_fract_x
 _atom_site_fract_y
 _atom_site_fract_z
 _atom_site_occupancy
  Sn  Sn0  1  0.120344  0.879212  0.755347  1
  Sn  Sn1  1  0.121098  0.874484  0.254998  1
  Sn  Sn2  1  0.122493  0.375519  0.753254  1
  Bi  Bi3  1  0.644424  0.433804  0.691108  1
  Bi  Bi4  1  0.125943  0.405287  0.193751  1
  Bi  Bi5  1  0.658421  0.879854  0.766477  1
  Bi  Bi6  1  0.588175  0.322170  0.282433  1
  Mo  Mo7  1  0.617496  0.882924  0.245817  1
  O  O8  1  0.793909  0.192578  0.032343  1
  O  O9  1  0.513950  0.513956  0.969126  1
  O  O10  1  0.217019  0.204793  0.602015  1
  O  O11  1  0.444672  0.923975  0.110361  1
  O  O12  1  0.193825  0.204357  0.014769  1
  O  O13  1  0.442831  0.969533  0.486594  1
  O  O14  1  0.452638  0.555971  0.509940  1
  O  O15  1  0.028990  0.940739  0.518219  1
  O  O16  1  0.756475  0.259110  0.473733  1
  O  O17  1  0.024082  0.543953  0.525836  1
  O  O18  1  0.796013  0.821139  0.982069  1
  O  O19  1  0.060443  0.551702  0.904536  1
  O  O20  1  0.790192  0.790717  0.405667  1
  O  O21  1  0.179570  0.781222  0.021608  1
