# generated using pymatgen
data_NdDy(CoB)8
_symmetry_space_group_name_H-M   'P 1'
_cell_length_a   7.02043500
_cell_length_b   7.02043500
_cell_length_c   3.80832500
_cell_angle_alpha   90.00000000
_cell_angle_beta   90.00000000
_cell_angle_gamma   90.00000000
_symmetry_Int_Tables_number   1
_chemical_formula_structural   NdDy(CoB)8
_chemical_formula_sum   'Nd1 Dy1 Co8 B8'
_cell_volume   187.69903901
_cell_formula_units_Z   1
loop_
 _symmetry_equiv_pos_site_id
 _symmetry_equiv_pos_as_xyz
  1  'x, y, z'
loop_
 _atom_site_type_symbol
 _atom_site_label
 _atom_site_symmetry_multiplicity
 _atom_site_fract_x
 _atom_site_fract_y
 _atom_site_fract_z
 _atom_site_occupancy
  Nd  Nd0  1  0.500000  0.500000  0.500000  1
  Dy  Dy1  1  0.000000  0.000000  0.000000  1
  Co  Co2  1  0.355126  0.884727  0.392487  1
  Co  Co3  1  0.618424  0.860324  0.891798  1
  Co  Co4  1  0.644874  0.115273  0.392487  1
  Co  Co5  1  0.139676  0.618424  0.108202  1
  Co  Co6  1  0.884727  0.644874  0.607513  1
  Co  Co7  1  0.860324  0.381576  0.108202  1
  Co  Co8  1  0.381576  0.139676  0.891798  1
  Co  Co9  1  0.115273  0.355126  0.607513  1
  B  B10  1  0.839544  0.292930  0.606093  1
  B  B11  1  0.160456  0.707070  0.606093  1
  B  B12  1  0.801375  0.663774  0.103397  1
  B  B13  1  0.336226  0.801375  0.896603  1
  B  B14  1  0.663774  0.198625  0.896603  1
  B  B15  1  0.292930  0.160456  0.393907  1
  B  B16  1  0.707070  0.839544  0.393907  1
  B  B17  1  0.198625  0.336226  0.103397  1
