# generated using pymatgen
data_LiDyHo2ZnIn3Rh
_symmetry_space_group_name_H-M   'P 1'
_cell_length_a   7.89133312
_cell_length_b   7.88558754
_cell_length_c   3.66120800
_cell_angle_alpha   90.00000000
_cell_angle_beta   90.00000000
_cell_angle_gamma   120.00427120
_symmetry_Int_Tables_number   1
_chemical_formula_structural   LiDyHo2ZnIn3Rh
_chemical_formula_sum   'Li1 Dy1 Ho2 Zn1 In3 Rh1'
_cell_volume   197.29713327
_cell_formula_units_Z   1
loop_
 _symmetry_equiv_pos_site_id
 _symmetry_equiv_pos_as_xyz
  1  'x, y, z'
loop_
 _atom_site_type_symbol
 _atom_site_label
 _atom_site_symmetry_multiplicity
 _atom_site_fract_x
 _atom_site_fract_y
 _atom_site_fract_z
 _atom_site_occupancy
  Li  Li0  1  0.999953  0.999932  0.500000  1
  Dy  Dy1  1  0.975539  0.394800  0.500000  1
  Ho  Ho2  1  0.605250  0.580501  0.500000  1
  Ho  Ho3  1  0.419424  0.024724  0.500000  1
  Zn  Zn4  1  0.333609  0.666821  0.000000  1
  In  In5  1  0.258633  0.267214  0.000000  1
  In  In6  1  0.009107  0.742313  0.000000  1
  In  In7  1  0.732434  0.990613  0.000000  1
  Rh  Rh8  1  0.666054  0.333081  0.000000  1
