# generated using pymatgen
data_Rb4MnW3N8
_symmetry_space_group_name_H-M   'P 1'
_cell_length_a   6.05540900
_cell_length_b   8.61029100
_cell_length_c   12.35536700
_cell_angle_alpha   90.00000000
_cell_angle_beta   90.00000000
_cell_angle_gamma   90.00000000
_symmetry_Int_Tables_number   1
_chemical_formula_structural   Rb4MnW3N8
_chemical_formula_sum   'Rb8 Mn2 W6 N16'
_cell_volume   644.19442425
_cell_formula_units_Z   2
loop_
 _symmetry_equiv_pos_site_id
 _symmetry_equiv_pos_as_xyz
  1  'x, y, z'
loop_
 _atom_site_type_symbol
 _atom_site_label
 _atom_site_symmetry_multiplicity
 _atom_site_fract_x
 _atom_site_fract_y
 _atom_site_fract_z
 _atom_site_occupancy
  Rb  Rb0  1  0.750000  0.103596  0.000000  1
  Rb  Rb1  1  0.250000  0.896404  0.500000  1
  Rb  Rb2  1  0.250000  0.811652  0.000000  1
  Rb  Rb3  1  0.750000  0.188348  0.500000  1
  Rb  Rb4  1  0.696442  0.394397  0.219160  1
  Rb  Rb5  1  0.196442  0.605603  0.280840  1
  Rb  Rb6  1  0.303558  0.605603  0.719160  1
  Rb  Rb7  1  0.803558  0.394397  0.780840  1
  Mn  Mn8  1  0.750000  0.636667  0.000000  1
  Mn  Mn9  1  0.250000  0.363333  0.500000  1
  W  W10  1  0.250000  0.372107  0.000000  1
  W  W11  1  0.750000  0.627893  0.500000  1
  W  W12  1  0.203515  0.116702  0.249607  1
  W  W13  1  0.703515  0.883298  0.250393  1
  W  W14  1  0.796485  0.883298  0.749607  1
  W  W15  1  0.296485  0.116702  0.750393  1
  N  N16  1  0.895568  0.060232  0.253301  1
  N  N17  1  0.395568  0.939768  0.246699  1
  N  N18  1  0.104432  0.939768  0.753301  1
  N  N19  1  0.604432  0.060232  0.746699  1
  N  N20  1  0.256810  0.229803  0.370340  1
  N  N21  1  0.756810  0.770197  0.129660  1
  N  N22  1  0.743190  0.770197  0.870340  1
  N  N23  1  0.243190  0.229803  0.629660  1
  N  N24  1  0.743637  0.756067  0.628796  1
  N  N25  1  0.243637  0.243933  0.871204  1
  N  N26  1  0.256363  0.243933  0.128796  1
  N  N27  1  0.756363  0.756067  0.371204  1
  N  N28  1  0.504240  0.505379  0.499055  1
  N  N29  1  0.004240  0.494621  0.000945  1
  N  N30  1  0.495760  0.494621  0.999055  1
  N  N31  1  0.995760  0.505379  0.500945  1
