# generated using pymatgen
data_Dy17Er(MgIr6)2
_symmetry_space_group_name_H-M   'P 1'
_cell_length_a   10.79167800
_cell_length_b   10.79167800
_cell_length_c   6.31152400
_cell_angle_alpha   90.00000000
_cell_angle_beta   90.00000000
_cell_angle_gamma   90.00000000
_symmetry_Int_Tables_number   1
_chemical_formula_structural   Dy17Er(MgIr6)2
_chemical_formula_sum   'Dy17 Er1 Mg2 Ir12'
_cell_volume   735.04206721
_cell_formula_units_Z   1
loop_
 _symmetry_equiv_pos_site_id
 _symmetry_equiv_pos_as_xyz
  1  'x, y, z'
loop_
 _atom_site_type_symbol
 _atom_site_label
 _atom_site_symmetry_multiplicity
 _atom_site_fract_x
 _atom_site_fract_y
 _atom_site_fract_z
 _atom_site_occupancy
  Dy  Dy0  1  0.291059  0.089180  0.381358  1
  Dy  Dy1  1  0.284580  0.915609  0.878637  1
  Dy  Dy2  1  0.715420  0.084391  0.878637  1
  Dy  Dy3  1  0.708941  0.910820  0.381358  1
  Dy  Dy4  1  0.584616  0.784719  0.878525  1
  Dy  Dy5  1  0.589335  0.207987  0.380949  1
  Dy  Dy6  1  0.410665  0.792013  0.380949  1
  Dy  Dy7  1  0.415384  0.215281  0.878525  1
  Dy  Dy8  1  0.207987  0.410665  0.619051  1
  Dy  Dy9  1  0.215281  0.584616  0.121475  1
  Dy  Dy10  1  0.784719  0.415384  0.121475  1
  Dy  Dy11  1  0.792013  0.589335  0.619051  1
  Dy  Dy12  1  0.915609  0.715420  0.121363  1
  Dy  Dy13  1  0.910820  0.291059  0.618642  1
  Dy  Dy14  1  0.089180  0.708941  0.618642  1
  Dy  Dy15  1  0.084391  0.284580  0.121363  1
  Dy  Dy16  1  0.500000  0.500000  0.500000  1
  Er  Er17  1  0.000000  0.000000  0.500000  1
  Mg  Mg18  1  0.000000  0.000000  0.000000  1
  Mg  Mg19  1  0.500000  0.500000  0.000000  1
  Ir  Ir20  1  0.846181  0.152682  0.251165  1
  Ir  Ir21  1  0.847318  0.846181  0.748835  1
  Ir  Ir22  1  0.152682  0.153819  0.748835  1
  Ir  Ir23  1  0.153819  0.847318  0.251165  1
  Ir  Ir24  1  0.654997  0.346636  0.748613  1
  Ir  Ir25  1  0.653364  0.654997  0.251387  1
  Ir  Ir26  1  0.346636  0.345003  0.251387  1
  Ir  Ir27  1  0.345003  0.653364  0.748613  1
  Ir  Ir28  1  0.500000  0.000000  0.119407  1
  Ir  Ir29  1  0.500000  0.000000  0.628616  1
  Ir  Ir30  1  0.000000  0.500000  0.880593  1
  Ir  Ir31  1  0.000000  0.500000  0.371384  1
