# generated using pymatgen
data_La8Al7GaPt7Rh
_symmetry_space_group_name_H-M   'P 1'
_cell_length_a   4.29305000
_cell_length_b   7.33612409
_cell_length_c   16.66435603
_cell_angle_alpha   89.49647329
_cell_angle_beta   90.00000000
_cell_angle_gamma   90.00000000
_symmetry_Int_Tables_number   1
_chemical_formula_structural   La8Al7GaPt7Rh
_chemical_formula_sum   'La8 Al7 Ga1 Pt7 Rh1'
_cell_volume   524.81275327
_cell_formula_units_Z   1
loop_
 _symmetry_equiv_pos_site_id
 _symmetry_equiv_pos_as_xyz
  1  'x, y, z'
loop_
 _atom_site_type_symbol
 _atom_site_label
 _atom_site_symmetry_multiplicity
 _atom_site_fract_x
 _atom_site_fract_y
 _atom_site_fract_z
 _atom_site_occupancy
  La  La0  1  0.250000  0.511207  0.775171  1
  La  La1  1  0.750000  0.489597  0.224083  1
  La  La2  1  0.750000  0.989436  0.277309  1
  La  La3  1  0.250000  0.024487  0.718600  1
  La  La4  1  0.250000  0.649363  0.561711  1
  La  La5  1  0.750000  0.345896  0.444634  1
  La  La6  1  0.750000  0.852627  0.059254  1
  La  La7  1  0.250000  0.142059  0.940453  1
  Al  Al8  1  0.250000  0.660842  0.354157  1
  Al  Al9  1  0.750000  0.834053  0.849855  1
  Al  Al10  1  0.250000  0.165550  0.146786  1
  Al  Al11  1  0.250000  0.508694  0.061201  1
  Al  Al12  1  0.750000  0.491221  0.937954  1
  Al  Al13  1  0.750000  0.989691  0.560140  1
  Al  Al14  1  0.250000  0.004517  0.439257  1
  Ga  Ga15  1  0.750000  0.339912  0.644525  1
  Pt  Pt16  1  0.250000  0.777699  0.179910  1
  Pt  Pt17  1  0.750000  0.226099  0.823744  1
  Pt  Pt18  1  0.750000  0.738221  0.682973  1
  Pt  Pt19  1  0.250000  0.273743  0.321159  1
  Pt  Pt20  1  0.250000  0.705816  0.928373  1
  Pt  Pt21  1  0.750000  0.294008  0.070749  1
  Pt  Pt22  1  0.750000  0.784438  0.428499  1
  Rh  Rh23  1  0.250000  0.200823  0.569501  1
