# generated using pymatgen
data_Sc12Ru(PtI8)2
_symmetry_space_group_name_H-M   'P 1'
_cell_length_a   9.07163076
_cell_length_b   12.08059557
_cell_length_c   12.73201893
_cell_angle_alpha   117.31182380
_cell_angle_beta   101.02755309
_cell_angle_gamma   100.40781822
_symmetry_Int_Tables_number   1
_chemical_formula_structural   Sc12Ru(PtI8)2
_chemical_formula_sum   'Sc12 Ru1 Pt2 I16'
_cell_volume   1157.80357795
_cell_formula_units_Z   1
loop_
 _symmetry_equiv_pos_site_id
 _symmetry_equiv_pos_as_xyz
  1  'x, y, z'
loop_
 _atom_site_type_symbol
 _atom_site_label
 _atom_site_symmetry_multiplicity
 _atom_site_fract_x
 _atom_site_fract_y
 _atom_site_fract_z
 _atom_site_occupancy
  Sc  Sc0  1  0.092431  0.276180  0.362288  1
  Sc  Sc1  1  0.909476  0.730249  0.641633  1
  Sc  Sc2  1  0.779332  0.535505  0.329603  1
  Sc  Sc3  1  0.219427  0.465450  0.666127  1
  Sc  Sc4  1  0.274247  0.724482  0.637171  1
  Sc  Sc5  1  0.722714  0.269228  0.358992  1
  Sc  Sc6  1  0.147695  0.535191  0.333403  1
  Sc  Sc7  1  0.853028  0.463967  0.671019  1
  Sc  Sc8  1  0.403617  0.363341  0.280752  1
  Sc  Sc9  1  0.586370  0.636594  0.719132  1
  Sc  Sc10  1  0.455257  0.313473  0.520653  1
  Sc  Sc11  1  0.534875  0.686252  0.479178  1
  Ru  Ru12  1  0.338656  0.500234  0.499831  1
  Pt  Pt13  1  0.996301  0.500118  0.500049  1
  Pt  Pt14  1  0.660444  0.499677  0.500158  1
  I  I15  1  0.390299  0.738201  0.881824  1
  I  I16  1  0.609585  0.262488  0.119672  1
  I  I17  1  0.187156  0.961245  0.781711  1
  I  I18  1  0.814825  0.038683  0.218362  1
  I  I19  1  0.343920  0.099510  0.254021  1
  I  I20  1  0.669539  0.900563  0.745944  1
  I  I21  1  0.571367  0.437688  0.796870  1
  I  I22  1  0.442505  0.561587  0.202570  1
  I  I23  1  0.301890  0.826113  0.463337  1
  I  I24  1  0.697305  0.174882  0.536286  1
  I  I25  1  0.162924  0.175151  0.536304  1
  I  I26  1  0.834980  0.823888  0.463954  1
  I  I27  1  0.926613  0.574198  0.160589  1
  I  I28  1  0.075151  0.426461  0.839928  1
  I  I29  1  0.926640  0.736849  0.880782  1
  I  I30  1  0.071432  0.262552  0.117859  1
