# generated using pymatgen
data_Sm3Th5(ReC2)4
_symmetry_space_group_name_H-M   'P 1'
_cell_length_a   5.35527000
_cell_length_b   6.67375214
_cell_length_c   10.04551722
_cell_angle_alpha   89.97649783
_cell_angle_beta   90.00000000
_cell_angle_gamma   90.00000000
_symmetry_Int_Tables_number   1
_chemical_formula_structural   Sm3Th5(ReC2)4
_chemical_formula_sum   'Sm3 Th5 Re4 C8'
_cell_volume   359.02418955
_cell_formula_units_Z   1
loop_
 _symmetry_equiv_pos_site_id
 _symmetry_equiv_pos_as_xyz
  1  'x, y, z'
loop_
 _atom_site_type_symbol
 _atom_site_label
 _atom_site_symmetry_multiplicity
 _atom_site_fract_x
 _atom_site_fract_y
 _atom_site_fract_z
 _atom_site_occupancy
  Sm  Sm0  1  0.250000  0.186198  0.949951  1
  Sm  Sm1  1  0.750000  0.316711  0.450558  1
  Sm  Sm2  1  0.250000  0.683521  0.548909  1
  Th  Th3  1  0.750000  0.472364  0.780086  1
  Th  Th4  1  0.250000  0.026764  0.282574  1
  Th  Th5  1  0.750000  0.974678  0.716822  1
  Th  Th6  1  0.250000  0.523737  0.222020  1
  Th  Th7  1  0.750000  0.813549  0.047082  1
  Re  Re8  1  0.750000  0.772714  0.363542  1
  Re  Re9  1  0.250000  0.728351  0.860974  1
  Re  Re10  1  0.250000  0.228516  0.638225  1
  Re  Re11  1  0.750000  0.274064  0.137495  1
  C  C12  1  0.250000  0.962906  0.740107  1
  C  C13  1  0.750000  0.536186  0.242460  1
  C  C14  1  0.250000  0.463731  0.758342  1
  C  C15  1  0.750000  0.038226  0.259141  1
  C  C16  1  0.250000  0.321388  0.450494  1
  C  C17  1  0.750000  0.173615  0.949653  1
  C  C18  1  0.250000  0.823559  0.051402  1
  C  C19  1  0.750000  0.679222  0.550163  1
