# generated using pymatgen
data_TbTm15Co3NiAg4
_symmetry_space_group_name_H-M   'P 1'
_cell_length_a   9.28489183
_cell_length_b   9.30932625
_cell_length_c   9.30932632
_cell_angle_alpha   60.08002505
_cell_angle_beta   60.02086648
_cell_angle_gamma   60.02087681
_symmetry_Int_Tables_number   1
_chemical_formula_structural   TbTm15Co3NiAg4
_chemical_formula_sum   'Tb1 Tm15 Co3 Ni1 Ag4'
_cell_volume   569.50484887
_cell_formula_units_Z   1
loop_
 _symmetry_equiv_pos_site_id
 _symmetry_equiv_pos_as_xyz
  1  'x, y, z'
loop_
 _atom_site_type_symbol
 _atom_site_label
 _atom_site_symmetry_multiplicity
 _atom_site_fract_x
 _atom_site_fract_y
 _atom_site_fract_z
 _atom_site_occupancy
  Tb  Tb0  1  0.347077  0.349559  0.349559  1
  Tm  Tm1  1  0.346778  0.349477  0.953522  1
  Tm  Tm2  1  0.346778  0.953522  0.349477  1
  Tm  Tm3  1  0.957253  0.347491  0.347491  1
  Tm  Tm4  1  0.814767  0.188220  0.188220  1
  Tm  Tm5  1  0.188175  0.811922  0.811922  1
  Tm  Tm6  1  0.187054  0.813174  0.187580  1
  Tm  Tm7  1  0.814411  0.188990  0.808053  1
  Tm  Tm8  1  0.187054  0.187580  0.813174  1
  Tm  Tm9  1  0.814411  0.808053  0.188990  1
  Tm  Tm10  1  0.935009  0.564444  0.564444  1
  Tm  Tm11  1  0.562355  0.936923  0.936923  1
  Tm  Tm12  1  0.562348  0.935954  0.565564  1
  Tm  Tm13  1  0.936396  0.563740  0.937460  1
  Tm  Tm14  1  0.562348  0.565564  0.935954  1
  Tm  Tm15  1  0.936396  0.937460  0.563740  1
  Co  Co16  1  0.142506  0.141465  0.141465  1
  Co  Co17  1  0.141566  0.139667  0.575001  1
  Co  Co18  1  0.141566  0.575001  0.139667  1
  Ni  Ni19  1  0.575414  0.139740  0.139740  1
  Ag  Ag20  1  0.581936  0.581857  0.581857  1
  Ag  Ag21  1  0.582433  0.582661  0.254653  1
  Ag  Ag22  1  0.582433  0.254653  0.582661  1
  Ag  Ag23  1  0.253538  0.582884  0.582884  1
