# generated using pymatgen
data_LaTb3(Ho3Sn4)2
_symmetry_space_group_name_H-M   'P 1'
_cell_length_a   8.07351000
_cell_length_b   8.22133548
_cell_length_c   15.52126192
_cell_angle_alpha   89.96066133
_cell_angle_beta   90.00000000
_cell_angle_gamma   90.00000000
_symmetry_Int_Tables_number   1
_chemical_formula_structural   LaTb3(Ho3Sn4)2
_chemical_formula_sum   'La2 Tb6 Ho12 Sn16'
_cell_volume   1030.22404831
_cell_formula_units_Z   2
loop_
 _symmetry_equiv_pos_site_id
 _symmetry_equiv_pos_as_xyz
  1  'x, y, z'
loop_
 _atom_site_type_symbol
 _atom_site_label
 _atom_site_symmetry_multiplicity
 _atom_site_fract_x
 _atom_site_fract_y
 _atom_site_fract_z
 _atom_site_occupancy
  La  La0  1  0.515103  0.321302  0.906318  1
  La  La1  1  0.015103  0.178698  0.593682  1
  Tb  Tb2  1  0.480444  0.679554  0.401660  1
  Tb  Tb3  1  0.980444  0.820446  0.098340  1
  Tb  Tb4  1  0.481288  0.680709  0.098541  1
  Tb  Tb5  1  0.981288  0.819291  0.401459  1
  Tb  Tb6  1  0.520597  0.322166  0.597838  1
  Tb  Tb7  1  0.020597  0.177834  0.902162  1
  Ho  Ho8  1  0.366054  0.837326  0.878194  1
  Ho  Ho9  1  0.866054  0.662674  0.621806  1
  Ho  Ho10  1  0.635051  0.163719  0.376432  1
  Ho  Ho11  1  0.135051  0.336281  0.123568  1
  Ho  Ho12  1  0.635375  0.162148  0.123187  1
  Ho  Ho13  1  0.135375  0.337852  0.376813  1
  Ho  Ho14  1  0.365205  0.836016  0.621825  1
  Ho  Ho15  1  0.865205  0.663984  0.878175  1
  Ho  Ho16  1  0.198145  0.503492  0.749878  1
  Ho  Ho17  1  0.698145  0.996508  0.750122  1
  Ho  Ho18  1  0.802445  0.497608  0.250330  1
  Ho  Ho19  1  0.302445  0.002392  0.249670  1
  Sn  Sn20  1  0.293545  0.036240  0.042807  1
  Sn  Sn21  1  0.793545  0.463760  0.457193  1
  Sn  Sn22  1  0.698526  0.956232  0.538961  1
  Sn  Sn23  1  0.198526  0.543768  0.961039  1
  Sn  Sn24  1  0.708029  0.960153  0.959194  1
  Sn  Sn25  1  0.208029  0.539847  0.540806  1
  Sn  Sn26  1  0.300216  0.034861  0.455091  1
  Sn  Sn27  1  0.800216  0.465139  0.044909  1
  Sn  Sn28  1  0.564038  0.623012  0.749326  1
  Sn  Sn29  1  0.064038  0.876988  0.750674  1
  Sn  Sn30  1  0.436682  0.380383  0.249671  1
  Sn  Sn31  1  0.936682  0.119617  0.250329  1
  Sn  Sn32  1  0.327298  0.144305  0.748364  1
  Sn  Sn33  1  0.827298  0.355695  0.751636  1
  Sn  Sn34  1  0.671957  0.853547  0.250041  1
  Sn  Sn35  1  0.171957  0.646453  0.249959  1
