# generated using pymatgen
data_SrCa5Pr2(Si3Au)4
_symmetry_space_group_name_H-M   'P 1'
_cell_length_a   8.32323500
_cell_length_b   8.31295386
_cell_length_c   8.71392700
_cell_angle_alpha   90.00000000
_cell_angle_beta   90.00000000
_cell_angle_gamma   120.04093211
_symmetry_Int_Tables_number   1
_chemical_formula_structural   SrCa5Pr2(Si3Au)4
_chemical_formula_sum   'Sr1 Ca5 Pr2 Si12 Au4'
_cell_volume   521.93064779
_cell_formula_units_Z   1
loop_
 _symmetry_equiv_pos_site_id
 _symmetry_equiv_pos_as_xyz
  1  'x, y, z'
loop_
 _atom_site_type_symbol
 _atom_site_label
 _atom_site_symmetry_multiplicity
 _atom_site_fract_x
 _atom_site_fract_y
 _atom_site_fract_z
 _atom_site_occupancy
  Sr  Sr0  1  0.500432  0.000863  0.250000  1
  Ca  Ca1  1  0.499601  0.500437  0.750000  1
  Ca  Ca2  1  0.500358  0.499701  0.250000  1
  Ca  Ca3  1  0.000836  0.500437  0.750000  1
  Ca  Ca4  1  0.999343  0.499701  0.250000  1
  Ca  Ca5  1  0.499572  0.999145  0.750000  1
  Pr  Pr6  1  0.999949  0.999897  0.750000  1
  Pr  Pr7  1  0.000007  0.000015  0.250000  1
  Si  Si8  1  0.838297  0.163841  0.996524  1
  Si  Si9  1  0.161728  0.836153  0.996945  1
  Si  Si10  1  0.325545  0.163841  0.996524  1
  Si  Si11  1  0.161728  0.836153  0.503055  1
  Si  Si12  1  0.674427  0.836153  0.996945  1
  Si  Si13  1  0.838297  0.163841  0.503476  1
  Si  Si14  1  0.836820  0.673640  0.999415  1
  Si  Si15  1  0.674427  0.836153  0.503055  1
  Si  Si16  1  0.163161  0.326321  0.999549  1
  Si  Si17  1  0.325545  0.163841  0.503476  1
  Si  Si18  1  0.163161  0.326321  0.500451  1
  Si  Si19  1  0.836820  0.673640  0.500585  1
  Au  Au20  1  0.667263  0.334524  0.993437  1
  Au  Au21  1  0.332713  0.665427  0.995308  1
  Au  Au22  1  0.332713  0.665427  0.504692  1
  Au  Au23  1  0.667263  0.334524  0.506563  1
