# generated using pymatgen
data_Y12Al4Si4Ir7Rh
_symmetry_space_group_name_H-M   'P 1'
_cell_length_a   5.59421510
_cell_length_b   7.93207566
_cell_length_c   13.30215099
_cell_angle_alpha   89.95727356
_cell_angle_beta   90.01091055
_cell_angle_gamma   89.98118793
_symmetry_Int_Tables_number   1
_chemical_formula_structural   Y12Al4Si4Ir7Rh
_chemical_formula_sum   'Y12 Al4 Si4 Ir7 Rh1'
_cell_volume   590.26594837
_cell_formula_units_Z   1
loop_
 _symmetry_equiv_pos_site_id
 _symmetry_equiv_pos_as_xyz
  1  'x, y, z'
loop_
 _atom_site_type_symbol
 _atom_site_label
 _atom_site_symmetry_multiplicity
 _atom_site_fract_x
 _atom_site_fract_y
 _atom_site_fract_z
 _atom_site_occupancy
  Y  Y0  1  0.144438  0.603554  0.103405  1
  Y  Y1  1  0.144804  0.897230  0.896352  1
  Y  Y2  1  0.856178  0.101735  0.396519  1
  Y  Y3  1  0.855018  0.396734  0.603873  1
  Y  Y4  1  0.855500  0.396472  0.896484  1
  Y  Y5  1  0.855798  0.103310  0.103302  1
  Y  Y6  1  0.143970  0.896617  0.603359  1
  Y  Y7  1  0.144859  0.603856  0.396705  1
  Y  Y8  1  0.369199  0.242684  0.249501  1
  Y  Y9  1  0.369562  0.255930  0.750155  1
  Y  Y10  1  0.631501  0.744508  0.249516  1
  Y  Y11  1  0.630627  0.755868  0.749857  1
  Al  Al12  1  0.383914  0.249964  0.999792  1
  Al  Al13  1  0.616792  0.750541  0.500792  1
  Al  Al14  1  0.616392  0.749988  0.999943  1
  Al  Al15  1  0.381757  0.249925  0.499896  1
  Si  Si16  1  0.863229  0.391153  0.250464  1
  Si  Si17  1  0.863452  0.108262  0.750102  1
  Si  Si18  1  0.136548  0.891512  0.250074  1
  Si  Si19  1  0.136974  0.608135  0.749981  1
  Ir  Ir20  1  0.647253  0.471254  0.094046  1
  Ir  Ir21  1  0.647380  0.028790  0.906050  1
  Ir  Ir22  1  0.353426  0.970828  0.406056  1
  Ir  Ir23  1  0.351989  0.528165  0.593540  1
  Ir  Ir24  1  0.352477  0.528981  0.906243  1
  Ir  Ir25  1  0.352674  0.970810  0.094065  1
  Ir  Ir26  1  0.647975  0.030529  0.593596  1
  Rh  Rh27  1  0.646313  0.472664  0.406332  1
