# generated using pymatgen
data_Tb5Th9TcIr5
_symmetry_space_group_name_H-M   'P 1'
_cell_length_a   9.90911994
_cell_length_b   10.03662903
_cell_length_c   6.35686054
_cell_angle_alpha   89.73391017
_cell_angle_beta   90.06872030
_cell_angle_gamma   120.49549540
_symmetry_Int_Tables_number   1
_chemical_formula_structural   Tb5Th9TcIr5
_chemical_formula_sum   'Tb5 Th9 Tc1 Ir5'
_cell_volume   544.75479956
_cell_formula_units_Z   1
loop_
 _symmetry_equiv_pos_site_id
 _symmetry_equiv_pos_as_xyz
  1  'x, y, z'
loop_
 _atom_site_type_symbol
 _atom_site_label
 _atom_site_symmetry_multiplicity
 _atom_site_fract_x
 _atom_site_fract_y
 _atom_site_fract_z
 _atom_site_occupancy
  Tb  Tb0  1  0.461040  0.536142  0.301369  1
  Tb  Tb1  1  0.072009  0.535363  0.299062  1
  Tb  Tb2  1  0.924246  0.461226  0.797837  1
  Tb  Tb3  1  0.255504  0.128836  0.503125  1
  Tb  Tb4  1  0.538709  0.075287  0.795177  1
  Th  Th5  1  0.748052  0.872085  0.007377  1
  Th  Th6  1  0.667220  0.333987  0.277829  1
  Th  Th7  1  0.123794  0.870713  0.000637  1
  Th  Th8  1  0.458599  0.920988  0.299178  1
  Th  Th9  1  0.542632  0.463471  0.802816  1
  Th  Th10  1  0.876541  0.132615  0.506185  1
  Th  Th11  1  0.127778  0.254494  0.002538  1
  Th  Th12  1  0.874497  0.745743  0.502485  1
  Th  Th13  1  0.333775  0.666958  0.783165  1
  Tc  Tc14  1  0.808501  0.628764  0.046799  1
  Ir  Ir15  1  0.813357  0.184512  0.054295  1
  Ir  Ir16  1  0.625653  0.816087  0.549388  1
  Ir  Ir17  1  0.373840  0.186216  0.043161  1
  Ir  Ir18  1  0.185293  0.376511  0.557984  1
  Ir  Ir19  1  0.188958  0.810001  0.553596  1
