# generated using pymatgen
data_Y5Er5(In2Au)4
_symmetry_space_group_name_H-M   'P 1'
_cell_length_a   3.65106600
_cell_length_b   8.21423106
_cell_length_c   18.34874914
_cell_angle_alpha   89.98602594
_cell_angle_beta   90.00000000
_cell_angle_gamma   90.00000000
_symmetry_Int_Tables_number   1
_chemical_formula_structural   Y5Er5(In2Au)4
_chemical_formula_sum   'Y5 Er5 In8 Au4'
_cell_volume   550.29180965
_cell_formula_units_Z   1
loop_
 _symmetry_equiv_pos_site_id
 _symmetry_equiv_pos_as_xyz
  1  'x, y, z'
loop_
 _atom_site_type_symbol
 _atom_site_label
 _atom_site_symmetry_multiplicity
 _atom_site_fract_x
 _atom_site_fract_y
 _atom_site_fract_z
 _atom_site_occupancy
  Y  Y0  1  0.000000  0.500603  0.499887  1
  Y  Y1  1  0.000000  0.999398  0.999753  1
  Y  Y2  1  0.000000  0.735451  0.283484  1
  Y  Y3  1  0.000000  0.265562  0.715602  1
  Y  Y4  1  0.000000  0.765650  0.784537  1
  Er  Er5  1  0.000000  0.235482  0.216735  1
  Er  Er6  1  0.000000  0.619465  0.080375  1
  Er  Er7  1  0.000000  0.378806  0.920470  1
  Er  Er8  1  0.000000  0.879647  0.579720  1
  Er  Er9  1  0.000000  0.121121  0.419559  1
  In  In10  1  0.500000  0.706300  0.935028  1
  In  In11  1  0.500000  0.290688  0.066565  1
  In  In12  1  0.500000  0.793476  0.434210  1
  In  In13  1  0.500000  0.206924  0.564949  1
  In  In14  1  0.500000  0.583276  0.647696  1
  In  In15  1  0.500000  0.417083  0.352488  1
  In  In16  1  0.500000  0.918793  0.147094  1
  In  In17  1  0.500000  0.083697  0.852477  1
  Au  Au18  1  0.500000  0.524221  0.195844  1
  Au  Au19  1  0.500000  0.471748  0.804901  1
  Au  Au20  1  0.500000  0.972169  0.695260  1
  Au  Au21  1  0.500000  0.030438  0.303364  1
