# generated using pymatgen
data_DyHoZr2(Al3Ir)6
_symmetry_space_group_name_H-M   'P 1'
_cell_length_a   7.52823707
_cell_length_b   7.51275101
_cell_length_c   9.36451900
_cell_angle_alpha   90.00000000
_cell_angle_beta   90.00000000
_cell_angle_gamma   119.74966451
_symmetry_Int_Tables_number   1
_chemical_formula_structural   DyHoZr2(Al3Ir)6
_chemical_formula_sum   'Dy1 Ho1 Zr2 Al18 Ir6'
_cell_volume   459.83116213
_cell_formula_units_Z   1
loop_
 _symmetry_equiv_pos_site_id
 _symmetry_equiv_pos_as_xyz
  1  'x, y, z'
loop_
 _atom_site_type_symbol
 _atom_site_label
 _atom_site_symmetry_multiplicity
 _atom_site_fract_x
 _atom_site_fract_y
 _atom_site_fract_z
 _atom_site_occupancy
  Dy  Dy0  1  0.670086  0.994475  0.250000  1
  Ho  Ho1  1  0.329911  0.005509  0.750000  1
  Zr  Zr2  1  0.995156  0.670502  0.250000  1
  Zr  Zr3  1  0.004856  0.329502  0.750000  1
  Al  Al4  1  0.125744  0.123865  0.250000  1
  Al  Al5  1  0.874356  0.876179  0.750000  1
  Al  Al6  1  0.999993  0.336798  0.074589  1
  Al  Al7  1  0.000091  0.663281  0.925344  1
  Al  Al8  1  0.000091  0.663281  0.574656  1
  Al  Al9  1  0.332080  0.998629  0.422453  1
  Al  Al10  1  0.999993  0.336798  0.425411  1
  Al  Al11  1  0.667842  0.001382  0.577674  1
  Al  Al12  1  0.667842  0.001382  0.922326  1
  Al  Al13  1  0.332080  0.998629  0.077547  1
  Al  Al14  1  0.331471  0.333571  0.556531  1
  Al  Al15  1  0.668525  0.666355  0.443529  1
  Al  Al16  1  0.668525  0.666355  0.056471  1
  Al  Al17  1  0.331471  0.333571  0.943469  1
  Al  Al18  1  0.334274  0.547606  0.250000  1
  Al  Al19  1  0.665649  0.452284  0.750000  1
  Al  Al20  1  0.553470  0.343320  0.250000  1
  Al  Al21  1  0.446488  0.656729  0.750000  1
  Ir  Ir22  1  0.672026  0.327445  0.999312  1
  Ir  Ir23  1  0.327909  0.672545  0.000613  1
  Ir  Ir24  1  0.327909  0.672545  0.499387  1
  Ir  Ir25  1  0.672026  0.327445  0.500688  1
  Ir  Ir26  1  0.000067  0.000009  0.999960  1
  Ir  Ir27  1  0.000067  0.000009  0.500040  1
