# generated using pymatgen
data_Ta9Ga3CuGe
_symmetry_space_group_name_H-M   'P 1'
_cell_length_a   5.11803871
_cell_length_b   9.87069661
_cell_length_c   9.87069669
_cell_angle_alpha   86.18071496
_cell_angle_beta   75.12178016
_cell_angle_gamma   75.12177027
_symmetry_Int_Tables_number   1
_chemical_formula_structural   Ta9Ga3CuGe
_chemical_formula_sum   'Ta18 Ga6 Cu2 Ge2'
_cell_volume   465.77821433
_cell_formula_units_Z   2
loop_
 _symmetry_equiv_pos_site_id
 _symmetry_equiv_pos_as_xyz
  1  'x, y, z'
loop_
 _atom_site_type_symbol
 _atom_site_label
 _atom_site_symmetry_multiplicity
 _atom_site_fract_x
 _atom_site_fract_y
 _atom_site_fract_z
 _atom_site_occupancy
  Ta  Ta0  1  0.750000  0.499865  0.500135  1
  Ta  Ta1  1  0.250000  0.500135  0.499865  1
  Ta  Ta2  1  0.793274  0.771983  0.643801  1
  Ta  Ta3  1  0.206726  0.228017  0.356199  1
  Ta  Ta4  1  0.706726  0.356199  0.228017  1
  Ta  Ta5  1  0.293274  0.643801  0.771983  1
  Ta  Ta6  1  0.563931  0.643800  0.227519  1
  Ta  Ta7  1  0.436069  0.356200  0.772481  1
  Ta  Ta8  1  0.063931  0.227519  0.643800  1
  Ta  Ta9  1  0.936069  0.772481  0.356200  1
  Ta  Ta10  1  0.582093  0.073205  0.756959  1
  Ta  Ta11  1  0.417907  0.926795  0.243041  1
  Ta  Ta12  1  0.917907  0.243041  0.926795  1
  Ta  Ta13  1  0.082093  0.756959  0.073205  1
  Ta  Ta14  1  0.658517  0.756973  0.926661  1
  Ta  Ta15  1  0.341483  0.243027  0.073339  1
  Ta  Ta16  1  0.158517  0.926661  0.756973  1
  Ta  Ta17  1  0.841483  0.073339  0.243027  1
  Ga  Ga18  1  0.000000  0.000000  0.500000  1
  Ga  Ga19  1  0.500000  0.500000  0.000000  1
  Ga  Ga20  1  0.121208  0.500307  0.242332  1
  Ga  Ga21  1  0.878792  0.499693  0.757668  1
  Ga  Ga22  1  0.378792  0.757668  0.499693  1
  Ga  Ga23  1  0.621208  0.242332  0.500307  1
  Cu  Cu24  1  0.500000  0.000000  0.500000  1
  Cu  Cu25  1  0.000000  0.500000  0.000000  1
  Ge  Ge26  1  0.250000  0.999438  0.000562  1
  Ge  Ge27  1  0.750000  0.000562  0.999438  1
