# generated using pymatgen
data_SmRhF7
_symmetry_space_group_name_H-M   'P 1'
_cell_length_a   5.62380000
_cell_length_b   9.01981046
_cell_length_c   12.11000942
_cell_angle_alpha   62.21800556
_cell_angle_beta   90.00000000
_cell_angle_gamma   90.00000000
_symmetry_Int_Tables_number   1
_chemical_formula_structural   SmRhF7
_chemical_formula_sum   'Sm4 Rh4 F28'
_cell_volume   543.47714404
_cell_formula_units_Z   4
loop_
 _symmetry_equiv_pos_site_id
 _symmetry_equiv_pos_as_xyz
  1  'x, y, z'
loop_
 _atom_site_type_symbol
 _atom_site_label
 _atom_site_symmetry_multiplicity
 _atom_site_fract_x
 _atom_site_fract_y
 _atom_site_fract_z
 _atom_site_occupancy
  Sm  Sm0  1  0.760273  0.811073  0.764992  1
  Sm  Sm1  1  0.260273  0.188927  0.735008  1
  Sm  Sm2  1  0.239727  0.188927  0.235008  1
  Sm  Sm3  1  0.739727  0.811073  0.264992  1
  Rh  Rh4  1  0.756809  0.273537  0.956846  1
  Rh  Rh5  1  0.256809  0.726463  0.543154  1
  Rh  Rh6  1  0.243191  0.726463  0.043154  1
  Rh  Rh7  1  0.743191  0.273537  0.456846  1
  F  F8  1  0.433716  0.705913  0.916610  1
  F  F9  1  0.933716  0.294087  0.583390  1
  F  F10  1  0.566284  0.294087  0.083390  1
  F  F11  1  0.066284  0.705913  0.416610  1
  F  F12  1  0.447532  0.280635  0.540461  1
  F  F13  1  0.947532  0.719365  0.959539  1
  F  F14  1  0.552468  0.719365  0.459539  1
  F  F15  1  0.052468  0.280635  0.040461  1
  F  F16  1  0.769316  0.515486  0.860946  1
  F  F17  1  0.269316  0.484514  0.639054  1
  F  F18  1  0.230684  0.484514  0.139054  1
  F  F19  1  0.730684  0.515486  0.360946  1
  F  F20  1  0.756506  0.031396  0.048677  1
  F  F21  1  0.256506  0.968604  0.451323  1
  F  F22  1  0.243494  0.968604  0.951323  1
  F  F23  1  0.743494  0.031396  0.548677  1
  F  F24  1  0.967575  0.727302  0.632179  1
  F  F25  1  0.467575  0.272698  0.867821  1
  F  F26  1  0.032425  0.272698  0.367821  1
  F  F27  1  0.532425  0.727302  0.132179  1
  F  F28  1  0.056349  0.743584  0.172662  1
  F  F29  1  0.556349  0.256416  0.327338  1
  F  F30  1  0.943651  0.256416  0.827338  1
  F  F31  1  0.443651  0.743584  0.672662  1
  F  F32  1  0.408809  0.967609  0.230918  1
  F  F33  1  0.908809  0.032391  0.269082  1
  F  F34  1  0.591191  0.032391  0.769082  1
  F  F35  1  0.091191  0.967609  0.730918  1
