# generated using pymatgen
data_Eu2YTm(Ga2Ag)4
_symmetry_space_group_name_H-M   'P 1'
_cell_length_a   4.42693300
_cell_length_b   7.06913510
_cell_length_c   10.42341483
_cell_angle_alpha   89.05978046
_cell_angle_beta   90.00000000
_cell_angle_gamma   90.00000000
_symmetry_Int_Tables_number   1
_chemical_formula_structural   Eu2YTm(Ga2Ag)4
_chemical_formula_sum   'Eu2 Y1 Tm1 Ga8 Ag4'
_cell_volume   326.15254783
_cell_formula_units_Z   1
loop_
 _symmetry_equiv_pos_site_id
 _symmetry_equiv_pos_as_xyz
  1  'x, y, z'
loop_
 _atom_site_type_symbol
 _atom_site_label
 _atom_site_symmetry_multiplicity
 _atom_site_fract_x
 _atom_site_fract_y
 _atom_site_fract_z
 _atom_site_occupancy
  Eu  Eu0  1  0.250000  0.780564  0.825218  1
  Eu  Eu1  1  0.750000  0.219926  0.173660  1
  Y  Y2  1  0.750000  0.720544  0.329846  1
  Tm  Tm3  1  0.250000  0.279394  0.670066  1
  Ga  Ga4  1  0.250000  0.696919  0.533723  1
  Ga  Ga5  1  0.750000  0.300934  0.467512  1
  Ga  Ga6  1  0.750000  0.795300  0.036752  1
  Ga  Ga7  1  0.250000  0.205989  0.961652  1
  Ga  Ga8  1  0.250000  0.921864  0.153566  1
  Ga  Ga9  1  0.750000  0.079316  0.845831  1
  Ga  Ga10  1  0.750000  0.569901  0.650909  1
  Ga  Ga11  1  0.250000  0.427019  0.349061  1
  Ag  Ag12  1  0.250000  0.543515  0.098565  1
  Ag  Ag13  1  0.750000  0.456806  0.900412  1
  Ag  Ag14  1  0.750000  0.958676  0.596528  1
  Ag  Ag15  1  0.250000  0.043336  0.406700  1
