# generated using pymatgen
data_Tm2AgPd2
_symmetry_space_group_name_H-M   'P 1'
_cell_length_a   7.60823900
_cell_length_b   7.60823900
_cell_length_c   3.64728800
_cell_angle_alpha   90.00000000
_cell_angle_beta   90.00000000
_cell_angle_gamma   90.00000000
_symmetry_Int_Tables_number   1
_chemical_formula_structural   Tm2AgPd2
_chemical_formula_sum   'Tm4 Ag2 Pd4'
_cell_volume   211.12436255
_cell_formula_units_Z   2
loop_
 _symmetry_equiv_pos_site_id
 _symmetry_equiv_pos_as_xyz
  1  'x, y, z'
loop_
 _atom_site_type_symbol
 _atom_site_label
 _atom_site_symmetry_multiplicity
 _atom_site_fract_x
 _atom_site_fract_y
 _atom_site_fract_z
 _atom_site_occupancy
  Tm  Tm0  1  0.671802  0.171802  0.500000  1
  Tm  Tm1  1  0.328198  0.828198  0.500000  1
  Tm  Tm2  1  0.171802  0.328198  0.500000  1
  Tm  Tm3  1  0.828198  0.671802  0.500000  1
  Ag  Ag4  1  0.000000  0.000000  0.000000  1
  Ag  Ag5  1  0.500000  0.500000  0.000000  1
  Pd  Pd6  1  0.129632  0.629632  0.000000  1
  Pd  Pd7  1  0.870368  0.370368  0.000000  1
  Pd  Pd8  1  0.629632  0.870368  0.000000  1
  Pd  Pd9  1  0.370368  0.129632  0.000000  1
