# generated using pymatgen
data_YbTmPd2Pb
_symmetry_space_group_name_H-M   'P 1'
_cell_length_a   7.80983473
_cell_length_b   7.80983473
_cell_length_c   3.67196400
_cell_angle_alpha   90.00000000
_cell_angle_beta   90.00000000
_cell_angle_gamma   88.69590405
_symmetry_Int_Tables_number   1
_chemical_formula_structural   YbTmPd2Pb
_chemical_formula_sum   'Yb2 Tm2 Pd4 Pb2'
_cell_volume   223.90799378
_cell_formula_units_Z   2
loop_
 _symmetry_equiv_pos_site_id
 _symmetry_equiv_pos_as_xyz
  1  'x, y, z'
loop_
 _atom_site_type_symbol
 _atom_site_label
 _atom_site_symmetry_multiplicity
 _atom_site_fract_x
 _atom_site_fract_y
 _atom_site_fract_z
 _atom_site_occupancy
  Yb  Yb0  1  0.329359  0.829359  0.500000  1
  Yb  Yb1  1  0.670641  0.170641  0.500000  1
  Tm  Tm2  1  0.170968  0.329032  0.500000  1
  Tm  Tm3  1  0.829032  0.670968  0.500000  1
  Pd  Pd4  1  0.875577  0.375577  0.000000  1
  Pd  Pd5  1  0.629240  0.870760  0.000000  1
  Pd  Pd6  1  0.370760  0.129240  0.000000  1
  Pd  Pd7  1  0.124423  0.624423  0.000000  1
  Pb  Pb8  1  0.500000  0.500000  0.000000  1
  Pb  Pb9  1  0.000000  0.000000  0.000000  1
