# generated using pymatgen
data_NaBi3IrRu(RhO7)2
_symmetry_space_group_name_H-M   'P 1'
_cell_length_a   7.18294304
_cell_length_b   7.18384853
_cell_length_c   7.18384800
_cell_angle_alpha   59.89337306
_cell_angle_beta   59.87355420
_cell_angle_gamma   59.87354814
_symmetry_Int_Tables_number   1
_chemical_formula_structural   NaBi3IrRu(RhO7)2
_chemical_formula_sum   'Na1 Bi3 Ir1 Ru1 Rh2 O14'
_cell_volume   261.40817887
_cell_formula_units_Z   1
loop_
 _symmetry_equiv_pos_site_id
 _symmetry_equiv_pos_as_xyz
  1  'x, y, z'
loop_
 _atom_site_type_symbol
 _atom_site_label
 _atom_site_symmetry_multiplicity
 _atom_site_fract_x
 _atom_site_fract_y
 _atom_site_fract_z
 _atom_site_occupancy
  Na  Na0  1  0.125000  0.125000  0.625000  1
  Bi  Bi1  1  0.125000  0.625000  0.125000  1
  Bi  Bi2  1  0.625000  0.125000  0.125000  1
  Bi  Bi3  1  0.125000  0.125000  0.125000  1
  Ir  Ir4  1  0.125000  0.625000  0.625000  1
  Ru  Ru5  1  0.625000  0.625000  0.625000  1
  Rh  Rh6  1  0.625000  0.625000  0.125000  1
  Rh  Rh7  1  0.625000  0.125000  0.625000  1
  O  O8  1  0.247823  0.247801  0.257666  1
  O  O9  1  0.002177  0.002199  0.992334  1
  O  O10  1  0.557101  0.948896  0.537904  1
  O  O11  1  0.291574  0.705241  0.293316  1
  O  O12  1  0.541746  0.544950  0.956525  1
  O  O13  1  0.947703  0.566023  0.537492  1
  O  O14  1  0.541739  0.958923  0.959936  1
  O  O15  1  0.960226  0.955195  0.538232  1
  O  O16  1  0.958426  0.544759  0.956684  1
  O  O17  1  0.708261  0.291077  0.290064  1
  O  O18  1  0.302297  0.683977  0.712508  1
  O  O19  1  0.692899  0.301104  0.712096  1
  O  O20  1  0.289774  0.294805  0.711768  1
  O  O21  1  0.708254  0.705050  0.293475  1
