# generated using pymatgen
data_Nd10BCCl15
_symmetry_space_group_name_H-M   'P 1'
_cell_length_a   9.02877331
_cell_length_b   9.80671725
_cell_length_c   10.59171317
_cell_angle_alpha   90.88299418
_cell_angle_beta   114.58099449
_cell_angle_gamma   110.99732230
_symmetry_Int_Tables_number   1
_chemical_formula_structural   Nd10BCCl15
_chemical_formula_sum   'Nd10 B1 C1 Cl15'
_cell_volume   781.11493321
_cell_formula_units_Z   1
loop_
 _symmetry_equiv_pos_site_id
 _symmetry_equiv_pos_as_xyz
  1  'x, y, z'
loop_
 _atom_site_type_symbol
 _atom_site_label
 _atom_site_symmetry_multiplicity
 _atom_site_fract_x
 _atom_site_fract_y
 _atom_site_fract_z
 _atom_site_occupancy
  Nd  Nd0  1  0.812459  0.418536  0.280002  1
  Nd  Nd1  1  0.191316  0.586377  0.724073  1
  Nd  Nd2  1  0.681056  0.747680  0.822736  1
  Nd  Nd3  1  0.318265  0.256120  0.182433  1
  Nd  Nd4  1  0.525580  0.702732  0.097040  1
  Nd  Nd5  1  0.472224  0.298931  0.896230  1
  Nd  Nd6  1  0.591818  0.037477  0.335152  1
  Nd  Nd7  1  0.410745  0.959105  0.670778  1
  Nd  Nd8  1  0.730253  0.072159  0.046300  1
  Nd  Nd9  1  0.268341  0.918118  0.947686  1
  B  B10  1  0.534237  0.182297  0.125929  1
  C  C11  1  0.464544  0.817218  0.873281  1
  Cl  Cl12  1  0.002294  0.000142  0.999539  1
  Cl  Cl13  1  0.633951  0.880826  0.587253  1
  Cl  Cl14  1  0.365390  0.116471  0.415738  1
  Cl  Cl15  1  0.884008  0.301165  0.526448  1
  Cl  Cl16  1  0.120224  0.701999  0.477445  1
  Cl  Cl17  1  0.296487  0.765415  0.180623  1
  Cl  Cl18  1  0.704237  0.233081  0.818382  1
  Cl  Cl19  1  0.052683  0.341948  0.225032  1
  Cl  Cl20  1  0.168553  0.056657  0.704510  1
  Cl  Cl21  1  0.830523  0.940786  0.293752  1
  Cl  Cl22  1  0.237965  0.413044  0.945370  1
  Cl  Cl23  1  0.761671  0.589180  0.053640  1
  Cl  Cl24  1  0.407530  0.472947  0.662279  1
  Cl  Cl25  1  0.592477  0.534201  0.336508  1
  Cl  Cl26  1  0.941171  0.655388  0.771843  1
