# generated using pymatgen
data_Ca10P7Au
_symmetry_space_group_name_H-M   'P 1'
_cell_length_a   7.68788607
_cell_length_b   7.55215900
_cell_length_c   8.19806999
_cell_angle_alpha   65.35007412
_cell_angle_beta   88.74100993
_cell_angle_gamma   86.50724677
_symmetry_Int_Tables_number   1
_chemical_formula_structural   Ca10P7Au
_chemical_formula_sum   'Ca10 P7 Au1'
_cell_volume   431.79970021
_cell_formula_units_Z   1
loop_
 _symmetry_equiv_pos_site_id
 _symmetry_equiv_pos_as_xyz
  1  'x, y, z'
loop_
 _atom_site_type_symbol
 _atom_site_label
 _atom_site_symmetry_multiplicity
 _atom_site_fract_x
 _atom_site_fract_y
 _atom_site_fract_z
 _atom_site_occupancy
  Ca  Ca0  1  0.303717  0.034661  0.316932  1
  Ca  Ca1  1  0.165928  0.544514  0.291951  1
  Ca  Ca2  1  0.841987  0.465174  0.713374  1
  Ca  Ca3  1  0.340581  0.290816  0.708450  1
  Ca  Ca4  1  0.008529  0.005757  0.998171  1
  Ca  Ca5  1  0.693350  0.950813  0.666673  1
  Ca  Ca6  1  0.846550  0.222398  0.271066  1
  Ca  Ca7  1  0.161373  0.792176  0.726975  1
  Ca  Ca8  1  0.653208  0.681528  0.299385  1
  Ca  Ca9  1  0.499374  0.512257  0.998843  1
  P  P10  1  0.892551  0.620016  0.996473  1
  P  P11  1  0.965031  0.817388  0.403624  1
  P  P12  1  0.111777  0.394894  0.002389  1
  P  P13  1  0.510701  0.299542  0.384205  1
  P  P14  1  0.375548  0.881697  0.018517  1
  P  P15  1  0.483031  0.674504  0.613887  1
  P  P16  1  0.021513  0.195507  0.594404  1
  Au  Au17  1  0.625251  0.116357  0.994680  1
