# generated using pymatgen
data_La6Nd4Ru3Rh
_symmetry_space_group_name_H-M   'P 1'
_cell_length_a   9.12015047
_cell_length_b   9.13630370
_cell_length_c   7.37373215
_cell_angle_alpha   84.74477982
_cell_angle_beta   84.72098053
_cell_angle_gamma   42.74295234
_symmetry_Int_Tables_number   1
_chemical_formula_structural   La6Nd4Ru3Rh
_chemical_formula_sum   'La6 Nd4 Ru3 Rh1'
_cell_volume   414.97685420
_cell_formula_units_Z   1
loop_
 _symmetry_equiv_pos_site_id
 _symmetry_equiv_pos_as_xyz
  1  'x, y, z'
loop_
 _atom_site_type_symbol
 _atom_site_label
 _atom_site_symmetry_multiplicity
 _atom_site_fract_x
 _atom_site_fract_y
 _atom_site_fract_z
 _atom_site_occupancy
  La  La0  1  0.009619  0.805517  0.913502  1
  La  La1  1  0.198245  0.988957  0.592773  1
  La  La2  1  0.987359  0.199858  0.093468  1
  La  La3  1  0.796087  0.018999  0.406064  1
  La  La4  1  0.363869  0.209324  0.819978  1
  La  La5  1  0.783659  0.638726  0.682546  1
  Nd  Nd6  1  0.641839  0.788053  0.185177  1
  Nd  Nd7  1  0.210433  0.358273  0.315550  1
  Nd  Nd8  1  0.569931  0.429750  0.749460  1
  Nd  Nd9  1  0.427036  0.575595  0.247298  1
  Ru  Ru10  1  0.394194  0.829721  0.912721  1
  Ru  Ru11  1  0.832922  0.391429  0.421429  1
  Ru  Ru12  1  0.607821  0.166956  0.079642  1
  Rh  Rh13  1  0.176987  0.598841  0.580392  1
