# generated using pymatgen
data_Al8CuIr4Ru3
_symmetry_space_group_name_H-M   'P 1'
_cell_length_a   6.03768600
_cell_length_b   4.24190500
_cell_length_c   8.49916000
_cell_angle_alpha   90.00000000
_cell_angle_beta   89.99982696
_cell_angle_gamma   90.00000000
_symmetry_Int_Tables_number   1
_chemical_formula_structural   Al8CuIr4Ru3
_chemical_formula_sum   'Al8 Cu1 Ir4 Ru3'
_cell_volume   217.67445519
_cell_formula_units_Z   1
loop_
 _symmetry_equiv_pos_site_id
 _symmetry_equiv_pos_as_xyz
  1  'x, y, z'
loop_
 _atom_site_type_symbol
 _atom_site_label
 _atom_site_symmetry_multiplicity
 _atom_site_fract_x
 _atom_site_fract_y
 _atom_site_fract_z
 _atom_site_occupancy
  Al  Al0  1  0.991913  0.749999  0.125002  1
  Al  Al1  1  0.508084  0.749999  0.125002  1
  Al  Al2  1  0.995585  0.250001  0.379311  1
  Al  Al3  1  0.504416  0.250001  0.379311  1
  Al  Al4  1  0.502278  0.749999  0.625001  1
  Al  Al5  1  0.997731  0.749999  0.625002  1
  Al  Al6  1  0.504418  0.250001  0.870685  1
  Al  Al7  1  0.995589  0.250001  0.870685  1
  Cu  Cu8  1  0.249967  0.250001  0.125001  1
  Ir  Ir9  1  0.749999  0.250001  0.125000  1
  Ir  Ir10  1  0.249998  0.749999  0.367189  1
  Ir  Ir11  1  0.750007  0.250001  0.624999  1
  Ir  Ir12  1  0.250004  0.749999  0.882813  1
  Ru  Ru13  1  0.750000  0.749999  0.372183  1
  Ru  Ru14  1  0.250006  0.250001  0.624998  1
  Ru  Ru15  1  0.750004  0.749999  0.877818  1
