# generated using pymatgen
data_Cs2TiSeS2
_symmetry_space_group_name_H-M   'P 1'
_cell_length_a   7.95988521
_cell_length_b   7.95988520
_cell_length_c   6.59884000
_cell_angle_alpha   90.00000000
_cell_angle_beta   90.00000000
_cell_angle_gamma   107.37549667
_symmetry_Int_Tables_number   1
_chemical_formula_structural   Cs2TiSeS2
_chemical_formula_sum   'Cs4 Ti2 Se2 S4'
_cell_volume   399.02227077
_cell_formula_units_Z   2
loop_
 _symmetry_equiv_pos_site_id
 _symmetry_equiv_pos_as_xyz
  1  'x, y, z'
loop_
 _atom_site_type_symbol
 _atom_site_label
 _atom_site_symmetry_multiplicity
 _atom_site_fract_x
 _atom_site_fract_y
 _atom_site_fract_z
 _atom_site_occupancy
  Cs  Cs0  1  0.322520  0.006335  0.250000  1
  Cs  Cs1  1  0.677480  0.993665  0.750000  1
  Cs  Cs2  1  0.993665  0.677480  0.750000  1
  Cs  Cs3  1  0.006335  0.322520  0.250000  1
  Ti  Ti4  1  0.426171  0.426171  0.750000  1
  Ti  Ti5  1  0.573829  0.573829  0.250000  1
  Se  Se6  1  0.172930  0.172930  0.750000  1
  Se  Se7  1  0.827070  0.827070  0.250000  1
  S  S8  1  0.625646  0.374354  0.500000  1
  S  S9  1  0.374354  0.625646  0.000000  1
  S  S10  1  0.625646  0.374354  0.000000  1
  S  S11  1  0.374354  0.625646  0.500000  1
