# generated using pymatgen
data_UNb2(Tc2Sn)3
_symmetry_space_group_name_H-M   'P 1'
_cell_length_a   4.59174700
_cell_length_b   6.52510200
_cell_length_c   13.81876500
_cell_angle_alpha   90.00000000
_cell_angle_beta   89.99881648
_cell_angle_gamma   90.00000000
_symmetry_Int_Tables_number   1
_chemical_formula_structural   UNb2(Tc2Sn)3
_chemical_formula_sum   'U2 Nb4 Tc12 Sn6'
_cell_volume   414.03255167
_cell_formula_units_Z   2
loop_
 _symmetry_equiv_pos_site_id
 _symmetry_equiv_pos_as_xyz
  1  'x, y, z'
loop_
 _atom_site_type_symbol
 _atom_site_label
 _atom_site_symmetry_multiplicity
 _atom_site_fract_x
 _atom_site_fract_y
 _atom_site_fract_z
 _atom_site_occupancy
  U  U0  1  0.000017  0.500001  0.994978  1
  U  U1  1  0.499906  0.000000  0.171668  1
  Nb  Nb2  1  0.999913  0.500001  0.340982  1
  Nb  Nb3  1  0.500002  0.000000  0.503145  1
  Nb  Nb4  1  0.000090  0.500001  0.663608  1
  Nb  Nb5  1  0.500096  0.000000  0.825736  1
  Tc  Tc6  1  0.500029  0.251851  0.997488  1
  Tc  Tc7  1  0.500029  0.748150  0.997488  1
  Tc  Tc8  1  0.999869  0.247543  0.169337  1
  Tc  Tc9  1  0.999869  0.752459  0.169337  1
  Tc  Tc10  1  0.499911  0.251254  0.333758  1
  Tc  Tc11  1  0.499911  0.748746  0.333758  1
  Tc  Tc12  1  0.999995  0.250260  0.500749  1
  Tc  Tc13  1  0.999995  0.749741  0.500749  1
  Tc  Tc14  1  0.500131  0.249761  0.665907  1
  Tc  Tc15  1  0.500131  0.750239  0.665907  1
  Tc  Tc16  1  0.000078  0.248535  0.832689  1
  Tc  Tc17  1  0.000078  0.751467  0.832689  1
  Sn  Sn18  1  0.000038  0.000000  0.996115  1
  Sn  Sn19  1  0.499765  0.500001  0.170408  1
  Sn  Sn20  1  0.999906  0.000000  0.339796  1
  Sn  Sn21  1  0.499988  0.500001  0.500970  1
  Sn  Sn22  1  0.000177  0.000000  0.665848  1
  Sn  Sn23  1  0.500074  0.500001  0.826896  1
