# generated using pymatgen
data_Ba4LuTaO8
_symmetry_space_group_name_H-M   'P 1'
_cell_length_a   7.45174033
_cell_length_b   7.45174110
_cell_length_c   5.96408800
_cell_angle_alpha   90.00000000
_cell_angle_beta   90.00000000
_cell_angle_gamma   132.93208900
_symmetry_Int_Tables_number   1
_chemical_formula_structural   Ba4LuTaO8
_chemical_formula_sum   'Ba4 Lu1 Ta1 O8'
_cell_volume   242.47469684
_cell_formula_units_Z   1
loop_
 _symmetry_equiv_pos_site_id
 _symmetry_equiv_pos_as_xyz
  1  'x, y, z'
loop_
 _atom_site_type_symbol
 _atom_site_label
 _atom_site_symmetry_multiplicity
 _atom_site_fract_x
 _atom_site_fract_y
 _atom_site_fract_z
 _atom_site_occupancy
  Ba  Ba0  1  0.647412  0.352588  0.000000  1
  Ba  Ba1  1  0.146309  0.853691  0.500000  1
  Ba  Ba2  1  0.853691  0.146309  0.500000  1
  Ba  Ba3  1  0.352588  0.647412  0.000000  1
  Lu  Lu4  1  0.000000  0.000000  0.000000  1
  Ta  Ta5  1  0.500000  0.500000  0.500000  1
  O  O6  1  0.739637  0.739637  0.736408  1
  O  O7  1  0.260363  0.260363  0.263592  1
  O  O8  1  0.260363  0.260363  0.736408  1
  O  O9  1  0.739637  0.739637  0.263592  1
  O  O10  1  0.838037  0.161963  0.000000  1
  O  O11  1  0.350305  0.649695  0.500000  1
  O  O12  1  0.649695  0.350305  0.500000  1
  O  O13  1  0.161963  0.838037  0.000000  1
