# generated using pymatgen
data_Zr2InGaPd2
_symmetry_space_group_name_H-M   'P 1'
_cell_length_a   7.40544000
_cell_length_b   7.40543986
_cell_length_c   7.11083600
_cell_angle_alpha   90.00000000
_cell_angle_beta   90.00000000
_cell_angle_gamma   120.00000064
_symmetry_Int_Tables_number   1
_chemical_formula_structural   Zr2InGaPd2
_chemical_formula_sum   'Zr6 In3 Ga3 Pd6'
_cell_volume   337.71707413
_cell_formula_units_Z   3
loop_
 _symmetry_equiv_pos_site_id
 _symmetry_equiv_pos_as_xyz
  1  'x, y, z'
loop_
 _atom_site_type_symbol
 _atom_site_label
 _atom_site_symmetry_multiplicity
 _atom_site_fract_x
 _atom_site_fract_y
 _atom_site_fract_z
 _atom_site_occupancy
  Zr  Zr0  1  0.611906  0.590811  0.244171  1
  Zr  Zr1  1  0.021096  0.409189  0.755829  1
  Zr  Zr2  1  0.409189  0.021096  0.244171  1
  Zr  Zr3  1  0.978904  0.388094  0.244171  1
  Zr  Zr4  1  0.388094  0.978904  0.755829  1
  Zr  Zr5  1  0.590811  0.611906  0.755829  1
  In  In6  1  0.255130  0.255130  0.500000  1
  In  In7  1  0.744870  0.000000  0.500000  1
  In  In8  1  0.000000  0.744870  0.500000  1
  Ga  Ga9  1  0.714181  0.000000  0.000000  1
  Ga  Ga10  1  0.285819  0.285819  0.000000  1
  Ga  Ga11  1  0.000000  0.714181  0.000000  1
  Pd  Pd12  1  0.333333  0.666667  0.463133  1
  Pd  Pd13  1  0.000000  0.000000  0.793194  1
  Pd  Pd14  1  0.000000  0.000000  0.206806  1
  Pd  Pd15  1  0.333333  0.666667  0.034999  1
  Pd  Pd16  1  0.666667  0.333333  0.536867  1
  Pd  Pd17  1  0.666667  0.333333  0.965001  1
