# generated using pymatgen
data_Hf7ZrCo7Si14Pt
_symmetry_space_group_name_H-M   'P 1'
_cell_length_a   9.50248344
_cell_length_b   9.51481850
_cell_length_c   9.49629440
_cell_angle_alpha   94.16157143
_cell_angle_beta   94.16536757
_cell_angle_gamma   148.76057611
_symmetry_Int_Tables_number   1
_chemical_formula_structural   Hf7ZrCo7Si14Pt
_chemical_formula_sum   'Hf7 Zr1 Co7 Si14 Pt1'
_cell_volume   428.79070330
_cell_formula_units_Z   1
loop_
 _symmetry_equiv_pos_site_id
 _symmetry_equiv_pos_as_xyz
  1  'x, y, z'
loop_
 _atom_site_type_symbol
 _atom_site_label
 _atom_site_symmetry_multiplicity
 _atom_site_fract_x
 _atom_site_fract_y
 _atom_site_fract_z
 _atom_site_occupancy
  Hf  Hf0  1  0.137636  0.137525  0.275200  1
  Hf  Hf1  1  0.863131  0.862765  0.725822  1
  Hf  Hf2  1  0.861787  0.135259  0.001636  1
  Hf  Hf3  1  0.139397  0.866327  0.001331  1
  Hf  Hf4  1  0.498011  0.303997  0.804971  1
  Hf  Hf5  1  0.501597  0.695518  0.196874  1
  Hf  Hf6  1  0.695455  0.501273  0.196941  1
  Zr  Zr7  1  0.307702  0.501033  0.805614  1
  Co  Co8  1  0.105084  0.605252  0.210356  1
  Co  Co9  1  0.103627  0.898104  0.501134  1
  Co  Co10  1  0.397511  0.602716  0.500042  1
  Co  Co11  1  0.598323  0.397826  0.495888  1
  Co  Co12  1  0.897352  0.097617  0.495415  1
  Co  Co13  1  0.896469  0.397415  0.794370  1
  Co  Co14  1  0.600776  0.100891  0.201731  1
  Si  Si15  1  0.518822  0.115154  0.583296  1
  Si  Si16  1  0.500419  0.907771  0.408895  1
  Si  Si17  1  0.908739  0.501230  0.409113  1
  Si  Si18  1  0.064793  0.468203  0.583452  1
  Si  Si19  1  0.749596  0.749050  0.001299  1
  Si  Si20  1  0.252323  0.251733  0.001211  1
  Si  Si21  1  0.290266  0.289938  0.580197  1
  Si  Si22  1  0.709823  0.709593  0.419195  1
  Si  Si23  1  0.730251  0.314260  0.007746  1
  Si  Si24  1  0.277179  0.693898  0.007931  1
  Si  Si25  1  0.998497  0.298028  0.299184  1
  Si  Si26  1  0.981035  0.689602  0.697895  1
  Si  Si27  1  0.715348  0.007592  0.697215  1
  Si  Si28  1  0.300711  0.001236  0.299315  1
  Pt  Pt29  1  0.398341  0.899193  0.796728  1
