# generated using pymatgen
data_LuSc(Ni2P)4
_symmetry_space_group_name_H-M   'P 1'
_cell_length_a   6.97386836
_cell_length_b   6.97386836
_cell_length_c   3.57224500
_cell_angle_alpha   90.00000000
_cell_angle_beta   90.00000000
_cell_angle_gamma   90.15473608
_symmetry_Int_Tables_number   1
_chemical_formula_structural   LuSc(Ni2P)4
_chemical_formula_sum   'Lu1 Sc1 Ni8 P4'
_cell_volume   173.73493000
_cell_formula_units_Z   1
loop_
 _symmetry_equiv_pos_site_id
 _symmetry_equiv_pos_as_xyz
  1  'x, y, z'
loop_
 _atom_site_type_symbol
 _atom_site_label
 _atom_site_symmetry_multiplicity
 _atom_site_fract_x
 _atom_site_fract_y
 _atom_site_fract_z
 _atom_site_occupancy
  Lu  Lu0  1  0.000000  0.000000  0.500000  1
  Sc  Sc1  1  0.500000  0.500000  0.000000  1
  Ni  Ni2  1  0.165705  0.583338  0.500000  1
  Ni  Ni3  1  0.834295  0.416662  0.500000  1
  Ni  Ni4  1  0.334149  0.083758  0.000000  1
  Ni  Ni5  1  0.665851  0.916242  0.000000  1
  Ni  Ni6  1  0.583338  0.165705  0.500000  1
  Ni  Ni7  1  0.416662  0.834295  0.500000  1
  Ni  Ni8  1  0.083758  0.334149  0.000000  1
  Ni  Ni9  1  0.916242  0.665851  0.000000  1
  P  P10  1  0.716324  0.716324  0.500000  1
  P  P11  1  0.283676  0.283676  0.500000  1
  P  P12  1  0.775067  0.224933  0.000000  1
  P  P13  1  0.224933  0.775067  0.000000  1
