# generated using pymatgen
data_Th2Mn2Te
_symmetry_space_group_name_H-M   'P 1'
_cell_length_a   4.03189500
_cell_length_b   4.03189655
_cell_length_c   17.25025100
_cell_angle_alpha   90.00000000
_cell_angle_beta   90.00000000
_cell_angle_gamma   119.99999546
_symmetry_Int_Tables_number   1
_chemical_formula_structural   Th2Mn2Te
_chemical_formula_sum   'Th4 Mn4 Te2'
_cell_volume   242.85366646
_cell_formula_units_Z   2
loop_
 _symmetry_equiv_pos_site_id
 _symmetry_equiv_pos_as_xyz
  1  'x, y, z'
loop_
 _atom_site_type_symbol
 _atom_site_label
 _atom_site_symmetry_multiplicity
 _atom_site_fract_x
 _atom_site_fract_y
 _atom_site_fract_z
 _atom_site_occupancy
  Th  Th0  1  0.000000  0.000000  0.112619  1
  Th  Th1  1  0.000000  0.000000  0.387381  1
  Th  Th2  1  0.000000  0.000000  0.612619  1
  Th  Th3  1  0.000000  0.000000  0.887381  1
  Mn  Mn4  1  0.333334  0.666667  0.009937  1
  Mn  Mn5  1  0.333334  0.666667  0.490063  1
  Mn  Mn6  1  0.666666  0.333334  0.509937  1
  Mn  Mn7  1  0.666666  0.333334  0.990063  1
  Te  Te8  1  0.666666  0.333334  0.250000  1
  Te  Te9  1  0.333334  0.666667  0.750000  1
