# generated using pymatgen
data_DyTm3CdSnAu4
_symmetry_space_group_name_H-M   'P 1'
_cell_length_a   7.97833158
_cell_length_b   7.97833158
_cell_length_c   7.29182500
_cell_angle_alpha   90.00000000
_cell_angle_beta   90.00000000
_cell_angle_gamma   89.68793803
_symmetry_Int_Tables_number   1
_chemical_formula_structural   DyTm3CdSnAu4
_chemical_formula_sum   'Dy2 Tm6 Cd2 Sn2 Au8'
_cell_volume   464.14530252
_cell_formula_units_Z   2
loop_
 _symmetry_equiv_pos_site_id
 _symmetry_equiv_pos_as_xyz
  1  'x, y, z'
loop_
 _atom_site_type_symbol
 _atom_site_label
 _atom_site_symmetry_multiplicity
 _atom_site_fract_x
 _atom_site_fract_y
 _atom_site_fract_z
 _atom_site_occupancy
  Dy  Dy0  1  0.341131  0.341131  0.000000  1
  Dy  Dy1  1  0.658869  0.658869  0.000000  1
  Tm  Tm2  1  0.841633  0.158367  0.500000  1
  Tm  Tm3  1  0.158367  0.841633  0.500000  1
  Tm  Tm4  1  0.682679  0.682679  0.500000  1
  Tm  Tm5  1  0.317321  0.317321  0.500000  1
  Tm  Tm6  1  0.182263  0.817737  0.000000  1
  Tm  Tm7  1  0.817737  0.182263  0.000000  1
  Cd  Cd8  1  0.500000  0.000000  0.250393  1
  Cd  Cd9  1  0.000000  0.500000  0.749607  1
  Sn  Sn10  1  0.500000  0.000000  0.749697  1
  Sn  Sn11  1  0.000000  0.500000  0.250303  1
  Au  Au12  1  0.625811  0.367605  0.275176  1
  Au  Au13  1  0.374189  0.632395  0.275176  1
  Au  Au14  1  0.124188  0.131070  0.772125  1
  Au  Au15  1  0.875812  0.868930  0.772125  1
  Au  Au16  1  0.367605  0.625811  0.724824  1
  Au  Au17  1  0.632395  0.374189  0.724824  1
  Au  Au18  1  0.868930  0.875812  0.227875  1
  Au  Au19  1  0.131070  0.124188  0.227875  1
