# generated using pymatgen
data_Y2FeNi2P7Ru9
_symmetry_space_group_name_H-M   'P 1'
_cell_length_a   9.40685295
_cell_length_b   9.37725040
_cell_length_c   3.84038300
_cell_angle_alpha   90.00000000
_cell_angle_beta   90.00000000
_cell_angle_gamma   120.81953480
_symmetry_Int_Tables_number   1
_chemical_formula_structural   Y2FeNi2P7Ru9
_chemical_formula_sum   'Y2 Fe1 Ni2 P7 Ru9'
_cell_volume   290.92362644
_cell_formula_units_Z   1
loop_
 _symmetry_equiv_pos_site_id
 _symmetry_equiv_pos_as_xyz
  1  'x, y, z'
loop_
 _atom_site_type_symbol
 _atom_site_label
 _atom_site_symmetry_multiplicity
 _atom_site_fract_x
 _atom_site_fract_y
 _atom_site_fract_z
 _atom_site_occupancy
  Y  Y0  1  0.662046  0.330615  0.000000  1
  Y  Y1  1  0.335723  0.668453  0.500000  1
  Fe  Fe2  1  0.271380  0.113080  0.000000  1
  Ni  Ni3  1  0.840887  0.729406  0.000000  1
  Ni  Ni4  1  0.890642  0.159913  0.000000  1
  P  P5  1  0.301395  0.892551  0.000000  1
  P  P6  1  0.589758  0.701233  0.000000  1
  P  P7  1  0.114053  0.416085  0.000000  1
  P  P8  1  0.400836  0.282848  0.500000  1
  P  P9  1  0.886201  0.596433  0.500000  1
  P  P10  1  0.709799  0.113214  0.500000  1
  P  P11  1  0.005077  0.003299  0.000000  1
  Ru  Ru12  1  0.059712  0.635269  0.000000  1
  Ru  Ru13  1  0.573443  0.938503  0.000000  1
  Ru  Ru14  1  0.363976  0.427049  0.000000  1
  Ru  Ru15  1  0.434308  0.050913  0.500000  1
  Ru  Ru16  1  0.618591  0.563421  0.500000  1
  Ru  Ru17  1  0.949417  0.381267  0.500000  1
  Ru  Ru18  1  0.085767  0.883092  0.500000  1
  Ru  Ru19  1  0.785662  0.912202  0.500000  1
  Ru  Ru20  1  0.121325  0.201156  0.500000  1
