# generated using pymatgen
data_TbY(CoC2)2
_symmetry_space_group_name_H-M   'P 1'
_cell_length_a   3.68277005
_cell_length_b   3.67908716
_cell_length_c   7.33286212
_cell_angle_alpha   82.36563981
_cell_angle_beta   82.39703209
_cell_angle_gamma   90.05676401
_symmetry_Int_Tables_number   1
_chemical_formula_structural   TbY(CoC2)2
_chemical_formula_sum   'Tb1 Y1 Co2 C4'
_cell_volume   97.59082475
_cell_formula_units_Z   1
loop_
 _symmetry_equiv_pos_site_id
 _symmetry_equiv_pos_as_xyz
  1  'x, y, z'
loop_
 _atom_site_type_symbol
 _atom_site_label
 _atom_site_symmetry_multiplicity
 _atom_site_fract_x
 _atom_site_fract_y
 _atom_site_fract_z
 _atom_site_occupancy
  Tb  Tb0  1  0.930892  0.069023  0.500163  1
  Y  Y1  1  0.068914  0.930707  0.000352  1
  Co  Co2  1  0.373601  0.511225  0.693679  1
  Co  Co3  1  0.511241  0.373689  0.193301  1
  C  C4  1  0.442852  0.591571  0.428676  1
  C  C5  1  0.592248  0.443358  0.928713  1
  C  C6  1  0.490199  0.856862  0.274432  1
  C  C7  1  0.857053  0.490564  0.774484  1
