# generated using pymatgen
data_CeHo(ThH5)6
_symmetry_space_group_name_H-M   'P 1'
_cell_length_a   7.87298965
_cell_length_b   7.87644680
_cell_length_c   7.84618821
_cell_angle_alpha   109.52538676
_cell_angle_beta   109.50899391
_cell_angle_gamma   109.67873539
_symmetry_Int_Tables_number   1
_chemical_formula_structural   CeHo(ThH5)6
_chemical_formula_sum   'Ce1 Ho1 Th6 H30'
_cell_volume   373.15609227
_cell_formula_units_Z   1
loop_
 _symmetry_equiv_pos_site_id
 _symmetry_equiv_pos_as_xyz
  1  'x, y, z'
loop_
 _atom_site_type_symbol
 _atom_site_label
 _atom_site_symmetry_multiplicity
 _atom_site_fract_x
 _atom_site_fract_y
 _atom_site_fract_z
 _atom_site_occupancy
  Ce  Ce0  1  0.917187  0.917857  0.917948  1
  Ho  Ho1  1  0.499201  0.999719  0.085369  1
  Th  Th2  1  0.993689  0.080333  0.495088  1
  Th  Th3  1  0.086253  0.505581  0.001361  1
  Th  Th4  1  0.999457  0.583633  0.502376  1
  Th  Th5  1  0.583333  0.501296  0.999493  1
  Th  Th6  1  0.501876  0.999352  0.586921  1
  Th  Th7  1  0.418173  0.412011  0.413574  1
  H  H8  1  0.650644  0.965080  0.370059  1
  H  H9  1  0.217126  0.316189  0.846173  1
  H  H10  1  0.186906  0.403268  0.533837  1
  H  H11  1  0.100423  0.287182  0.130359  1
  H  H12  1  0.288819  0.126523  0.096890  1
  H  H13  1  0.130053  0.097709  0.284344  1
  H  H14  1  0.471208  0.154767  0.874851  1
  H  H15  1  0.718657  0.350396  0.813934  1
  H  H16  1  0.627719  0.380203  0.251396  1
  H  H17  1  0.250539  0.624512  0.376300  1
  H  H18  1  0.747804  0.870999  0.128244  1
  H  H19  1  0.125003  0.744608  0.871685  1
  H  H20  1  0.374020  0.248039  0.623990  1
  H  H21  1  0.874362  0.130465  0.747208  1
  H  H22  1  0.779620  0.591217  0.626447  1
  H  H23  1  0.317686  0.849252  0.220789  1
  H  H24  1  0.373834  0.658661  0.968239  1
  H  H25  1  0.964753  0.369121  0.651189  1
  H  H26  1  0.536517  0.186039  0.405652  1
  H  H27  1  0.405565  0.536696  0.186906  1
  H  H28  1  0.840216  0.216087  0.311410  1
  H  H29  1  0.904190  0.683637  0.035585  1
  H  H30  1  0.813279  0.717204  0.348680  1
  H  H31  1  0.151795  0.869207  0.465613  1
  H  H32  1  0.680163  0.031521  0.905155  1
  H  H33  1  0.347367  0.817248  0.722637  1
  H  H34  1  0.872004  0.470376  0.153671  1
  H  H35  1  0.626680  0.778097  0.590484  1
  H  H36  1  0.592806  0.623207  0.776882  1
  H  H37  1  0.031073  0.902708  0.679262  1
