# generated using pymatgen
data_Er4P7Ir8
_symmetry_space_group_name_H-M   'P 1'
_cell_length_a   3.94060100
_cell_length_b   12.61647297
_cell_length_c   13.11558533
_cell_angle_alpha   80.73587623
_cell_angle_beta   90.00000000
_cell_angle_gamma   90.00000000
_symmetry_Int_Tables_number   1
_chemical_formula_structural   Er4P7Ir8
_chemical_formula_sum   'Er8 P14 Ir16'
_cell_volume   643.55579784
_cell_formula_units_Z   2
loop_
 _symmetry_equiv_pos_site_id
 _symmetry_equiv_pos_as_xyz
  1  'x, y, z'
loop_
 _atom_site_type_symbol
 _atom_site_label
 _atom_site_symmetry_multiplicity
 _atom_site_fract_x
 _atom_site_fract_y
 _atom_site_fract_z
 _atom_site_occupancy
  Er  Er0  1  0.750000  0.790733  0.562249  1
  Er  Er1  1  0.250000  0.209267  0.437751  1
  Er  Er2  1  0.750000  0.479514  0.706781  1
  Er  Er3  1  0.250000  0.520486  0.293219  1
  Er  Er4  1  0.750000  0.720035  0.899281  1
  Er  Er5  1  0.250000  0.101686  0.789467  1
  Er  Er6  1  0.750000  0.898314  0.210533  1
  Er  Er7  1  0.250000  0.279965  0.100719  1
  P  P8  1  0.250000  0.906740  0.412642  1
  P  P9  1  0.750000  0.471126  0.129585  1
  P  P10  1  0.250000  0.528874  0.870415  1
  P  P11  1  0.750000  0.093260  0.587358  1
  P  P12  1  0.250000  0.741438  0.079414  1
  P  P13  1  0.750000  0.258562  0.920586  1
  P  P14  1  0.750000  0.157527  0.281180  1
  P  P15  1  0.250000  0.842473  0.718820  1
  P  P16  1  0.250000  0.051726  0.101028  1
  P  P17  1  0.750000  0.948274  0.898972  1
  P  P18  1  0.250000  0.311659  0.690095  1
  P  P19  1  0.750000  0.688341  0.309905  1
  P  P20  1  0.250000  0.608159  0.566486  1
  P  P21  1  0.750000  0.391841  0.433514  1
  Ir  Ir22  1  0.250000  0.991193  0.576017  1
  Ir  Ir23  1  0.750000  0.008807  0.423983  1
  Ir  Ir24  1  0.250000  0.661785  0.728934  1
  Ir  Ir25  1  0.750000  0.338215  0.271066  1
  Ir  Ir26  1  0.250000  0.553758  0.045954  1
  Ir  Ir27  1  0.750000  0.446242  0.954046  1
  Ir  Ir28  1  0.250000  0.060930  0.273293  1
  Ir  Ir29  1  0.750000  0.939070  0.726707  1
  Ir  Ir30  1  0.250000  0.421097  0.523433  1
  Ir  Ir31  1  0.750000  0.578903  0.476567  1
  Ir  Ir32  1  0.250000  0.915172  0.997691  1
  Ir  Ir33  1  0.750000  0.084828  0.002309  1
  Ir  Ir34  1  0.250000  0.729492  0.394393  1
  Ir  Ir35  1  0.750000  0.270508  0.605607  1
  Ir  Ir36  1  0.250000  0.341922  0.858266  1
  Ir  Ir37  1  0.750000  0.658078  0.141734  1
