# generated using pymatgen
data_Dy2As2Cl2O5
_symmetry_space_group_name_H-M   'P 1'
_cell_length_a   7.07213338
_cell_length_b   7.71284886
_cell_length_c   9.45218931
_cell_angle_alpha   109.48030439
_cell_angle_beta   104.03813949
_cell_angle_gamma   102.27989626
_symmetry_Int_Tables_number   1
_chemical_formula_structural   Dy2As2Cl2O5
_chemical_formula_sum   'Dy4 As4 Cl4 O10'
_cell_volume   446.59769983
_cell_formula_units_Z   2
loop_
 _symmetry_equiv_pos_site_id
 _symmetry_equiv_pos_as_xyz
  1  'x, y, z'
loop_
 _atom_site_type_symbol
 _atom_site_label
 _atom_site_symmetry_multiplicity
 _atom_site_fract_x
 _atom_site_fract_y
 _atom_site_fract_z
 _atom_site_occupancy
  Dy  Dy0  1  0.397274  0.699745  0.521050  1
  Dy  Dy1  1  0.602726  0.300255  0.478950  1
  Dy  Dy2  1  0.844014  0.765443  0.333364  1
  Dy  Dy3  1  0.155986  0.234557  0.666636  1
  As  As4  1  0.884528  0.846946  0.742419  1
  As  As5  1  0.115472  0.153054  0.257581  1
  As  As6  1  0.708621  0.230147  0.796637  1
  As  As7  1  0.291379  0.769853  0.203363  1
  Cl  Cl8  1  0.232591  0.625189  0.730646  1
  Cl  Cl9  1  0.767409  0.374811  0.269354  1
  Cl  Cl10  1  0.772785  0.724988  0.037764  1
  Cl  Cl11  1  0.227215  0.275012  0.962236  1
  O  O12  1  0.844283  0.271951  0.665292  1
  O  O13  1  0.155717  0.728049  0.334708  1
  O  O14  1  0.533087  0.790368  0.342055  1
  O  O15  1  0.466913  0.209632  0.657945  1
  O  O16  1  0.665882  0.961060  0.724651  1
  O  O17  1  0.334118  0.038940  0.275349  1
  O  O18  1  0.690777  0.621556  0.591644  1
  O  O19  1  0.309223  0.378444  0.408356  1
  O  O20  1  0.988338  0.917586  0.605909  1
  O  O21  1  0.011662  0.082414  0.394091  1
