# generated using pymatgen
data_ErFe12P7W
_symmetry_space_group_name_H-M   'P 1'
_cell_length_a   8.84795600
_cell_length_b   8.84795542
_cell_length_c   3.58371600
_cell_angle_alpha   90.00000000
_cell_angle_beta   90.00000000
_cell_angle_gamma   120.00000216
_symmetry_Int_Tables_number   1
_chemical_formula_structural   ErFe12P7W
_chemical_formula_sum   'Er1 Fe12 P7 W1'
_cell_volume   242.96856464
_cell_formula_units_Z   1
loop_
 _symmetry_equiv_pos_site_id
 _symmetry_equiv_pos_as_xyz
  1  'x, y, z'
loop_
 _atom_site_type_symbol
 _atom_site_label
 _atom_site_symmetry_multiplicity
 _atom_site_fract_x
 _atom_site_fract_y
 _atom_site_fract_z
 _atom_site_occupancy
  Er  Er0  1  0.333333  0.666667  0.500000  1
  Fe  Fe1  1  0.097125  0.709549  0.000000  1
  Fe  Fe2  1  0.290451  0.387576  0.000000  1
  Fe  Fe3  1  0.612424  0.902875  0.000000  1
  Fe  Fe4  1  0.823471  0.212476  0.000000  1
  Fe  Fe5  1  0.787524  0.610995  0.000000  1
  Fe  Fe6  1  0.389005  0.176529  0.000000  1
  Fe  Fe7  1  0.045259  0.266436  0.500000  1
  Fe  Fe8  1  0.733564  0.778823  0.500000  1
  Fe  Fe9  1  0.221177  0.954741  0.500000  1
  Fe  Fe10  1  0.891154  0.456017  0.500000  1
  Fe  Fe11  1  0.543983  0.435137  0.500000  1
  Fe  Fe12  1  0.564863  0.108846  0.500000  1
  P  P13  1  0.076808  0.448586  0.000000  1
  P  P14  1  0.551414  0.628222  0.000000  1
  P  P15  1  0.371778  0.923192  0.000000  1
  P  P16  1  0.780719  0.042055  0.500000  1
  P  P17  1  0.957945  0.738664  0.500000  1
  P  P18  1  0.261336  0.219281  0.500000  1
  P  P19  1  0.666667  0.333333  0.000000  1
  W  W20  1  0.000000  0.000000  0.000000  1
