# generated using pymatgen
data_Ta4Ti20P8H
_symmetry_space_group_name_H-M   'P 1'
_cell_length_a   5.01673600
_cell_length_b   9.96968656
_cell_length_c   9.97280024
_cell_angle_alpha   89.98059418
_cell_angle_beta   90.00000000
_cell_angle_gamma   90.00000000
_symmetry_Int_Tables_number   1
_chemical_formula_structural   Ta4Ti20P8H
_chemical_formula_sum   'Ta4 Ti20 P8 H1'
_cell_volume   498.79242251
_cell_formula_units_Z   1
loop_
 _symmetry_equiv_pos_site_id
 _symmetry_equiv_pos_as_xyz
  1  'x, y, z'
loop_
 _atom_site_type_symbol
 _atom_site_label
 _atom_site_symmetry_multiplicity
 _atom_site_fract_x
 _atom_site_fract_y
 _atom_site_fract_z
 _atom_site_occupancy
  Ta  Ta0  1  0.787613  0.393243  0.914063  1
  Ta  Ta1  1  0.787613  0.606757  0.085937  1
  Ta  Ta2  1  0.286732  0.585891  0.893677  1
  Ta  Ta3  1  0.286732  0.414109  0.106323  1
  Ti  Ti4  1  0.220383  0.109859  0.586087  1
  Ti  Ti5  1  0.220383  0.890141  0.413913  1
  Ti  Ti6  1  0.712718  0.912529  0.609512  1
  Ti  Ti7  1  0.712718  0.087471  0.390488  1
  Ti  Ti8  1  0.974476  0.028967  0.859700  1
  Ti  Ti9  1  0.974476  0.971033  0.140300  1
  Ti  Ti10  1  0.474767  0.640841  0.528288  1
  Ti  Ti11  1  0.474767  0.359159  0.471712  1
  Ti  Ti12  1  0.028471  0.471916  0.640350  1
  Ti  Ti13  1  0.028471  0.528084  0.359650  1
  Ti  Ti14  1  0.528187  0.859766  0.971967  1
  Ti  Ti15  1  0.528187  0.140234  0.028033  1
  Ti  Ti16  1  0.268265  0.283600  0.819731  1
  Ti  Ti17  1  0.268265  0.716400  0.180269  1
  Ti  Ti18  1  0.766827  0.680636  0.783595  1
  Ti  Ti19  1  0.766827  0.319364  0.216405  1
  Ti  Ti20  1  0.741226  0.216541  0.682294  1
  Ti  Ti21  1  0.741226  0.783459  0.317706  1
  Ti  Ti22  1  0.239636  0.816970  0.717187  1
  Ti  Ti23  1  0.239636  0.183030  0.282813  1
  P  P24  1  0.467244  0.039493  0.793022  1
  P  P25  1  0.467244  0.960507  0.206978  1
  P  P26  1  0.967003  0.706277  0.539476  1
  P  P27  1  0.967003  0.293723  0.460524  1
  P  P28  1  0.535581  0.460019  0.703248  1
  P  P29  1  0.535581  0.539981  0.296752  1
  P  P30  1  0.035484  0.797037  0.960009  1
  P  P31  1  0.035484  0.202963  0.039991  1
  H  H32  1  0.966373  0.000000  0.500000  1
