# generated using pymatgen
data_Tm8In4Ga7Ag
_symmetry_space_group_name_H-M   'P 1'
_cell_length_a   7.19943653
_cell_length_b   7.19943621
_cell_length_c   8.70172412
_cell_angle_alpha   89.98887728
_cell_angle_beta   89.98887710
_cell_angle_gamma   89.91612638
_symmetry_Int_Tables_number   1
_chemical_formula_structural   Tm8In4Ga7Ag
_chemical_formula_sum   'Tm8 In4 Ga7 Ag1'
_cell_volume   451.02625527
_cell_formula_units_Z   1
loop_
 _symmetry_equiv_pos_site_id
 _symmetry_equiv_pos_as_xyz
  1  'x, y, z'
loop_
 _atom_site_type_symbol
 _atom_site_label
 _atom_site_symmetry_multiplicity
 _atom_site_fract_x
 _atom_site_fract_y
 _atom_site_fract_z
 _atom_site_occupancy
  Tm  Tm0  1  0.825813  0.170894  0.500773  1
  Tm  Tm1  1  0.170894  0.825813  0.500773  1
  Tm  Tm2  1  0.333230  0.333230  0.998373  1
  Tm  Tm3  1  0.671022  0.671022  0.999641  1
  Tm  Tm4  1  0.671163  0.671163  0.500405  1
  Tm  Tm5  1  0.332908  0.332908  0.502198  1
  Tm  Tm6  1  0.170320  0.824772  0.999333  1
  Tm  Tm7  1  0.824772  0.170320  0.999333  1
  In  In8  1  0.503514  0.000561  0.250728  1
  In  In9  1  0.998378  0.500954  0.748495  1
  In  In10  1  0.500954  0.998378  0.748495  1
  In  In11  1  0.000561  0.503514  0.250728  1
  Ga  Ga12  1  0.627342  0.374697  0.250287  1
  Ga  Ga13  1  0.374697  0.627342  0.250287  1
  Ga  Ga14  1  0.126118  0.126118  0.750672  1
  Ga  Ga15  1  0.873788  0.873788  0.750131  1
  Ga  Ga16  1  0.372314  0.624450  0.749987  1
  Ga  Ga17  1  0.624450  0.372314  0.749987  1
  Ga  Ga18  1  0.870102  0.870102  0.250026  1
  Ag  Ag19  1  0.127662  0.127662  0.249344  1
