# generated using pymatgen
data_Tb6Ho3Er7(In3Tc)2
_symmetry_space_group_name_H-M   'P 1'
_cell_length_a   10.35838503
_cell_length_b   10.35811057
_cell_length_c   7.09273800
_cell_angle_alpha   90.00168942
_cell_angle_beta   89.99832729
_cell_angle_gamma   119.99206095
_symmetry_Int_Tables_number   1
_chemical_formula_structural   Tb6Ho3Er7(In3Tc)2
_chemical_formula_sum   'Tb6 Ho3 Er7 In6 Tc2'
_cell_volume   659.10086176
_cell_formula_units_Z   1
loop_
 _symmetry_equiv_pos_site_id
 _symmetry_equiv_pos_as_xyz
  1  'x, y, z'
loop_
 _atom_site_type_symbol
 _atom_site_label
 _atom_site_symmetry_multiplicity
 _atom_site_fract_x
 _atom_site_fract_y
 _atom_site_fract_z
 _atom_site_occupancy
  Tb  Tb0  1  0.531556  0.063195  0.509931  1
  Tb  Tb1  1  0.936844  0.468445  0.509957  1
  Tb  Tb2  1  0.531632  0.468330  0.509857  1
  Tb  Tb3  1  0.468037  0.935998  0.009516  1
  Tb  Tb4  1  0.063969  0.531957  0.009551  1
  Tb  Tb5  1  0.467966  0.532061  0.009426  1
  Ho  Ho6  1  0.333354  0.666662  0.383453  1
  Ho  Ho7  1  0.999949  0.000016  0.488724  1
  Ho  Ho8  1  0.000054  0.999985  0.989565  1
  Er  Er9  1  0.176949  0.353901  0.710969  1
  Er  Er10  1  0.646103  0.823057  0.710974  1
  Er  Er11  1  0.176978  0.823020  0.710910  1
  Er  Er12  1  0.822800  0.645586  0.211375  1
  Er  Er13  1  0.354368  0.177174  0.211432  1
  Er  Er14  1  0.822760  0.177228  0.211351  1
  Er  Er15  1  0.666659  0.333347  0.883697  1
  In  In16  1  0.836930  0.673874  0.754579  1
  In  In17  1  0.326184  0.163099  0.754640  1
  In  In18  1  0.836933  0.163071  0.754728  1
  In  In19  1  0.162736  0.325431  0.254525  1
  In  In20  1  0.674571  0.837254  0.254520  1
  In  In21  1  0.162667  0.837317  0.254588  1
  Tc  Tc22  1  0.666659  0.333324  0.280166  1
  Tc  Tc23  1  0.333342  0.666668  0.779613  1
