# generated using pymatgen
data_Ba3Cu2(Tc2P3)2
_symmetry_space_group_name_H-M   'P 1'
_cell_length_a   8.97404180
_cell_length_b   8.97404143
_cell_length_c   8.97404207
_cell_angle_alpha   154.29961156
_cell_angle_beta   87.53262079
_cell_angle_gamma   98.16223568
_symmetry_Int_Tables_number   1
_chemical_formula_structural   Ba3Cu2(Tc2P3)2
_chemical_formula_sum   'Ba3 Cu2 Tc4 P6'
_cell_volume   304.11411108
_cell_formula_units_Z   1
loop_
 _symmetry_equiv_pos_site_id
 _symmetry_equiv_pos_as_xyz
  1  'x, y, z'
loop_
 _atom_site_type_symbol
 _atom_site_label
 _atom_site_symmetry_multiplicity
 _atom_site_fract_x
 _atom_site_fract_y
 _atom_site_fract_z
 _atom_site_occupancy
  Ba  Ba0  1  0.340446  0.340446  0.000000  1
  Ba  Ba1  1  0.666229  0.666229  0.000000  1
  Ba  Ba2  1  0.993416  0.993416  0.000000  1
  Cu  Cu3  1  0.406777  0.166716  0.240062  1
  Cu  Cu4  1  0.926653  0.166716  0.759938  1
  Tc  Tc5  1  0.574048  0.827197  0.746850  1
  Tc  Tc6  1  0.252114  0.506027  0.746087  1
  Tc  Tc7  1  0.759939  0.506027  0.253913  1
  Tc  Tc8  1  0.080349  0.827197  0.253150  1
  P  P9  1  0.306546  0.666955  0.639590  1
  P  P10  1  0.679393  0.334591  0.344802  1
  P  P11  1  0.989789  0.334591  0.655198  1
  P  P12  1  0.342518  0.998469  0.344050  1
  P  P13  1  0.027365  0.666955  0.360410  1
  P  P14  1  0.654419  0.998469  0.655950  1
