# generated using pymatgen
data_TaTc5Sb14
_symmetry_space_group_name_H-M   'P 1'
_cell_length_a   8.29820995
_cell_length_b   8.29820222
_cell_length_c   8.29820929
_cell_angle_alpha   109.21554031
_cell_angle_beta   109.21752914
_cell_angle_gamma   109.98184711
_symmetry_Int_Tables_number   1
_chemical_formula_structural   TaTc5Sb14
_chemical_formula_sum   'Ta1 Tc5 Sb14'
_cell_volume   439.85019475
_cell_formula_units_Z   1
loop_
 _symmetry_equiv_pos_site_id
 _symmetry_equiv_pos_as_xyz
  1  'x, y, z'
loop_
 _atom_site_type_symbol
 _atom_site_label
 _atom_site_symmetry_multiplicity
 _atom_site_fract_x
 _atom_site_fract_y
 _atom_site_fract_z
 _atom_site_occupancy
  Ta  Ta0  1  0.344485  0.344484  0.000000  1
  Tc  Tc1  1  0.000399  0.342799  0.342400  1
  Tc  Tc2  1  0.000400  0.658001  0.657601  1
  Tc  Tc3  1  0.657999  0.000400  0.657600  1
  Tc  Tc4  1  0.342800  0.000400  0.342400  1
  Tc  Tc5  1  0.663281  0.663282  0.000000  1
  Sb  Sb6  1  0.750998  0.250998  0.500000  1
  Sb  Sb7  1  0.499897  0.246935  0.747038  1
  Sb  Sb8  1  0.499897  0.752858  0.252962  1
  Sb  Sb9  1  0.246939  0.499897  0.747042  1
  Sb  Sb10  1  0.752854  0.499897  0.252958  1
  Sb  Sb11  1  0.251004  0.751004  0.500000  1
  Sb  Sb12  1  0.325072  0.325070  0.327818  1
  Sb  Sb13  1  0.999144  0.999142  0.326088  1
  Sb  Sb14  1  0.325072  0.997254  0.000001  1
  Sb  Sb15  1  0.997252  0.325070  0.999998  1
  Sb  Sb16  1  0.673054  0.999142  0.999998  1
  Sb  Sb17  1  0.999144  0.673056  0.000001  1
  Sb  Sb18  1  0.997252  0.997254  0.672182  1
  Sb  Sb19  1  0.673055  0.673056  0.673912  1
