# generated using pymatgen
data_Yb2UP2S
_symmetry_space_group_name_H-M   'P 1'
_cell_length_a   3.99911200
_cell_length_b   3.99911149
_cell_length_c   9.92385400
_cell_angle_alpha   90.00000000
_cell_angle_beta   90.00000000
_cell_angle_gamma   120.00000419
_symmetry_Int_Tables_number   1
_chemical_formula_structural   Yb2UP2S
_chemical_formula_sum   'Yb2 U1 P2 S1'
_cell_volume   137.44788428
_cell_formula_units_Z   1
loop_
 _symmetry_equiv_pos_site_id
 _symmetry_equiv_pos_as_xyz
  1  'x, y, z'
loop_
 _atom_site_type_symbol
 _atom_site_label
 _atom_site_symmetry_multiplicity
 _atom_site_fract_x
 _atom_site_fract_y
 _atom_site_fract_z
 _atom_site_occupancy
  Yb  Yb0  1  0.333333  0.666667  0.162300  1
  Yb  Yb1  1  0.666667  0.333333  0.837700  1
  U  U2  1  0.000000  0.000000  0.500000  1
  P  P3  1  0.333333  0.666667  0.655245  1
  P  P4  1  0.666667  0.333333  0.344755  1
  S  S5  1  0.000000  0.000000  0.000000  1
