# generated using pymatgen
data_LaTbYb(Si3Pd10)2
_symmetry_space_group_name_H-M   'P 1'
_cell_length_a   8.74570054
_cell_length_b   8.74570066
_cell_length_c   8.74570100
_cell_angle_alpha   60.00000250
_cell_angle_beta   60.00000205
_cell_angle_gamma   60.00000400
_symmetry_Int_Tables_number   1
_chemical_formula_structural   LaTbYb(Si3Pd10)2
_chemical_formula_sum   'La1 Tb1 Yb1 Si6 Pd20'
_cell_volume   473.00841503
_cell_formula_units_Z   1
loop_
 _symmetry_equiv_pos_site_id
 _symmetry_equiv_pos_as_xyz
  1  'x, y, z'
loop_
 _atom_site_type_symbol
 _atom_site_label
 _atom_site_symmetry_multiplicity
 _atom_site_fract_x
 _atom_site_fract_y
 _atom_site_fract_z
 _atom_site_occupancy
  La  La0  1  0.750000  0.750000  0.750000  1
  Tb  Tb1  1  0.250000  0.250000  0.250000  1
  Yb  Yb2  1  0.000000  0.000000  0.000000  1
  Si  Si3  1  0.733821  0.266179  0.266179  1
  Si  Si4  1  0.266179  0.733821  0.733821  1
  Si  Si5  1  0.266179  0.733821  0.266179  1
  Si  Si6  1  0.733821  0.266179  0.733821  1
  Si  Si7  1  0.266179  0.266179  0.733821  1
  Si  Si8  1  0.733821  0.733821  0.266179  1
  Pd  Pd9  1  0.383882  0.383882  0.383882  1
  Pd  Pd10  1  0.614683  0.614683  0.614683  1
  Pd  Pd11  1  0.383882  0.383882  0.848355  1
  Pd  Pd12  1  0.383882  0.848355  0.383882  1
  Pd  Pd13  1  0.614683  0.614683  0.155950  1
  Pd  Pd14  1  0.614683  0.155950  0.614683  1
  Pd  Pd15  1  0.848355  0.383882  0.383882  1
  Pd  Pd16  1  0.155950  0.614683  0.614683  1
  Pd  Pd17  1  0.344496  0.000782  0.000782  1
  Pd  Pd18  1  0.653939  0.000782  0.000782  1
  Pd  Pd19  1  0.000782  0.344496  0.653939  1
  Pd  Pd20  1  0.000782  0.653939  0.344496  1
  Pd  Pd21  1  0.000782  0.344496  0.000782  1
  Pd  Pd22  1  0.653939  0.000782  0.344496  1
  Pd  Pd23  1  0.000782  0.653939  0.000782  1
  Pd  Pd24  1  0.344496  0.000782  0.653939  1
  Pd  Pd25  1  0.000782  0.000782  0.344496  1
  Pd  Pd26  1  0.000782  0.000782  0.653939  1
  Pd  Pd27  1  0.653939  0.344496  0.000782  1
  Pd  Pd28  1  0.344496  0.653939  0.000782  1
