# generated using pymatgen
data_CaAc(InPt)2
_symmetry_space_group_name_H-M   'P 1'
_cell_length_a   4.49931900
_cell_length_b   7.58112600
_cell_length_c   8.67223200
_cell_angle_alpha   90.00000000
_cell_angle_beta   90.00000000
_cell_angle_gamma   90.00000000
_symmetry_Int_Tables_number   1
_chemical_formula_structural   CaAc(InPt)2
_chemical_formula_sum   'Ca2 Ac2 In4 Pt4'
_cell_volume   295.80900318
_cell_formula_units_Z   2
loop_
 _symmetry_equiv_pos_site_id
 _symmetry_equiv_pos_as_xyz
  1  'x, y, z'
loop_
 _atom_site_type_symbol
 _atom_site_label
 _atom_site_symmetry_multiplicity
 _atom_site_fract_x
 _atom_site_fract_y
 _atom_site_fract_z
 _atom_site_occupancy
  Ca  Ca0  1  0.750000  0.966655  0.685856  1
  Ca  Ca1  1  0.750000  0.466655  0.814144  1
  Ac  Ac2  1  0.250000  0.029774  0.325716  1
  Ac  Ac3  1  0.250000  0.529774  0.174284  1
  In  In4  1  0.750000  0.356968  0.447449  1
  In  In5  1  0.250000  0.145781  0.925409  1
  In  In6  1  0.750000  0.856968  0.052551  1
  In  In7  1  0.250000  0.645781  0.574591  1
  Pt  Pt8  1  0.750000  0.234634  0.126949  1
  Pt  Pt9  1  0.750000  0.734634  0.373051  1
  Pt  Pt10  1  0.250000  0.766187  0.876962  1
  Pt  Pt11  1  0.250000  0.266187  0.623038  1
