# generated using pymatgen
data_MnNb2Fe2(PO4)6
_symmetry_space_group_name_H-M   'P 1'
_cell_length_a   8.76662565
_cell_length_b   8.76662539
_cell_length_c   8.78048919
_cell_angle_alpha   119.94778580
_cell_angle_beta   60.05221169
_cell_angle_gamma   120.00000035
_symmetry_Int_Tables_number   1
_chemical_formula_structural   MnNb2Fe2(PO4)6
_chemical_formula_sum   'Mn1 Nb2 Fe2 P6 O24'
_cell_volume   477.54127895
_cell_formula_units_Z   1
loop_
 _symmetry_equiv_pos_site_id
 _symmetry_equiv_pos_as_xyz
  1  'x, y, z'
loop_
 _atom_site_type_symbol
 _atom_site_label
 _atom_site_symmetry_multiplicity
 _atom_site_fract_x
 _atom_site_fract_y
 _atom_site_fract_z
 _atom_site_occupancy
  Mn  Mn0  1  0.000000  0.000000  0.000000  1
  Nb  Nb1  1  0.635608  0.364393  0.093177  1
  Nb  Nb2  1  0.364393  0.635608  0.906823  1
  Fe  Fe3  1  0.854322  0.145678  0.437034  1
  Fe  Fe4  1  0.145679  0.854322  0.562965  1
  P  P5  1  0.237723  0.030187  0.248944  1
  P  P6  1  0.969813  0.456482  0.248944  1
  P  P7  1  0.543519  0.762276  0.248944  1
  P  P8  1  0.456481  0.237723  0.751057  1
  P  P9  1  0.030186  0.543519  0.751057  1
  P  P10  1  0.762276  0.969813  0.751057  1
  O  O11  1  0.134526  0.496842  0.073010  1
  O  O12  1  0.503158  0.710696  0.073010  1
  O  O13  1  0.289304  0.865474  0.073010  1
  O  O14  1  0.413817  0.211208  0.239993  1
  O  O15  1  0.788792  0.442602  0.239993  1
  O  O16  1  0.557398  0.586183  0.239993  1
  O  O17  1  0.085105  0.057889  0.234659  1
  O  O18  1  0.942111  0.261875  0.234659  1
  O  O19  1  0.738124  0.914896  0.234659  1
  O  O20  1  0.186386  0.999467  0.426128  1
  O  O21  1  0.000533  0.613046  0.426128  1
  O  O22  1  0.386954  0.813614  0.426128  1
  O  O23  1  0.613047  0.186386  0.573872  1
  O  O24  1  0.999466  0.386953  0.573872  1
  O  O25  1  0.813613  0.000533  0.573872  1
  O  O26  1  0.261876  0.085105  0.765342  1
  O  O27  1  0.057889  0.738124  0.765342  1
  O  O28  1  0.914895  0.942110  0.765342  1
  O  O29  1  0.442602  0.413816  0.760006  1
  O  O30  1  0.211208  0.557398  0.760006  1
  O  O31  1  0.586184  0.788793  0.760006  1
  O  O32  1  0.710695  0.134526  0.926990  1
  O  O33  1  0.496841  0.289304  0.926990  1
  O  O34  1  0.865473  0.503158  0.926990  1
