# generated using pymatgen
data_TbTm3(Ir2O7)2
_symmetry_space_group_name_H-M   'P 1'
_cell_length_a   7.22925586
_cell_length_b   7.18305015
_cell_length_c   7.18304900
_cell_angle_alpha   60.00000991
_cell_angle_beta   60.21121432
_cell_angle_gamma   60.21121852
_symmetry_Int_Tables_number   1
_chemical_formula_structural   TbTm3(Ir2O7)2
_chemical_formula_sum   'Tb1 Tm3 Ir4 O14'
_cell_volume   264.59126738
_cell_formula_units_Z   1
loop_
 _symmetry_equiv_pos_site_id
 _symmetry_equiv_pos_as_xyz
  1  'x, y, z'
loop_
 _atom_site_type_symbol
 _atom_site_label
 _atom_site_symmetry_multiplicity
 _atom_site_fract_x
 _atom_site_fract_y
 _atom_site_fract_z
 _atom_site_occupancy
  Tb  Tb0  1  0.625000  0.125000  0.125000  1
  Tm  Tm1  1  0.125000  0.625000  0.125000  1
  Tm  Tm2  1  0.125000  0.125000  0.625000  1
  Tm  Tm3  1  0.125000  0.125000  0.125000  1
  Ir  Ir4  1  0.125000  0.625000  0.625000  1
  Ir  Ir5  1  0.625000  0.125000  0.625000  1
  Ir  Ir6  1  0.625000  0.625000  0.125000  1
  Ir  Ir7  1  0.625000  0.625000  0.625000  1
  O  O8  1  0.721044  0.708018  0.285469  1
  O  O9  1  0.286108  0.286591  0.713650  1
  O  O10  1  0.721044  0.285469  0.708018  1
  O  O11  1  0.286108  0.713650  0.286591  1
  O  O12  1  0.286108  0.713650  0.713650  1
  O  O13  1  0.721044  0.285469  0.285469  1
  O  O14  1  0.528956  0.541982  0.964531  1
  O  O15  1  0.963892  0.963409  0.536350  1
  O  O16  1  0.528956  0.964531  0.541982  1
  O  O17  1  0.963892  0.536350  0.963409  1
  O  O18  1  0.963892  0.536350  0.536350  1
  O  O19  1  0.528956  0.964531  0.964531  1
  O  O20  1  0.246186  0.251271  0.251271  1
  O  O21  1  0.003814  0.998729  0.998729  1
