# generated using pymatgen
data_TlRuCl6
_symmetry_space_group_name_H-M   'P 1'
_cell_length_a   6.67029500
_cell_length_b   6.67029618
_cell_length_c   12.66014200
_cell_angle_alpha   90.00000000
_cell_angle_beta   90.00000000
_cell_angle_gamma   119.99999908
_symmetry_Int_Tables_number   1
_chemical_formula_structural   TlRuCl6
_chemical_formula_sum   'Tl2 Ru2 Cl12'
_cell_volume   487.81974244
_cell_formula_units_Z   2
loop_
 _symmetry_equiv_pos_site_id
 _symmetry_equiv_pos_as_xyz
  1  'x, y, z'
loop_
 _atom_site_type_symbol
 _atom_site_label
 _atom_site_symmetry_multiplicity
 _atom_site_fract_x
 _atom_site_fract_y
 _atom_site_fract_z
 _atom_site_occupancy
  Tl  Tl0  1  0.000000  0.000000  0.250000  1
  Tl  Tl1  1  0.000000  0.000000  0.750000  1
  Ru  Ru2  1  0.333333  0.666667  0.250000  1
  Ru  Ru3  1  0.666667  0.333333  0.750000  1
  Cl  Cl4  1  0.622103  0.953729  0.143246  1
  Cl  Cl5  1  0.046271  0.668376  0.143246  1
  Cl  Cl6  1  0.331624  0.377897  0.143246  1
  Cl  Cl7  1  0.046271  0.377897  0.356754  1
  Cl  Cl8  1  0.377897  0.331624  0.643246  1
  Cl  Cl9  1  0.668376  0.046271  0.643246  1
  Cl  Cl10  1  0.953729  0.622103  0.643246  1
  Cl  Cl11  1  0.668376  0.622103  0.856754  1
  Cl  Cl12  1  0.953729  0.331624  0.856754  1
  Cl  Cl13  1  0.377897  0.046271  0.856754  1
  Cl  Cl14  1  0.622103  0.668376  0.356754  1
  Cl  Cl15  1  0.331624  0.953729  0.356754  1
