# generated using pymatgen
data_CaLa3Th4(AlRh)8
_symmetry_space_group_name_H-M   'P 1'
_cell_length_a   4.25489600
_cell_length_b   7.21734701
_cell_length_c   16.26053002
_cell_angle_alpha   90.00582313
_cell_angle_beta   90.00000000
_cell_angle_gamma   90.00000000
_symmetry_Int_Tables_number   1
_chemical_formula_structural   CaLa3Th4(AlRh)8
_chemical_formula_sum   'Ca1 La3 Th4 Al8 Rh8'
_cell_volume   499.34560444
_cell_formula_units_Z   1
loop_
 _symmetry_equiv_pos_site_id
 _symmetry_equiv_pos_as_xyz
  1  'x, y, z'
loop_
 _atom_site_type_symbol
 _atom_site_label
 _atom_site_symmetry_multiplicity
 _atom_site_fract_x
 _atom_site_fract_y
 _atom_site_fract_z
 _atom_site_occupancy
  Ca  Ca0  1  0.250000  0.655547  0.559334  1
  La  La1  1  0.750000  0.345326  0.443554  1
  La  La2  1  0.750000  0.845534  0.059081  1
  La  La3  1  0.250000  0.156317  0.939704  1
  Th  Th4  1  0.250000  0.523247  0.777481  1
  Th  Th5  1  0.750000  0.477858  0.221332  1
  Th  Th6  1  0.750000  0.979328  0.279614  1
  Th  Th7  1  0.250000  0.020559  0.719145  1
  Al  Al8  1  0.250000  0.654783  0.352607  1
  Al  Al9  1  0.750000  0.347550  0.647553  1
  Al  Al10  1  0.750000  0.845324  0.850898  1
  Al  Al11  1  0.250000  0.154915  0.148233  1
  Al  Al12  1  0.250000  0.506034  0.060923  1
  Al  Al13  1  0.750000  0.493515  0.938698  1
  Al  Al14  1  0.750000  0.984667  0.559911  1
  Al  Al15  1  0.250000  0.003911  0.441182  1
  Rh  Rh16  1  0.250000  0.760353  0.186977  1
  Rh  Rh17  1  0.750000  0.240326  0.811786  1
  Rh  Rh18  1  0.750000  0.741271  0.689313  1
  Rh  Rh19  1  0.250000  0.262105  0.312978  1
  Rh  Rh20  1  0.250000  0.709852  0.924037  1
  Rh  Rh21  1  0.750000  0.289728  0.075310  1
  Rh  Rh22  1  0.750000  0.788644  0.424793  1
  Rh  Rh23  1  0.250000  0.213304  0.575556  1
