# generated using pymatgen
data_Er16InAg3Ir3Rh
_symmetry_space_group_name_H-M   'P 1'
_cell_length_a   9.47395970
_cell_length_b   9.47395963
_cell_length_c   9.47395993
_cell_angle_alpha   60.37516753
_cell_angle_beta   60.37516347
_cell_angle_gamma   60.37516466
_symmetry_Int_Tables_number   1
_chemical_formula_structural   Er16InAg3Ir3Rh
_chemical_formula_sum   'Er16 In1 Ag3 Ir3 Rh1'
_cell_volume   606.38618854
_cell_formula_units_Z   1
loop_
 _symmetry_equiv_pos_site_id
 _symmetry_equiv_pos_as_xyz
  1  'x, y, z'
loop_
 _atom_site_type_symbol
 _atom_site_label
 _atom_site_symmetry_multiplicity
 _atom_site_fract_x
 _atom_site_fract_y
 _atom_site_fract_z
 _atom_site_occupancy
  Er  Er0  1  0.191310  0.191310  0.808575  1
  Er  Er1  1  0.435631  0.061511  0.061511  1
  Er  Er2  1  0.435871  0.059358  0.435871  1
  Er  Er3  1  0.061511  0.435631  0.061511  1
  Er  Er4  1  0.648732  0.051919  0.648732  1
  Er  Er5  1  0.190436  0.810979  0.810979  1
  Er  Er6  1  0.061511  0.061511  0.435631  1
  Er  Er7  1  0.808575  0.191310  0.191310  1
  Er  Er8  1  0.810979  0.810979  0.190436  1
  Er  Er9  1  0.648732  0.648732  0.051919  1
  Er  Er10  1  0.650639  0.650639  0.650639  1
  Er  Er11  1  0.059358  0.435871  0.435871  1
  Er  Er12  1  0.051919  0.648732  0.648732  1
  Er  Er13  1  0.810979  0.190436  0.810979  1
  Er  Er14  1  0.435871  0.435871  0.059358  1
  Er  Er15  1  0.191310  0.808575  0.191310  1
  In  In16  1  0.421307  0.421307  0.421307  1
  Ag  Ag17  1  0.417143  0.749582  0.417143  1
  Ag  Ag18  1  0.417143  0.417143  0.749582  1
  Ag  Ag19  1  0.749582  0.417143  0.417143  1
  Ir  Ir20  1  0.858355  0.426511  0.858355  1
  Ir  Ir21  1  0.858355  0.858355  0.426511  1
  Ir  Ir22  1  0.426511  0.858355  0.858355  1
  Rh  Rh23  1  0.858242  0.858242  0.858242  1
