# generated using pymatgen
data_NdErB6Ru
_symmetry_space_group_name_H-M   'P 1'
_cell_length_a   3.70549700
_cell_length_b   9.20625800
_cell_length_c   11.63175700
_cell_angle_alpha   90.00000000
_cell_angle_beta   90.00000000
_cell_angle_gamma   90.00000000
_symmetry_Int_Tables_number   1
_chemical_formula_structural   NdErB6Ru
_chemical_formula_sum   'Nd4 Er4 B24 Ru4'
_cell_volume   396.80298296
_cell_formula_units_Z   4
loop_
 _symmetry_equiv_pos_site_id
 _symmetry_equiv_pos_as_xyz
  1  'x, y, z'
loop_
 _atom_site_type_symbol
 _atom_site_label
 _atom_site_symmetry_multiplicity
 _atom_site_fract_x
 _atom_site_fract_y
 _atom_site_fract_z
 _atom_site_occupancy
  Nd  Nd0  1  0.000000  0.322974  0.414373  1
  Nd  Nd1  1  0.000000  0.677026  0.585627  1
  Nd  Nd2  1  0.000000  0.822974  0.085627  1
  Nd  Nd3  1  0.000000  0.177026  0.914373  1
  Er  Er4  1  0.000000  0.944170  0.371846  1
  Er  Er5  1  0.000000  0.055830  0.628154  1
  Er  Er6  1  0.000000  0.444170  0.128154  1
  Er  Er7  1  0.000000  0.555830  0.871846  1
  B  B8  1  0.500000  0.556455  0.430390  1
  B  B9  1  0.500000  0.443545  0.569610  1
  B  B10  1  0.500000  0.056455  0.069610  1
  B  B11  1  0.500000  0.943545  0.930390  1
  B  B12  1  0.500000  0.750054  0.417438  1
  B  B13  1  0.500000  0.249946  0.582562  1
  B  B14  1  0.500000  0.250054  0.082562  1
  B  B15  1  0.500000  0.749946  0.917438  1
  B  B16  1  0.500000  0.791007  0.266727  1
  B  B17  1  0.500000  0.208993  0.733273  1
  B  B18  1  0.500000  0.291007  0.233273  1
  B  B19  1  0.500000  0.708993  0.766727  1
  B  B20  1  0.500000  0.630833  0.184948  1
  B  B21  1  0.500000  0.369167  0.815052  1
  B  B22  1  0.500000  0.130833  0.315052  1
  B  B23  1  0.500000  0.869167  0.684948  1
  B  B24  1  0.500000  0.985864  0.214141  1
  B  B25  1  0.500000  0.014136  0.785859  1
  B  B26  1  0.500000  0.485864  0.285859  1
  B  B27  1  0.500000  0.514136  0.714141  1
  B  B28  1  0.500000  0.602394  0.027946  1
  B  B29  1  0.500000  0.397606  0.972054  1
  B  B30  1  0.500000  0.102394  0.472054  1
  B  B31  1  0.500000  0.897606  0.527946  1
  Ru  Ru32  1  0.000000  0.639820  0.319181  1
  Ru  Ru33  1  0.000000  0.360180  0.680819  1
  Ru  Ru34  1  0.000000  0.139820  0.180819  1
  Ru  Ru35  1  0.000000  0.860180  0.819181  1
