# generated using pymatgen
data_GdHf(UH6)2
_symmetry_space_group_name_H-M   'P 1'
_cell_length_a   6.40351700
_cell_length_b   6.42963200
_cell_length_c   6.42963200
_cell_angle_alpha   90.00000000
_cell_angle_beta   90.00000000
_cell_angle_gamma   90.00000000
_symmetry_Int_Tables_number   1
_chemical_formula_structural   GdHf(UH6)2
_chemical_formula_sum   'Gd2 Hf2 U4 H24'
_cell_volume   264.72246636
_cell_formula_units_Z   2
loop_
 _symmetry_equiv_pos_site_id
 _symmetry_equiv_pos_as_xyz
  1  'x, y, z'
loop_
 _atom_site_type_symbol
 _atom_site_label
 _atom_site_symmetry_multiplicity
 _atom_site_fract_x
 _atom_site_fract_y
 _atom_site_fract_z
 _atom_site_occupancy
  Gd  Gd0  1  0.250000  0.000000  0.500000  1
  Gd  Gd1  1  0.750000  0.000000  0.500000  1
  Hf  Hf2  1  0.000000  0.000000  0.000000  1
  Hf  Hf3  1  0.500000  0.500000  0.500000  1
  U  U4  1  0.000000  0.500000  0.250807  1
  U  U5  1  0.000000  0.500000  0.749193  1
  U  U6  1  0.500000  0.750807  0.000000  1
  U  U7  1  0.500000  0.249193  0.000000  1
  H  H8  1  0.000000  0.154166  0.286602  1
  H  H9  1  0.500000  0.213398  0.654166  1
  H  H10  1  0.500000  0.786602  0.345834  1
  H  H11  1  0.795670  0.649244  0.500000  1
  H  H12  1  0.204330  0.649244  0.500000  1
  H  H13  1  0.348632  0.500000  0.792836  1
  H  H14  1  0.651368  0.500000  0.792836  1
  H  H15  1  0.295670  0.000000  0.149244  1
  H  H16  1  0.151368  0.292836  0.000000  1
  H  H17  1  0.848632  0.707164  0.000000  1
  H  H18  1  0.295670  0.000000  0.850756  1
  H  H19  1  0.848632  0.292836  0.000000  1
  H  H20  1  0.704330  0.000000  0.149244  1
  H  H21  1  0.704330  0.000000  0.850756  1
  H  H22  1  0.151368  0.707164  0.000000  1
  H  H23  1  0.000000  0.845834  0.713398  1
  H  H24  1  0.000000  0.154166  0.713398  1
  H  H25  1  0.000000  0.845834  0.286602  1
  H  H26  1  0.651368  0.500000  0.207164  1
  H  H27  1  0.348632  0.500000  0.207164  1
  H  H28  1  0.795670  0.350756  0.500000  1
  H  H29  1  0.204330  0.350756  0.500000  1
  H  H30  1  0.500000  0.786602  0.654166  1
  H  H31  1  0.500000  0.213398  0.345834  1
