# generated using pymatgen
data_Tb2Y8Ir3Ru
_symmetry_space_group_name_H-M   'P 1'
_cell_length_a   6.50188979
_cell_length_b   7.25571933
_cell_length_c   8.55822433
_cell_angle_alpha   96.53746863
_cell_angle_beta   112.16736948
_cell_angle_gamma   90.03383030
_symmetry_Int_Tables_number   1
_chemical_formula_structural   Tb2Y8Ir3Ru
_chemical_formula_sum   'Tb2 Y8 Ir3 Ru1'
_cell_volume   371.05192031
_cell_formula_units_Z   1
loop_
 _symmetry_equiv_pos_site_id
 _symmetry_equiv_pos_as_xyz
  1  'x, y, z'
loop_
 _atom_site_type_symbol
 _atom_site_label
 _atom_site_symmetry_multiplicity
 _atom_site_fract_x
 _atom_site_fract_y
 _atom_site_fract_z
 _atom_site_occupancy
  Tb  Tb0  1  0.427251  0.750124  0.999931  1
  Tb  Tb1  1  0.573997  0.251125  0.000611  1
  Y  Y2  1  0.973431  0.914945  0.184280  1
  Y  Y3  1  0.790551  0.583343  0.817361  1
  Y  Y4  1  0.026413  0.083170  0.816576  1
  Y  Y5  1  0.208645  0.416846  0.184294  1
  Y  Y6  1  0.654351  0.817472  0.439771  1
  Y  Y7  1  0.212693  0.682829  0.559423  1
  Y  Y8  1  0.346275  0.182764  0.559816  1
  Y  Y9  1  0.786697  0.318059  0.438964  1
  Ir  Ir10  1  0.604165  0.927632  0.779668  1
  Ir  Ir11  1  0.175100  0.426330  0.779910  1
  Ir  Ir12  1  0.394765  0.073067  0.220457  1
  Ru  Ru13  1  0.825667  0.572296  0.218936  1
