# generated using pymatgen
data_Li2LaErSn2
_symmetry_space_group_name_H-M   'P 1'
_cell_length_a   9.48986900
_cell_length_b   9.48986907
_cell_length_c   7.63502600
_cell_angle_alpha   90.00000000
_cell_angle_beta   90.00000000
_cell_angle_gamma   119.99999628
_symmetry_Int_Tables_number   1
_chemical_formula_structural   Li2LaErSn2
_chemical_formula_sum   'Li8 La4 Er4 Sn8'
_cell_volume   595.47235799
_cell_formula_units_Z   4
loop_
 _symmetry_equiv_pos_site_id
 _symmetry_equiv_pos_as_xyz
  1  'x, y, z'
loop_
 _atom_site_type_symbol
 _atom_site_label
 _atom_site_symmetry_multiplicity
 _atom_site_fract_x
 _atom_site_fract_y
 _atom_site_fract_z
 _atom_site_occupancy
  Li  Li0  1  0.166272  0.332545  0.237008  1
  Li  Li1  1  0.166272  0.833728  0.237008  1
  Li  Li2  1  0.667455  0.833728  0.237008  1
  Li  Li3  1  0.666667  0.333333  0.341666  1
  Li  Li4  1  0.832741  0.665482  0.686416  1
  Li  Li5  1  0.334518  0.167259  0.686416  1
  Li  Li6  1  0.832741  0.167259  0.686416  1
  Li  Li7  1  0.333333  0.666667  0.808225  1
  La  La8  1  0.000000  0.000000  0.999531  1
  La  La9  1  0.511212  0.022425  0.004376  1
  La  La10  1  0.511212  0.488788  0.004376  1
  La  La11  1  0.977575  0.488788  0.004376  1
  Er  Er12  1  0.000000  0.000000  0.500885  1
  Er  Er13  1  0.486979  0.973957  0.505571  1
  Er  Er14  1  0.026043  0.513021  0.505571  1
  Er  Er15  1  0.486979  0.513021  0.505571  1
  Sn  Sn16  1  0.333333  0.666667  0.244823  1
  Sn  Sn17  1  0.833260  0.666520  0.286998  1
  Sn  Sn18  1  0.333480  0.166740  0.286998  1
  Sn  Sn19  1  0.833260  0.166740  0.286998  1
  Sn  Sn20  1  0.666667  0.333333  0.724726  1
  Sn  Sn21  1  0.166530  0.333059  0.759006  1
  Sn  Sn22  1  0.166530  0.833470  0.759006  1
  Sn  Sn23  1  0.666941  0.833470  0.759006  1
