# generated using pymatgen
data_Nd4ZnSn7Pt4
_symmetry_space_group_name_H-M   'P 1'
_cell_length_a   10.21311585
_cell_length_b   10.24935833
_cell_length_c   10.24935836
_cell_angle_alpha   153.82120866
_cell_angle_beta   124.37036158
_cell_angle_gamma   62.50974638
_symmetry_Int_Tables_number   1
_chemical_formula_structural   Nd4ZnSn7Pt4
_chemical_formula_sum   'Nd4 Zn1 Sn7 Pt4'
_cell_volume   387.68774379
_cell_formula_units_Z   1
loop_
 _symmetry_equiv_pos_site_id
 _symmetry_equiv_pos_as_xyz
  1  'x, y, z'
loop_
 _atom_site_type_symbol
 _atom_site_label
 _atom_site_symmetry_multiplicity
 _atom_site_fract_x
 _atom_site_fract_y
 _atom_site_fract_z
 _atom_site_occupancy
  Nd  Nd0  1  0.769697  0.998603  0.771093  1
  Nd  Nd1  1  0.226956  0.999650  0.227306  1
  Nd  Nd2  1  0.213348  0.208383  0.004966  1
  Nd  Nd3  1  0.791891  0.796017  0.995875  1
  Zn  Zn4  1  0.464931  0.804739  0.660192  1
  Sn  Sn5  1  0.418569  0.413886  0.004683  1
  Sn  Sn6  1  0.576044  0.577914  0.998130  1
  Sn  Sn7  1  0.918598  0.421658  0.496940  1
  Sn  Sn8  1  0.078336  0.580658  0.497678  1
  Sn  Sn9  1  0.857734  0.200073  0.657661  1
  Sn  Sn10  1  0.156113  0.802287  0.353825  1
  Sn  Sn11  1  0.537985  0.200033  0.337951  1
  Pt  Pt12  1  0.099894  0.354003  0.745893  1
  Pt  Pt13  1  0.895576  0.646816  0.248759  1
  Pt  Pt14  1  0.600669  0.349482  0.251187  1
  Pt  Pt15  1  0.393658  0.645796  0.747862  1
