# generated using pymatgen
data_NdPa(CuP2)2
_symmetry_space_group_name_H-M   'P 1'
_cell_length_a   3.82533900
_cell_length_b   3.82533900
_cell_length_c   9.64245500
_cell_angle_alpha   90.00000000
_cell_angle_beta   90.00000000
_cell_angle_gamma   90.00000000
_symmetry_Int_Tables_number   1
_chemical_formula_structural   NdPa(CuP2)2
_chemical_formula_sum   'Nd1 Pa1 Cu2 P4'
_cell_volume   141.10015055
_cell_formula_units_Z   1
loop_
 _symmetry_equiv_pos_site_id
 _symmetry_equiv_pos_as_xyz
  1  'x, y, z'
loop_
 _atom_site_type_symbol
 _atom_site_label
 _atom_site_symmetry_multiplicity
 _atom_site_fract_x
 _atom_site_fract_y
 _atom_site_fract_z
 _atom_site_occupancy
  Nd  Nd0  1  0.500000  0.000000  0.224226  1
  Pa  Pa1  1  0.000000  0.500000  0.767079  1
  Cu  Cu2  1  0.500000  0.500000  0.504240  1
  Cu  Cu3  1  0.000000  0.000000  0.504240  1
  P  P4  1  0.500000  0.000000  0.667388  1
  P  P5  1  0.000000  0.500000  0.358947  1
  P  P6  1  0.000000  0.000000  0.986939  1
  P  P7  1  0.500000  0.500000  0.986939  1
