# generated using pymatgen
data_YNbP7Ru12
_symmetry_space_group_name_H-M   'P 1'
_cell_length_a   9.38401700
_cell_length_b   9.38401665
_cell_length_c   3.90362300
_cell_angle_alpha   90.00000000
_cell_angle_beta   90.00000000
_cell_angle_gamma   120.00000380
_symmetry_Int_Tables_number   1
_chemical_formula_structural   YNbP7Ru12
_chemical_formula_sum   'Y1 Nb1 P7 Ru12'
_cell_volume   297.69808361
_cell_formula_units_Z   1
loop_
 _symmetry_equiv_pos_site_id
 _symmetry_equiv_pos_as_xyz
  1  'x, y, z'
loop_
 _atom_site_type_symbol
 _atom_site_label
 _atom_site_symmetry_multiplicity
 _atom_site_fract_x
 _atom_site_fract_y
 _atom_site_fract_z
 _atom_site_occupancy
  Y  Y0  1  0.333333  0.666667  0.000000  1
  Nb  Nb1  1  0.666667  0.333333  0.500000  1
  P  P2  1  0.598589  0.718723  0.500000  1
  P  P3  1  0.000000  0.000000  0.000000  1
  P  P4  1  0.281277  0.879867  0.500000  1
  P  P5  1  0.120133  0.401411  0.500000  1
  P  P6  1  0.886389  0.573697  0.000000  1
  P  P7  1  0.426303  0.312693  0.000000  1
  P  P8  1  0.687307  0.113611  0.000000  1
  Ru  Ru9  1  0.558606  0.957284  0.500000  1
  Ru  Ru10  1  0.398679  0.441394  0.500000  1
  Ru  Ru11  1  0.912969  0.123279  0.500000  1
  Ru  Ru12  1  0.210310  0.087031  0.500000  1
  Ru  Ru13  1  0.876721  0.789690  0.500000  1
  Ru  Ru14  1  0.725511  0.887834  0.000000  1
  Ru  Ru15  1  0.112166  0.837677  0.000000  1
  Ru  Ru16  1  0.162323  0.274489  0.000000  1
  Ru  Ru17  1  0.430957  0.078486  0.000000  1
  Ru  Ru18  1  0.921514  0.352473  0.000000  1
  Ru  Ru19  1  0.647527  0.569043  0.000000  1
  Ru  Ru20  1  0.042716  0.601321  0.500000  1
