# generated using pymatgen
data_Nb3Co2MoC
_symmetry_space_group_name_H-M   'P 1'
_cell_length_a   8.19969237
_cell_length_b   8.19969266
_cell_length_c   8.19969200
_cell_angle_alpha   60.00000265
_cell_angle_beta   60.00000148
_cell_angle_gamma   59.99999749
_symmetry_Int_Tables_number   1
_chemical_formula_structural   Nb3Co2MoC
_chemical_formula_sum   'Nb12 Co8 Mo4 C4'
_cell_volume   389.83217445
_cell_formula_units_Z   4
loop_
 _symmetry_equiv_pos_site_id
 _symmetry_equiv_pos_as_xyz
  1  'x, y, z'
loop_
 _atom_site_type_symbol
 _atom_site_label
 _atom_site_symmetry_multiplicity
 _atom_site_fract_x
 _atom_site_fract_y
 _atom_site_fract_z
 _atom_site_occupancy
  Nb  Nb0  1  0.690867  0.309133  0.690867  1
  Nb  Nb1  1  0.940867  0.559133  0.559133  1
  Nb  Nb2  1  0.559133  0.940867  0.940867  1
  Nb  Nb3  1  0.940867  0.559133  0.940867  1
  Nb  Nb4  1  0.559133  0.559133  0.940867  1
  Nb  Nb5  1  0.940867  0.940867  0.559133  1
  Nb  Nb6  1  0.690867  0.690867  0.309133  1
  Nb  Nb7  1  0.309133  0.690867  0.690867  1
  Nb  Nb8  1  0.690867  0.309133  0.309133  1
  Nb  Nb9  1  0.309133  0.309133  0.690867  1
  Nb  Nb10  1  0.559133  0.940867  0.559133  1
  Nb  Nb11  1  0.309133  0.690867  0.309133  1
  Co  Co12  1  0.326944  0.326944  0.326944  1
  Co  Co13  1  0.230830  0.923056  0.923056  1
  Co  Co14  1  0.923056  0.230830  0.923056  1
  Co  Co15  1  0.923056  0.923056  0.230830  1
  Co  Co16  1  0.326944  0.019170  0.326944  1
  Co  Co17  1  0.326944  0.326944  0.019170  1
  Co  Co18  1  0.019170  0.326944  0.326944  1
  Co  Co19  1  0.923056  0.923056  0.923056  1
  Mo  Mo20  1  0.125000  0.125000  0.125000  1
  Mo  Mo21  1  0.625000  0.125000  0.125000  1
  Mo  Mo22  1  0.125000  0.625000  0.125000  1
  Mo  Mo23  1  0.125000  0.125000  0.625000  1
  C  C24  1  0.625000  0.625000  0.625000  1
  C  C25  1  0.125000  0.625000  0.625000  1
  C  C26  1  0.625000  0.125000  0.625000  1
  C  C27  1  0.625000  0.625000  0.125000  1
