# generated using pymatgen
data_Ho2Er2Re5Ru3
_symmetry_space_group_name_H-M   'P 1'
_cell_length_a   5.33270831
_cell_length_b   5.33270819
_cell_length_c   9.11220000
_cell_angle_alpha   90.00200101
_cell_angle_beta   89.99800084
_cell_angle_gamma   121.75286626
_symmetry_Int_Tables_number   1
_chemical_formula_structural   Ho2Er2Re5Ru3
_chemical_formula_sum   'Ho2 Er2 Re5 Ru3'
_cell_volume   220.34555750
_cell_formula_units_Z   1
loop_
 _symmetry_equiv_pos_site_id
 _symmetry_equiv_pos_as_xyz
  1  'x, y, z'
loop_
 _atom_site_type_symbol
 _atom_site_label
 _atom_site_symmetry_multiplicity
 _atom_site_fract_x
 _atom_site_fract_y
 _atom_site_fract_z
 _atom_site_occupancy
  Ho  Ho0  1  0.336032  0.663968  0.436133  1
  Ho  Ho1  1  0.664801  0.335199  0.563285  1
  Er  Er2  1  0.664733  0.335267  0.936686  1
  Er  Er3  1  0.336084  0.663916  0.063857  1
  Re  Re4  1  0.168154  0.341050  0.750274  1
  Re  Re5  1  0.171456  0.828544  0.750260  1
  Re  Re6  1  0.335222  0.171889  0.249740  1
  Re  Re7  1  0.828111  0.664778  0.249740  1
  Re  Re8  1  0.658950  0.831846  0.750274  1
  Ru  Ru9  1  0.006815  0.993185  0.001492  1
  Ru  Ru10  1  0.822833  0.177167  0.249731  1
  Ru  Ru11  1  0.006809  0.993191  0.498527  1
