# generated using pymatgen
data_Ho4Tc3B16Mo
_symmetry_space_group_name_H-M   'P 1'
_cell_length_a   3.60116700
_cell_length_b   5.97575973
_cell_length_c   11.55920135
_cell_angle_alpha   89.91271131
_cell_angle_beta   90.00000000
_cell_angle_gamma   90.00000000
_symmetry_Int_Tables_number   1
_chemical_formula_structural   Ho4Tc3B16Mo
_chemical_formula_sum   'Ho4 Tc3 B16 Mo1'
_cell_volume   248.75035787
_cell_formula_units_Z   1
loop_
 _symmetry_equiv_pos_site_id
 _symmetry_equiv_pos_as_xyz
  1  'x, y, z'
loop_
 _atom_site_type_symbol
 _atom_site_label
 _atom_site_symmetry_multiplicity
 _atom_site_fract_x
 _atom_site_fract_y
 _atom_site_fract_z
 _atom_site_occupancy
  Ho  Ho0  1  0.000000  0.626546  0.347928  1
  Ho  Ho1  1  0.000000  0.371401  0.652323  1
  Ho  Ho2  1  0.000000  0.127595  0.148790  1
  Ho  Ho3  1  0.000000  0.872420  0.851712  1
  Tc  Tc4  1  0.000000  0.635613  0.088115  1
  Tc  Tc5  1  0.000000  0.365251  0.913297  1
  Tc  Tc6  1  0.000000  0.130170  0.413962  1
  B  B7  1  0.500000  0.787265  0.185017  1
  B  B8  1  0.500000  0.213912  0.815658  1
  B  B9  1  0.500000  0.287649  0.314540  1
  B  B10  1  0.500000  0.710387  0.686630  1
  B  B11  1  0.500000  0.864172  0.031355  1
  B  B12  1  0.500000  0.136087  0.969130  1
  B  B13  1  0.500000  0.364919  0.467094  1
  B  B14  1  0.500000  0.632699  0.530861  1
  B  B15  1  0.500000  0.887021  0.450928  1
  B  B16  1  0.500000  0.116454  0.546414  1
  B  B17  1  0.500000  0.386511  0.047660  1
  B  B18  1  0.500000  0.613640  0.953101  1
  B  B19  1  0.500000  0.978018  0.306188  1
  B  B20  1  0.500000  0.024559  0.693888  1
  B  B21  1  0.500000  0.475835  0.192333  1
  B  B22  1  0.500000  0.522942  0.808316  1
  Mo  Mo23  1  0.000000  0.868934  0.584761  1
