# generated using pymatgen
data_Ho3MoO6
_symmetry_space_group_name_H-M   'P 1'
_cell_length_a   6.61771094
_cell_length_b   6.61771077
_cell_length_c   6.61771123
_cell_angle_alpha   92.09944149
_cell_angle_beta   92.09943003
_cell_angle_gamma   92.09943505
_symmetry_Int_Tables_number   1
_chemical_formula_structural   Ho3MoO6
_chemical_formula_sum   'Ho6 Mo2 O12'
_cell_volume   289.21840233
_cell_formula_units_Z   2
loop_
 _symmetry_equiv_pos_site_id
 _symmetry_equiv_pos_as_xyz
  1  'x, y, z'
loop_
 _atom_site_type_symbol
 _atom_site_label
 _atom_site_symmetry_multiplicity
 _atom_site_fract_x
 _atom_site_fract_y
 _atom_site_fract_z
 _atom_site_occupancy
  Ho  Ho0  1  0.746713  0.930712  0.439329  1
  Ho  Ho1  1  0.930712  0.439329  0.746713  1
  Ho  Ho2  1  0.439329  0.746713  0.930712  1
  Ho  Ho3  1  0.253287  0.069288  0.560671  1
  Ho  Ho4  1  0.069288  0.560671  0.253287  1
  Ho  Ho5  1  0.560671  0.253287  0.069288  1
  Mo  Mo6  1  0.500000  0.500000  0.500000  1
  Mo  Mo7  1  0.000000  0.000000  0.000000  1
  O  O8  1  0.596541  0.465544  0.811580  1
  O  O9  1  0.465544  0.811580  0.596541  1
  O  O10  1  0.811580  0.596541  0.465544  1
  O  O11  1  0.403459  0.534456  0.188420  1
  O  O12  1  0.534456  0.188420  0.403459  1
  O  O13  1  0.188420  0.403459  0.534456  1
  O  O14  1  0.069715  0.910042  0.310935  1
  O  O15  1  0.910042  0.310935  0.069715  1
  O  O16  1  0.689065  0.930285  0.089958  1
  O  O17  1  0.089958  0.689065  0.930285  1
  O  O18  1  0.930285  0.089958  0.689065  1
  O  O19  1  0.310935  0.069715  0.910042  1
