# generated using pymatgen
data_Y2HoAl8(SiOs)4
_symmetry_space_group_name_H-M   'P 1'
_cell_length_a   8.69846913
_cell_length_b   8.69846833
_cell_length_c   9.43470400
_cell_angle_alpha   90.00000000
_cell_angle_beta   90.00000000
_cell_angle_gamma   120.07548839
_symmetry_Int_Tables_number   1
_chemical_formula_structural   Y2HoAl8(SiOs)4
_chemical_formula_sum   'Y4 Ho2 Al16 Si8 Os8'
_cell_volume   617.75129736
_cell_formula_units_Z   2
loop_
 _symmetry_equiv_pos_site_id
 _symmetry_equiv_pos_as_xyz
  1  'x, y, z'
loop_
 _atom_site_type_symbol
 _atom_site_label
 _atom_site_symmetry_multiplicity
 _atom_site_fract_x
 _atom_site_fract_y
 _atom_site_fract_z
 _atom_site_occupancy
  Y  Y0  1  0.192136  0.387335  0.250000  1
  Y  Y1  1  0.807864  0.612665  0.750000  1
  Y  Y2  1  0.612665  0.807864  0.250000  1
  Y  Y3  1  0.387335  0.192136  0.750000  1
  Ho  Ho4  1  0.194672  0.805328  0.250000  1
  Ho  Ho5  1  0.805328  0.194672  0.750000  1
  Al  Al6  1  0.165427  0.329181  0.578391  1
  Al  Al7  1  0.834573  0.670819  0.421609  1
  Al  Al8  1  0.670819  0.834573  0.578391  1
  Al  Al9  1  0.834573  0.670819  0.078391  1
  Al  Al10  1  0.329181  0.165427  0.421609  1
  Al  Al11  1  0.165427  0.329181  0.921609  1
  Al  Al12  1  0.164568  0.835432  0.578005  1
  Al  Al13  1  0.329181  0.165427  0.078391  1
  Al  Al14  1  0.835432  0.164568  0.421995  1
  Al  Al15  1  0.670819  0.834573  0.921609  1
  Al  Al16  1  0.835432  0.164568  0.078005  1
  Al  Al17  1  0.164568  0.835432  0.921995  1
  Al  Al18  1  0.565078  0.434922  0.250000  1
  Al  Al19  1  0.434922  0.565078  0.750000  1
  Al  Al20  1  0.000253  0.999747  0.250000  1
  Al  Al21  1  0.999747  0.000253  0.750000  1
  Si  Si22  1  0.334805  0.665195  0.039764  1
  Si  Si23  1  0.665195  0.334805  0.960236  1
  Si  Si24  1  0.665195  0.334805  0.539764  1
  Si  Si25  1  0.334805  0.665195  0.460236  1
  Si  Si26  1  0.563837  0.124356  0.250000  1
  Si  Si27  1  0.436163  0.875644  0.750000  1
  Si  Si28  1  0.875644  0.436163  0.250000  1
  Si  Si29  1  0.124356  0.563837  0.750000  1
  Os  Os30  1  0.500000  0.000000  0.000000  1
  Os  Os31  1  0.000000  0.500000  0.000000  1
  Os  Os32  1  0.500000  0.000000  0.500000  1
  Os  Os33  1  0.500000  0.500000  0.000000  1
  Os  Os34  1  0.000000  0.500000  0.500000  1
  Os  Os35  1  0.500000  0.500000  0.500000  1
  Os  Os36  1  0.000000  0.000000  0.000000  1
  Os  Os37  1  0.000000  0.000000  0.500000  1
