# generated using pymatgen
data_Tb2Sm2P7Ir8
_symmetry_space_group_name_H-M   'P 1'
_cell_length_a   3.96094900
_cell_length_b   12.80026775
_cell_length_c   13.18901200
_cell_angle_alpha   80.85392439
_cell_angle_beta   90.00000000
_cell_angle_gamma   90.00000000
_symmetry_Int_Tables_number   1
_chemical_formula_structural   Tb2Sm2P7Ir8
_chemical_formula_sum   'Tb4 Sm4 P14 Ir16'
_cell_volume   660.19720168
_cell_formula_units_Z   2
loop_
 _symmetry_equiv_pos_site_id
 _symmetry_equiv_pos_as_xyz
  1  'x, y, z'
loop_
 _atom_site_type_symbol
 _atom_site_label
 _atom_site_symmetry_multiplicity
 _atom_site_fract_x
 _atom_site_fract_y
 _atom_site_fract_z
 _atom_site_occupancy
  Tb  Tb0  1  0.750000  0.791642  0.559982  1
  Tb  Tb1  1  0.250000  0.208358  0.440018  1
  Tb  Tb2  1  0.750000  0.479977  0.705462  1
  Tb  Tb3  1  0.250000  0.520023  0.294538  1
  Sm  Sm4  1  0.750000  0.720361  0.897843  1
  Sm  Sm5  1  0.250000  0.104310  0.787608  1
  Sm  Sm6  1  0.750000  0.895690  0.212392  1
  Sm  Sm7  1  0.250000  0.279639  0.102157  1
  P  P8  1  0.250000  0.907589  0.411188  1
  P  P9  1  0.750000  0.472781  0.129440  1
  P  P10  1  0.250000  0.527219  0.870560  1
  P  P11  1  0.750000  0.092411  0.588812  1
  P  P12  1  0.250000  0.741904  0.081408  1
  P  P13  1  0.750000  0.258096  0.918592  1
  P  P14  1  0.750000  0.158065  0.283441  1
  P  P15  1  0.250000  0.841935  0.716559  1
  P  P16  1  0.250000  0.051579  0.100302  1
  P  P17  1  0.750000  0.948421  0.899698  1
  P  P18  1  0.250000  0.314688  0.688212  1
  P  P19  1  0.750000  0.685312  0.311788  1
  P  P20  1  0.250000  0.607680  0.565575  1
  P  P21  1  0.750000  0.392320  0.434425  1
  Ir  Ir22  1  0.250000  0.990348  0.576370  1
  Ir  Ir23  1  0.750000  0.009652  0.423630  1
  Ir  Ir24  1  0.250000  0.661298  0.729509  1
  Ir  Ir25  1  0.750000  0.338702  0.270491  1
  Ir  Ir26  1  0.250000  0.550690  0.048626  1
  Ir  Ir27  1  0.750000  0.449310  0.951374  1
  Ir  Ir28  1  0.250000  0.063103  0.272809  1
  Ir  Ir29  1  0.750000  0.936897  0.727191  1
  Ir  Ir30  1  0.250000  0.422280  0.524173  1
  Ir  Ir31  1  0.750000  0.577720  0.475827  1
  Ir  Ir32  1  0.250000  0.914703  0.998035  1
  Ir  Ir33  1  0.750000  0.085297  0.001965  1
  Ir  Ir34  1  0.250000  0.729122  0.395314  1
  Ir  Ir35  1  0.750000  0.270878  0.604686  1
  Ir  Ir36  1  0.250000  0.342416  0.857367  1
  Ir  Ir37  1  0.750000  0.657584  0.142633  1
