# generated using pymatgen
data_Ho8Re3B24Rh
_symmetry_space_group_name_H-M   'P 1'
_cell_length_a   3.66939500
_cell_length_b   9.14908919
_cell_length_c   11.52351463
_cell_angle_alpha   90.16258697
_cell_angle_beta   90.00000000
_cell_angle_gamma   90.00000000
_symmetry_Int_Tables_number   1
_chemical_formula_structural   Ho8Re3B24Rh
_chemical_formula_sum   'Ho8 Re3 B24 Rh1'
_cell_volume   386.86152092
_cell_formula_units_Z   1
loop_
 _symmetry_equiv_pos_site_id
 _symmetry_equiv_pos_as_xyz
  1  'x, y, z'
loop_
 _atom_site_type_symbol
 _atom_site_label
 _atom_site_symmetry_multiplicity
 _atom_site_fract_x
 _atom_site_fract_y
 _atom_site_fract_z
 _atom_site_occupancy
  Ho  Ho0  1  0.000000  0.318699  0.415560  1
  Ho  Ho1  1  0.000000  0.678133  0.590936  1
  Ho  Ho2  1  0.000000  0.826846  0.081498  1
  Ho  Ho3  1  0.000000  0.176971  0.912831  1
  Ho  Ho4  1  0.000000  0.943578  0.370044  1
  Ho  Ho5  1  0.000000  0.055735  0.628892  1
  Ho  Ho6  1  0.000000  0.441342  0.128993  1
  Ho  Ho7  1  0.000000  0.556529  0.871619  1
  Re  Re8  1  0.000000  0.362423  0.677612  1
  Re  Re9  1  0.000000  0.138445  0.179833  1
  Re  Re10  1  0.000000  0.861472  0.821036  1
  B  B11  1  0.500000  0.554110  0.433700  1
  B  B12  1  0.500000  0.446670  0.566467  1
  B  B13  1  0.500000  0.053375  0.066522  1
  B  B14  1  0.500000  0.946838  0.932947  1
  B  B15  1  0.500000  0.749334  0.420295  1
  B  B16  1  0.500000  0.250480  0.580848  1
  B  B17  1  0.500000  0.249420  0.081177  1
  B  B18  1  0.500000  0.751386  0.918997  1
  B  B19  1  0.500000  0.791318  0.265030  1
  B  B20  1  0.500000  0.208179  0.734215  1
  B  B21  1  0.500000  0.292020  0.235220  1
  B  B22  1  0.500000  0.707921  0.765701  1
  B  B23  1  0.500000  0.632013  0.184060  1
  B  B24  1  0.500000  0.369240  0.814240  1
  B  B25  1  0.500000  0.131118  0.314973  1
  B  B26  1  0.500000  0.868306  0.685357  1
  B  B27  1  0.500000  0.983035  0.211964  1
  B  B28  1  0.500000  0.017194  0.787221  1
  B  B29  1  0.500000  0.483351  0.288034  1
  B  B30  1  0.500000  0.518140  0.712257  1
  B  B31  1  0.500000  0.603689  0.029331  1
  B  B32  1  0.500000  0.397453  0.972105  1
  B  B33  1  0.500000  0.102233  0.470966  1
  B  B34  1  0.500000  0.894947  0.528295  1
  Rh  Rh35  1  0.000000  0.638057  0.321226  1
