# generated using pymatgen
data_PrTh3Al4(Ga7Ir3)2
_symmetry_space_group_name_H-M   'P 1'
_cell_length_a   7.69145183
_cell_length_b   7.69221649
_cell_length_c   9.54322900
_cell_angle_alpha   90.00000000
_cell_angle_beta   90.00000000
_cell_angle_gamma   119.66280707
_symmetry_Int_Tables_number   1
_chemical_formula_structural   PrTh3Al4(Ga7Ir3)2
_chemical_formula_sum   'Pr1 Th3 Al4 Ga14 Ir6'
_cell_volume   490.62698563
_cell_formula_units_Z   1
loop_
 _symmetry_equiv_pos_site_id
 _symmetry_equiv_pos_as_xyz
  1  'x, y, z'
loop_
 _atom_site_type_symbol
 _atom_site_label
 _atom_site_symmetry_multiplicity
 _atom_site_fract_x
 _atom_site_fract_y
 _atom_site_fract_z
 _atom_site_occupancy
  Pr  Pr0  1  0.330107  0.002852  0.750000  1
  Th  Th1  1  0.997278  0.670053  0.250000  1
  Th  Th2  1  0.001796  0.330393  0.750000  1
  Th  Th3  1  0.669569  0.997116  0.250000  1
  Al  Al4  1  0.335608  0.333735  0.551719  1
  Al  Al5  1  0.664020  0.664005  0.449737  1
  Al  Al6  1  0.664020  0.664005  0.050263  1
  Al  Al7  1  0.335608  0.333735  0.948281  1
  Ga  Ga8  1  0.133851  0.132868  0.250000  1
  Ga  Ga9  1  0.869772  0.869167  0.750000  1
  Ga  Ga10  1  0.004222  0.334955  0.077592  1
  Ga  Ga11  1  0.998792  0.667935  0.921878  1
  Ga  Ga12  1  0.998792  0.667935  0.578122  1
  Ga  Ga13  1  0.334838  0.003718  0.425047  1
  Ga  Ga14  1  0.004222  0.334955  0.422408  1
  Ga  Ga15  1  0.662615  0.996156  0.578115  1
  Ga  Ga16  1  0.662615  0.996156  0.921885  1
  Ga  Ga17  1  0.334838  0.003718  0.074953  1
  Ga  Ga18  1  0.345354  0.545104  0.250000  1
  Ga  Ga19  1  0.654636  0.451888  0.750000  1
  Ga  Ga20  1  0.545181  0.344376  0.250000  1
  Ga  Ga21  1  0.453315  0.655962  0.750000  1
  Ir  Ir22  1  0.672709  0.331863  0.001663  1
  Ir  Ir23  1  0.329724  0.668397  0.001609  1
  Ir  Ir24  1  0.329724  0.668397  0.498391  1
  Ir  Ir25  1  0.672709  0.331863  0.498337  1
  Ir  Ir26  1  0.997043  0.999348  0.002334  1
  Ir  Ir27  1  0.997043  0.999348  0.497666  1
