# generated using pymatgen
data_DyEr7Cd2OsPt
_symmetry_space_group_name_H-M   'P 1'
_cell_length_a   9.58805182
_cell_length_b   9.58805065
_cell_length_c   9.64366800
_cell_angle_alpha   59.80792143
_cell_angle_beta   59.80792550
_cell_angle_gamma   59.60229325
_symmetry_Int_Tables_number   1
_chemical_formula_structural   DyEr7Cd2OsPt
_chemical_formula_sum   'Dy2 Er14 Cd4 Os2 Pt2'
_cell_volume   623.16948015
_cell_formula_units_Z   2
loop_
 _symmetry_equiv_pos_site_id
 _symmetry_equiv_pos_as_xyz
  1  'x, y, z'
loop_
 _atom_site_type_symbol
 _atom_site_label
 _atom_site_symmetry_multiplicity
 _atom_site_fract_x
 _atom_site_fract_y
 _atom_site_fract_z
 _atom_site_occupancy
  Dy  Dy0  1  0.564199  0.564199  0.935801  1
  Dy  Dy1  1  0.940079  0.940079  0.559920  1
  Er  Er2  1  0.349577  0.349577  0.352036  1
  Er  Er3  1  0.349577  0.349577  0.948810  1
  Er  Er4  1  0.346606  0.954183  0.349606  1
  Er  Er5  1  0.954183  0.346606  0.349606  1
  Er  Er6  1  0.814534  0.188050  0.190344  1
  Er  Er7  1  0.188050  0.814534  0.807072  1
  Er  Er8  1  0.188050  0.814534  0.190344  1
  Er  Er9  1  0.814534  0.188050  0.807072  1
  Er  Er10  1  0.188317  0.188317  0.811683  1
  Er  Er11  1  0.808594  0.808594  0.191406  1
  Er  Er12  1  0.938293  0.556807  0.566547  1
  Er  Er13  1  0.556807  0.938293  0.938353  1
  Er  Er14  1  0.556807  0.938293  0.566547  1
  Er  Er15  1  0.938293  0.556806  0.938353  1
  Cd  Cd16  1  0.580271  0.580271  0.581484  1
  Cd  Cd17  1  0.580271  0.580271  0.257974  1
  Cd  Cd18  1  0.580917  0.255205  0.581939  1
  Cd  Cd19  1  0.255205  0.580917  0.581939  1
  Os  Os20  1  0.144092  0.144092  0.137695  1
  Os  Os21  1  0.144092  0.144092  0.574122  1
  Pt  Pt22  1  0.144055  0.574598  0.140675  1
  Pt  Pt23  1  0.574598  0.144055  0.140675  1
