# generated using pymatgen
data_Gd10Zn(SnRu2)3
_symmetry_space_group_name_H-M   'P 1'
_cell_length_a   8.52993976
_cell_length_b   8.52993978
_cell_length_c   8.58077700
_cell_angle_alpha   109.59199525
_cell_angle_beta   109.59199530
_cell_angle_gamma   109.35017301
_symmetry_Int_Tables_number   1
_chemical_formula_structural   Gd10Zn(SnRu2)3
_chemical_formula_sum   'Gd10 Zn1 Sn3 Ru6'
_cell_volume   479.89604977
_cell_formula_units_Z   1
loop_
 _symmetry_equiv_pos_site_id
 _symmetry_equiv_pos_as_xyz
  1  'x, y, z'
loop_
 _atom_site_type_symbol
 _atom_site_label
 _atom_site_symmetry_multiplicity
 _atom_site_fract_x
 _atom_site_fract_y
 _atom_site_fract_z
 _atom_site_occupancy
  Gd  Gd0  1  0.250363  0.686486  0.438302  1
  Gd  Gd1  1  0.746427  0.819180  0.062359  1
  Gd  Gd2  1  0.436123  0.249637  0.687939  1
  Gd  Gd3  1  0.680820  0.427249  0.243178  1
  Gd  Gd4  1  0.072752  0.753573  0.815931  1
  Gd  Gd5  1  0.813514  0.063878  0.751817  1
  Gd  Gd6  1  0.208656  0.209680  0.209930  1
  Gd  Gd7  1  0.500001  0.000000  0.285200  1
  Gd  Gd8  1  0.290320  0.498977  0.000250  1
  Gd  Gd9  1  0.001024  0.291344  0.501275  1
  Zn  Zn10  1  0.500001  0.000000  0.915803  1
  Sn  Sn11  1  0.594957  0.592897  0.592986  1
  Sn  Sn12  1  0.907103  0.502061  0.000088  1
  Sn  Sn13  1  0.997940  0.905043  0.498030  1
  Ru  Ru14  1  0.253993  0.133209  0.883126  1
  Ru  Ru15  1  0.750406  0.364847  0.616663  1
  Ru  Ru16  1  0.879218  0.246009  0.129134  1
  Ru  Ru17  1  0.135152  0.885557  0.251817  1
  Ru  Ru18  1  0.614442  0.749594  0.366258  1
  Ru  Ru19  1  0.366790  0.620781  0.749917  1
