# generated using pymatgen
data_Tb18Er2Ir7Au5
_symmetry_space_group_name_H-M   'P 1'
_cell_length_a   11.23067768
_cell_length_b   11.23067703
_cell_length_c   6.33319857
_cell_angle_alpha   89.97208658
_cell_angle_beta   89.97208785
_cell_angle_gamma   89.67613846
_symmetry_Int_Tables_number   1
_chemical_formula_structural   Tb18Er2Ir7Au5
_chemical_formula_sum   'Tb18 Er2 Ir7 Au5'
_cell_volume   798.78144054
_cell_formula_units_Z   1
loop_
 _symmetry_equiv_pos_site_id
 _symmetry_equiv_pos_as_xyz
  1  'x, y, z'
loop_
 _atom_site_type_symbol
 _atom_site_label
 _atom_site_symmetry_multiplicity
 _atom_site_fract_x
 _atom_site_fract_y
 _atom_site_fract_z
 _atom_site_occupancy
  Tb  Tb0  1  0.299757  0.091136  0.363953  1
  Tb  Tb1  1  0.301573  0.907014  0.862709  1
  Tb  Tb2  1  0.698021  0.081005  0.858912  1
  Tb  Tb3  1  0.698147  0.905568  0.360675  1
  Tb  Tb4  1  0.581295  0.783439  0.876412  1
  Tb  Tb5  1  0.576321  0.207487  0.363717  1
  Tb  Tb6  1  0.417407  0.787375  0.376715  1
  Tb  Tb7  1  0.410868  0.208996  0.877758  1
  Tb  Tb8  1  0.216561  0.418705  0.623588  1
  Tb  Tb9  1  0.212625  0.582593  0.123285  1
  Tb  Tb10  1  0.792513  0.423679  0.136283  1
  Tb  Tb11  1  0.791004  0.589132  0.622242  1
  Tb  Tb12  1  0.908864  0.700243  0.136047  1
  Tb  Tb13  1  0.918995  0.301979  0.641088  1
  Tb  Tb14  1  0.092986  0.698427  0.637291  1
  Tb  Tb15  1  0.094432  0.301853  0.139325  1
  Tb  Tb16  1  0.998616  0.000729  0.499194  1
  Tb  Tb17  1  0.999271  0.001384  0.000806  1
  Er  Er18  1  0.495863  0.502220  0.001331  1
  Er  Er19  1  0.497780  0.504137  0.498669  1
  Ir  Ir20  1  0.651538  0.649671  0.250586  1
  Ir  Ir21  1  0.350329  0.348462  0.249414  1
  Ir  Ir22  1  0.347132  0.652868  0.750000  1
  Ir  Ir23  1  0.499454  0.999172  0.111185  1
  Ir  Ir24  1  0.499148  0.000611  0.611488  1
  Ir  Ir25  1  0.999389  0.500852  0.888512  1
  Ir  Ir26  1  0.000828  0.500546  0.388815  1
  Au  Au27  1  0.841310  0.158690  0.250000  1
  Au  Au28  1  0.843549  0.845615  0.750698  1
  Au  Au29  1  0.154385  0.156451  0.749302  1
  Au  Au30  1  0.155871  0.844129  0.250000  1
  Au  Au31  1  0.654165  0.345835  0.750000  1
