# generated using pymatgen
data_Y3AlV2(GaO6)2
_symmetry_space_group_name_H-M   'P 1'
_cell_length_a   10.77074891
_cell_length_b   10.77074920
_cell_length_c   10.77074863
_cell_angle_alpha   109.36475101
_cell_angle_beta   109.36475177
_cell_angle_gamma   109.68437672
_symmetry_Int_Tables_number   1
_chemical_formula_structural   Y3AlV2(GaO6)2
_chemical_formula_sum   'Y12 Al4 V8 Ga8 O48'
_cell_volume   961.85867627
_cell_formula_units_Z   4
loop_
 _symmetry_equiv_pos_site_id
 _symmetry_equiv_pos_as_xyz
  1  'x, y, z'
loop_
 _atom_site_type_symbol
 _atom_site_label
 _atom_site_symmetry_multiplicity
 _atom_site_fract_x
 _atom_site_fract_y
 _atom_site_fract_z
 _atom_site_occupancy
  Y  Y0  1  0.250000  0.374575  0.124575  1
  Y  Y1  1  0.750000  0.625425  0.875425  1
  Y  Y2  1  0.750000  0.125425  0.375425  1
  Y  Y3  1  0.125425  0.250000  0.375425  1
  Y  Y4  1  0.374575  0.750000  0.124575  1
  Y  Y5  1  0.250000  0.874575  0.624575  1
  Y  Y6  1  0.874575  0.750000  0.624575  1
  Y  Y7  1  0.625425  0.250000  0.875425  1
  Y  Y8  1  0.375000  0.125000  0.250000  1
  Y  Y9  1  0.625000  0.875000  0.750000  1
  Y  Y10  1  0.125000  0.375000  0.750000  1
  Y  Y11  1  0.875000  0.625000  0.250000  1
  Al  Al12  1  0.625000  0.375000  0.250000  1
  Al  Al13  1  0.375000  0.625000  0.750000  1
  Al  Al14  1  0.875000  0.125000  0.750000  1
  Al  Al15  1  0.125000  0.875000  0.250000  1
  V  V16  1  0.000000  0.000000  0.000000  1
  V  V17  1  0.500000  0.000000  0.500000  1
  V  V18  1  0.000000  0.500000  0.500000  1
  V  V19  1  0.500000  0.000000  0.000000  1
  V  V20  1  0.500000  0.500000  0.000000  1
  V  V21  1  0.500000  0.500000  0.500000  1
  V  V22  1  0.000000  0.000000  0.500000  1
  V  V23  1  0.000000  0.500000  0.000000  1
  Ga  Ga24  1  0.250000  0.624873  0.374873  1
  Ga  Ga25  1  0.750000  0.375127  0.625127  1
  Ga  Ga26  1  0.750000  0.875127  0.125127  1
  Ga  Ga27  1  0.375127  0.250000  0.625127  1
  Ga  Ga28  1  0.624873  0.750000  0.374873  1
  Ga  Ga29  1  0.250000  0.124873  0.874873  1
  Ga  Ga30  1  0.124873  0.750000  0.874873  1
  Ga  Ga31  1  0.875127  0.250000  0.125127  1
  O  O32  1  0.477277  0.377299  0.290246  1
  O  O33  1  0.522723  0.622701  0.709754  1
  O  O34  1  0.587052  0.187030  0.209754  1
  O  O35  1  0.912948  0.122701  0.599978  1
  O  O36  1  0.291809  0.469934  0.373990  1
  O  O37  1  0.312970  0.912948  0.290246  1
  O  O38  1  0.412948  0.812970  0.790246  1
  O  O39  1  0.087052  0.877299  0.400022  1
  O  O40  1  0.708191  0.530066  0.626010  1
  O  O41  1  0.687030  0.087052  0.709754  1
  O  O42  1  0.022723  0.312970  0.900022  1
  O  O43  1  0.208191  0.582181  0.178126  1
  O  O44  1  0.122701  0.022723  0.209754  1
  O  O45  1  0.977277  0.687030  0.099978  1
  O  O46  1  0.791809  0.417819  0.821874  1
  O  O47  1  0.877299  0.977277  0.790246  1
  O  O48  1  0.595945  0.917819  0.126010  1
  O  O49  1  0.187030  0.477277  0.599978  1
  O  O50  1  0.404055  0.082181  0.873990  1
  O  O51  1  0.812970  0.522723  0.400022  1
  O  O52  1  0.904055  0.030066  0.321874  1
  O  O53  1  0.377299  0.587052  0.900022  1
  O  O54  1  0.095945  0.969934  0.678126  1
  O  O55  1  0.622701  0.412948  0.099978  1
  O  O56  1  0.375566  0.290923  0.469920  1
  O  O57  1  0.582181  0.904055  0.373990  1
  O  O58  1  0.624434  0.709077  0.530080  1
  O  O59  1  0.417819  0.095945  0.626010  1
  O  O60  1  0.124434  0.594354  0.915356  1
  O  O61  1  0.030066  0.208191  0.126010  1
  O  O62  1  0.875566  0.405646  0.084644  1
  O  O63  1  0.969934  0.791809  0.873990  1
  O  O64  1  0.321003  0.905646  0.030080  1
  O  O65  1  0.917819  0.291809  0.321874  1
  O  O66  1  0.678997  0.094354  0.969920  1
  O  O67  1  0.082181  0.708191  0.678126  1
  O  O68  1  0.178997  0.209077  0.584644  1
  O  O69  1  0.469934  0.595945  0.178126  1
  O  O70  1  0.821003  0.790923  0.415356  1
  O  O71  1  0.530066  0.404055  0.821874  1
  O  O72  1  0.290923  0.321003  0.915356  1
  O  O73  1  0.709077  0.678997  0.084644  1
  O  O74  1  0.209077  0.124434  0.030080  1
  O  O75  1  0.790923  0.875566  0.969920  1
  O  O76  1  0.905646  0.375566  0.584644  1
  O  O77  1  0.094354  0.624434  0.415356  1
  O  O78  1  0.594354  0.178997  0.469920  1
  O  O79  1  0.405646  0.821003  0.530080  1
