# generated using pymatgen
data_Pu4TcMo3C8
_symmetry_space_group_name_H-M   'P 1'
_cell_length_a   3.28365500
_cell_length_b   5.67269006
_cell_length_c   10.89420997
_cell_angle_alpha   90.09775235
_cell_angle_beta   90.00000000
_cell_angle_gamma   90.00000000
_symmetry_Int_Tables_number   1
_chemical_formula_structural   Pu4TcMo3C8
_chemical_formula_sum   'Pu4 Tc1 Mo3 C8'
_cell_volume   202.92786505
_cell_formula_units_Z   1
loop_
 _symmetry_equiv_pos_site_id
 _symmetry_equiv_pos_as_xyz
  1  'x, y, z'
loop_
 _atom_site_type_symbol
 _atom_site_label
 _atom_site_symmetry_multiplicity
 _atom_site_fract_x
 _atom_site_fract_y
 _atom_site_fract_z
 _atom_site_occupancy
  Pu  Pu0  1  0.250000  0.584219  0.861326  1
  Pu  Pu1  1  0.750000  0.417966  0.140599  1
  Pu  Pu2  1  0.750000  0.915683  0.358050  1
  Pu  Pu3  1  0.250000  0.084783  0.640530  1
  Tc  Tc4  1  0.250000  0.913617  0.104239  1
  Mo  Mo5  1  0.750000  0.085354  0.896340  1
  Mo  Mo6  1  0.750000  0.585855  0.605307  1
  Mo  Mo7  1  0.250000  0.414744  0.393466  1
  C  C8  1  0.250000  0.665349  0.244627  1
  C  C9  1  0.750000  0.335104  0.755182  1
  C  C10  1  0.750000  0.836013  0.746759  1
  C  C11  1  0.250000  0.161054  0.251095  1
  C  C12  1  0.250000  0.737676  0.510819  1
  C  C13  1  0.750000  0.262418  0.488098  1
  C  C14  1  0.750000  0.765326  0.013863  1
  C  C15  1  0.250000  0.234839  0.989698  1
