# generated using pymatgen
data_LuURe2C3
_symmetry_space_group_name_H-M   'P 1'
_cell_length_a   6.04388508
_cell_length_b   6.04388554
_cell_length_c   5.60507646
_cell_angle_alpha   68.50217167
_cell_angle_beta   68.50216735
_cell_angle_gamma   30.47501936
_symmetry_Int_Tables_number   1
_chemical_formula_structural   LuURe2C3
_chemical_formula_sum   'Lu1 U1 Re2 C3'
_cell_volume   96.05756799
_cell_formula_units_Z   1
loop_
 _symmetry_equiv_pos_site_id
 _symmetry_equiv_pos_as_xyz
  1  'x, y, z'
loop_
 _atom_site_type_symbol
 _atom_site_label
 _atom_site_symmetry_multiplicity
 _atom_site_fract_x
 _atom_site_fract_y
 _atom_site_fract_z
 _atom_site_occupancy
  Lu  Lu0  1  0.606913  0.606913  0.185373  1
  U  U1  1  0.390396  0.390396  0.820772  1
  Re  Re2  1  0.849653  0.849653  0.329609  1
  Re  Re3  1  0.153662  0.153662  0.665576  1
  C  C4  1  0.751429  0.751429  0.744686  1
  C  C5  1  0.247510  0.247510  0.255327  1
  C  C6  1  0.000437  0.000437  0.998658  1
