# generated using pymatgen
data_CeY4Th3(ReB6)4
_symmetry_space_group_name_H-M   'P 1'
_cell_length_a   3.76121100
_cell_length_b   9.26761900
_cell_length_c   11.68176100
_cell_angle_alpha   90.00037675
_cell_angle_beta   90.00000000
_cell_angle_gamma   90.00000000
_symmetry_Int_Tables_number   1
_chemical_formula_structural   CeY4Th3(ReB6)4
_chemical_formula_sum   'Ce1 Y4 Th3 Re4 B24'
_cell_volume   407.19663975
_cell_formula_units_Z   1
loop_
 _symmetry_equiv_pos_site_id
 _symmetry_equiv_pos_as_xyz
  1  'x, y, z'
loop_
 _atom_site_type_symbol
 _atom_site_label
 _atom_site_symmetry_multiplicity
 _atom_site_fract_x
 _atom_site_fract_y
 _atom_site_fract_z
 _atom_site_occupancy
  Ce  Ce0  1  0.000000  0.822513  0.085877  1
  Y  Y1  1  0.000000  0.445164  0.127071  1
  Y  Y2  1  0.000000  0.556137  0.873479  1
  Y  Y3  1  0.000000  0.944025  0.371885  1
  Y  Y4  1  0.000000  0.055481  0.627380  1
  Th  Th5  1  0.000000  0.176839  0.914516  1
  Th  Th6  1  0.000000  0.322446  0.413834  1
  Th  Th7  1  0.000000  0.677515  0.585961  1
  Re  Re8  1  0.000000  0.137854  0.179232  1
  Re  Re9  1  0.000000  0.860976  0.821330  1
  Re  Re10  1  0.000000  0.639290  0.319619  1
  Re  Re11  1  0.000000  0.361209  0.679761  1
  B  B12  1  0.500000  0.054057  0.069667  1
  B  B13  1  0.500000  0.943744  0.931608  1
  B  B14  1  0.500000  0.555790  0.429829  1
  B  B15  1  0.500000  0.444406  0.569875  1
  B  B16  1  0.500000  0.248356  0.082814  1
  B  B17  1  0.500000  0.751700  0.919011  1
  B  B18  1  0.500000  0.748874  0.416691  1
  B  B19  1  0.500000  0.251238  0.582740  1
  B  B20  1  0.500000  0.290272  0.233126  1
  B  B21  1  0.500000  0.709833  0.767192  1
  B  B22  1  0.500000  0.790984  0.265343  1
  B  B23  1  0.500000  0.209643  0.733393  1
  B  B24  1  0.500000  0.130205  0.313038  1
  B  B25  1  0.500000  0.869320  0.686810  1
  B  B26  1  0.500000  0.631918  0.185579  1
  B  B27  1  0.500000  0.369452  0.813629  1
  B  B28  1  0.500000  0.485368  0.286005  1
  B  B29  1  0.500000  0.515145  0.713824  1
  B  B30  1  0.500000  0.983476  0.212718  1
  B  B31  1  0.500000  0.014677  0.786789  1
  B  B32  1  0.500000  0.103544  0.471236  1
  B  B33  1  0.500000  0.896333  0.528528  1
  B  B34  1  0.500000  0.606393  0.029371  1
  B  B35  1  0.500000  0.395821  0.971240  1
