# generated using pymatgen
data_B4IrPd4PtRh2
_symmetry_space_group_name_H-M   'P 1'
_cell_length_a   6.78389080
_cell_length_b   6.17347915
_cell_length_c   5.54953152
_cell_angle_alpha   70.03537242
_cell_angle_beta   58.16063157
_cell_angle_gamma   50.24529840
_symmetry_Int_Tables_number   1
_chemical_formula_structural   B4IrPd4PtRh2
_chemical_formula_sum   'B4 Ir1 Pd4 Pt1 Rh2'
_cell_volume   151.78994015
_cell_formula_units_Z   1
loop_
 _symmetry_equiv_pos_site_id
 _symmetry_equiv_pos_as_xyz
  1  'x, y, z'
loop_
 _atom_site_type_symbol
 _atom_site_label
 _atom_site_symmetry_multiplicity
 _atom_site_fract_x
 _atom_site_fract_y
 _atom_site_fract_z
 _atom_site_occupancy
  B  B0  1  0.058572  0.987182  0.563449  1
  B  B1  1  0.690429  0.837557  0.213098  1
  B  B2  1  0.393896  0.571874  0.989933  1
  B  B3  1  0.253970  0.202375  0.851656  1
  Ir  Ir4  1  0.394255  0.867243  0.645118  1
  Pd  Pd5  1  0.954536  0.785263  0.378816  1
  Pd  Pd6  1  0.467683  0.298475  0.363020  1
  Pd  Pd7  1  0.867389  0.364157  0.295691  1
  Pd  Pd8  1  0.880081  0.386600  0.777767  1
  Pt  Pt9  1  0.610481  0.153968  0.847637  1
  Rh  Rh10  1  0.094998  0.638656  0.865001  1
  Rh  Rh11  1  0.388910  0.851449  0.153613  1
