# generated using pymatgen
data_Dy14TmPa(CdCo)4
_symmetry_space_group_name_H-M   'P 1'
_cell_length_a   9.42287613
_cell_length_b   9.55288409
_cell_length_c   9.42287719
_cell_angle_alpha   60.35071856
_cell_angle_beta   60.12303697
_cell_angle_gamma   60.35072005
_symmetry_Int_Tables_number   1
_chemical_formula_structural   Dy14TmPa(CdCo)4
_chemical_formula_sum   'Dy14 Tm1 Pa1 Cd4 Co4'
_cell_volume   603.49681031
_cell_formula_units_Z   1
loop_
 _symmetry_equiv_pos_site_id
 _symmetry_equiv_pos_as_xyz
  1  'x, y, z'
loop_
 _atom_site_type_symbol
 _atom_site_label
 _atom_site_symmetry_multiplicity
 _atom_site_fract_x
 _atom_site_fract_y
 _atom_site_fract_z
 _atom_site_occupancy
  Dy  Dy0  1  0.687907  0.312501  0.312478  1
  Dy  Dy1  1  0.939806  0.561054  0.560005  1
  Dy  Dy2  1  0.544933  0.149087  0.151149  1
  Dy  Dy3  1  0.151149  0.149087  0.544933  1
  Dy  Dy4  1  0.937276  0.935024  0.563768  1
  Dy  Dy5  1  0.309990  0.691911  0.309990  1
  Dy  Dy6  1  0.563768  0.935024  0.937276  1
  Dy  Dy7  1  0.562858  0.936540  0.562858  1
  Dy  Dy8  1  0.687255  0.691642  0.312890  1
  Dy  Dy9  1  0.560005  0.561054  0.939806  1
  Dy  Dy10  1  0.939094  0.560937  0.939094  1
  Dy  Dy11  1  0.312890  0.691642  0.687255  1
  Dy  Dy12  1  0.154031  0.149715  0.154031  1
  Dy  Dy13  1  0.312478  0.312501  0.687907  1
  Tm  Tm14  1  0.686714  0.315866  0.686714  1
  Pa  Pa15  1  0.164778  0.506086  0.164778  1
  Cd  Cd16  1  0.919408  0.241578  0.919408  1
  Cd  Cd17  1  0.921270  0.916638  0.921270  1
  Cd  Cd18  1  0.920680  0.915743  0.243434  1
  Cd  Cd19  1  0.243434  0.915743  0.920680  1
  Co  Co20  1  0.343476  0.375761  0.935827  1
  Co  Co21  1  0.357523  0.923393  0.357523  1
  Co  Co22  1  0.935827  0.375761  0.343476  1
  Co  Co23  1  0.343451  0.375713  0.343451  1
