# generated using pymatgen
data_Er6Tm2Ti11Si16Mo
_symmetry_space_group_name_H-M   'P 1'
_cell_length_a   6.99993734
_cell_length_b   6.99977994
_cell_length_c   12.85927207
_cell_angle_alpha   89.97619689
_cell_angle_beta   90.03511671
_cell_angle_gamma   90.00439735
_symmetry_Int_Tables_number   1
_chemical_formula_structural   Er6Tm2Ti11Si16Mo
_chemical_formula_sum   'Er6 Tm2 Ti11 Si16 Mo1'
_cell_volume   630.07870746
_cell_formula_units_Z   1
loop_
 _symmetry_equiv_pos_site_id
 _symmetry_equiv_pos_as_xyz
  1  'x, y, z'
loop_
 _atom_site_type_symbol
 _atom_site_label
 _atom_site_symmetry_multiplicity
 _atom_site_fract_x
 _atom_site_fract_y
 _atom_site_fract_z
 _atom_site_occupancy
  Er  Er0  1  0.500804  0.159167  0.215577  1
  Er  Er1  1  0.840563  0.497600  0.282659  1
  Er  Er2  1  0.159238  0.500837  0.784436  1
  Er  Er3  1  0.657418  0.998977  0.966977  1
  Er  Er4  1  0.002667  0.340980  0.533061  1
  Er  Er5  1  0.998994  0.657449  0.032916  1
  Tm  Tm6  1  0.341175  0.002468  0.466992  1
  Tm  Tm7  1  0.497687  0.840756  0.717328  1
  Ti  Ti8  1  0.173847  0.827501  0.249583  1
  Ti  Ti9  1  0.827424  0.173780  0.750436  1
  Ti  Ti10  1  0.672893  0.673042  0.500031  1
  Ti  Ti11  1  0.152971  0.008437  0.876031  1
  Ti  Ti12  1  0.492269  0.650998  0.124155  1
  Ti  Ti13  1  0.506841  0.349186  0.625979  1
  Ti  Ti14  1  0.650944  0.492286  0.875812  1
  Ti  Ti15  1  0.349153  0.506903  0.374041  1
  Ti  Ti16  1  0.848706  0.992768  0.375435  1
  Ti  Ti17  1  0.008517  0.152911  0.123926  1
  Ti  Ti18  1  0.992835  0.848710  0.624589  1
  Si  Si19  1  0.202962  0.131188  0.683698  1
  Si  Si20  1  0.369246  0.702106  0.933607  1
  Si  Si21  1  0.631218  0.296770  0.433594  1
  Si  Si22  1  0.702063  0.369240  0.066338  1
  Si  Si23  1  0.297020  0.631576  0.566467  1
  Si  Si24  1  0.797031  0.868752  0.183714  1
  Si  Si25  1  0.131395  0.202728  0.316355  1
  Si  Si26  1  0.868586  0.797074  0.816258  1
  Si  Si27  1  0.290972  0.953394  0.064633  1
  Si  Si28  1  0.546324  0.791935  0.314812  1
  Si  Si29  1  0.452732  0.208094  0.815147  1
  Si  Si30  1  0.791755  0.546485  0.685265  1
  Si  Si31  1  0.208273  0.452686  0.184800  1
  Si  Si32  1  0.708238  0.047016  0.564783  1
  Si  Si33  1  0.953382  0.290961  0.935353  1
  Si  Si34  1  0.047215  0.708614  0.435238  1
  Mo  Mo35  1  0.326645  0.326629  0.999976  1
