# generated using pymatgen
data_YTm11Pb10
_symmetry_space_group_name_H-M   'P 1'
_cell_length_a   6.54953745
_cell_length_b   9.38664203
_cell_length_c   11.64069547
_cell_angle_alpha   113.80423082
_cell_angle_beta   106.33904346
_cell_angle_gamma   89.99999851
_symmetry_Int_Tables_number   1
_chemical_formula_structural   YTm11Pb10
_chemical_formula_sum   'Y1 Tm11 Pb10'
_cell_volume   623.04816453
_cell_formula_units_Z   1
loop_
 _symmetry_equiv_pos_site_id
 _symmetry_equiv_pos_as_xyz
  1  'x, y, z'
loop_
 _atom_site_type_symbol
 _atom_site_label
 _atom_site_symmetry_multiplicity
 _atom_site_fract_x
 _atom_site_fract_y
 _atom_site_fract_z
 _atom_site_occupancy
  Y  Y0  1  0.360022  0.973448  0.720044  1
  Tm  Tm1  1  0.555851  0.305842  0.611494  1
  Tm  Tm2  1  0.444198  0.694041  0.388219  1
  Tm  Tm3  1  0.944020  0.694041  0.388219  1
  Tm  Tm4  1  0.055644  0.305842  0.611494  1
  Tm  Tm5  1  0.439264  0.675853  0.878529  1
  Tm  Tm6  1  0.560766  0.323873  0.121531  1
  Tm  Tm7  1  0.939326  0.202795  0.878652  1
  Tm  Tm8  1  0.060800  0.797458  0.121599  1
  Tm  Tm9  1  0.139925  0.253348  0.279850  1
  Tm  Tm10  1  0.860111  0.746410  0.720223  1
  Tm  Tm11  1  0.639908  0.026559  0.279816  1
  Pb  Pb12  1  0.292211  0.595352  0.584423  1
  Pb  Pb13  1  0.707504  0.403327  0.415008  1
  Pb  Pb14  1  0.792423  0.988330  0.584845  1
  Pb  Pb15  1  0.207398  0.011847  0.414797  1
  Pb  Pb16  1  0.249837  0.000033  0.000425  1
  Pb  Pb17  1  0.750589  0.000033  0.000425  1
  Pb  Pb18  1  0.073507  0.475683  0.147015  1
  Pb  Pb19  1  0.926462  0.524314  0.852924  1
  Pb  Pb20  1  0.573388  0.671205  0.146779  1
  Pb  Pb21  1  0.426846  0.330367  0.853691  1
