# generated using pymatgen
data_YEr19Cd3Ru2Au3
_symmetry_space_group_name_H-M   'P 1'
_cell_length_a   9.50154401
_cell_length_b   9.50238592
_cell_length_c   9.53445000
_cell_angle_alpha   90.00000000
_cell_angle_beta   90.00000000
_cell_angle_gamma   120.00294393
_symmetry_Int_Tables_number   1
_chemical_formula_structural   YEr19Cd3Ru2Au3
_chemical_formula_sum   'Y1 Er19 Cd3 Ru2 Au3'
_cell_volume   745.48728729
_cell_formula_units_Z   1
loop_
 _symmetry_equiv_pos_site_id
 _symmetry_equiv_pos_as_xyz
  1  'x, y, z'
loop_
 _atom_site_type_symbol
 _atom_site_label
 _atom_site_symmetry_multiplicity
 _atom_site_fract_x
 _atom_site_fract_y
 _atom_site_fract_z
 _atom_site_occupancy
  Y  Y0  1  0.082254  0.541128  0.750000  1
  Er  Er1  1  0.999997  0.999999  0.462140  1
  Er  Er2  1  0.999997  0.999999  0.037860  1
  Er  Er3  1  0.209405  0.790985  0.440253  1
  Er  Er4  1  0.209405  0.418421  0.440253  1
  Er  Er5  1  0.581451  0.790726  0.440433  1
  Er  Er6  1  0.791507  0.208005  0.558138  1
  Er  Er7  1  0.791507  0.583500  0.558138  1
  Er  Er8  1  0.416539  0.208269  0.558240  1
  Er  Er9  1  0.791507  0.208005  0.941862  1
  Er  Er10  1  0.791507  0.583500  0.941862  1
  Er  Er11  1  0.416539  0.208269  0.941760  1
  Er  Er12  1  0.209405  0.790985  0.059747  1
  Er  Er13  1  0.209405  0.418421  0.059747  1
  Er  Er14  1  0.581451  0.790726  0.059567  1
  Er  Er15  1  0.540507  0.459535  0.250000  1
  Er  Er16  1  0.540507  0.080971  0.250000  1
  Er  Er17  1  0.919050  0.459525  0.250000  1
  Er  Er18  1  0.459208  0.540947  0.750000  1
  Er  Er19  1  0.459208  0.918261  0.750000  1
  Cd  Cd20  1  0.110133  0.890121  0.750000  1
  Cd  Cd21  1  0.110133  0.220011  0.750000  1
  Cd  Cd22  1  0.779721  0.889860  0.750000  1
  Ru  Ru23  1  0.333352  0.666677  0.250000  1
  Ru  Ru24  1  0.666370  0.333185  0.750000  1
  Au  Au25  1  0.869820  0.130147  0.250000  1
  Au  Au26  1  0.869820  0.739673  0.250000  1
  Au  Au27  1  0.260295  0.130148  0.250000  1
