# generated using pymatgen
data_Cs3Ac2TbTe6
_symmetry_space_group_name_H-M   'P 1'
_cell_length_a   8.23061197
_cell_length_b   8.23061368
_cell_length_c   9.56184200
_cell_angle_alpha   81.74448760
_cell_angle_beta   81.74449292
_cell_angle_gamma   120.01096242
_symmetry_Int_Tables_number   1
_chemical_formula_structural   Cs3Ac2TbTe6
_chemical_formula_sum   'Cs3 Ac2 Tb1 Te6'
_cell_volume   537.26959792
_cell_formula_units_Z   1
loop_
 _symmetry_equiv_pos_site_id
 _symmetry_equiv_pos_as_xyz
  1  'x, y, z'
loop_
 _atom_site_type_symbol
 _atom_site_label
 _atom_site_symmetry_multiplicity
 _atom_site_fract_x
 _atom_site_fract_y
 _atom_site_fract_z
 _atom_site_occupancy
  Cs  Cs0  1  0.667932  0.332068  0.500000  1
  Cs  Cs1  1  0.332068  0.667932  0.500000  1
  Cs  Cs2  1  0.000000  0.000000  0.500000  1
  Ac  Ac3  1  0.833387  0.166613  0.000000  1
  Ac  Ac4  1  0.166613  0.833387  0.000000  1
  Tb  Tb5  1  0.500000  0.500000  0.000000  1
  Te  Te6  1  0.750730  0.750730  0.198055  1
  Te  Te7  1  0.249270  0.249270  0.801945  1
  Te  Te8  1  0.434153  0.117301  0.197619  1
  Te  Te9  1  0.565847  0.882699  0.802381  1
  Te  Te10  1  0.882699  0.565847  0.802381  1
  Te  Te11  1  0.117301  0.434153  0.197619  1
