# generated using pymatgen
data_Tb2Tm4Fe3(Co5P4)3
_symmetry_space_group_name_H-M   'P 1'
_cell_length_a   3.68440300
_cell_length_b   10.52632400
_cell_length_c   12.10442600
_cell_angle_alpha   90.00000000
_cell_angle_beta   90.00000000
_cell_angle_gamma   90.00000000
_symmetry_Int_Tables_number   1
_chemical_formula_structural   Tb2Tm4Fe3(Co5P4)3
_chemical_formula_sum   'Tb2 Tm4 Fe3 Co15 P12'
_cell_volume   469.44861320
_cell_formula_units_Z   1
loop_
 _symmetry_equiv_pos_site_id
 _symmetry_equiv_pos_as_xyz
  1  'x, y, z'
loop_
 _atom_site_type_symbol
 _atom_site_label
 _atom_site_symmetry_multiplicity
 _atom_site_fract_x
 _atom_site_fract_y
 _atom_site_fract_z
 _atom_site_occupancy
  Tb  Tb0  1  0.000000  0.500000  0.522895  1
  Tb  Tb1  1  0.500000  0.000000  0.476965  1
  Tm  Tm2  1  0.500000  0.818024  0.204541  1
  Tm  Tm3  1  0.500000  0.181976  0.204541  1
  Tm  Tm4  1  0.000000  0.680491  0.796143  1
  Tm  Tm5  1  0.000000  0.319509  0.796143  1
  Fe  Fe6  1  0.500000  0.500000  0.155561  1
  Fe  Fe7  1  0.000000  0.000000  0.842972  1
  Fe  Fe8  1  0.000000  0.500000  0.988448  1
  Co  Co9  1  0.500000  0.500000  0.702986  1
  Co  Co10  1  0.000000  0.000000  0.296996  1
  Co  Co11  1  0.500000  0.000000  0.013651  1
  Co  Co12  1  0.500000  0.330949  0.994017  1
  Co  Co13  1  0.500000  0.669051  0.994017  1
  Co  Co14  1  0.000000  0.166488  0.005980  1
  Co  Co15  1  0.000000  0.833512  0.005980  1
  Co  Co16  1  0.500000  0.296732  0.430102  1
  Co  Co17  1  0.500000  0.703268  0.430102  1
  Co  Co18  1  0.000000  0.203802  0.570041  1
  Co  Co19  1  0.000000  0.796198  0.570041  1
  Co  Co20  1  0.500000  0.878439  0.709671  1
  Co  Co21  1  0.500000  0.121561  0.709671  1
  Co  Co22  1  0.000000  0.621582  0.289730  1
  Co  Co23  1  0.000000  0.378418  0.289730  1
  P  P24  1  0.500000  0.500000  0.884125  1
  P  P25  1  0.000000  0.000000  0.117878  1
  P  P26  1  0.500000  0.500000  0.341412  1
  P  P27  1  0.000000  0.000000  0.657477  1
  P  P28  1  0.500000  0.310341  0.617569  1
  P  P29  1  0.500000  0.689659  0.617569  1
  P  P30  1  0.000000  0.190051  0.382522  1
  P  P31  1  0.000000  0.809949  0.382522  1
  P  P32  1  0.500000  0.847008  0.892203  1
  P  P33  1  0.500000  0.152992  0.892203  1
  P  P34  1  0.000000  0.653278  0.106798  1
  P  P35  1  0.000000  0.346722  0.106798  1
