# generated using pymatgen
data_YLu5(AlNi2)6
_symmetry_space_group_name_H-M   'P 1'
_cell_length_a   5.14549100
_cell_length_b   5.14549032
_cell_length_c   15.75118800
_cell_angle_alpha   90.00000000
_cell_angle_beta   90.00000000
_cell_angle_gamma   119.99998509
_symmetry_Int_Tables_number   1
_chemical_formula_structural   YLu5(AlNi2)6
_chemical_formula_sum   'Y1 Lu5 Al6 Ni12'
_cell_volume   361.15830019
_cell_formula_units_Z   1
loop_
 _symmetry_equiv_pos_site_id
 _symmetry_equiv_pos_as_xyz
  1  'x, y, z'
loop_
 _atom_site_type_symbol
 _atom_site_label
 _atom_site_symmetry_multiplicity
 _atom_site_fract_x
 _atom_site_fract_y
 _atom_site_fract_z
 _atom_site_occupancy
  Y  Y0  1  0.333333  0.666667  0.750000  1
  Lu  Lu1  1  0.333333  0.666667  0.542042  1
  Lu  Lu2  1  0.666667  0.333333  0.457005  1
  Lu  Lu3  1  0.666667  0.333333  0.042995  1
  Lu  Lu4  1  0.333333  0.666667  0.957958  1
  Lu  Lu5  1  0.666667  0.333333  0.250000  1
  Al  Al6  1  0.000000  0.000000  0.250000  1
  Al  Al7  1  0.000000  0.000000  0.750000  1
  Al  Al8  1  0.333333  0.666667  0.250000  1
  Al  Al9  1  0.666667  0.333333  0.750000  1
  Al  Al10  1  0.000000  0.000000  0.000289  1
  Al  Al11  1  0.000000  0.000000  0.499711  1
  Ni  Ni12  1  0.168360  0.336719  0.125479  1
  Ni  Ni13  1  0.831662  0.663324  0.875252  1
  Ni  Ni14  1  0.663281  0.831640  0.125479  1
  Ni  Ni15  1  0.831662  0.663324  0.624748  1
  Ni  Ni16  1  0.336676  0.168338  0.875252  1
  Ni  Ni17  1  0.168360  0.336719  0.374521  1
  Ni  Ni18  1  0.168360  0.831640  0.125479  1
  Ni  Ni19  1  0.336676  0.168338  0.624748  1
  Ni  Ni20  1  0.831662  0.168338  0.875252  1
  Ni  Ni21  1  0.663281  0.831640  0.374521  1
  Ni  Ni22  1  0.831662  0.168338  0.624748  1
  Ni  Ni23  1  0.168360  0.831640  0.374521  1
