# generated using pymatgen
data_Hf3(PaGe2)2
_symmetry_space_group_name_H-M   'P 1'
_cell_length_a   7.34604500
_cell_length_b   7.24332918
_cell_length_c   7.38739162
_cell_angle_alpha   69.89693803
_cell_angle_beta   90.00000000
_cell_angle_gamma   90.00000000
_symmetry_Int_Tables_number   1
_chemical_formula_structural   Hf3(PaGe2)2
_chemical_formula_sum   'Hf6 Pa4 Ge8'
_cell_volume   369.13363335
_cell_formula_units_Z   2
loop_
 _symmetry_equiv_pos_site_id
 _symmetry_equiv_pos_as_xyz
  1  'x, y, z'
loop_
 _atom_site_type_symbol
 _atom_site_label
 _atom_site_symmetry_multiplicity
 _atom_site_fract_x
 _atom_site_fract_y
 _atom_site_fract_z
 _atom_site_occupancy
  Hf  Hf0  1  0.667802  0.746076  0.253208  1
  Hf  Hf1  1  0.332198  0.253924  0.746792  1
  Hf  Hf2  1  0.167802  0.753924  0.746792  1
  Hf  Hf3  1  0.832198  0.246076  0.253208  1
  Hf  Hf4  1  0.000000  0.000000  0.000000  1
  Hf  Hf5  1  0.500000  0.500000  0.000000  1
  Pa  Pa6  1  0.671849  0.939132  0.688601  1
  Pa  Pa7  1  0.328151  0.060868  0.311399  1
  Pa  Pa8  1  0.171849  0.560868  0.311399  1
  Pa  Pa9  1  0.828151  0.439132  0.688601  1
  Ge  Ge10  1  0.959928  0.851631  0.413575  1
  Ge  Ge11  1  0.040072  0.148369  0.586425  1
  Ge  Ge12  1  0.459928  0.648369  0.586425  1
  Ge  Ge13  1  0.540072  0.351631  0.413575  1
  Ge  Ge14  1  0.866133  0.634290  0.995970  1
  Ge  Ge15  1  0.133867  0.365710  0.004030  1
  Ge  Ge16  1  0.366133  0.865710  0.004030  1
  Ge  Ge17  1  0.633867  0.134290  0.995970  1
