# generated using pymatgen
data_YbHo3Co5Si10Ru
_symmetry_space_group_name_H-M   'P 1'
_cell_length_a   8.01824017
_cell_length_b   8.03324975
_cell_length_c   7.90795840
_cell_angle_alpha   139.48889967
_cell_angle_beta   107.17805496
_cell_angle_gamma   87.80060833
_symmetry_Int_Tables_number   1
_chemical_formula_structural   YbHo3Co5Si10Ru
_chemical_formula_sum   'Yb1 Ho3 Co5 Si10 Ru1'
_cell_volume   301.56732188
_cell_formula_units_Z   1
loop_
 _symmetry_equiv_pos_site_id
 _symmetry_equiv_pos_as_xyz
  1  'x, y, z'
loop_
 _atom_site_type_symbol
 _atom_site_label
 _atom_site_symmetry_multiplicity
 _atom_site_fract_x
 _atom_site_fract_y
 _atom_site_fract_z
 _atom_site_occupancy
  Yb  Yb0  1  0.595261  0.867064  0.735712  1
  Ho  Ho1  1  0.131829  0.362047  0.767232  1
  Ho  Ho2  1  0.869090  0.624596  0.221712  1
  Ho  Ho3  1  0.404513  0.148701  0.278472  1
  Co  Co4  1  0.006893  0.755974  0.750437  1
  Co  Co5  1  0.263647  0.881941  0.424081  1
  Co  Co6  1  0.541295  0.670053  0.935492  1
  Co  Co7  1  0.458660  0.337660  0.073449  1
  Co  Co8  1  0.734300  0.106779  0.563368  1
  Si  Si9  1  0.785047  0.033938  0.248750  1
  Si  Si10  1  0.214191  0.967087  0.750740  1
  Si  Si11  1  0.769016  0.519626  0.749917  1
  Si  Si12  1  0.931253  0.088708  0.820422  1
  Si  Si13  1  0.066477  0.889301  0.154747  1
  Si  Si14  1  0.509897  0.260374  0.749713  1
  Si  Si15  1  0.492092  0.738275  0.251133  1
  Si  Si16  1  0.734126  0.413545  0.347738  1
  Si  Si17  1  0.267749  0.610717  0.678769  1
  Si  Si18  1  0.226594  0.475366  0.246807  1
  Ru  Ru19  1  0.998071  0.248248  0.251310  1
