# generated using pymatgen
data_CrSb12Os2Rh
_symmetry_space_group_name_H-M   'P 1'
_cell_length_a   8.18193589
_cell_length_b   8.16817715
_cell_length_c   8.13563533
_cell_angle_alpha   109.28229377
_cell_angle_beta   109.18000063
_cell_angle_gamma   109.60058486
_symmetry_Int_Tables_number   1
_chemical_formula_structural   CrSb12Os2Rh
_chemical_formula_sum   'Cr1 Sb12 Os2 Rh1'
_cell_volume   420.35090777
_cell_formula_units_Z   1
loop_
 _symmetry_equiv_pos_site_id
 _symmetry_equiv_pos_as_xyz
  1  'x, y, z'
loop_
 _atom_site_type_symbol
 _atom_site_label
 _atom_site_symmetry_multiplicity
 _atom_site_fract_x
 _atom_site_fract_y
 _atom_site_fract_z
 _atom_site_occupancy
  Cr  Cr0  1  0.000000  0.000000  0.500000  1
  Sb  Sb1  1  0.159826  0.815767  0.663963  1
  Sb  Sb2  1  0.840174  0.184233  0.336037  1
  Sb  Sb3  1  0.845732  0.505677  0.661584  1
  Sb  Sb4  1  0.154268  0.494323  0.338416  1
  Sb  Sb5  1  0.814177  0.656751  0.151273  1
  Sb  Sb6  1  0.185823  0.343249  0.848727  1
  Sb  Sb7  1  0.506867  0.662521  0.846563  1
  Sb  Sb8  1  0.493133  0.337479  0.153437  1
  Sb  Sb9  1  0.665759  0.154740  0.818784  1
  Sb  Sb10  1  0.334241  0.845260  0.181216  1
  Sb  Sb11  1  0.652367  0.842210  0.499669  1
  Sb  Sb12  1  0.347633  0.157790  0.500331  1
  Os  Os13  1  0.500000  0.000000  0.000000  1
  Os  Os14  1  0.000000  0.500000  0.000000  1
  Rh  Rh15  1  0.500000  0.500000  0.500000  1
