# generated using pymatgen
data_TbGd5(CCl5)2
_symmetry_space_group_name_H-M   'P 1'
_cell_length_a   7.14654560
_cell_length_b   8.62736112
_cell_length_c   8.68433100
_cell_angle_alpha   107.95897857
_cell_angle_beta   96.17971574
_cell_angle_gamma   105.47289674
_symmetry_Int_Tables_number   1
_chemical_formula_structural   TbGd5(CCl5)2
_chemical_formula_sum   'Tb1 Gd5 C2 Cl10'
_cell_volume   480.24433646
_cell_formula_units_Z   1
loop_
 _symmetry_equiv_pos_site_id
 _symmetry_equiv_pos_as_xyz
  1  'x, y, z'
loop_
 _atom_site_type_symbol
 _atom_site_label
 _atom_site_symmetry_multiplicity
 _atom_site_fract_x
 _atom_site_fract_y
 _atom_site_fract_z
 _atom_site_occupancy
  Tb  Tb0  1  0.395751  0.152910  0.203591  1
  Gd  Gd1  1  0.880125  0.951427  0.235379  1
  Gd  Gd2  1  0.120074  0.049584  0.764397  1
  Gd  Gd3  1  0.027473  0.713798  0.912790  1
  Gd  Gd4  1  0.973058  0.286606  0.087877  1
  Gd  Gd5  1  0.600483  0.843171  0.792265  1
  C  C6  1  0.902096  0.965609  0.951195  1
  C  C7  1  0.097083  0.034320  0.047765  1
  Cl  Cl8  1  0.756091  0.918136  0.537974  1
  Cl  Cl9  1  0.247575  0.084703  0.459531  1
  Cl  Cl10  1  0.455165  0.823494  0.085023  1
  Cl  Cl11  1  0.542904  0.178812  0.919097  1
  Cl  Cl12  1  0.810405  0.260894  0.353994  1
  Cl  Cl13  1  0.183745  0.738521  0.643916  1
  Cl  Cl14  1  0.912472  0.628305  0.174389  1
  Cl  Cl15  1  0.092690  0.374391  0.828567  1
  Cl  Cl16  1  0.654898  0.537199  0.724867  1
  Cl  Cl17  1  0.347913  0.458118  0.277383  1
