# generated using pymatgen
data_Y12InSi4Ag
_symmetry_space_group_name_H-M   'P 1'
_cell_length_a   8.52464428
_cell_length_b   8.52464493
_cell_length_c   8.52464483
_cell_angle_alpha   111.27160894
_cell_angle_beta   112.03547714
_cell_angle_gamma   105.19054270
_symmetry_Int_Tables_number   1
_chemical_formula_structural   Y12InSi4Ag
_chemical_formula_sum   'Y12 In1 Si4 Ag1'
_cell_volume   474.87788195
_cell_formula_units_Z   1
loop_
 _symmetry_equiv_pos_site_id
 _symmetry_equiv_pos_as_xyz
  1  'x, y, z'
loop_
 _atom_site_type_symbol
 _atom_site_label
 _atom_site_symmetry_multiplicity
 _atom_site_fract_x
 _atom_site_fract_y
 _atom_site_fract_z
 _atom_site_occupancy
  Y  Y0  1  0.439889  0.241423  0.198466  1
  Y  Y1  1  0.560111  0.758577  0.801534  1
  Y  Y2  1  0.042957  0.241423  0.801534  1
  Y  Y3  1  0.957043  0.758577  0.198466  1
  Y  Y4  1  0.180475  0.270662  0.451137  1
  Y  Y5  1  0.819525  0.729338  0.548863  1
  Y  Y6  1  0.180475  0.729338  0.909814  1
  Y  Y7  1  0.819525  0.270662  0.090186  1
  Y  Y8  1  0.321832  0.621702  0.299871  1
  Y  Y9  1  0.678168  0.378298  0.700129  1
  Y  Y10  1  0.321832  0.021959  0.700129  1
  Y  Y11  1  0.678168  0.978041  0.299871  1
  In  In12  1  0.500000  0.500000  0.000000  1
  Si  Si13  1  0.357120  0.000000  0.357120  1
  Si  Si14  1  0.642880  0.000000  0.642880  1
  Si  Si15  1  0.116358  0.616358  0.500000  1
  Si  Si16  1  0.883642  0.383642  0.500000  1
  Ag  Ag17  1  0.000000  0.000000  0.000000  1
