# generated using pymatgen
data_Zr4ZnIn2Rh3
_symmetry_space_group_name_H-M   'P 1'
_cell_length_a   7.52164944
_cell_length_b   7.52164926
_cell_length_c   6.84692300
_cell_angle_alpha   90.00000000
_cell_angle_beta   90.00000000
_cell_angle_gamma   90.32269841
_symmetry_Int_Tables_number   1
_chemical_formula_structural   Zr4ZnIn2Rh3
_chemical_formula_sum   'Zr8 Zn2 In4 Rh6'
_cell_volume   387.35995507
_cell_formula_units_Z   2
loop_
 _symmetry_equiv_pos_site_id
 _symmetry_equiv_pos_as_xyz
  1  'x, y, z'
loop_
 _atom_site_type_symbol
 _atom_site_label
 _atom_site_symmetry_multiplicity
 _atom_site_fract_x
 _atom_site_fract_y
 _atom_site_fract_z
 _atom_site_occupancy
  Zr  Zr0  1  0.151897  0.179843  0.000000  1
  Zr  Zr1  1  0.820157  0.848103  0.000000  1
  Zr  Zr2  1  0.669428  0.330572  0.500000  1
  Zr  Zr3  1  0.352061  0.647939  0.500000  1
  Zr  Zr4  1  0.677184  0.322816  0.000000  1
  Zr  Zr5  1  0.335840  0.664160  0.000000  1
  Zr  Zr6  1  0.803174  0.828546  0.500000  1
  Zr  Zr7  1  0.171454  0.196826  0.500000  1
  Zn  Zn8  1  0.127730  0.872270  0.271270  1
  Zn  Zn9  1  0.127730  0.872270  0.728730  1
  In  In10  1  0.494163  0.001203  0.249099  1
  In  In11  1  0.494163  0.001203  0.750901  1
  In  In12  1  0.998797  0.505837  0.249099  1
  In  In13  1  0.998797  0.505837  0.750901  1
  Rh  Rh14  1  0.372848  0.365829  0.234011  1
  Rh  Rh15  1  0.634171  0.627152  0.765989  1
  Rh  Rh16  1  0.634171  0.627152  0.234011  1
  Rh  Rh17  1  0.881692  0.118308  0.735912  1
  Rh  Rh18  1  0.881692  0.118308  0.264088  1
  Rh  Rh19  1  0.372848  0.365829  0.765989  1
