# generated using pymatgen
data_Y3HoGa18Ir5Au
_symmetry_space_group_name_H-M   'P 1'
_cell_length_a   7.63769943
_cell_length_b   7.63815041
_cell_length_c   9.50979801
_cell_angle_alpha   89.97912222
_cell_angle_beta   89.97993389
_cell_angle_gamma   119.87976207
_symmetry_Int_Tables_number   1
_chemical_formula_structural   Y3HoGa18Ir5Au
_chemical_formula_sum   'Y3 Ho1 Ga18 Ir5 Au1'
_cell_volume   481.03591163
_cell_formula_units_Z   1
loop_
 _symmetry_equiv_pos_site_id
 _symmetry_equiv_pos_as_xyz
  1  'x, y, z'
loop_
 _atom_site_type_symbol
 _atom_site_label
 _atom_site_symmetry_multiplicity
 _atom_site_fract_x
 _atom_site_fract_y
 _atom_site_fract_z
 _atom_site_occupancy
  Y  Y0  1  0.994212  0.666426  0.251008  1
  Y  Y1  1  0.000358  0.329648  0.749037  1
  Y  Y2  1  0.670287  0.999617  0.250970  1
  Ho  Ho3  1  0.333482  0.005682  0.748895  1
  Ga  Ga4  1  0.127072  0.124225  0.250849  1
  Ga  Ga5  1  0.876048  0.872977  0.749163  1
  Ga  Ga6  1  0.009456  0.334402  0.084243  1
  Ga  Ga7  1  0.010906  0.674597  0.916189  1
  Ga  Ga8  1  0.003091  0.666287  0.579169  1
  Ga  Ga9  1  0.334020  0.997233  0.421310  1
  Ga  Ga10  1  0.998828  0.334507  0.420298  1
  Ga  Ga11  1  0.665154  0.001155  0.579976  1
  Ga  Ga12  1  0.665277  0.990598  0.915484  1
  Ga  Ga13  1  0.325803  0.989533  0.083318  1
  Ga  Ga14  1  0.329893  0.330462  0.564439  1
  Ga  Ga15  1  0.669228  0.670114  0.435821  1
  Ga  Ga16  1  0.668163  0.675817  0.071305  1
  Ga  Ga17  1  0.324232  0.331503  0.928424  1
  Ga  Ga18  1  0.340862  0.549706  0.251351  1
  Ga  Ga19  1  0.660058  0.459983  0.743258  1
  Ga  Ga20  1  0.539697  0.339589  0.256773  1
  Ga  Ga21  1  0.450330  0.659405  0.748660  1
  Ir  Ir22  1  0.330174  0.669910  0.999883  1
  Ir  Ir23  1  0.328714  0.671408  0.500132  1
  Ir  Ir24  1  0.671762  0.327941  0.500124  1
  Ir  Ir25  1  0.000659  0.999466  0.999880  1
  Ir  Ir26  1  0.999835  0.000333  0.500132  1
  Au  Au27  1  0.672401  0.327476  0.999910  1
