# generated using pymatgen
data_Sm6Sb7PPd16
_symmetry_space_group_name_H-M   'P 1'
_cell_length_a   9.38802823
_cell_length_b   9.38802841
_cell_length_c   9.38802900
_cell_angle_alpha   60.00000145
_cell_angle_beta   60.00000080
_cell_angle_gamma   59.99999711
_symmetry_Int_Tables_number   1
_chemical_formula_structural   Sm6Sb7PPd16
_chemical_formula_sum   'Sm6 Sb7 P1 Pd16'
_cell_volume   585.07050461
_cell_formula_units_Z   1
loop_
 _symmetry_equiv_pos_site_id
 _symmetry_equiv_pos_as_xyz
  1  'x, y, z'
loop_
 _atom_site_type_symbol
 _atom_site_label
 _atom_site_symmetry_multiplicity
 _atom_site_fract_x
 _atom_site_fract_y
 _atom_site_fract_z
 _atom_site_occupancy
  Sm  Sm0  1  0.713670  0.286330  0.286330  1
  Sm  Sm1  1  0.286330  0.713670  0.713670  1
  Sm  Sm2  1  0.286330  0.713670  0.286330  1
  Sm  Sm3  1  0.713670  0.286330  0.713670  1
  Sm  Sm4  1  0.286330  0.286330  0.713670  1
  Sm  Sm5  1  0.713670  0.713670  0.286330  1
  Sb  Sb6  1  0.000000  0.000000  0.000000  1
  Sb  Sb7  1  0.500000  0.000000  0.000000  1
  Sb  Sb8  1  0.000000  0.500000  0.500000  1
  Sb  Sb9  1  0.000000  0.500000  0.000000  1
  Sb  Sb10  1  0.500000  0.000000  0.500000  1
  Sb  Sb11  1  0.000000  0.000000  0.500000  1
  Sb  Sb12  1  0.500000  0.500000  0.000000  1
  P  P13  1  0.500000  0.500000  0.500000  1
  Pd  Pd14  1  0.118422  0.118422  0.118422  1
  Pd  Pd15  1  0.881578  0.881578  0.881578  1
  Pd  Pd16  1  0.118422  0.118422  0.644734  1
  Pd  Pd17  1  0.118422  0.644734  0.118422  1
  Pd  Pd18  1  0.881578  0.881578  0.355266  1
  Pd  Pd19  1  0.881578  0.355266  0.881578  1
  Pd  Pd20  1  0.644734  0.118422  0.118422  1
  Pd  Pd21  1  0.355266  0.881578  0.881578  1
  Pd  Pd22  1  0.332361  0.332361  0.332361  1
  Pd  Pd23  1  0.667639  0.667639  0.667639  1
  Pd  Pd24  1  0.332361  0.332361  0.002916  1
  Pd  Pd25  1  0.332361  0.002916  0.332361  1
  Pd  Pd26  1  0.667639  0.667639  0.997084  1
  Pd  Pd27  1  0.667639  0.997084  0.667639  1
  Pd  Pd28  1  0.002916  0.332361  0.332361  1
  Pd  Pd29  1  0.997084  0.667639  0.667639  1
