# generated using pymatgen
data_Y9LuInPb5
_symmetry_space_group_name_H-M   'P 1'
_cell_length_a   6.66608904
_cell_length_b   9.02540557
_cell_length_c   9.04006402
_cell_angle_alpha   119.94113849
_cell_angle_beta   89.99800298
_cell_angle_gamma   89.97945658
_symmetry_Int_Tables_number   1
_chemical_formula_structural   Y9LuInPb5
_chemical_formula_sum   'Y9 Lu1 In1 Pb5'
_cell_volume   471.29976133
_cell_formula_units_Z   1
loop_
 _symmetry_equiv_pos_site_id
 _symmetry_equiv_pos_as_xyz
  1  'x, y, z'
loop_
 _atom_site_type_symbol
 _atom_site_label
 _atom_site_symmetry_multiplicity
 _atom_site_fract_x
 _atom_site_fract_y
 _atom_site_fract_z
 _atom_site_occupancy
  Y  Y0  1  0.750496  0.237779  0.999813  1
  Y  Y1  1  0.750353  0.759374  0.765464  1
  Y  Y2  1  0.750358  0.994493  0.234713  1
  Y  Y3  1  0.249527  0.763582  0.999705  1
  Y  Y4  1  0.249530  0.238654  0.237548  1
  Y  Y5  1  0.249658  0.001455  0.762565  1
  Y  Y6  1  0.501670  0.336575  0.670175  1
  Y  Y7  1  0.501666  0.666292  0.329490  1
  Y  Y8  1  0.998363  0.666135  0.329529  1
  Lu  Lu9  1  0.997951  0.337201  0.671211  1
  In  In10  1  0.751866  0.600353  0.998755  1
  Pb  Pb11  1  0.751831  0.393163  0.395340  1
  Pb  Pb12  1  0.751610  0.000260  0.605836  1
  Pb  Pb13  1  0.248614  0.396440  0.998514  1
  Pb  Pb14  1  0.248254  0.604623  0.603691  1
  Pb  Pb15  1  0.248253  0.003622  0.397652  1
