# generated using pymatgen
data_PIBr8
_symmetry_space_group_name_H-M   'P 1'
_cell_length_a   13.36837271
_cell_length_b   13.36837215
_cell_length_c   13.36837227
_cell_angle_alpha   91.23155237
_cell_angle_beta   120.76704046
_cell_angle_gamma   117.83703607
_symmetry_Int_Tables_number   1
_chemical_formula_structural   PIBr8
_chemical_formula_sum   'P4 I4 Br32'
_cell_volume   1705.39035094
_cell_formula_units_Z   4
loop_
 _symmetry_equiv_pos_site_id
 _symmetry_equiv_pos_as_xyz
  1  'x, y, z'
loop_
 _atom_site_type_symbol
 _atom_site_label
 _atom_site_symmetry_multiplicity
 _atom_site_fract_x
 _atom_site_fract_y
 _atom_site_fract_z
 _atom_site_occupancy
  P  P0  1  0.500000  0.242449  0.242448  1
  P  P1  1  0.000000  0.742449  0.242449  1
  P  P2  1  0.000000  0.257552  0.757552  1
  P  P3  1  0.500000  0.757552  0.757552  1
  I  I4  1  0.967424  0.250000  0.217424  1
  I  I5  1  0.549920  0.750000  0.299920  1
  I  I6  1  0.450080  0.250000  0.700080  1
  I  I7  1  0.032575  0.750000  0.782575  1
  Br  Br8  1  0.973292  0.104248  0.077541  1
  Br  Br9  1  0.813334  0.581326  0.084739  1
  Br  Br10  1  0.503413  0.271404  0.084739  1
  Br  Br11  1  0.343308  0.750000  0.093308  1
  Br  Br12  1  0.545292  0.604646  0.149938  1
  Br  Br13  1  0.160034  0.444984  0.215050  1
  Br  Br14  1  0.770067  0.055017  0.215050  1
  Br  Br15  1  0.987309  0.895946  0.207213  1
  Br  Br16  1  0.311267  0.219904  0.207213  1
  Br  Br17  1  0.496586  0.081326  0.267991  1
  Br  Br18  1  0.186666  0.771404  0.267992  1
  Br  Br19  1  0.973292  0.395751  0.369044  1
  Br  Br20  1  0.012691  0.719904  0.408636  1
  Br  Br21  1  0.688734  0.395946  0.408637  1
  Br  Br22  1  0.247504  0.250000  0.497504  1
  Br  Br23  1  0.545292  0.895353  0.440646  1
  Br  Br24  1  0.454708  0.104646  0.559354  1
  Br  Br25  1  0.752496  0.750000  0.502496  1
  Br  Br26  1  0.987309  0.280097  0.591363  1
  Br  Br27  1  0.311267  0.604054  0.591363  1
  Br  Br28  1  0.026708  0.604248  0.630956  1
  Br  Br29  1  0.503413  0.918674  0.732008  1
  Br  Br30  1  0.813334  0.228596  0.732009  1
  Br  Br31  1  0.012691  0.104054  0.792787  1
  Br  Br32  1  0.688734  0.780097  0.792787  1
  Br  Br33  1  0.839966  0.555016  0.784950  1
  Br  Br34  1  0.229934  0.944984  0.784950  1
  Br  Br35  1  0.454708  0.395354  0.850061  1
  Br  Br36  1  0.656691  0.250000  0.906691  1
  Br  Br37  1  0.186666  0.418674  0.915260  1
  Br  Br38  1  0.496586  0.728595  0.915260  1
  Br  Br39  1  0.026708  0.895752  0.922460  1
