# generated using pymatgen
data_AcHo5Rh18
_symmetry_space_group_name_H-M   'P 1'
_cell_length_a   5.26515900
_cell_length_b   5.26515836
_cell_length_c   17.58597500
_cell_angle_alpha   90.00000000
_cell_angle_beta   90.00000000
_cell_angle_gamma   119.99999773
_symmetry_Int_Tables_number   1
_chemical_formula_structural   AcHo5Rh18
_chemical_formula_sum   'Ac1 Ho5 Rh18'
_cell_volume   422.20174301
_cell_formula_units_Z   1
loop_
 _symmetry_equiv_pos_site_id
 _symmetry_equiv_pos_as_xyz
  1  'x, y, z'
loop_
 _atom_site_type_symbol
 _atom_site_label
 _atom_site_symmetry_multiplicity
 _atom_site_fract_x
 _atom_site_fract_y
 _atom_site_fract_z
 _atom_site_occupancy
  Ac  Ac0  1  0.666667  0.333333  0.250000  1
  Ho  Ho1  1  0.333333  0.666667  0.542690  1
  Ho  Ho2  1  0.666667  0.333333  0.039471  1
  Ho  Ho3  1  0.666667  0.333333  0.460529  1
  Ho  Ho4  1  0.333333  0.666667  0.957310  1
  Ho  Ho5  1  0.333333  0.666667  0.750000  1
  Rh  Rh6  1  0.167351  0.334703  0.122881  1
  Rh  Rh7  1  0.832627  0.665253  0.625945  1
  Rh  Rh8  1  0.665297  0.832649  0.122881  1
  Rh  Rh9  1  0.167351  0.832649  0.122881  1
  Rh  Rh10  1  0.832627  0.167373  0.625945  1
  Rh  Rh11  1  0.334747  0.167373  0.625945  1
  Rh  Rh12  1  0.832627  0.665253  0.874055  1
  Rh  Rh13  1  0.832627  0.167373  0.874055  1
  Rh  Rh14  1  0.334747  0.167373  0.874055  1
  Rh  Rh15  1  0.665297  0.832649  0.377119  1
  Rh  Rh16  1  0.167351  0.832649  0.377119  1
  Rh  Rh17  1  0.167351  0.334703  0.377119  1
  Rh  Rh18  1  0.000000  0.000000  0.250000  1
  Rh  Rh19  1  0.000000  0.000000  0.750000  1
  Rh  Rh20  1  0.333333  0.666667  0.250000  1
  Rh  Rh21  1  0.666667  0.333333  0.750000  1
  Rh  Rh22  1  0.000000  0.000000  0.998831  1
  Rh  Rh23  1  0.000000  0.000000  0.501169  1
