# generated using pymatgen
data_Dy8In2RuPt
_symmetry_space_group_name_H-M   'P 1'
_cell_length_a   9.67612743
_cell_length_b   9.68029041
_cell_length_c   9.68028955
_cell_angle_alpha   59.98468884
_cell_angle_beta   60.01422182
_cell_angle_gamma   60.01422492
_symmetry_Int_Tables_number   1
_chemical_formula_structural   Dy8In2RuPt
_chemical_formula_sum   'Dy16 In4 Ru2 Pt2'
_cell_volume   641.21895028
_cell_formula_units_Z   2
loop_
 _symmetry_equiv_pos_site_id
 _symmetry_equiv_pos_as_xyz
  1  'x, y, z'
loop_
 _atom_site_type_symbol
 _atom_site_label
 _atom_site_symmetry_multiplicity
 _atom_site_fract_x
 _atom_site_fract_y
 _atom_site_fract_z
 _atom_site_occupancy
  Dy  Dy0  1  0.689250  0.310750  0.310750  1
  Dy  Dy1  1  0.694191  0.685029  0.310971  1
  Dy  Dy2  1  0.309810  0.685029  0.310971  1
  Dy  Dy3  1  0.936135  0.940640  0.561814  1
  Dy  Dy4  1  0.149332  0.152605  0.548732  1
  Dy  Dy5  1  0.561411  0.940640  0.561814  1
  Dy  Dy6  1  0.146878  0.151522  0.151522  1
  Dy  Dy7  1  0.309810  0.310971  0.685029  1
  Dy  Dy8  1  0.940556  0.559444  0.559444  1
  Dy  Dy9  1  0.561411  0.561814  0.940640  1
  Dy  Dy10  1  0.562223  0.937777  0.937777  1
  Dy  Dy11  1  0.936135  0.561814  0.940640  1
  Dy  Dy12  1  0.149332  0.548732  0.152605  1
  Dy  Dy13  1  0.309119  0.690881  0.690881  1
  Dy  Dy14  1  0.694191  0.310971  0.685029  1
  Dy  Dy15  1  0.550078  0.151522  0.151522  1
  In  In16  1  0.916759  0.917481  0.249002  1
  In  In17  1  0.248859  0.917388  0.917388  1
  In  In18  1  0.916759  0.249002  0.917481  1
  In  In19  1  0.916364  0.917388  0.917388  1
  Ru  Ru20  1  0.358755  0.357637  0.357637  1
  Ru  Ru21  1  0.925973  0.357637  0.357637  1
  Pt  Pt22  1  0.358336  0.356963  0.926366  1
  Pt  Pt23  1  0.358336  0.926366  0.356963  1
