# generated using pymatgen
data_Ho3Nb2Sn3N
_symmetry_space_group_name_H-M   'P 1'
_cell_length_a   8.60156700
_cell_length_b   8.60156629
_cell_length_c   5.87648400
_cell_angle_alpha   90.00000000
_cell_angle_beta   90.00000000
_cell_angle_gamma   119.99999890
_symmetry_Int_Tables_number   1
_chemical_formula_structural   Ho3Nb2Sn3N
_chemical_formula_sum   'Ho6 Nb4 Sn6 N2'
_cell_volume   376.53323158
_cell_formula_units_Z   2
loop_
 _symmetry_equiv_pos_site_id
 _symmetry_equiv_pos_as_xyz
  1  'x, y, z'
loop_
 _atom_site_type_symbol
 _atom_site_label
 _atom_site_symmetry_multiplicity
 _atom_site_fract_x
 _atom_site_fract_y
 _atom_site_fract_z
 _atom_site_occupancy
  Ho  Ho0  1  0.778381  0.778381  0.750000  1
  Ho  Ho1  1  0.221619  0.000000  0.750000  1
  Ho  Ho2  1  0.000000  0.221619  0.750000  1
  Ho  Ho3  1  0.221619  0.221619  0.250000  1
  Ho  Ho4  1  0.778381  0.000000  0.250000  1
  Ho  Ho5  1  0.000000  0.778381  0.250000  1
  Nb  Nb6  1  0.666667  0.333333  0.000000  1
  Nb  Nb7  1  0.333333  0.666667  0.000000  1
  Nb  Nb8  1  0.333333  0.666667  0.500000  1
  Nb  Nb9  1  0.666667  0.333333  0.500000  1
  Sn  Sn10  1  0.412319  0.412319  0.750000  1
  Sn  Sn11  1  0.587681  0.000000  0.750000  1
  Sn  Sn12  1  0.000000  0.587681  0.750000  1
  Sn  Sn13  1  0.587681  0.587681  0.250000  1
  Sn  Sn14  1  0.412319  0.000000  0.250000  1
  Sn  Sn15  1  0.000000  0.412319  0.250000  1
  N  N16  1  0.000000  0.000000  0.000000  1
  N  N17  1  0.000000  0.000000  0.500000  1
