# generated using pymatgen
data_Cs4MnZnTe4
_symmetry_space_group_name_H-M   'P 1'
_cell_length_a   9.42647778
_cell_length_b   9.42647810
_cell_length_c   9.42647808
_cell_angle_alpha   134.77606099
_cell_angle_beta   129.74689710
_cell_angle_gamma   69.89540046
_symmetry_Int_Tables_number   1
_chemical_formula_structural   Cs4MnZnTe4
_chemical_formula_sum   'Cs4 Mn1 Zn1 Te4'
_cell_volume   448.36596463
_cell_formula_units_Z   1
loop_
 _symmetry_equiv_pos_site_id
 _symmetry_equiv_pos_as_xyz
  1  'x, y, z'
loop_
 _atom_site_type_symbol
 _atom_site_label
 _atom_site_symmetry_multiplicity
 _atom_site_fract_x
 _atom_site_fract_y
 _atom_site_fract_z
 _atom_site_occupancy
  Cs  Cs0  1  0.969562  0.643830  0.324134  1
  Cs  Cs1  1  0.680305  0.856170  0.825732  1
  Cs  Cs2  1  0.319695  0.145427  0.175866  1
  Cs  Cs3  1  0.030438  0.354573  0.674268  1
  Mn  Mn4  1  0.500000  0.750000  0.250000  1
  Zn  Zn5  1  0.500000  0.250000  0.750000  1
  Te  Te6  1  0.580242  0.398249  0.174992  1
  Te  Te7  1  0.223257  0.905250  0.325008  1
  Te  Te8  1  0.776743  0.101751  0.681993  1
  Te  Te9  1  0.419758  0.594750  0.818007  1
