# generated using pymatgen
data_Y11In9(NiAg)2
_symmetry_space_group_name_H-M   'P 1'
_cell_length_a   13.20262394
_cell_length_b   13.22622268
_cell_length_c   3.65537500
_cell_angle_alpha   90.00000000
_cell_angle_beta   90.00000000
_cell_angle_gamma   111.00109181
_symmetry_Int_Tables_number   1
_chemical_formula_structural   Y11In9(NiAg)2
_chemical_formula_sum   'Y11 In9 Ni2 Ag2'
_cell_volume   595.90438536
_cell_formula_units_Z   1
loop_
 _symmetry_equiv_pos_site_id
 _symmetry_equiv_pos_as_xyz
  1  'x, y, z'
loop_
 _atom_site_type_symbol
 _atom_site_label
 _atom_site_symmetry_multiplicity
 _atom_site_fract_x
 _atom_site_fract_y
 _atom_site_fract_z
 _atom_site_occupancy
  Y  Y0  1  0.063733  0.414603  0.000000  1
  Y  Y1  1  0.936267  0.585397  0.000000  1
  Y  Y2  1  0.419285  0.073717  0.000000  1
  Y  Y3  1  0.580715  0.926283  0.000000  1
  Y  Y4  1  0.615207  0.358537  0.000000  1
  Y  Y5  1  0.384793  0.641463  0.000000  1
  Y  Y6  1  0.841375  0.158329  0.000000  1
  Y  Y7  1  0.158625  0.841671  0.000000  1
  Y  Y8  1  0.000000  0.000000  0.000000  1
  Y  Y9  1  0.318113  0.299370  0.000000  1
  Y  Y10  1  0.681887  0.700630  0.000000  1
  In  In11  1  0.838330  0.367629  0.500000  1
  In  In12  1  0.161670  0.632371  0.500000  1
  In  In13  1  0.367676  0.843415  0.500000  1
  In  In14  1  0.632324  0.156585  0.500000  1
  In  In15  1  0.074468  0.217487  0.500000  1
  In  In16  1  0.925532  0.782513  0.500000  1
  In  In17  1  0.218213  0.071481  0.500000  1
  In  In18  1  0.781787  0.928519  0.500000  1
  In  In19  1  0.500000  0.500000  0.500000  1
  Ni  Ni20  1  0.449740  0.242350  0.500000  1
  Ni  Ni21  1  0.550260  0.757650  0.500000  1
  Ag  Ag22  1  0.253710  0.451508  0.500000  1
  Ag  Ag23  1  0.746290  0.548492  0.500000  1
