# generated using pymatgen
data_Tb12GaCo3SiBi
_symmetry_space_group_name_H-M   'P 1'
_cell_length_a   8.46249740
_cell_length_b   8.46249853
_cell_length_c   8.46249760
_cell_angle_alpha   112.92915360
_cell_angle_beta   110.51420227
_cell_angle_gamma   105.06815550
_symmetry_Int_Tables_number   1
_chemical_formula_structural   Tb12GaCo3SiBi
_chemical_formula_sum   'Tb12 Ga1 Co3 Si1 Bi1'
_cell_volume   464.25402040
_cell_formula_units_Z   1
loop_
 _symmetry_equiv_pos_site_id
 _symmetry_equiv_pos_as_xyz
  1  'x, y, z'
loop_
 _atom_site_type_symbol
 _atom_site_label
 _atom_site_symmetry_multiplicity
 _atom_site_fract_x
 _atom_site_fract_y
 _atom_site_fract_z
 _atom_site_occupancy
  Tb  Tb0  1  0.026786  0.724976  0.301810  1
  Tb  Tb1  1  0.976918  0.272606  0.704312  1
  Tb  Tb2  1  0.576832  0.275024  0.301810  1
  Tb  Tb3  1  0.431707  0.727394  0.704312  1
  Tb  Tb4  1  0.691764  0.881820  0.185694  1
  Tb  Tb5  1  0.303873  0.493930  0.185694  1
  Tb  Tb6  1  0.303873  0.118180  0.809943  1
  Tb  Tb7  1  0.691764  0.506070  0.809943  1
  Tb  Tb8  1  0.187398  0.218138  0.405536  1
  Tb  Tb9  1  0.819439  0.217965  0.037405  1
  Tb  Tb10  1  0.187398  0.781862  0.969260  1
  Tb  Tb11  1  0.819439  0.782035  0.601473  1
  Ga  Ga12  1  0.006507  0.500000  0.506507  1
  Co  Co13  1  0.353220  0.500000  0.853220  1
  Co  Co14  1  0.891430  0.891621  0.999809  1
  Co  Co15  1  0.108187  0.108379  0.999809  1
  Si  Si16  1  0.619756  0.500000  0.119756  1
  Bi  Bi17  1  0.503709  0.000000  0.503709  1
