# generated using pymatgen
data_NdScSi(PRu2)6
_symmetry_space_group_name_H-M   'P 1'
_cell_length_a   9.43999400
_cell_length_b   9.43999383
_cell_length_c   3.94543700
_cell_angle_alpha   90.00000000
_cell_angle_beta   90.00000000
_cell_angle_gamma   119.99999358
_symmetry_Int_Tables_number   1
_chemical_formula_structural   NdScSi(PRu2)6
_chemical_formula_sum   'Nd1 Sc1 Si1 P6 Ru12'
_cell_volume   304.48731299
_cell_formula_units_Z   1
loop_
 _symmetry_equiv_pos_site_id
 _symmetry_equiv_pos_as_xyz
  1  'x, y, z'
loop_
 _atom_site_type_symbol
 _atom_site_label
 _atom_site_symmetry_multiplicity
 _atom_site_fract_x
 _atom_site_fract_y
 _atom_site_fract_z
 _atom_site_occupancy
  Nd  Nd0  1  0.333333  0.666667  0.000000  1
  Sc  Sc1  1  0.666667  0.333333  0.500000  1
  Si  Si2  1  0.000000  0.000000  0.000000  1
  P  P3  1  0.605616  0.719214  0.500000  1
  P  P4  1  0.280786  0.886402  0.500000  1
  P  P5  1  0.113598  0.394384  0.500000  1
  P  P6  1  0.885336  0.571044  0.000000  1
  P  P7  1  0.428956  0.314291  0.000000  1
  P  P8  1  0.685709  0.114664  0.000000  1
  Ru  Ru9  1  0.559158  0.958171  0.500000  1
  Ru  Ru10  1  0.399015  0.440842  0.500000  1
  Ru  Ru11  1  0.912406  0.118925  0.500000  1
  Ru  Ru12  1  0.206519  0.087594  0.500000  1
  Ru  Ru13  1  0.881075  0.793481  0.500000  1
  Ru  Ru14  1  0.720788  0.887218  0.000000  1
  Ru  Ru15  1  0.112782  0.833569  0.000000  1
  Ru  Ru16  1  0.166431  0.279212  0.000000  1
  Ru  Ru17  1  0.424712  0.072503  0.000000  1
  Ru  Ru18  1  0.927497  0.352210  0.000000  1
  Ru  Ru19  1  0.647790  0.575288  0.000000  1
  Ru  Ru20  1  0.041829  0.600985  0.500000  1
