# generated using pymatgen
data_Cs2Ga(TeO4)3
_symmetry_space_group_name_H-M   'P 1'
_cell_length_a   7.22182172
_cell_length_b   7.37199292
_cell_length_c   7.21897862
_cell_angle_alpha   90.00019372
_cell_angle_beta   61.36301027
_cell_angle_gamma   120.67404462
_symmetry_Int_Tables_number   1
_chemical_formula_structural   Cs2Ga(TeO4)3
_chemical_formula_sum   'Cs2 Ga1 Te3 O12'
_cell_volume   274.48368925
_cell_formula_units_Z   1
loop_
 _symmetry_equiv_pos_site_id
 _symmetry_equiv_pos_as_xyz
  1  'x, y, z'
loop_
 _atom_site_type_symbol
 _atom_site_label
 _atom_site_symmetry_multiplicity
 _atom_site_fract_x
 _atom_site_fract_y
 _atom_site_fract_z
 _atom_site_occupancy
  Cs  Cs0  1  0.257803  0.126266  0.628941  1
  Cs  Cs1  1  0.742064  0.868388  0.371114  1
  Ga  Ga2  1  0.000010  0.497403  0.000008  1
  Te  Te3  1  0.500035  0.497325  0.999994  1
  Te  Te4  1  0.500011  0.997288  0.000012  1
  Te  Te5  1  0.000035  0.497329  0.500034  1
  O  O6  1  0.645302  0.819961  0.929385  1
  O  O7  1  0.857372  0.426072  0.326088  1
  O  O8  1  0.254827  0.426025  0.928584  1
  O  O9  1  0.251964  0.819891  0.322618  1
  O  O10  1  0.254730  0.823555  0.928507  1
  O  O11  1  0.252112  0.426795  0.322665  1
  O  O12  1  0.354671  0.174654  0.070586  1
  O  O13  1  0.142718  0.568674  0.673817  1
  O  O14  1  0.745293  0.568693  0.071393  1
  O  O15  1  0.747934  0.174691  0.677410  1
  O  O16  1  0.745212  0.171131  0.071437  1
  O  O17  1  0.747908  0.567861  0.677406  1
