# generated using pymatgen
data_Sr7La(Si3Pd)4
_symmetry_space_group_name_H-M   'P 1'
_cell_length_a   8.41087200
_cell_length_b   8.41087179
_cell_length_c   9.05836800
_cell_angle_alpha   90.00000000
_cell_angle_beta   90.00000000
_cell_angle_gamma   120.00000869
_symmetry_Int_Tables_number   1
_chemical_formula_structural   Sr7La(Si3Pd)4
_chemical_formula_sum   'Sr7 La1 Si12 Pd4'
_cell_volume   554.96116148
_cell_formula_units_Z   1
loop_
 _symmetry_equiv_pos_site_id
 _symmetry_equiv_pos_as_xyz
  1  'x, y, z'
loop_
 _atom_site_type_symbol
 _atom_site_label
 _atom_site_symmetry_multiplicity
 _atom_site_fract_x
 _atom_site_fract_y
 _atom_site_fract_z
 _atom_site_occupancy
  Sr  Sr0  1  0.500450  0.000897  0.250000  1
  Sr  Sr1  1  0.499486  0.998972  0.750000  1
  Sr  Sr2  1  0.999103  0.499550  0.250000  1
  Sr  Sr3  1  0.001028  0.500514  0.750000  1
  Sr  Sr4  1  0.500450  0.499550  0.250000  1
  Sr  Sr5  1  0.499486  0.500514  0.750000  1
  Sr  Sr6  1  0.000000  0.000000  0.250000  1
  La  La7  1  0.000000  0.000000  0.750000  1
  Si  Si8  1  0.164220  0.328439  0.995565  1
  Si  Si9  1  0.835738  0.671474  0.994544  1
  Si  Si10  1  0.671561  0.835780  0.995565  1
  Si  Si11  1  0.835738  0.671474  0.505456  1
  Si  Si12  1  0.328526  0.164262  0.994544  1
  Si  Si13  1  0.164220  0.328439  0.504435  1
  Si  Si14  1  0.164220  0.835780  0.995565  1
  Si  Si15  1  0.328526  0.164262  0.505456  1
  Si  Si16  1  0.835738  0.164262  0.994544  1
  Si  Si17  1  0.671561  0.835780  0.504435  1
  Si  Si18  1  0.835738  0.164262  0.505456  1
  Si  Si19  1  0.164220  0.835780  0.504435  1
  Pd  Pd20  1  0.333333  0.666667  0.001147  1
  Pd  Pd21  1  0.666667  0.333333  0.998981  1
  Pd  Pd22  1  0.666667  0.333333  0.501019  1
  Pd  Pd23  1  0.333333  0.666667  0.498853  1
