# generated using pymatgen
data_Dy6TmP12Rh17
_symmetry_space_group_name_H-M   'P 1'
_cell_length_a   3.94834100
_cell_length_b   11.25245900
_cell_length_c   12.89036700
_cell_angle_alpha   90.00000000
_cell_angle_beta   90.00000000
_cell_angle_gamma   90.00000000
_symmetry_Int_Tables_number   1
_chemical_formula_structural   Dy6TmP12Rh17
_chemical_formula_sum   'Dy6 Tm1 P12 Rh17'
_cell_volume   572.70025317
_cell_formula_units_Z   1
loop_
 _symmetry_equiv_pos_site_id
 _symmetry_equiv_pos_as_xyz
  1  'x, y, z'
loop_
 _atom_site_type_symbol
 _atom_site_label
 _atom_site_symmetry_multiplicity
 _atom_site_fract_x
 _atom_site_fract_y
 _atom_site_fract_z
 _atom_site_occupancy
  Dy  Dy0  1  0.000000  0.500000  0.522553  1
  Dy  Dy1  1  0.500000  0.000000  0.477712  1
  Dy  Dy2  1  0.500000  0.818148  0.206669  1
  Dy  Dy3  1  0.500000  0.181852  0.206669  1
  Dy  Dy4  1  0.000000  0.682986  0.796557  1
  Dy  Dy5  1  0.000000  0.317014  0.796557  1
  Tm  Tm6  1  0.500000  0.500000  0.156280  1
  P  P7  1  0.500000  0.500000  0.877551  1
  P  P8  1  0.000000  0.000000  0.121521  1
  P  P9  1  0.500000  0.500000  0.364494  1
  P  P10  1  0.000000  0.000000  0.647327  1
  P  P11  1  0.500000  0.314449  0.619734  1
  P  P12  1  0.500000  0.685551  0.619734  1
  P  P13  1  0.000000  0.185461  0.384525  1
  P  P14  1  0.000000  0.814539  0.384525  1
  P  P15  1  0.500000  0.851348  0.888258  1
  P  P16  1  0.500000  0.148652  0.888258  1
  P  P17  1  0.000000  0.664500  0.105094  1
  P  P18  1  0.000000  0.335500  0.105094  1
  Rh  Rh19  1  0.000000  0.000000  0.827813  1
  Rh  Rh20  1  0.500000  0.500000  0.700976  1
  Rh  Rh21  1  0.000000  0.000000  0.299180  1
  Rh  Rh22  1  0.000000  0.500000  0.981504  1
  Rh  Rh23  1  0.500000  0.000000  0.021724  1
  Rh  Rh24  1  0.500000  0.327702  0.986107  1
  Rh  Rh25  1  0.500000  0.672298  0.986107  1
  Rh  Rh26  1  0.000000  0.162311  0.003643  1
  Rh  Rh27  1  0.000000  0.837689  0.003643  1
  Rh  Rh28  1  0.500000  0.287963  0.435495  1
  Rh  Rh29  1  0.500000  0.712037  0.435495  1
  Rh  Rh30  1  0.000000  0.203068  0.572102  1
  Rh  Rh31  1  0.000000  0.796932  0.572102  1
  Rh  Rh32  1  0.500000  0.875039  0.709215  1
  Rh  Rh33  1  0.500000  0.124961  0.709215  1
  Rh  Rh34  1  0.000000  0.628727  0.293284  1
  Rh  Rh35  1  0.000000  0.371273  0.293284  1
