# generated using pymatgen
data_TbPr2Cd(Ir2O7)2
_symmetry_space_group_name_H-M   'P 1'
_cell_length_a   7.26841580
_cell_length_b   7.41633839
_cell_length_c   7.41633821
_cell_angle_alpha   60.23202465
_cell_angle_beta   59.40827839
_cell_angle_gamma   59.40827739
_symmetry_Int_Tables_number   1
_chemical_formula_structural   TbPr2Cd(Ir2O7)2
_chemical_formula_sum   'Tb1 Pr2 Cd1 Ir4 O14'
_cell_volume   280.60980160
_cell_formula_units_Z   1
loop_
 _symmetry_equiv_pos_site_id
 _symmetry_equiv_pos_as_xyz
  1  'x, y, z'
loop_
 _atom_site_type_symbol
 _atom_site_label
 _atom_site_symmetry_multiplicity
 _atom_site_fract_x
 _atom_site_fract_y
 _atom_site_fract_z
 _atom_site_occupancy
  Tb  Tb0  1  0.125000  0.125000  0.125000  1
  Pr  Pr1  1  0.125000  0.125000  0.625000  1
  Pr  Pr2  1  0.125000  0.625000  0.125000  1
  Cd  Cd3  1  0.625000  0.125000  0.125000  1
  Ir  Ir4  1  0.625000  0.625000  0.625000  1
  Ir  Ir5  1  0.125000  0.625000  0.625000  1
  Ir  Ir6  1  0.625000  0.125000  0.625000  1
  Ir  Ir7  1  0.625000  0.625000  0.125000  1
  O  O8  1  0.960859  0.541616  0.541616  1
  O  O9  1  0.289219  0.292784  0.716175  1
  O  O10  1  0.960781  0.533825  0.957216  1
  O  O11  1  0.709555  0.298847  0.298847  1
  O  O12  1  0.550705  0.549018  0.950860  1
  O  O13  1  0.550705  0.950860  0.549018  1
  O  O14  1  0.540445  0.951153  0.951153  1
  O  O15  1  0.256615  0.242382  0.242382  1
  O  O16  1  0.289141  0.708384  0.708384  1
  O  O17  1  0.699295  0.299140  0.700982  1
  O  O18  1  0.993385  0.007618  0.007618  1
  O  O19  1  0.960781  0.957216  0.533825  1
  O  O20  1  0.289219  0.716175  0.292784  1
  O  O21  1  0.699295  0.700982  0.299140  1
