# generated using pymatgen
data_Sr4Zn(MoO4)3
_symmetry_space_group_name_H-M   'P 1'
_cell_length_a   5.68101830
_cell_length_b   5.72531161
_cell_length_c   8.13928605
_cell_angle_alpha   90.00522110
_cell_angle_beta   89.63070113
_cell_angle_gamma   90.02910401
_symmetry_Int_Tables_number   1
_chemical_formula_structural   Sr4Zn(MoO4)3
_chemical_formula_sum   'Sr4 Zn1 Mo3 O12'
_cell_volume   264.72962828
_cell_formula_units_Z   1
loop_
 _symmetry_equiv_pos_site_id
 _symmetry_equiv_pos_as_xyz
  1  'x, y, z'
loop_
 _atom_site_type_symbol
 _atom_site_label
 _atom_site_symmetry_multiplicity
 _atom_site_fract_x
 _atom_site_fract_y
 _atom_site_fract_z
 _atom_site_occupancy
  Sr  Sr0  1  0.496755  0.526106  0.759919  1
  Sr  Sr1  1  0.008088  0.028493  0.762397  1
  Sr  Sr2  1  0.503245  0.473894  0.240081  1
  Sr  Sr3  1  0.991912  0.971507  0.237603  1
  Zn  Zn4  1  0.000000  0.500000  0.000000  1
  Mo  Mo5  1  0.500000  0.000000  0.500000  1
  Mo  Mo6  1  0.000000  0.500000  0.500000  1
  Mo  Mo7  1  0.500000  0.000000  0.000000  1
  O  O8  1  0.228570  0.778662  0.969651  1
  O  O9  1  0.290059  0.290622  0.531502  1
  O  O10  1  0.788475  0.210269  0.469060  1
  O  O11  1  0.708595  0.731794  0.031642  1
  O  O12  1  0.771430  0.221338  0.030349  1
  O  O13  1  0.709941  0.709378  0.468498  1
  O  O14  1  0.211525  0.789731  0.530940  1
  O  O15  1  0.291405  0.268206  0.968358  1
  O  O16  1  0.568971  0.984695  0.752646  1
  O  O17  1  0.944742  0.490382  0.732425  1
  O  O18  1  0.431029  0.015305  0.247354  1
  O  O19  1  0.055258  0.509618  0.267575  1
