# generated using pymatgen
data_Tm2Tc3W
_symmetry_space_group_name_H-M   'P 1'
_cell_length_a   5.39204506
_cell_length_b   5.39204539
_cell_length_c   8.82019308
_cell_angle_alpha   90.93962878
_cell_angle_beta   89.06037225
_cell_angle_gamma   119.40996161
_symmetry_Int_Tables_number   1
_chemical_formula_structural   Tm2Tc3W
_chemical_formula_sum   'Tm4 Tc6 W2'
_cell_volume   223.35156436
_cell_formula_units_Z   2
loop_
 _symmetry_equiv_pos_site_id
 _symmetry_equiv_pos_as_xyz
  1  'x, y, z'
loop_
 _atom_site_type_symbol
 _atom_site_label
 _atom_site_symmetry_multiplicity
 _atom_site_fract_x
 _atom_site_fract_y
 _atom_site_fract_z
 _atom_site_occupancy
  Tm  Tm0  1  0.334488  0.665512  0.437201  1
  Tm  Tm1  1  0.666358  0.333642  0.565995  1
  Tm  Tm2  1  0.666210  0.333790  0.937086  1
  Tm  Tm3  1  0.331951  0.668049  0.059490  1
  Tc  Tc4  1  0.999869  0.000131  0.994732  1
  Tc  Tc5  1  0.827853  0.656111  0.251819  1
  Tc  Tc6  1  0.343889  0.172147  0.251819  1
  Tc  Tc7  1  0.170429  0.829571  0.750369  1
  Tc  Tc8  1  0.171796  0.346791  0.748680  1
  Tc  Tc9  1  0.653209  0.828204  0.748680  1
  W  W10  1  0.001703  0.998297  0.506018  1
  W  W11  1  0.832247  0.167753  0.248111  1
