# generated using pymatgen
data_Lu4B12RhW
_symmetry_space_group_name_H-M   'P 1'
_cell_length_a   3.58059700
_cell_length_b   9.10735740
_cell_length_c   11.50923199
_cell_angle_alpha   90.38690819
_cell_angle_beta   90.00000000
_cell_angle_gamma   90.00000000
_symmetry_Int_Tables_number   1
_chemical_formula_structural   Lu4B12RhW
_chemical_formula_sum   'Lu8 B24 Rh2 W2'
_cell_volume   375.30492663
_cell_formula_units_Z   2
loop_
 _symmetry_equiv_pos_site_id
 _symmetry_equiv_pos_as_xyz
  1  'x, y, z'
loop_
 _atom_site_type_symbol
 _atom_site_label
 _atom_site_symmetry_multiplicity
 _atom_site_fract_x
 _atom_site_fract_y
 _atom_site_fract_z
 _atom_site_occupancy
  Lu  Lu0  1  0.500000  0.317938  0.412128  1
  Lu  Lu1  1  0.500000  0.682062  0.587872  1
  Lu  Lu2  1  0.500000  0.176245  0.916543  1
  Lu  Lu3  1  0.500000  0.823755  0.083457  1
  Lu  Lu4  1  0.500000  0.444862  0.127177  1
  Lu  Lu5  1  0.500000  0.555138  0.872823  1
  Lu  Lu6  1  0.500000  0.055525  0.626870  1
  Lu  Lu7  1  0.500000  0.944475  0.373130  1
  B  B8  1  0.000000  0.106340  0.472149  1
  B  B9  1  0.000000  0.893660  0.527851  1
  B  B10  1  0.000000  0.395560  0.970370  1
  B  B11  1  0.000000  0.604440  0.029630  1
  B  B12  1  0.000000  0.132090  0.318855  1
  B  B13  1  0.000000  0.867910  0.681145  1
  B  B14  1  0.000000  0.368167  0.816381  1
  B  B15  1  0.000000  0.631833  0.183619  1
  B  B16  1  0.000000  0.051119  0.065235  1
  B  B17  1  0.000000  0.948881  0.934765  1
  B  B18  1  0.000000  0.446701  0.565286  1
  B  B19  1  0.000000  0.553299  0.434714  1
  B  B20  1  0.000000  0.482567  0.288563  1
  B  B21  1  0.000000  0.517433  0.711437  1
  B  B22  1  0.000000  0.022799  0.786155  1
  B  B23  1  0.000000  0.977201  0.213845  1
  B  B24  1  0.000000  0.251806  0.077875  1
  B  B25  1  0.000000  0.748194  0.922125  1
  B  B26  1  0.000000  0.249864  0.578710  1
  B  B27  1  0.000000  0.750136  0.421290  1
  B  B28  1  0.000000  0.297533  0.237587  1
  B  B29  1  0.000000  0.702467  0.762413  1
  B  B30  1  0.000000  0.208553  0.734676  1
  B  B31  1  0.000000  0.791447  0.265324  1
  Rh  Rh32  1  0.500000  0.361114  0.678097  1
  Rh  Rh33  1  0.500000  0.638886  0.321903  1
  W  W34  1  0.500000  0.139176  0.181191  1
  W  W35  1  0.500000  0.860824  0.818809  1
