# generated using pymatgen
data_EuTl(CO3)2
_symmetry_space_group_name_H-M   'P 1'
_cell_length_a   6.60991953
_cell_length_b   6.60415154
_cell_length_c   6.62291900
_cell_angle_alpha   46.38366842
_cell_angle_beta   46.60619332
_cell_angle_gamma   46.48768629
_symmetry_Int_Tables_number   1
_chemical_formula_structural   EuTl(CO3)2
_chemical_formula_sum   'Eu1 Tl1 C2 O6'
_cell_volume   138.86455842
_cell_formula_units_Z   1
loop_
 _symmetry_equiv_pos_site_id
 _symmetry_equiv_pos_as_xyz
  1  'x, y, z'
loop_
 _atom_site_type_symbol
 _atom_site_label
 _atom_site_symmetry_multiplicity
 _atom_site_fract_x
 _atom_site_fract_y
 _atom_site_fract_z
 _atom_site_occupancy
  Eu  Eu0  1  0.999997  0.000001  0.000000  1
  Tl  Tl1  1  0.499995  0.499997  0.499999  1
  C  C2  1  0.255530  0.254843  0.255573  1
  C  C3  1  0.744470  0.745157  0.744429  1
  O  O4  1  0.795033  0.476731  0.963906  1
  O  O5  1  0.523290  0.035894  0.206105  1
  O  O6  1  0.037598  0.204906  0.523149  1
  O  O7  1  0.962393  0.795113  0.476845  1
  O  O8  1  0.476704  0.964094  0.793911  1
  O  O9  1  0.204989  0.523266  0.036084  1
