# generated using pymatgen
data_Tm12Ni4BiAu
_symmetry_space_group_name_H-M   'P 1'
_cell_length_a   8.26884702
_cell_length_b   8.26787843
_cell_length_c   8.26371274
_cell_angle_alpha   106.94302656
_cell_angle_beta   109.08550362
_cell_angle_gamma   112.47083053
_symmetry_Int_Tables_number   1
_chemical_formula_structural   Tm12Ni4BiAu
_chemical_formula_sum   'Tm12 Ni4 Bi1 Au1'
_cell_volume   433.66772529
_cell_formula_units_Z   1
loop_
 _symmetry_equiv_pos_site_id
 _symmetry_equiv_pos_as_xyz
  1  'x, y, z'
loop_
 _atom_site_type_symbol
 _atom_site_label
 _atom_site_symmetry_multiplicity
 _atom_site_fract_x
 _atom_site_fract_y
 _atom_site_fract_z
 _atom_site_occupancy
  Tm  Tm0  1  0.702252  0.280121  0.982277  1
  Tm  Tm1  1  0.297786  0.719982  0.017756  1
  Tm  Tm2  1  0.702167  0.720035  0.422133  1
  Tm  Tm3  1  0.297809  0.279962  0.577731  1
  Tm  Tm4  1  0.808399  0.130935  0.322506  1
  Tm  Tm5  1  0.808390  0.486062  0.677527  1
  Tm  Tm6  1  0.191584  0.869060  0.677416  1
  Tm  Tm7  1  0.191573  0.513992  0.322478  1
  Tm  Tm8  1  0.612821  0.791146  0.821705  1
  Tm  Tm9  1  0.969405  0.791249  0.178113  1
  Tm  Tm10  1  0.030628  0.208824  0.821818  1
  Tm  Tm11  1  0.387260  0.208934  0.178266  1
  Ni  Ni12  1  0.858482  0.499306  0.359704  1
  Ni  Ni13  1  0.141017  0.500202  0.640489  1
  Ni  Ni14  1  0.999616  0.124337  0.124317  1
  Ni  Ni15  1  0.000744  0.875807  0.875853  1
  Bi  Bi16  1  0.500016  0.000015  0.499992  1
  Au  Au17  1  0.500049  0.500030  0.999916  1
