# generated using pymatgen
data_Ba4PaMnO8
_symmetry_space_group_name_H-M   'P 1'
_cell_length_a   7.42558500
_cell_length_b   7.42558438
_cell_length_c   6.05262400
_cell_angle_alpha   90.00000000
_cell_angle_beta   90.00000000
_cell_angle_gamma   131.89041167
_symmetry_Int_Tables_number   1
_chemical_formula_structural   Ba4PaMnO8
_chemical_formula_sum   'Ba4 Pa1 Mn1 O8'
_cell_volume   248.44196896
_cell_formula_units_Z   1
loop_
 _symmetry_equiv_pos_site_id
 _symmetry_equiv_pos_as_xyz
  1  'x, y, z'
loop_
 _atom_site_type_symbol
 _atom_site_label
 _atom_site_symmetry_multiplicity
 _atom_site_fract_x
 _atom_site_fract_y
 _atom_site_fract_z
 _atom_site_occupancy
  Ba  Ba0  1  0.351421  0.648579  0.000000  1
  Ba  Ba1  1  0.857054  0.142946  0.500000  1
  Ba  Ba2  1  0.142946  0.857054  0.500000  1
  Ba  Ba3  1  0.648579  0.351421  0.000000  1
  Pa  Pa4  1  0.500000  0.500000  0.500000  1
  Mn  Mn5  1  0.000000  0.000000  0.000000  1
  O  O6  1  0.249306  0.249306  0.752451  1
  O  O7  1  0.750694  0.750694  0.247549  1
  O  O8  1  0.750694  0.750694  0.752451  1
  O  O9  1  0.249306  0.249306  0.247549  1
  O  O10  1  0.149104  0.850896  0.000000  1
  O  O11  1  0.663872  0.336128  0.500000  1
  O  O12  1  0.336128  0.663872  0.500000  1
  O  O13  1  0.850896  0.149104  0.000000  1
