# generated using pymatgen
data_Hf2GeIr2Rh3
_symmetry_space_group_name_H-M   'P 1'
_cell_length_a   4.06309800
_cell_length_b   5.58645700
_cell_length_c   10.99082200
_cell_angle_alpha   90.00000000
_cell_angle_beta   90.00000000
_cell_angle_gamma   90.00000000
_symmetry_Int_Tables_number   1
_chemical_formula_structural   Hf2GeIr2Rh3
_chemical_formula_sum   'Hf4 Ge2 Ir4 Rh6'
_cell_volume   249.47321970
_cell_formula_units_Z   2
loop_
 _symmetry_equiv_pos_site_id
 _symmetry_equiv_pos_as_xyz
  1  'x, y, z'
loop_
 _atom_site_type_symbol
 _atom_site_label
 _atom_site_symmetry_multiplicity
 _atom_site_fract_x
 _atom_site_fract_y
 _atom_site_fract_z
 _atom_site_occupancy
  Hf  Hf0  1  0.500000  0.182276  0.639475  1
  Hf  Hf1  1  0.500000  0.817724  0.360525  1
  Hf  Hf2  1  0.500000  0.682276  0.860525  1
  Hf  Hf3  1  0.500000  0.317724  0.139475  1
  Ge  Ge4  1  0.000000  0.500000  0.500000  1
  Ge  Ge5  1  0.000000  0.000000  0.000000  1
  Ir  Ir6  1  0.000000  0.436636  0.747094  1
  Ir  Ir7  1  0.000000  0.563364  0.252906  1
  Ir  Ir8  1  0.000000  0.063364  0.247094  1
  Ir  Ir9  1  0.000000  0.936636  0.752906  1
  Rh  Rh10  1  0.500000  0.187270  0.891557  1
  Rh  Rh11  1  0.500000  0.812730  0.108443  1
  Rh  Rh12  1  0.500000  0.687270  0.608443  1
  Rh  Rh13  1  0.500000  0.312730  0.391557  1
  Rh  Rh14  1  0.000000  0.000000  0.500000  1
  Rh  Rh15  1  0.000000  0.500000  0.000000  1
