# generated using pymatgen
data_Ba2NpPaF12
_symmetry_space_group_name_H-M   'P 1'
_cell_length_a   7.34003400
_cell_length_b   7.34003467
_cell_length_c   5.68127800
_cell_angle_alpha   90.00000000
_cell_angle_beta   90.00000000
_cell_angle_gamma   111.61671657
_symmetry_Int_Tables_number   1
_chemical_formula_structural   Ba2NpPaF12
_chemical_formula_sum   'Ba2 Np1 Pa1 F12'
_cell_volume   284.55786456
_cell_formula_units_Z   1
loop_
 _symmetry_equiv_pos_site_id
 _symmetry_equiv_pos_as_xyz
  1  'x, y, z'
loop_
 _atom_site_type_symbol
 _atom_site_label
 _atom_site_symmetry_multiplicity
 _atom_site_fract_x
 _atom_site_fract_y
 _atom_site_fract_z
 _atom_site_occupancy
  Ba  Ba0  1  0.250000  0.750000  0.548842  1
  Ba  Ba1  1  0.750000  0.250000  0.451158  1
  Np  Np2  1  0.250000  0.250000  0.000000  1
  Pa  Pa3  1  0.750000  0.750000  0.000000  1
  F  F4  1  0.168454  0.440987  0.258724  1
  F  F5  1  0.331546  0.059013  0.258724  1
  F  F6  1  0.440987  0.168454  0.741276  1
  F  F7  1  0.059013  0.331546  0.741276  1
  F  F8  1  0.574926  0.437802  0.166697  1
  F  F9  1  0.925074  0.062198  0.166697  1
  F  F10  1  0.437802  0.574926  0.833303  1
  F  F11  1  0.062198  0.925074  0.833303  1
  F  F12  1  0.933001  0.674710  0.258563  1
  F  F13  1  0.566999  0.825290  0.258563  1
  F  F14  1  0.674710  0.933001  0.741437  1
  F  F15  1  0.825290  0.566999  0.741437  1
