# generated using pymatgen
data_Ta6MnGa4CuC2
_symmetry_space_group_name_H-M   'P 1'
_cell_length_a   8.23067815
_cell_length_b   8.20691748
_cell_length_c   8.23037238
_cell_angle_alpha   60.09424701
_cell_angle_beta   60.27685150
_cell_angle_gamma   60.09527729
_symmetry_Int_Tables_number   1
_chemical_formula_structural   Ta6MnGa4CuC2
_chemical_formula_sum   'Ta12 Mn2 Ga8 Cu2 C4'
_cell_volume   394.49708250
_cell_formula_units_Z   2
loop_
 _symmetry_equiv_pos_site_id
 _symmetry_equiv_pos_as_xyz
  1  'x, y, z'
loop_
 _atom_site_type_symbol
 _atom_site_label
 _atom_site_symmetry_multiplicity
 _atom_site_fract_x
 _atom_site_fract_y
 _atom_site_fract_z
 _atom_site_occupancy
  Ta  Ta0  1  0.554988  0.944989  0.555027  1
  Ta  Ta1  1  0.311314  0.696974  0.682762  1
  Ta  Ta2  1  0.682764  0.308967  0.311342  1
  Ta  Ta3  1  0.316108  0.683889  0.316109  1
  Ta  Ta4  1  0.682767  0.696943  0.311328  1
  Ta  Ta5  1  0.311321  0.308955  0.682754  1
  Ta  Ta6  1  0.567239  0.553060  0.938664  1
  Ta  Ta7  1  0.938673  0.553040  0.567231  1
  Ta  Ta8  1  0.567256  0.941017  0.938669  1
  Ta  Ta9  1  0.938686  0.941040  0.567248  1
  Ta  Ta10  1  0.695004  0.305017  0.694965  1
  Ta  Ta11  1  0.933882  0.566126  0.933890  1
  Mn  Mn12  1  0.625004  0.124979  0.125015  1
  Mn  Mn13  1  0.125017  0.124984  0.625009  1
  Ga  Ga14  1  0.917295  0.917388  0.917274  1
  Ga  Ga15  1  0.991661  0.335532  0.337257  1
  Ga  Ga16  1  0.332705  0.001935  0.332730  1
  Ga  Ga17  1  0.337233  0.335573  0.991607  1
  Ga  Ga18  1  0.917286  0.248065  0.917280  1
  Ga  Ga19  1  0.912763  0.914438  0.258377  1
  Ga  Ga20  1  0.258322  0.914465  0.912764  1
  Ga  Ga21  1  0.332704  0.332619  0.332718  1
  Cu  Cu22  1  0.125000  0.125007  0.125000  1
  Cu  Cu23  1  0.125007  0.625002  0.124991  1
  C  C24  1  0.624995  0.625009  0.624993  1
  C  C25  1  0.125000  0.624998  0.625003  1
  C  C26  1  0.625000  0.124998  0.624997  1
  C  C27  1  0.625005  0.624995  0.124998  1
