# generated using pymatgen
data_Tm4NiAg
_symmetry_space_group_name_H-M   'P 1'
_cell_length_a   9.30667821
_cell_length_b   9.30963241
_cell_length_c   9.30606101
_cell_angle_alpha   60.00895530
_cell_angle_beta   59.99895021
_cell_angle_gamma   60.01130845
_symmetry_Int_Tables_number   1
_chemical_formula_structural   Tm4NiAg
_chemical_formula_sum   'Tm16 Ni4 Ag4'
_cell_volume   570.21832965
_cell_formula_units_Z   4
loop_
 _symmetry_equiv_pos_site_id
 _symmetry_equiv_pos_as_xyz
  1  'x, y, z'
loop_
 _atom_site_type_symbol
 _atom_site_label
 _atom_site_symmetry_multiplicity
 _atom_site_fract_x
 _atom_site_fract_y
 _atom_site_fract_z
 _atom_site_occupancy
  Tm  Tm0  1  0.349923  0.349852  0.349921  1
  Tm  Tm1  1  0.349925  0.349850  0.950307  1
  Tm  Tm2  1  0.349893  0.950333  0.349887  1
  Tm  Tm3  1  0.950302  0.349854  0.349924  1
  Tm  Tm4  1  0.811484  0.188517  0.188513  1
  Tm  Tm5  1  0.188513  0.811523  0.811448  1
  Tm  Tm6  1  0.188512  0.811523  0.188513  1
  Tm  Tm7  1  0.811488  0.188514  0.811487  1
  Tm  Tm8  1  0.188510  0.188514  0.811486  1
  Tm  Tm9  1  0.811450  0.811525  0.188512  1
  Tm  Tm10  1  0.935803  0.564207  0.564187  1
  Tm  Tm11  1  0.564200  0.935796  0.935801  1
  Tm  Tm12  1  0.564203  0.935794  0.564204  1
  Tm  Tm13  1  0.935802  0.564207  0.935803  1
  Tm  Tm14  1  0.564189  0.564210  0.935802  1
  Tm  Tm15  1  0.935800  0.935795  0.564202  1
  Ni  Ni16  1  0.142900  0.142882  0.142903  1
  Ni  Ni17  1  0.142904  0.142885  0.571310  1
  Ni  Ni18  1  0.142893  0.571306  0.142903  1
  Ni  Ni19  1  0.571318  0.142880  0.142905  1
  Ag  Ag20  1  0.582250  0.582261  0.582249  1
  Ag  Ag21  1  0.582249  0.582260  0.253241  1
  Ag  Ag22  1  0.582250  0.253252  0.582249  1
  Ag  Ag23  1  0.253241  0.582262  0.582248  1
