# generated using pymatgen
data_Th3Ga2PdPt2Rh
_symmetry_space_group_name_H-M   'P 1'
_cell_length_a   7.41243096
_cell_length_b   7.78082369
_cell_length_c   3.89239500
_cell_angle_alpha   90.00000000
_cell_angle_beta   90.00000000
_cell_angle_gamma   121.65812701
_symmetry_Int_Tables_number   1
_chemical_formula_structural   Th3Ga2PdPt2Rh
_chemical_formula_sum   'Th3 Ga2 Pd1 Pt2 Rh1'
_cell_volume   191.08744722
_cell_formula_units_Z   1
loop_
 _symmetry_equiv_pos_site_id
 _symmetry_equiv_pos_as_xyz
  1  'x, y, z'
loop_
 _atom_site_type_symbol
 _atom_site_label
 _atom_site_symmetry_multiplicity
 _atom_site_fract_x
 _atom_site_fract_y
 _atom_site_fract_z
 _atom_site_occupancy
  Th  Th0  1  0.000000  0.403771  0.500000  1
  Th  Th1  1  0.622958  0.609013  0.500000  1
  Th  Th2  1  0.377042  0.986054  0.500000  1
  Ga  Ga3  1  0.250913  0.251612  0.000000  1
  Ga  Ga4  1  0.749087  0.000699  0.000000  1
  Pd  Pd5  1  0.000000  0.744790  0.000000  1
  Pt  Pt6  1  0.348702  0.659069  0.000000  1
  Pt  Pt7  1  0.651298  0.310366  0.000000  1
  Rh  Rh8  1  0.000000  0.034625  0.500000  1
