# generated using pymatgen
data_Li8Pr8Bi7Sb
_symmetry_space_group_name_H-M   'P 1'
_cell_length_a   9.79167700
_cell_length_b   9.79314370
_cell_length_c   7.43045300
_cell_angle_alpha   89.83253800
_cell_angle_beta   90.00000000
_cell_angle_gamma   119.99504921
_symmetry_Int_Tables_number   1
_chemical_formula_structural   Li8Pr8Bi7Sb
_chemical_formula_sum   'Li8 Pr8 Bi7 Sb1'
_cell_volume   617.08404817
_cell_formula_units_Z   1
loop_
 _symmetry_equiv_pos_site_id
 _symmetry_equiv_pos_as_xyz
  1  'x, y, z'
loop_
 _atom_site_type_symbol
 _atom_site_label
 _atom_site_symmetry_multiplicity
 _atom_site_fract_x
 _atom_site_fract_y
 _atom_site_fract_z
 _atom_site_occupancy
  Li  Li0  1  0.166937  0.333873  0.272795  1
  Li  Li1  1  0.164465  0.832009  0.274380  1
  Li  Li2  1  0.667544  0.832009  0.274380  1
  Li  Li3  1  0.833000  0.666000  0.778239  1
  Li  Li4  1  0.835748  0.168309  0.770730  1
  Li  Li5  1  0.332561  0.168309  0.770730  1
  Li  Li6  1  0.331999  0.663998  0.692016  1
  Li  Li7  1  0.667855  0.335709  0.187409  1
  Pr  Pr8  1  0.508631  0.017263  0.494204  1
  Pr  Pr9  1  0.502810  0.488389  0.496126  1
  Pr  Pr10  1  0.985578  0.488389  0.496126  1
  Pr  Pr11  1  0.491288  0.982576  0.994997  1
  Pr  Pr12  1  0.483271  0.505271  0.992678  1
  Pr  Pr13  1  0.022001  0.505271  0.992678  1
  Pr  Pr14  1  0.003069  0.006141  0.502928  1
  Pr  Pr15  1  0.003191  0.006382  0.999329  1
  Bi  Bi16  1  0.167147  0.833232  0.737827  1
  Bi  Bi17  1  0.666084  0.833232  0.737827  1
  Bi  Bi18  1  0.832971  0.665942  0.237013  1
  Bi  Bi19  1  0.833291  0.167003  0.238448  1
  Bi  Bi20  1  0.333712  0.167003  0.238448  1
  Bi  Bi21  1  0.333562  0.667125  0.262711  1
  Bi  Bi22  1  0.666551  0.333101  0.762163  1
  Sb  Sb23  1  0.166732  0.333465  0.737800  1
