# generated using pymatgen
data_Tb3Y5Hg4
_symmetry_space_group_name_H-M   'P 1'
_cell_length_a   5.11740700
_cell_length_b   7.13341405
_cell_length_c   9.27279731
_cell_angle_alpha   89.91398970
_cell_angle_beta   90.00000000
_cell_angle_gamma   90.00000000
_symmetry_Int_Tables_number   1
_chemical_formula_structural   Tb3Y5Hg4
_chemical_formula_sum   'Tb3 Y5 Hg4'
_cell_volume   338.49921773
_cell_formula_units_Z   1
loop_
 _symmetry_equiv_pos_site_id
 _symmetry_equiv_pos_as_xyz
  1  'x, y, z'
loop_
 _atom_site_type_symbol
 _atom_site_label
 _atom_site_symmetry_multiplicity
 _atom_site_fract_x
 _atom_site_fract_y
 _atom_site_fract_z
 _atom_site_occupancy
  Tb  Tb0  1  0.250000  0.832996  0.923170  1
  Tb  Tb1  1  0.250000  0.334022  0.576261  1
  Tb  Tb2  1  0.750000  0.166492  0.077118  1
  Y  Y3  1  0.750000  0.666959  0.423482  1
  Y  Y4  1  0.250000  0.983791  0.308842  1
  Y  Y5  1  0.250000  0.483958  0.190863  1
  Y  Y6  1  0.750000  0.016220  0.691650  1
  Y  Y7  1  0.750000  0.515831  0.808619  1
  Hg  Hg8  1  0.250000  0.260724  0.899324  1
  Hg  Hg9  1  0.250000  0.760904  0.600511  1
  Hg  Hg10  1  0.750000  0.738725  0.100537  1
  Hg  Hg11  1  0.750000  0.239381  0.399623  1
