# generated using pymatgen
data_Er4CdBiAu4
_symmetry_space_group_name_H-M   'P 1'
_cell_length_a   8.04499200
_cell_length_b   8.04499200
_cell_length_c   7.29973300
_cell_angle_alpha   90.00000000
_cell_angle_beta   90.00000000
_cell_angle_gamma   90.00000000
_symmetry_Int_Tables_number   1
_chemical_formula_structural   Er4CdBiAu4
_chemical_formula_sum   'Er8 Cd2 Bi2 Au8'
_cell_volume   472.45256210
_cell_formula_units_Z   2
loop_
 _symmetry_equiv_pos_site_id
 _symmetry_equiv_pos_as_xyz
  1  'x, y, z'
loop_
 _atom_site_type_symbol
 _atom_site_label
 _atom_site_symmetry_multiplicity
 _atom_site_fract_x
 _atom_site_fract_y
 _atom_site_fract_z
 _atom_site_occupancy
  Er  Er0  1  0.181969  0.181969  0.000000  1
  Er  Er1  1  0.318031  0.681969  0.500000  1
  Er  Er2  1  0.681969  0.318031  0.500000  1
  Er  Er3  1  0.818031  0.818031  0.000000  1
  Er  Er4  1  0.343756  0.656244  0.000000  1
  Er  Er5  1  0.656244  0.343756  0.000000  1
  Er  Er6  1  0.843756  0.843756  0.500000  1
  Er  Er7  1  0.156244  0.156244  0.500000  1
  Cd  Cd8  1  0.000000  0.500000  0.750000  1
  Cd  Cd9  1  0.500000  0.000000  0.250000  1
  Bi  Bi10  1  0.000000  0.500000  0.250000  1
  Bi  Bi11  1  0.500000  0.000000  0.750000  1
  Au  Au12  1  0.121930  0.867335  0.776072  1
  Au  Au13  1  0.867335  0.121930  0.223928  1
  Au  Au14  1  0.378070  0.367335  0.276072  1
  Au  Au15  1  0.632665  0.621930  0.723928  1
  Au  Au16  1  0.621930  0.632665  0.276072  1
  Au  Au17  1  0.878070  0.132665  0.776072  1
  Au  Au18  1  0.367335  0.378070  0.723928  1
  Au  Au19  1  0.132665  0.878070  0.223928  1
