# generated using pymatgen
data_Pr17Y3Si15Ir
_symmetry_space_group_name_H-M   'P 1'
_cell_length_a   7.89636140
_cell_length_b   7.86202535
_cell_length_c   15.17414996
_cell_angle_alpha   90.08613072
_cell_angle_beta   89.78192239
_cell_angle_gamma   90.17583038
_symmetry_Int_Tables_number   1
_chemical_formula_structural   Pr17Y3Si15Ir
_chemical_formula_sum   'Pr17 Y3 Si15 Ir1'
_cell_volume   942.02006739
_cell_formula_units_Z   1
loop_
 _symmetry_equiv_pos_site_id
 _symmetry_equiv_pos_as_xyz
  1  'x, y, z'
loop_
 _atom_site_type_symbol
 _atom_site_label
 _atom_site_symmetry_multiplicity
 _atom_site_fract_x
 _atom_site_fract_y
 _atom_site_fract_z
 _atom_site_occupancy
  Pr  Pr0  1  0.695095  0.687522  0.500583  1
  Pr  Pr1  1  0.373674  0.010692  0.448615  1
  Pr  Pr2  1  0.488457  0.877432  0.699376  1
  Pr  Pr3  1  0.511022  0.124584  0.197673  1
  Pr  Pr4  1  0.875439  0.487437  0.300010  1
  Pr  Pr5  1  0.125841  0.504973  0.799454  1
  Pr  Pr6  1  0.626250  0.988858  0.948591  1
  Pr  Pr7  1  0.005437  0.373064  0.552401  1
  Pr  Pr8  1  0.988469  0.626571  0.051536  1
  Pr  Pr9  1  0.134484  0.985674  0.873081  1
  Pr  Pr10  1  0.518261  0.631579  0.125638  1
  Pr  Pr11  1  0.472029  0.362644  0.629663  1
  Pr  Pr12  1  0.627972  0.516648  0.874031  1
  Pr  Pr13  1  0.373041  0.481326  0.372730  1
  Pr  Pr14  1  0.873160  0.021003  0.376647  1
  Pr  Pr15  1  0.980967  0.127310  0.123654  1
  Pr  Pr16  1  0.026200  0.880939  0.624957  1
  Y  Y17  1  0.308052  0.308215  0.999525  1
  Y  Y18  1  0.189165  0.809646  0.250289  1
  Y  Y19  1  0.820081  0.189276  0.749577  1
  Si  Si20  1  0.331140  0.691866  0.952157  1
  Si  Si21  1  0.663789  0.302778  0.452636  1
  Si  Si22  1  0.693753  0.332346  0.048161  1
  Si  Si23  1  0.305649  0.669012  0.546904  1
  Si  Si24  1  0.808667  0.831157  0.203567  1
  Si  Si25  1  0.169424  0.193271  0.296130  1
  Si  Si26  1  0.831973  0.806095  0.798266  1
  Si  Si27  1  0.287258  0.924190  0.061326  1
  Si  Si28  1  0.575159  0.787861  0.309384  1
  Si  Si29  1  0.429719  0.208235  0.814724  1
  Si  Si30  1  0.783823  0.577950  0.691124  1
  Si  Si31  1  0.212996  0.424373  0.187193  1
  Si  Si32  1  0.705970  0.075436  0.561595  1
  Si  Si33  1  0.921625  0.286280  0.939475  1
  Si  Si34  1  0.082589  0.716819  0.437507  1
  Ir  Ir35  1  0.183366  0.176937  0.701824  1
