# generated using pymatgen
data_TbY5C3Cl5
_symmetry_space_group_name_H-M   'P 1'
_cell_length_a   3.67186396
_cell_length_b   8.34968946
_cell_length_c   10.26693103
_cell_angle_alpha   85.58704423
_cell_angle_beta   79.63718851
_cell_angle_gamma   77.29298182
_symmetry_Int_Tables_number   1
_chemical_formula_structural   TbY5C3Cl5
_chemical_formula_sum   'Tb1 Y5 C3 Cl5'
_cell_volume   301.82560442
_cell_formula_units_Z   1
loop_
 _symmetry_equiv_pos_site_id
 _symmetry_equiv_pos_as_xyz
  1  'x, y, z'
loop_
 _atom_site_type_symbol
 _atom_site_label
 _atom_site_symmetry_multiplicity
 _atom_site_fract_x
 _atom_site_fract_y
 _atom_site_fract_z
 _atom_site_occupancy
  Tb  Tb0  1  0.431866  0.923101  0.217775  1
  Y  Y1  1  0.573421  0.074939  0.779913  1
  Y  Y2  1  0.958600  0.429079  0.657601  1
  Y  Y3  1  0.683940  0.179573  0.455176  1
  Y  Y4  1  0.046734  0.568614  0.341641  1
  Y  Y5  1  0.320530  0.818546  0.543853  1
  C  C6  1  0.127208  0.122841  0.625630  1
  C  C7  1  0.877610  0.875301  0.373004  1
  C  C8  1  0.502739  0.498924  0.499522  1
  Cl  Cl9  1  0.751670  0.745955  0.754492  1
  Cl  Cl10  1  0.379315  0.379498  0.867673  1
  Cl  Cl11  1  0.252081  0.252308  0.244088  1
  Cl  Cl12  1  0.627878  0.617076  0.131504  1
  Cl  Cl13  1  0.003628  0.997834  0.997442  1
