# generated using pymatgen
data_Ho3ErGa4Co3Ni
_symmetry_space_group_name_H-M   'P 1'
_cell_length_a   4.39356100
_cell_length_b   6.91357527
_cell_length_c   6.95755200
_cell_angle_alpha   90.18361292
_cell_angle_beta   90.00000000
_cell_angle_gamma   90.00000000
_symmetry_Int_Tables_number   1
_chemical_formula_structural   Ho3ErGa4Co3Ni
_chemical_formula_sum   'Ho3 Er1 Ga4 Co3 Ni1'
_cell_volume   211.33605059
_cell_formula_units_Z   1
loop_
 _symmetry_equiv_pos_site_id
 _symmetry_equiv_pos_as_xyz
  1  'x, y, z'
loop_
 _atom_site_type_symbol
 _atom_site_label
 _atom_site_symmetry_multiplicity
 _atom_site_fract_x
 _atom_site_fract_y
 _atom_site_fract_z
 _atom_site_occupancy
  Ho  Ho0  1  0.250000  0.197108  0.017932  1
  Ho  Ho1  1  0.750000  0.693044  0.479402  1
  Ho  Ho2  1  0.750000  0.804715  0.977591  1
  Er  Er3  1  0.250000  0.306087  0.523147  1
  Ga  Ga4  1  0.250000  0.894667  0.696890  1
  Ga  Ga5  1  0.250000  0.602054  0.196504  1
  Ga  Ga6  1  0.750000  0.109712  0.305977  1
  Ga  Ga7  1  0.750000  0.395528  0.803676  1
  Co  Co8  1  0.250000  0.563584  0.843281  1
  Co  Co9  1  0.750000  0.063114  0.657133  1
  Co  Co10  1  0.750000  0.436035  0.156879  1
  Ni  Ni11  1  0.250000  0.934353  0.341588  1
