# generated using pymatgen
data_CePa(Be12Ni)2
_symmetry_space_group_name_H-M   'P 1'
_cell_length_a   7.24870728
_cell_length_b   7.31539565
_cell_length_c   7.23501011
_cell_angle_alpha   59.75769352
_cell_angle_beta   59.85827608
_cell_angle_gamma   59.56874595
_symmetry_Int_Tables_number   1
_chemical_formula_structural   CePa(Be12Ni)2
_chemical_formula_sum   'Ce1 Pa1 Be24 Ni2'
_cell_volume   269.60504421
_cell_formula_units_Z   1
loop_
 _symmetry_equiv_pos_site_id
 _symmetry_equiv_pos_as_xyz
  1  'x, y, z'
loop_
 _atom_site_type_symbol
 _atom_site_label
 _atom_site_symmetry_multiplicity
 _atom_site_fract_x
 _atom_site_fract_y
 _atom_site_fract_z
 _atom_site_occupancy
  Ce  Ce0  1  0.998532  0.001499  0.998487  1
  Pa  Pa1  1  0.503207  0.496811  0.503193  1
  Be  Be2  1  0.317879  0.537660  0.184999  1
  Be  Be3  1  0.185002  0.959457  0.317919  1
  Be  Be4  1  0.044404  0.686969  0.458053  1
  Be  Be5  1  0.458041  0.810576  0.044403  1
  Be  Be6  1  0.682785  0.033752  0.815725  1
  Be  Be7  1  0.815742  0.467747  0.682738  1
  Be  Be8  1  0.956743  0.546162  0.308609  1
  Be  Be9  1  0.541337  0.952961  0.192106  1
  Be  Be10  1  0.192045  0.313593  0.541340  1
  Be  Be11  1  0.308624  0.188505  0.956747  1
  Be  Be12  1  0.461833  0.037047  0.686718  1
  Be  Be13  1  0.040619  0.465255  0.810556  1
  Be  Be14  1  0.810534  0.683549  0.040647  1
  Be  Be15  1  0.686751  0.814336  0.461834  1
  Be  Be16  1  0.312797  0.955184  0.542829  1
  Be  Be17  1  0.188709  0.542851  0.955069  1
  Be  Be18  1  0.542869  0.189203  0.312813  1
  Be  Be19  1  0.955063  0.313303  0.188739  1
  Be  Be20  1  0.686445  0.461455  0.040629  1
  Be  Be21  1  0.810840  0.039847  0.462231  1
  Be  Be22  1  0.040654  0.811465  0.686470  1
  Be  Be23  1  0.462188  0.687135  0.810827  1
  Be  Be24  1  0.249687  0.250284  0.249703  1
  Be  Be25  1  0.750068  0.749945  0.750059  1
  Ni  Ni26  1  0.548871  0.308367  0.947718  1
  Ni  Ni27  1  0.947726  0.195083  0.548840  1
