# generated using pymatgen
data_NaMoS2O9
_symmetry_space_group_name_H-M   'P 1'
_cell_length_a   5.25461700
_cell_length_b   8.23480280
_cell_length_c   9.01986573
_cell_angle_alpha   74.04277239
_cell_angle_beta   90.00000000
_cell_angle_gamma   90.00000000
_symmetry_Int_Tables_number   1
_chemical_formula_structural   NaMoS2O9
_chemical_formula_sum   'Na2 Mo2 S4 O18'
_cell_volume   375.25701043
_cell_formula_units_Z   2
loop_
 _symmetry_equiv_pos_site_id
 _symmetry_equiv_pos_as_xyz
  1  'x, y, z'
loop_
 _atom_site_type_symbol
 _atom_site_label
 _atom_site_symmetry_multiplicity
 _atom_site_fract_x
 _atom_site_fract_y
 _atom_site_fract_z
 _atom_site_occupancy
  Na  Na0  1  0.250000  0.458407  0.237543  1
  Na  Na1  1  0.750000  0.541593  0.762457  1
  Mo  Mo2  1  0.250000  0.939379  0.264096  1
  Mo  Mo3  1  0.750000  0.060621  0.735904  1
  S  S4  1  0.250000  0.326273  0.633209  1
  S  S5  1  0.750000  0.673727  0.366791  1
  S  S6  1  0.250000  0.823263  0.912699  1
  S  S7  1  0.750000  0.176737  0.087301  1
  O  O8  1  0.250000  0.288212  0.485719  1
  O  O9  1  0.750000  0.711788  0.514281  1
  O  O10  1  0.250000  0.502505  0.633265  1
  O  O11  1  0.750000  0.497495  0.366735  1
  O  O12  1  0.017384  0.244990  0.729691  1
  O  O13  1  0.517384  0.755010  0.270309  1
  O  O14  1  0.982616  0.755010  0.270309  1
  O  O15  1  0.482616  0.244990  0.729691  1
  O  O16  1  0.250000  0.933442  0.017092  1
  O  O17  1  0.750000  0.066558  0.982908  1
  O  O18  1  0.250000  0.643447  0.987782  1
  O  O19  1  0.750000  0.356553  0.012218  1
  O  O20  1  0.016353  0.864309  0.809888  1
  O  O21  1  0.516353  0.135691  0.190112  1
  O  O22  1  0.983647  0.135691  0.190112  1
  O  O23  1  0.483647  0.864309  0.809888  1
  O  O24  1  0.250000  0.925750  0.453942  1
  O  O25  1  0.750000  0.074250  0.546058  1
