# generated using pymatgen
data_Rb4LaNpCl10
_symmetry_space_group_name_H-M   'P 1'
_cell_length_a   8.45729369
_cell_length_b   8.99662400
_cell_length_c   13.49993200
_cell_angle_alpha   90.00000000
_cell_angle_beta   90.17990293
_cell_angle_gamma   90.00000000
_symmetry_Int_Tables_number   1
_chemical_formula_structural   Rb4LaNpCl10
_chemical_formula_sum   'Rb8 La2 Np2 Cl20'
_cell_volume   1027.16549639
_cell_formula_units_Z   2
loop_
 _symmetry_equiv_pos_site_id
 _symmetry_equiv_pos_as_xyz
  1  'x, y, z'
loop_
 _atom_site_type_symbol
 _atom_site_label
 _atom_site_symmetry_multiplicity
 _atom_site_fract_x
 _atom_site_fract_y
 _atom_site_fract_z
 _atom_site_occupancy
  Rb  Rb0  1  0.946950  0.004299  0.826291  1
  Rb  Rb1  1  0.053050  0.995701  0.173709  1
  Rb  Rb2  1  0.446870  0.995294  0.670111  1
  Rb  Rb3  1  0.053050  0.504299  0.173709  1
  Rb  Rb4  1  0.553130  0.004706  0.329889  1
  Rb  Rb5  1  0.946950  0.495701  0.826291  1
  Rb  Rb6  1  0.553130  0.495294  0.329889  1
  Rb  Rb7  1  0.446870  0.504706  0.670111  1
  La  La8  1  0.426883  0.250000  0.995570  1
  La  La9  1  0.573117  0.750000  0.004430  1
  Np  Np10  1  0.933483  0.750000  0.501986  1
  Np  Np11  1  0.066517  0.250000  0.498014  1
  Cl  Cl12  1  0.120660  0.750000  0.672514  1
  Cl  Cl13  1  0.879340  0.250000  0.327486  1
  Cl  Cl14  1  0.622019  0.250000  0.824864  1
  Cl  Cl15  1  0.377981  0.750000  0.175136  1
  Cl  Cl16  1  0.842073  0.039380  0.571607  1
  Cl  Cl17  1  0.157927  0.960620  0.428393  1
  Cl  Cl18  1  0.338450  0.957544  0.924554  1
  Cl  Cl19  1  0.157927  0.539380  0.428393  1
  Cl  Cl20  1  0.661550  0.042456  0.075446  1
  Cl  Cl21  1  0.842073  0.460620  0.571607  1
  Cl  Cl22  1  0.661550  0.457544  0.075446  1
  Cl  Cl23  1  0.338450  0.542456  0.924554  1
  Cl  Cl24  1  0.597791  0.750000  0.510472  1
  Cl  Cl25  1  0.402209  0.250000  0.489528  1
  Cl  Cl26  1  0.087934  0.250000  0.990197  1
  Cl  Cl27  1  0.912066  0.750000  0.009803  1
  Cl  Cl28  1  0.657777  0.750000  0.801572  1
  Cl  Cl29  1  0.342223  0.250000  0.198428  1
  Cl  Cl30  1  0.155968  0.250000  0.696936  1
  Cl  Cl31  1  0.844032  0.750000  0.303064  1
