# generated using pymatgen
data_CsRbTcTe6Mo5
_symmetry_space_group_name_H-M   'P 1'
_cell_length_a   4.60036800
_cell_length_b   10.33020328
_cell_length_c   10.41736279
_cell_angle_alpha   120.41073778
_cell_angle_beta   90.00000000
_cell_angle_gamma   90.00000000
_symmetry_Int_Tables_number   1
_chemical_formula_structural   CsRbTcTe6Mo5
_chemical_formula_sum   'Cs1 Rb1 Tc1 Te6 Mo5'
_cell_volume   426.95042984
_cell_formula_units_Z   1
loop_
 _symmetry_equiv_pos_site_id
 _symmetry_equiv_pos_as_xyz
  1  'x, y, z'
loop_
 _atom_site_type_symbol
 _atom_site_label
 _atom_site_symmetry_multiplicity
 _atom_site_fract_x
 _atom_site_fract_y
 _atom_site_fract_z
 _atom_site_occupancy
  Cs  Cs0  1  0.750000  0.670357  0.334272  1
  Rb  Rb1  1  0.250000  0.330613  0.664468  1
  Tc  Tc2  1  0.750000  0.977161  0.837305  1
  Te  Te3  1  0.750000  0.667471  0.709835  1
  Te  Te4  1  0.750000  0.284634  0.951447  1
  Te  Te5  1  0.750000  0.048513  0.341567  1
  Te  Te6  1  0.250000  0.337268  0.292962  1
  Te  Te7  1  0.250000  0.706257  0.041498  1
  Te  Te8  1  0.250000  0.956231  0.663896  1
  Mo  Mo9  1  0.750000  0.157516  0.138250  1
  Mo  Mo10  1  0.750000  0.864246  0.022952  1
  Mo  Mo11  1  0.250000  0.021378  0.159568  1
  Mo  Mo12  1  0.250000  0.843836  0.863263  1
  Mo  Mo13  1  0.250000  0.134516  0.978716  1
