# generated using pymatgen
data_TaTi2(GaIr)3
_symmetry_space_group_name_H-M   'P 1'
_cell_length_a   7.35298200
_cell_length_b   7.38863614
_cell_length_c   2.95623200
_cell_angle_alpha   90.00000000
_cell_angle_beta   90.00000000
_cell_angle_gamma   119.84050049
_symmetry_Int_Tables_number   1
_chemical_formula_structural   TaTi2(GaIr)3
_chemical_formula_sum   'Ta1 Ti2 Ga3 Ir3'
_cell_volume   139.31333689
_cell_formula_units_Z   1
loop_
 _symmetry_equiv_pos_site_id
 _symmetry_equiv_pos_as_xyz
  1  'x, y, z'
loop_
 _atom_site_type_symbol
 _atom_site_label
 _atom_site_symmetry_multiplicity
 _atom_site_fract_x
 _atom_site_fract_y
 _atom_site_fract_z
 _atom_site_occupancy
  Ta  Ta0  1  0.372076  0.000000  0.500000  1
  Ti  Ti1  1  0.999262  0.375814  0.500000  1
  Ti  Ti2  1  0.623449  0.624186  0.500000  1
  Ga  Ga3  1  0.710238  0.000000  0.000000  1
  Ga  Ga4  1  0.291205  0.293628  0.000000  1
  Ga  Ga5  1  0.997577  0.706372  0.000000  1
  Ir  Ir6  1  0.670935  0.337640  0.000000  1
  Ir  Ir7  1  0.333295  0.662360  0.000000  1
  Ir  Ir8  1  0.001965  0.000000  0.500000  1
