# generated using pymatgen
data_Hf4Zr6Zn2(BiPb)3
_symmetry_space_group_name_H-M   'P 1'
_cell_length_a   8.83816900
_cell_length_b   8.83617880
_cell_length_c   5.91070900
_cell_angle_alpha   90.00000000
_cell_angle_beta   90.00000000
_cell_angle_gamma   120.00744717
_symmetry_Int_Tables_number   1
_chemical_formula_structural   Hf4Zr6Zn2(BiPb)3
_chemical_formula_sum   'Hf4 Zr6 Zn2 Bi3 Pb3'
_cell_volume   399.72785381
_cell_formula_units_Z   1
loop_
 _symmetry_equiv_pos_site_id
 _symmetry_equiv_pos_as_xyz
  1  'x, y, z'
loop_
 _atom_site_type_symbol
 _atom_site_label
 _atom_site_symmetry_multiplicity
 _atom_site_fract_x
 _atom_site_fract_y
 _atom_site_fract_z
 _atom_site_occupancy
  Hf  Hf0  1  0.333266  0.666789  0.000398  1
  Hf  Hf1  1  0.666478  0.333211  0.499602  1
  Hf  Hf2  1  0.666478  0.333211  0.000398  1
  Hf  Hf3  1  0.333266  0.666789  0.499602  1
  Zr  Zr4  1  0.265818  0.000000  0.250000  1
  Zr  Zr5  1  0.266340  0.265137  0.750000  1
  Zr  Zr6  1  0.001204  0.734863  0.750000  1
  Zr  Zr7  1  0.000924  0.266969  0.250000  1
  Zr  Zr8  1  0.733954  0.733031  0.250000  1
  Zr  Zr9  1  0.733183  0.000000  0.750000  1
  Zn  Zn10  1  0.000676  0.000000  0.000507  1
  Zn  Zn11  1  0.000676  0.000000  0.499493  1
  Bi  Bi12  1  0.613893  0.000000  0.250000  1
  Bi  Bi13  1  0.614407  0.613853  0.750000  1
  Bi  Bi14  1  0.000555  0.386147  0.750000  1
  Pb  Pb15  1  0.000214  0.615708  0.250000  1
  Pb  Pb16  1  0.384506  0.384292  0.250000  1
  Pb  Pb17  1  0.384163  0.000000  0.750000  1
