# generated using pymatgen
data_Ho8Ti8Nb3Si16Ag
_symmetry_space_group_name_H-M   'P 1'
_cell_length_a   7.06307972
_cell_length_b   7.06307987
_cell_length_c   12.91131418
_cell_angle_alpha   90.14519357
_cell_angle_beta   89.85480916
_cell_angle_gamma   89.59322352
_symmetry_Int_Tables_number   1
_chemical_formula_structural   Ho8Ti8Nb3Si16Ag
_chemical_formula_sum   'Ho8 Ti8 Nb3 Si16 Ag1'
_cell_volume   644.08757365
_cell_formula_units_Z   1
loop_
 _symmetry_equiv_pos_site_id
 _symmetry_equiv_pos_as_xyz
  1  'x, y, z'
loop_
 _atom_site_type_symbol
 _atom_site_label
 _atom_site_symmetry_multiplicity
 _atom_site_fract_x
 _atom_site_fract_y
 _atom_site_fract_z
 _atom_site_occupancy
  Ho  Ho0  1  0.341933  0.000602  0.467094  1
  Ho  Ho1  1  0.498349  0.840978  0.716961  1
  Ho  Ho2  1  0.500958  0.157733  0.215271  1
  Ho  Ho3  1  0.840978  0.498349  0.283039  1
  Ho  Ho4  1  0.157733  0.500958  0.784729  1
  Ho  Ho5  1  0.656709  0.001373  0.968079  1
  Ho  Ho6  1  0.000602  0.341933  0.532906  1
  Ho  Ho7  1  0.001373  0.656709  0.031921  1
  Ti  Ti8  1  0.147556  0.007891  0.875860  1
  Ti  Ti9  1  0.494043  0.652073  0.124166  1
  Ti  Ti10  1  0.508911  0.350459  0.625105  1
  Ti  Ti11  1  0.652073  0.494043  0.875834  1
  Ti  Ti12  1  0.350459  0.508911  0.374895  1
  Ti  Ti13  1  0.848562  0.990883  0.373739  1
  Ti  Ti14  1  0.007891  0.147556  0.124140  1
  Ti  Ti15  1  0.990883  0.848562  0.626261  1
  Nb  Nb16  1  0.173674  0.826176  0.249666  1
  Nb  Nb17  1  0.826176  0.173674  0.750334  1
  Nb  Nb18  1  0.672851  0.672851  0.500000  1
  Si  Si19  1  0.203059  0.131951  0.683538  1
  Si  Si20  1  0.373461  0.718158  0.929187  1
  Si  Si21  1  0.630888  0.294058  0.432825  1
  Si  Si22  1  0.718158  0.373461  0.070813  1
  Si  Si23  1  0.294058  0.630888  0.567175  1
  Si  Si24  1  0.796829  0.867336  0.182303  1
  Si  Si25  1  0.131951  0.203059  0.316462  1
  Si  Si26  1  0.867336  0.796829  0.817697  1
  Si  Si27  1  0.287862  0.940026  0.064040  1
  Si  Si28  1  0.547462  0.792345  0.313305  1
  Si  Si29  1  0.453115  0.207782  0.809286  1
  Si  Si30  1  0.792345  0.547462  0.686695  1
  Si  Si31  1  0.207782  0.453115  0.190714  1
  Si  Si32  1  0.708568  0.047575  0.563070  1
  Si  Si33  1  0.940026  0.287862  0.935960  1
  Si  Si34  1  0.047575  0.708568  0.436930  1
  Ag  Ag35  1  0.327809  0.327809  0.000000  1
