# generated using pymatgen
data_Ba6YLu3(WO9)2
_symmetry_space_group_name_H-M   'P 1'
_cell_length_a   6.03650643
_cell_length_b   8.55369684
_cell_length_c   10.46387554
_cell_angle_alpha   65.87522813
_cell_angle_beta   73.23510573
_cell_angle_gamma   89.99999662
_symmetry_Int_Tables_number   1
_chemical_formula_structural   Ba6YLu3(WO9)2
_chemical_formula_sum   'Ba6 Y1 Lu3 W2 O18'
_cell_volume   467.83030701
_cell_formula_units_Z   1
loop_
 _symmetry_equiv_pos_site_id
 _symmetry_equiv_pos_as_xyz
  1  'x, y, z'
loop_
 _atom_site_type_symbol
 _atom_site_label
 _atom_site_symmetry_multiplicity
 _atom_site_fract_x
 _atom_site_fract_y
 _atom_site_fract_z
 _atom_site_occupancy
  Ba  Ba0  1  0.500000  0.267558  0.000000  1
  Ba  Ba1  1  0.838914  0.578464  0.322171  1
  Ba  Ba2  1  0.161086  0.900636  0.677829  1
  Ba  Ba3  1  0.500000  0.732442  0.000000  1
  Ba  Ba4  1  0.838914  0.099364  0.322171  1
  Ba  Ba5  1  0.161086  0.421536  0.677829  1
  Y  Y6  1  0.000000  0.000000  0.000000  1
  Lu  Lu7  1  0.330700  0.330700  0.338600  1
  Lu  Lu8  1  0.669300  0.669300  0.661400  1
  Lu  Lu9  1  0.000000  0.500000  0.000000  1
  W  W10  1  0.332986  0.832986  0.334027  1
  W  W11  1  0.667014  0.167014  0.665972  1
  O  O12  1  0.000000  0.250280  0.000000  1
  O  O13  1  0.330039  0.598322  0.339920  1
  O  O14  1  0.669961  0.938244  0.660080  1
  O  O15  1  0.163511  0.411748  0.176503  1
  O  O16  1  0.491044  0.757718  0.484563  1
  O  O17  1  0.818030  0.090246  0.819507  1
  O  O18  1  0.340013  0.588252  0.823497  1
  O  O19  1  0.637538  0.909754  0.180493  1
  O  O20  1  0.975608  0.242282  0.515437  1
  O  O21  1  0.000000  0.749720  0.000000  1
  O  O22  1  0.330039  0.061756  0.339920  1
  O  O23  1  0.669961  0.401678  0.660080  1
  O  O24  1  0.836489  0.588252  0.823497  1
  O  O25  1  0.181970  0.909754  0.180493  1
  O  O26  1  0.508956  0.242282  0.515437  1
  O  O27  1  0.659987  0.411748  0.176503  1
  O  O28  1  0.024392  0.757718  0.484563  1
  O  O29  1  0.362462  0.090246  0.819507  1
