# generated using pymatgen
data_CeRe3Si2Tc
_symmetry_space_group_name_H-M   'P 1'
_cell_length_a   7.28694666
_cell_length_b   7.28694789
_cell_length_c   4.08351700
_cell_angle_alpha   90.00000000
_cell_angle_beta   90.00000000
_cell_angle_gamma   146.88596082
_symmetry_Int_Tables_number   1
_chemical_formula_structural   CeRe3Si2Tc
_chemical_formula_sum   'Ce1 Re3 Si2 Tc1'
_cell_volume   118.45749800
_cell_formula_units_Z   1
loop_
 _symmetry_equiv_pos_site_id
 _symmetry_equiv_pos_as_xyz
  1  'x, y, z'
loop_
 _atom_site_type_symbol
 _atom_site_label
 _atom_site_symmetry_multiplicity
 _atom_site_fract_x
 _atom_site_fract_y
 _atom_site_fract_z
 _atom_site_occupancy
  Ce  Ce0  1  0.999920  0.000080  0.000000  1
  Re  Re1  1  0.305347  0.694653  0.000000  1
  Re  Re2  1  0.813778  0.186222  0.500000  1
  Re  Re3  1  0.695539  0.304461  0.000000  1
  Si  Si4  1  0.412665  0.587335  0.500000  1
  Si  Si5  1  0.587576  0.412424  0.500000  1
  Tc  Tc6  1  0.185176  0.814824  0.500000  1
