# generated using pymatgen
data_CaCdGa2Au3
_symmetry_space_group_name_H-M   'P 1'
_cell_length_a   4.47281200
_cell_length_b   7.41086800
_cell_length_c   8.96394700
_cell_angle_alpha   90.00000000
_cell_angle_beta   90.00000000
_cell_angle_gamma   90.00000000
_symmetry_Int_Tables_number   1
_chemical_formula_structural   CaCdGa2Au3
_chemical_formula_sum   'Ca2 Cd2 Ga4 Au6'
_cell_volume   297.13170998
_cell_formula_units_Z   2
loop_
 _symmetry_equiv_pos_site_id
 _symmetry_equiv_pos_as_xyz
  1  'x, y, z'
loop_
 _atom_site_type_symbol
 _atom_site_label
 _atom_site_symmetry_multiplicity
 _atom_site_fract_x
 _atom_site_fract_y
 _atom_site_fract_z
 _atom_site_occupancy
  Ca  Ca0  1  0.500000  0.000000  0.746104  1
  Ca  Ca1  1  0.000000  0.500000  0.253896  1
  Cd  Cd2  1  0.000000  0.000000  0.358906  1
  Cd  Cd3  1  0.500000  0.500000  0.641094  1
  Ga  Ga4  1  0.000000  0.312186  0.886370  1
  Ga  Ga5  1  0.500000  0.187814  0.113630  1
  Ga  Ga6  1  0.000000  0.687814  0.886370  1
  Ga  Ga7  1  0.500000  0.812186  0.113630  1
  Au  Au8  1  0.000000  0.748894  0.604727  1
  Au  Au9  1  0.500000  0.751106  0.395273  1
  Au  Au10  1  0.500000  0.500000  0.966451  1
  Au  Au11  1  0.000000  0.000000  0.033549  1
  Au  Au12  1  0.500000  0.248894  0.395273  1
  Au  Au13  1  0.000000  0.251106  0.604727  1
