# generated using pymatgen
data_K7Np(US5)2
_symmetry_space_group_name_H-M   'P 1'
_cell_length_a   7.62141164
_cell_length_b   11.41833493
_cell_length_c   7.22136700
_cell_angle_alpha   102.18052145
_cell_angle_beta   99.51299817
_cell_angle_gamma   110.38744254
_symmetry_Int_Tables_number   1
_chemical_formula_structural   K7Np(US5)2
_chemical_formula_sum   'K7 Np1 U2 S10'
_cell_volume   555.90840755
_cell_formula_units_Z   1
loop_
 _symmetry_equiv_pos_site_id
 _symmetry_equiv_pos_as_xyz
  1  'x, y, z'
loop_
 _atom_site_type_symbol
 _atom_site_label
 _atom_site_symmetry_multiplicity
 _atom_site_fract_x
 _atom_site_fract_y
 _atom_site_fract_z
 _atom_site_occupancy
  K  K0  1  0.999670  0.499506  0.999899  1
  K  K1  1  0.414393  0.905849  0.202625  1
  K  K2  1  0.594082  0.592497  0.293672  1
  K  K3  1  0.789663  0.301200  0.422365  1
  K  K4  1  0.210225  0.698559  0.577234  1
  K  K5  1  0.405354  0.406880  0.705988  1
  K  K6  1  0.585865  0.094770  0.797616  1
  Np  Np7  1  0.000606  0.000714  0.500393  1
  U  U8  1  0.192598  0.198242  0.100996  1
  U  U9  1  0.808118  0.802564  0.899458  1
  S  S10  1  0.529816  0.314611  0.062192  1
  S  S11  1  0.844433  0.036719  0.149092  1
  S  S12  1  0.985873  0.780623  0.232218  1
  S  S13  1  0.178023  0.404386  0.307544  1
  S  S14  1  0.337477  0.140442  0.417849  1
  S  S15  1  0.662475  0.858760  0.583705  1
  S  S16  1  0.821992  0.597128  0.693685  1
  S  S17  1  0.012938  0.218843  0.765461  1
  S  S18  1  0.154059  0.961564  0.850081  1
  S  S19  1  0.472343  0.686140  0.937926  1
