# generated using pymatgen
data_Ho9Tm3Th4(MgCo)4
_symmetry_space_group_name_H-M   'P 1'
_cell_length_a   9.59515967
_cell_length_b   9.61014021
_cell_length_c   9.59724453
_cell_angle_alpha   59.94173233
_cell_angle_beta   59.91810151
_cell_angle_gamma   59.96328046
_symmetry_Int_Tables_number   1
_chemical_formula_structural   Ho9Tm3Th4(MgCo)4
_chemical_formula_sum   'Ho9 Tm3 Th4 Mg4 Co4'
_cell_volume   624.93116453
_cell_formula_units_Z   1
loop_
 _symmetry_equiv_pos_site_id
 _symmetry_equiv_pos_as_xyz
  1  'x, y, z'
loop_
 _atom_site_type_symbol
 _atom_site_label
 _atom_site_symmetry_multiplicity
 _atom_site_fract_x
 _atom_site_fract_y
 _atom_site_fract_z
 _atom_site_occupancy
  Ho  Ho0  1  0.814518  0.185462  0.814554  1
  Ho  Ho1  1  0.185881  0.185865  0.814219  1
  Ho  Ho2  1  0.814200  0.814059  0.185875  1
  Ho  Ho3  1  0.936047  0.565164  0.564423  1
  Ho  Ho4  1  0.564423  0.934373  0.936053  1
  Ho  Ho5  1  0.565099  0.934908  0.565088  1
  Ho  Ho6  1  0.935519  0.564485  0.935517  1
  Ho  Ho7  1  0.564416  0.565111  0.936042  1
  Ho  Ho8  1  0.936037  0.934433  0.564414  1
  Tm  Tm9  1  0.813851  0.186105  0.186245  1
  Tm  Tm10  1  0.186249  0.813795  0.813849  1
  Tm  Tm11  1  0.186511  0.813492  0.186511  1
  Th  Th12  1  0.345015  0.344524  0.344213  1
  Th  Th13  1  0.344791  0.345090  0.965622  1
  Th  Th14  1  0.344208  0.966257  0.345007  1
  Th  Th15  1  0.965627  0.344482  0.344791  1
  Mg  Mg16  1  0.579555  0.580677  0.579811  1
  Mg  Mg17  1  0.579521  0.580390  0.259545  1
  Mg  Mg18  1  0.579816  0.259953  0.579547  1
  Mg  Mg19  1  0.259554  0.580533  0.579523  1
  Co  Co20  1  0.144015  0.144685  0.144706  1
  Co  Co21  1  0.144364  0.144456  0.566064  1
  Co  Co22  1  0.144706  0.566590  0.144019  1
  Co  Co23  1  0.566079  0.145112  0.144359  1
