# generated using pymatgen
data_Pr3Nd7Si5Ag
_symmetry_space_group_name_H-M   'P 1'
_cell_length_a   7.79175353
_cell_length_b   7.79088929
_cell_length_c   9.08090632
_cell_angle_alpha   115.37249730
_cell_angle_beta   115.37719350
_cell_angle_gamma   90.04854606
_symmetry_Int_Tables_number   1
_chemical_formula_structural   Pr3Nd7Si5Ag
_chemical_formula_sum   'Pr3 Nd7 Si5 Ag1'
_cell_volume   438.37576451
_cell_formula_units_Z   1
loop_
 _symmetry_equiv_pos_site_id
 _symmetry_equiv_pos_as_xyz
  1  'x, y, z'
loop_
 _atom_site_type_symbol
 _atom_site_label
 _atom_site_symmetry_multiplicity
 _atom_site_fract_x
 _atom_site_fract_y
 _atom_site_fract_z
 _atom_site_occupancy
  Pr  Pr0  1  0.680515  0.533599  0.712971  1
  Pr  Pr1  1  0.177714  0.681226  0.713764  1
  Pr  Pr2  1  0.537290  0.032707  0.714016  1
  Nd  Nd3  1  0.484225  0.485783  0.968109  1
  Nd  Nd4  1  0.015105  0.016275  0.033222  1
  Nd  Nd5  1  0.964913  0.819000  0.285019  1
  Nd  Nd6  1  0.320442  0.465993  0.284318  1
  Nd  Nd7  1  0.818069  0.320655  0.284325  1
  Nd  Nd8  1  0.466495  0.962094  0.284062  1
  Nd  Nd9  1  0.033502  0.180007  0.715998  1
  Si  Si10  1  0.248582  0.248206  0.498128  1
  Si  Si11  1  0.616294  0.886079  0.002319  1
  Si  Si12  1  0.385666  0.116319  0.001911  1
  Si  Si13  1  0.886214  0.385905  0.001090  1
  Si  Si14  1  0.115750  0.615565  0.002451  1
  Ag  Ag15  1  0.749225  0.750586  0.498300  1
