# generated using pymatgen
data_Gd8Ir5Au3
_symmetry_space_group_name_H-M   'P 1'
_cell_length_a   4.29913000
_cell_length_b   5.87534970
_cell_length_c   14.75938600
_cell_angle_alpha   90.21586841
_cell_angle_beta   90.00000000
_cell_angle_gamma   90.00000000
_symmetry_Int_Tables_number   1
_chemical_formula_structural   Gd8Ir5Au3
_chemical_formula_sum   'Gd8 Ir5 Au3'
_cell_volume   372.80309329
_cell_formula_units_Z   1
loop_
 _symmetry_equiv_pos_site_id
 _symmetry_equiv_pos_as_xyz
  1  'x, y, z'
loop_
 _atom_site_type_symbol
 _atom_site_label
 _atom_site_symmetry_multiplicity
 _atom_site_fract_x
 _atom_site_fract_y
 _atom_site_fract_z
 _atom_site_occupancy
  Gd  Gd0  1  0.250000  0.532146  0.288754  1
  Gd  Gd1  1  0.750000  0.475519  0.718873  1
  Gd  Gd2  1  0.250000  0.973622  0.776962  1
  Gd  Gd3  1  0.250000  0.756395  0.531051  1
  Gd  Gd4  1  0.250000  0.739135  0.043873  1
  Gd  Gd5  1  0.750000  0.265766  0.959555  1
  Gd  Gd6  1  0.750000  0.016029  0.224936  1
  Gd  Gd7  1  0.750000  0.251074  0.454286  1
  Ir  Ir8  1  0.250000  0.047085  0.354274  1
  Ir  Ir9  1  0.750000  0.548155  0.145539  1
  Ir  Ir10  1  0.750000  0.733036  0.399463  1
  Ir  Ir11  1  0.250000  0.449546  0.852697  1
  Ir  Ir12  1  0.750000  0.950718  0.645438  1
  Au  Au13  1  0.750000  0.767283  0.898434  1
  Au  Au14  1  0.250000  0.235093  0.105900  1
  Au  Au15  1  0.250000  0.259400  0.599964  1
