# generated using pymatgen
data_CaY6RhI12
_symmetry_space_group_name_H-M   'P 1'
_cell_length_a   9.82787169
_cell_length_b   9.82787255
_cell_length_c   9.82787253
_cell_angle_alpha   107.19389297
_cell_angle_beta   107.19389274
_cell_angle_gamma   107.19388608
_symmetry_Int_Tables_number   1
_chemical_formula_structural   CaY6RhI12
_chemical_formula_sum   'Ca1 Y6 Rh1 I12'
_cell_volume   786.32193610
_cell_formula_units_Z   1
loop_
 _symmetry_equiv_pos_site_id
 _symmetry_equiv_pos_as_xyz
  1  'x, y, z'
loop_
 _atom_site_type_symbol
 _atom_site_label
 _atom_site_symmetry_multiplicity
 _atom_site_fract_x
 _atom_site_fract_y
 _atom_site_fract_z
 _atom_site_occupancy
  Ca  Ca0  1  0.500000  0.500000  0.500000  1
  Y  Y1  1  0.904222  0.976711  0.700802  1
  Y  Y2  1  0.976711  0.700802  0.904222  1
  Y  Y3  1  0.700802  0.904222  0.976711  1
  Y  Y4  1  0.095778  0.023289  0.299198  1
  Y  Y5  1  0.023289  0.299198  0.095778  1
  Y  Y6  1  0.299198  0.095778  0.023289  1
  Rh  Rh7  1  0.000000  0.000000  0.000000  1
  I  I8  1  0.542122  0.849037  0.620428  1
  I  I9  1  0.849037  0.620428  0.542122  1
  I  I10  1  0.620428  0.542122  0.849037  1
  I  I11  1  0.457878  0.150963  0.379572  1
  I  I12  1  0.150963  0.379572  0.457878  1
  I  I13  1  0.379572  0.457878  0.150963  1
  I  I14  1  0.676880  0.223015  0.070866  1
  I  I15  1  0.223015  0.070866  0.676880  1
  I  I16  1  0.070866  0.676880  0.223015  1
  I  I17  1  0.323120  0.776985  0.929134  1
  I  I18  1  0.776985  0.929134  0.323120  1
  I  I19  1  0.929134  0.323120  0.776985  1
