# generated using pymatgen
data_DyZrB6Os
_symmetry_space_group_name_H-M   'P 1'
_cell_length_a   3.57592600
_cell_length_b   9.05292000
_cell_length_c   11.42495400
_cell_angle_alpha   90.00000000
_cell_angle_beta   90.00000000
_cell_angle_gamma   90.00000000
_symmetry_Int_Tables_number   1
_chemical_formula_structural   DyZrB6Os
_chemical_formula_sum   'Dy4 Zr4 B24 Os4'
_cell_volume   369.85514601
_cell_formula_units_Z   4
loop_
 _symmetry_equiv_pos_site_id
 _symmetry_equiv_pos_as_xyz
  1  'x, y, z'
loop_
 _atom_site_type_symbol
 _atom_site_label
 _atom_site_symmetry_multiplicity
 _atom_site_fract_x
 _atom_site_fract_y
 _atom_site_fract_z
 _atom_site_occupancy
  Dy  Dy0  1  0.000000  0.321777  0.413352  1
  Dy  Dy1  1  0.000000  0.678223  0.586648  1
  Dy  Dy2  1  0.000000  0.821777  0.086648  1
  Dy  Dy3  1  0.000000  0.178223  0.913352  1
  Zr  Zr4  1  0.000000  0.944753  0.374464  1
  Zr  Zr5  1  0.000000  0.055247  0.625536  1
  Zr  Zr6  1  0.000000  0.444753  0.125536  1
  Zr  Zr7  1  0.000000  0.555247  0.874464  1
  B  B8  1  0.500000  0.554335  0.433840  1
  B  B9  1  0.500000  0.445665  0.566160  1
  B  B10  1  0.500000  0.054335  0.066160  1
  B  B11  1  0.500000  0.945665  0.933840  1
  B  B12  1  0.500000  0.751221  0.419165  1
  B  B13  1  0.500000  0.248779  0.580835  1
  B  B14  1  0.500000  0.251221  0.080835  1
  B  B15  1  0.500000  0.748779  0.919165  1
  B  B16  1  0.500000  0.794467  0.264113  1
  B  B17  1  0.500000  0.205533  0.735887  1
  B  B18  1  0.500000  0.294467  0.235887  1
  B  B19  1  0.500000  0.705533  0.764113  1
  B  B20  1  0.500000  0.630431  0.183249  1
  B  B21  1  0.500000  0.369569  0.816751  1
  B  B22  1  0.500000  0.130431  0.316751  1
  B  B23  1  0.500000  0.869569  0.683249  1
  B  B24  1  0.500000  0.981977  0.213217  1
  B  B25  1  0.500000  0.018023  0.786783  1
  B  B26  1  0.500000  0.481977  0.286783  1
  B  B27  1  0.500000  0.518023  0.713217  1
  B  B28  1  0.500000  0.602790  0.027898  1
  B  B29  1  0.500000  0.397210  0.972102  1
  B  B30  1  0.500000  0.102790  0.472102  1
  B  B31  1  0.500000  0.897210  0.527898  1
  Os  Os32  1  0.000000  0.640914  0.319745  1
  Os  Os33  1  0.000000  0.359086  0.680255  1
  Os  Os34  1  0.000000  0.140914  0.180255  1
  Os  Os35  1  0.000000  0.859086  0.819745  1
