# generated using pymatgen
data_Lu8Sc4Co4TcSn
_symmetry_space_group_name_H-M   'P 1'
_cell_length_a   7.98253228
_cell_length_b   7.98253208
_cell_length_c   7.98253238
_cell_angle_alpha   111.08131585
_cell_angle_beta   111.35356784
_cell_angle_gamma   106.03265781
_symmetry_Int_Tables_number   1
_chemical_formula_structural   Lu8Sc4Co4TcSn
_chemical_formula_sum   'Lu8 Sc4 Co4 Tc1 Sn1'
_cell_volume   390.50976214
_cell_formula_units_Z   1
loop_
 _symmetry_equiv_pos_site_id
 _symmetry_equiv_pos_as_xyz
  1  'x, y, z'
loop_
 _atom_site_type_symbol
 _atom_site_label
 _atom_site_symmetry_multiplicity
 _atom_site_fract_x
 _atom_site_fract_y
 _atom_site_fract_z
 _atom_site_occupancy
  Lu  Lu0  1  0.185635  0.276641  0.462277  1
  Lu  Lu1  1  0.814365  0.723359  0.537723  1
  Lu  Lu2  1  0.185635  0.723359  0.908995  1
  Lu  Lu3  1  0.814365  0.276641  0.091005  1
  Lu  Lu4  1  0.311598  0.614548  0.302950  1
  Lu  Lu5  1  0.688402  0.385452  0.697050  1
  Lu  Lu6  1  0.311598  0.008648  0.697050  1
  Lu  Lu7  1  0.688402  0.991352  0.302950  1
  Sc  Sc8  1  0.417161  0.221397  0.195764  1
  Sc  Sc9  1  0.582839  0.778603  0.804236  1
  Sc  Sc10  1  0.025633  0.221397  0.804236  1
  Sc  Sc11  1  0.974367  0.778603  0.195764  1
  Co  Co12  1  0.369293  0.000000  0.369293  1
  Co  Co13  1  0.630707  0.000000  0.630707  1
  Co  Co14  1  0.113723  0.613723  0.500000  1
  Co  Co15  1  0.886277  0.386277  0.500000  1
  Tc  Tc16  1  0.000000  0.000000  0.000000  1
  Sn  Sn17  1  0.500000  0.500000  0.000000  1
