# generated using pymatgen
data_Cs11KAl2(FeSe6)2
_symmetry_space_group_name_H-M   'P 1'
_cell_length_a   11.05162528
_cell_length_b   11.04255089
_cell_length_c   14.11379162
_cell_angle_alpha   89.71059827
_cell_angle_beta   89.78901996
_cell_angle_gamma   139.77905990
_symmetry_Int_Tables_number   1
_chemical_formula_structural   Cs11KAl2(FeSe6)2
_chemical_formula_sum   'Cs11 K1 Al2 Fe2 Se12'
_cell_volume   1112.14048878
_cell_formula_units_Z   1
loop_
 _symmetry_equiv_pos_site_id
 _symmetry_equiv_pos_as_xyz
  1  'x, y, z'
loop_
 _atom_site_type_symbol
 _atom_site_label
 _atom_site_symmetry_multiplicity
 _atom_site_fract_x
 _atom_site_fract_y
 _atom_site_fract_z
 _atom_site_occupancy
  Cs  Cs0  1  0.138181  0.137959  0.322196  1
  Cs  Cs1  1  0.639107  0.638742  0.172903  1
  Cs  Cs2  1  0.361744  0.361754  0.819158  1
  Cs  Cs3  1  0.167095  0.522469  0.127960  1
  Cs  Cs4  1  0.482676  0.831549  0.874317  1
  Cs  Cs5  1  0.974513  0.329866  0.630835  1
  Cs  Cs6  1  0.669268  0.019595  0.374786  1
  Cs  Cs7  1  0.833495  0.484117  0.875161  1
  Cs  Cs8  1  0.521112  0.165187  0.127265  1
  Cs  Cs9  1  0.018288  0.667381  0.375520  1
  Cs  Cs10  1  0.331949  0.976293  0.630001  1
  K  K11  1  0.842355  0.843104  0.661150  1
  Al  Al12  1  0.925995  0.085290  0.997427  1
  Al  Al13  1  0.414958  0.572366  0.502762  1
  Fe  Fe14  1  0.085252  0.926146  0.997676  1
  Fe  Fe15  1  0.572214  0.415277  0.502839  1
  Se  Se16  1  0.277713  0.278525  0.568143  1
  Se  Se17  1  0.699697  0.700408  0.431630  1
  Se  Se18  1  0.207840  0.208785  0.067289  1
  Se  Se19  1  0.812817  0.813650  0.918190  1
  Se  Se20  1  0.714169  0.001798  0.115979  1
  Se  Se21  1  0.004246  0.301456  0.885933  1
  Se  Se22  1  0.503507  0.783280  0.621364  1
  Se  Se23  1  0.210140  0.503661  0.387719  1
  Se  Se24  1  0.299669  0.002603  0.887139  1
  Se  Se25  1  0.003660  0.715002  0.115418  1
  Se  Se26  1  0.505338  0.211398  0.388719  1
  Se  Se27  1  0.783005  0.502342  0.620521  1
