# generated using pymatgen
data_NaAc(PIr)2
_symmetry_space_group_name_H-M   'P 1'
_cell_length_a   6.38593600
_cell_length_b   6.36359574
_cell_length_c   6.28613365
_cell_angle_alpha   89.17246427
_cell_angle_beta   90.00000000
_cell_angle_gamma   90.00000000
_symmetry_Int_Tables_number   1
_chemical_formula_structural   NaAc(PIr)2
_chemical_formula_sum   'Na2 Ac2 P4 Ir4'
_cell_volume   255.42620717
_cell_formula_units_Z   2
loop_
 _symmetry_equiv_pos_site_id
 _symmetry_equiv_pos_as_xyz
  1  'x, y, z'
loop_
 _atom_site_type_symbol
 _atom_site_label
 _atom_site_symmetry_multiplicity
 _atom_site_fract_x
 _atom_site_fract_y
 _atom_site_fract_z
 _atom_site_occupancy
  Na  Na0  1  0.610806  0.375347  0.885196  1
  Na  Na1  1  0.110806  0.124653  0.114804  1
  Ac  Ac2  1  0.376404  0.884079  0.633406  1
  Ac  Ac3  1  0.876404  0.615921  0.366594  1
  P  P4  1  0.660538  0.162365  0.338502  1
  P  P5  1  0.160538  0.337635  0.661498  1
  P  P6  1  0.345600  0.667095  0.159613  1
  P  P7  1  0.845600  0.832905  0.840387  1
  Ir  Ir8  1  0.096697  0.587415  0.911465  1
  Ir  Ir9  1  0.596697  0.912585  0.088535  1
  Ir  Ir10  1  0.909955  0.090155  0.592180  1
  Ir  Ir11  1  0.409955  0.409845  0.407820  1
