# generated using pymatgen
data_Hf2Sc2Re7Mo
_symmetry_space_group_name_H-M   'P 1'
_cell_length_a   5.30564300
_cell_length_b   5.30564258
_cell_length_c   8.62197000
_cell_angle_alpha   90.00000000
_cell_angle_beta   90.00000000
_cell_angle_gamma   119.99998393
_symmetry_Int_Tables_number   1
_chemical_formula_structural   Hf2Sc2Re7Mo
_chemical_formula_sum   'Hf2 Sc2 Re7 Mo1'
_cell_volume   210.19056787
_cell_formula_units_Z   1
loop_
 _symmetry_equiv_pos_site_id
 _symmetry_equiv_pos_as_xyz
  1  'x, y, z'
loop_
 _atom_site_type_symbol
 _atom_site_label
 _atom_site_symmetry_multiplicity
 _atom_site_fract_x
 _atom_site_fract_y
 _atom_site_fract_z
 _atom_site_occupancy
  Hf  Hf0  1  0.666667  0.333333  0.936898  1
  Hf  Hf1  1  0.333333  0.666667  0.437936  1
  Sc  Sc2  1  0.333333  0.666667  0.063027  1
  Sc  Sc3  1  0.666667  0.333333  0.562351  1
  Re  Re4  1  0.000000  0.000000  0.499958  1
  Re  Re5  1  0.828390  0.656780  0.250366  1
  Re  Re6  1  0.171455  0.828545  0.749517  1
  Re  Re7  1  0.657091  0.828545  0.749517  1
  Re  Re8  1  0.343220  0.171610  0.250366  1
  Re  Re9  1  0.828390  0.171610  0.250366  1
  Re  Re10  1  0.171455  0.342909  0.749517  1
  Mo  Mo11  1  0.000000  0.000000  0.000177  1
