# generated using pymatgen
data_Yb4Al18ZnIr5
_symmetry_space_group_name_H-M   'P 1'
_cell_length_a   7.57599435
_cell_length_b   7.57599484
_cell_length_c   9.59952496
_cell_angle_alpha   90.09409286
_cell_angle_beta   90.09409210
_cell_angle_gamma   119.45159977
_symmetry_Int_Tables_number   1
_chemical_formula_structural   Yb4Al18ZnIr5
_chemical_formula_sum   'Yb4 Al18 Zn1 Ir5'
_cell_volume   479.76756629
_cell_formula_units_Z   1
loop_
 _symmetry_equiv_pos_site_id
 _symmetry_equiv_pos_as_xyz
  1  'x, y, z'
loop_
 _atom_site_type_symbol
 _atom_site_label
 _atom_site_symmetry_multiplicity
 _atom_site_fract_x
 _atom_site_fract_y
 _atom_site_fract_z
 _atom_site_occupancy
  Yb  Yb0  1  0.996486  0.672818  0.250157  1
  Yb  Yb1  1  0.003514  0.327182  0.749843  1
  Yb  Yb2  1  0.672818  0.996486  0.250157  1
  Yb  Yb3  1  0.327182  0.003514  0.749843  1
  Al  Al4  1  0.135324  0.135324  0.256002  1
  Al  Al5  1  0.864676  0.864676  0.743998  1
  Al  Al6  1  0.002192  0.343030  0.075833  1
  Al  Al7  1  0.997808  0.656970  0.924167  1
  Al  Al8  1  0.000031  0.664710  0.569316  1
  Al  Al9  1  0.335290  0.999969  0.430684  1
  Al  Al10  1  0.999969  0.335290  0.430684  1
  Al  Al11  1  0.664710  0.000031  0.569316  1
  Al  Al12  1  0.656970  0.997808  0.924167  1
  Al  Al13  1  0.343030  0.002192  0.075833  1
  Al  Al14  1  0.333801  0.333801  0.549651  1
  Al  Al15  1  0.666199  0.666199  0.450349  1
  Al  Al16  1  0.658773  0.658773  0.054849  1
  Al  Al17  1  0.341227  0.341227  0.945151  1
  Al  Al18  1  0.337342  0.548084  0.250212  1
  Al  Al19  1  0.662658  0.451916  0.749788  1
  Al  Al20  1  0.548084  0.337342  0.250212  1
  Al  Al21  1  0.451916  0.662658  0.749788  1
  Zn  Zn22  1  0.000000  0.000000  0.000000  1
  Ir  Ir23  1  0.671553  0.328447  0.000000  1
  Ir  Ir24  1  0.328447  0.671553  0.000000  1
  Ir  Ir25  1  0.329241  0.670759  0.500000  1
  Ir  Ir26  1  0.670759  0.329241  0.500000  1
  Ir  Ir27  1  0.000000  0.000000  0.500000  1
