# generated using pymatgen
data_YbYErZn11
_symmetry_space_group_name_H-M   'P 1'
_cell_length_a   8.14682142
_cell_length_b   8.14682260
_cell_length_c   8.14682152
_cell_angle_alpha   148.24565402
_cell_angle_beta   115.75531842
_cell_angle_gamma   73.45064514
_symmetry_Int_Tables_number   1
_chemical_formula_structural   YbYErZn11
_chemical_formula_sum   'Yb1 Y1 Er1 Zn11'
_cell_volume   252.17535757
_cell_formula_units_Z   1
loop_
 _symmetry_equiv_pos_site_id
 _symmetry_equiv_pos_as_xyz
  1  'x, y, z'
loop_
 _atom_site_type_symbol
 _atom_site_label
 _atom_site_symmetry_multiplicity
 _atom_site_fract_x
 _atom_site_fract_y
 _atom_site_fract_z
 _atom_site_occupancy
  Yb  Yb0  1  0.000089  0.000089  0.000000  1
  Y  Y1  1  0.702390  0.702390  0.000000  1
  Er  Er2  1  0.298195  0.298195  0.000000  1
  Zn  Zn3  1  0.499984  0.999984  0.500000  1
  Zn  Zn4  1  0.678475  0.499562  0.178914  1
  Zn  Zn5  1  0.320648  0.499562  0.821086  1
  Zn  Zn6  1  0.695012  0.338839  0.356172  1
  Zn  Zn7  1  0.304365  0.661490  0.642876  1
  Zn  Zn8  1  0.982667  0.338839  0.643828  1
  Zn  Zn9  1  0.018613  0.661490  0.357124  1
  Zn  Zn10  1  0.419551  0.136832  0.282720  1
  Zn  Zn11  1  0.578869  0.862949  0.715921  1
  Zn  Zn12  1  0.854111  0.136832  0.717280  1
  Zn  Zn13  1  0.147029  0.862949  0.284079  1
