# generated using pymatgen
data_Be8V2TcRh
_symmetry_space_group_name_H-M   'P 1'
_cell_length_a   4.33302200
_cell_length_b   4.33302326
_cell_length_c   7.10273800
_cell_angle_alpha   90.00000000
_cell_angle_beta   90.00000000
_cell_angle_gamma   120.00000568
_symmetry_Int_Tables_number   1
_chemical_formula_structural   Be8V2TcRh
_chemical_formula_sum   'Be8 V2 Tc1 Rh1'
_cell_volume   115.48838706
_cell_formula_units_Z   1
loop_
 _symmetry_equiv_pos_site_id
 _symmetry_equiv_pos_as_xyz
  1  'x, y, z'
loop_
 _atom_site_type_symbol
 _atom_site_label
 _atom_site_symmetry_multiplicity
 _atom_site_fract_x
 _atom_site_fract_y
 _atom_site_fract_z
 _atom_site_occupancy
  Be  Be0  1  0.000000  0.000000  0.999682  1
  Be  Be1  1  0.000000  0.000000  0.495560  1
  Be  Be2  1  0.830374  0.660747  0.250073  1
  Be  Be3  1  0.168356  0.831644  0.749766  1
  Be  Be4  1  0.663287  0.831644  0.749766  1
  Be  Be5  1  0.339253  0.169626  0.250073  1
  Be  Be6  1  0.830374  0.169626  0.250073  1
  Be  Be7  1  0.168356  0.336713  0.749766  1
  V  V8  1  0.666667  0.333333  0.935252  1
  V  V9  1  0.333333  0.666667  0.441427  1
  Tc  Tc10  1  0.666667  0.333333  0.563283  1
  Rh  Rh11  1  0.333333  0.666667  0.065279  1
