# generated using pymatgen
data_YMgCdPt3
_symmetry_space_group_name_H-M   'P 1'
_cell_length_a   5.27402204
_cell_length_b   5.27402125
_cell_length_c   5.27402097
_cell_angle_alpha   63.36581094
_cell_angle_beta   63.36581746
_cell_angle_gamma   63.36581555
_symmetry_Int_Tables_number   1
_chemical_formula_structural   YMgCdPt3
_chemical_formula_sum   'Y1 Mg1 Cd1 Pt3'
_cell_volume   111.46042892
_cell_formula_units_Z   1
loop_
 _symmetry_equiv_pos_site_id
 _symmetry_equiv_pos_as_xyz
  1  'x, y, z'
loop_
 _atom_site_type_symbol
 _atom_site_label
 _atom_site_symmetry_multiplicity
 _atom_site_fract_x
 _atom_site_fract_y
 _atom_site_fract_z
 _atom_site_occupancy
  Y  Y0  1  0.243928  0.243928  0.243928  1
  Mg  Mg1  1  0.627509  0.627509  0.627509  1
  Cd  Cd2  1  0.997850  0.997850  0.997850  1
  Pt  Pt3  1  0.627059  0.627059  0.126595  1
  Pt  Pt4  1  0.627059  0.126595  0.627059  1
  Pt  Pt5  1  0.126595  0.627059  0.627059  1
