# generated using pymatgen
data_AcCe(Ho2Ir9)2
_symmetry_space_group_name_H-M   'P 1'
_cell_length_a   5.36853801
_cell_length_b   5.36820205
_cell_length_c   17.41975200
_cell_angle_alpha   90.00000000
_cell_angle_beta   90.00000000
_cell_angle_gamma   119.99630397
_symmetry_Int_Tables_number   1
_chemical_formula_structural   AcCe(Ho2Ir9)2
_chemical_formula_sum   'Ac1 Ce1 Ho4 Ir18'
_cell_volume   434.78410487
_cell_formula_units_Z   1
loop_
 _symmetry_equiv_pos_site_id
 _symmetry_equiv_pos_as_xyz
  1  'x, y, z'
loop_
 _atom_site_type_symbol
 _atom_site_label
 _atom_site_symmetry_multiplicity
 _atom_site_fract_x
 _atom_site_fract_y
 _atom_site_fract_z
 _atom_site_occupancy
  Ac  Ac0  1  0.333351  0.666669  0.750000  1
  Ce  Ce1  1  0.666635  0.333266  0.250000  1
  Ho  Ho2  1  0.333339  0.666673  0.960299  1
  Ho  Ho3  1  0.666667  0.333336  0.040441  1
  Ho  Ho4  1  0.666667  0.333336  0.459559  1
  Ho  Ho5  1  0.333339  0.666673  0.539701  1
  Ir  Ir6  1  0.167471  0.832516  0.374098  1
  Ir  Ir7  1  0.167468  0.334955  0.374097  1
  Ir  Ir8  1  0.665052  0.832530  0.374097  1
  Ir  Ir9  1  0.832365  0.167660  0.624439  1
  Ir  Ir10  1  0.832371  0.664710  0.624424  1
  Ir  Ir11  1  0.335297  0.167646  0.624407  1
  Ir  Ir12  1  0.832365  0.167660  0.875561  1
  Ir  Ir13  1  0.832371  0.664710  0.875576  1
  Ir  Ir14  1  0.335297  0.167646  0.875593  1
  Ir  Ir15  1  0.167471  0.832516  0.125902  1
  Ir  Ir16  1  0.167468  0.334955  0.125903  1
  Ir  Ir17  1  0.665052  0.832530  0.125903  1
  Ir  Ir18  1  0.333377  0.666665  0.250000  1
  Ir  Ir19  1  0.666504  0.333330  0.750000  1
  Ir  Ir20  1  0.999956  0.000003  0.250000  1
  Ir  Ir21  1  0.000162  0.000010  0.750000  1
  Ir  Ir22  1  0.999979  0.000002  0.499336  1
  Ir  Ir23  1  0.999979  0.000002  0.000664  1
