# generated using pymatgen
data_Ho3Er5Lu2(BiAu2)2
_symmetry_space_group_name_H-M   'P 1'
_cell_length_a   8.65014722
_cell_length_b   8.64945390
_cell_length_c   8.65047830
_cell_angle_alpha   124.27501257
_cell_angle_beta   124.27619979
_cell_angle_gamma   82.72503900
_symmetry_Int_Tables_number   1
_chemical_formula_structural   Ho3Er5Lu2(BiAu2)2
_chemical_formula_sum   'Ho3 Er5 Lu2 Bi2 Au4'
_cell_volume   424.39116576
_cell_formula_units_Z   1
loop_
 _symmetry_equiv_pos_site_id
 _symmetry_equiv_pos_as_xyz
  1  'x, y, z'
loop_
 _atom_site_type_symbol
 _atom_site_label
 _atom_site_symmetry_multiplicity
 _atom_site_fract_x
 _atom_site_fract_y
 _atom_site_fract_z
 _atom_site_occupancy
  Ho  Ho0  1  0.514206  0.014178  0.809113  1
  Ho  Ho1  1  0.205115  0.705094  0.190918  1
  Ho  Ho2  1  0.014079  0.205126  0.500001  1
  Er  Er3  1  0.705355  0.514276  0.499985  1
  Er  Er4  1  0.485687  0.985737  0.191253  1
  Er  Er5  1  0.794424  0.294441  0.808710  1
  Er  Er6  1  0.985652  0.794442  0.500019  1
  Er  Er7  1  0.294509  0.485667  0.500001  1
  Lu  Lu8  1  0.500172  0.500154  0.000128  1
  Lu  Lu9  1  0.000045  0.000037  0.999875  1
  Bi  Bi10  1  0.250035  0.250059  0.000112  1
  Bi  Bi11  1  0.749947  0.749924  0.999886  1
  Au  Au12  1  0.139375  0.639518  0.778515  1
  Au  Au13  1  0.860844  0.361004  0.221483  1
  Au  Au14  1  0.639627  0.860764  0.500001  1
  Au  Au15  1  0.360929  0.139578  0.500000  1
