# generated using pymatgen
data_Lu3NiSn3Pt2
_symmetry_space_group_name_H-M   'P 1'
_cell_length_a   7.51522000
_cell_length_b   7.51521999
_cell_length_c   3.75743700
_cell_angle_alpha   90.00000000
_cell_angle_beta   90.00000000
_cell_angle_gamma   119.99999124
_symmetry_Int_Tables_number   1
_chemical_formula_structural   Lu3NiSn3Pt2
_chemical_formula_sum   'Lu3 Ni1 Sn3 Pt2'
_cell_volume   183.78318524
_cell_formula_units_Z   1
loop_
 _symmetry_equiv_pos_site_id
 _symmetry_equiv_pos_as_xyz
  1  'x, y, z'
loop_
 _atom_site_type_symbol
 _atom_site_label
 _atom_site_symmetry_multiplicity
 _atom_site_fract_x
 _atom_site_fract_y
 _atom_site_fract_z
 _atom_site_occupancy
  Lu  Lu0  1  0.402360  0.402360  0.500000  1
  Lu  Lu1  1  0.597640  0.000000  0.500000  1
  Lu  Lu2  1  0.000000  0.597640  0.500000  1
  Ni  Ni3  1  0.000000  0.000000  0.500000  1
  Sn  Sn4  1  0.746181  0.746181  0.000000  1
  Sn  Sn5  1  0.253819  0.000000  0.000000  1
  Sn  Sn6  1  0.000000  0.253819  0.000000  1
  Pt  Pt7  1  0.666667  0.333333  0.000000  1
  Pt  Pt8  1  0.333333  0.666667  0.000000  1
