# generated using pymatgen
data_Ce3ErZn2SiRh10
_symmetry_space_group_name_H-M   'P 1'
_cell_length_a   7.17244158
_cell_length_b   7.21941518
_cell_length_c   7.25866255
_cell_angle_alpha   107.67063015
_cell_angle_beta   110.68587855
_cell_angle_gamma   110.46760569
_symmetry_Int_Tables_number   1
_chemical_formula_structural   Ce3ErZn2SiRh10
_chemical_formula_sum   'Ce3 Er1 Zn2 Si1 Rh10'
_cell_volume   287.67771368
_cell_formula_units_Z   1
loop_
 _symmetry_equiv_pos_site_id
 _symmetry_equiv_pos_as_xyz
  1  'x, y, z'
loop_
 _atom_site_type_symbol
 _atom_site_label
 _atom_site_symmetry_multiplicity
 _atom_site_fract_x
 _atom_site_fract_y
 _atom_site_fract_z
 _atom_site_occupancy
  Ce  Ce0  1  0.023064  0.511532  0.011532  1
  Ce  Ce1  1  0.476826  0.971989  0.968850  1
  Ce  Ce2  1  0.476826  0.504837  0.507976  1
  Er  Er3  1  0.021135  0.010567  0.510567  1
  Zn  Zn4  1  0.750664  0.246953  0.497461  1
  Zn  Zn5  1  0.750664  0.503711  0.253203  1
  Si  Si6  1  0.003512  0.001756  0.001756  1
  Rh  Rh7  1  0.521474  0.260736  0.760736  1
  Rh  Rh8  1  0.236558  0.495431  0.746876  1
  Rh  Rh9  1  0.236558  0.741127  0.489682  1
  Rh  Rh10  1  0.508125  0.754062  0.254062  1
  Rh  Rh11  1  0.735839  0.722496  0.015584  1
  Rh  Rh12  1  0.296250  0.015697  0.285720  1
  Rh  Rh13  1  0.965208  0.257389  0.259873  1
  Rh  Rh14  1  0.296250  0.280553  0.010531  1
  Rh  Rh15  1  0.735839  0.013342  0.720255  1
  Rh  Rh16  1  0.965208  0.707819  0.705336  1
