# generated using pymatgen
data_Ho14Er2MgTl2CdPd4
_symmetry_space_group_name_H-M   'P 1'
_cell_length_a   9.67021977
_cell_length_b   9.67022036
_cell_length_c   9.66909000
_cell_angle_alpha   59.97431465
_cell_angle_beta   59.97431949
_cell_angle_gamma   59.97356654
_symmetry_Int_Tables_number   1
_chemical_formula_structural   Ho14Er2MgTl2CdPd4
_chemical_formula_sum   'Ho14 Er2 Mg1 Tl2 Cd1 Pd4'
_cell_volume   638.98086293
_cell_formula_units_Z   1
loop_
 _symmetry_equiv_pos_site_id
 _symmetry_equiv_pos_as_xyz
  1  'x, y, z'
loop_
 _atom_site_type_symbol
 _atom_site_label
 _atom_site_symmetry_multiplicity
 _atom_site_fract_x
 _atom_site_fract_y
 _atom_site_fract_z
 _atom_site_occupancy
  Ho  Ho0  1  0.353425  0.940191  0.353935  1
  Ho  Ho1  1  0.940250  0.353852  0.353838  1
  Ho  Ho2  1  0.810438  0.190481  0.190429  1
  Ho  Ho3  1  0.188888  0.812339  0.812534  1
  Ho  Ho4  1  0.189728  0.810863  0.190743  1
  Ho  Ho5  1  0.812213  0.189345  0.812388  1
  Ho  Ho6  1  0.189849  0.190881  0.810745  1
  Ho  Ho7  1  0.812398  0.812429  0.189277  1
  Ho  Ho8  1  0.934292  0.566930  0.566918  1
  Ho  Ho9  1  0.564206  0.935915  0.935753  1
  Ho  Ho10  1  0.566744  0.933409  0.566165  1
  Ho  Ho11  1  0.937656  0.563927  0.934194  1
  Ho  Ho12  1  0.566643  0.566082  0.933502  1
  Ho  Ho13  1  0.937553  0.934121  0.563994  1
  Er  Er14  1  0.350734  0.351945  0.351858  1
  Er  Er15  1  0.353274  0.353841  0.940476  1
  Mg  Mg16  1  0.576807  0.577570  0.577924  1
  Tl  Tl17  1  0.582500  0.585299  0.247462  1
  Tl  Tl18  1  0.582405  0.247428  0.585552  1
  Cd  Cd19  1  0.249512  0.583027  0.583393  1
  Pd  Pd20  1  0.145987  0.145249  0.144562  1
  Pd  Pd21  1  0.143523  0.143691  0.567806  1
  Pd  Pd22  1  0.143809  0.567281  0.143333  1
  Pd  Pd23  1  0.567170  0.143906  0.143218  1
