# generated using pymatgen
data_Dy13Y7(Cd3Os)2
_symmetry_space_group_name_H-M   'P 1'
_cell_length_a   9.61515500
_cell_length_b   9.61515432
_cell_length_c   9.88269400
_cell_angle_alpha   90.00000000
_cell_angle_beta   90.00000000
_cell_angle_gamma   119.99999888
_symmetry_Int_Tables_number   1
_chemical_formula_structural   Dy13Y7(Cd3Os)2
_chemical_formula_sum   'Dy13 Y7 Cd6 Os2'
_cell_volume   791.25876479
_cell_formula_units_Z   1
loop_
 _symmetry_equiv_pos_site_id
 _symmetry_equiv_pos_as_xyz
  1  'x, y, z'
loop_
 _atom_site_type_symbol
 _atom_site_label
 _atom_site_symmetry_multiplicity
 _atom_site_fract_x
 _atom_site_fract_y
 _atom_site_fract_z
 _atom_site_occupancy
  Dy  Dy0  1  0.000000  0.000000  0.500000  1
  Dy  Dy1  1  0.209760  0.790240  0.440170  1
  Dy  Dy2  1  0.209760  0.419519  0.440170  1
  Dy  Dy3  1  0.580481  0.790240  0.440170  1
  Dy  Dy4  1  0.790240  0.209760  0.559830  1
  Dy  Dy5  1  0.790240  0.580481  0.559830  1
  Dy  Dy6  1  0.419519  0.209760  0.559830  1
  Dy  Dy7  1  0.790196  0.209804  0.940124  1
  Dy  Dy8  1  0.790196  0.580391  0.940124  1
  Dy  Dy9  1  0.419609  0.209804  0.940124  1
  Dy  Dy10  1  0.209804  0.790196  0.059876  1
  Dy  Dy11  1  0.209804  0.419609  0.059876  1
  Dy  Dy12  1  0.580391  0.790196  0.059876  1
  Y  Y13  1  0.000000  0.000000  0.000000  1
  Y  Y14  1  0.540255  0.459745  0.249992  1
  Y  Y15  1  0.540255  0.080510  0.249992  1
  Y  Y16  1  0.919490  0.459745  0.249992  1
  Y  Y17  1  0.459745  0.540255  0.750008  1
  Y  Y18  1  0.459745  0.919490  0.750008  1
  Y  Y19  1  0.080510  0.540255  0.750008  1
  Cd  Cd20  1  0.885458  0.114542  0.250030  1
  Cd  Cd21  1  0.885458  0.770918  0.250030  1
  Cd  Cd22  1  0.229082  0.114542  0.250030  1
  Cd  Cd23  1  0.114542  0.885458  0.749970  1
  Cd  Cd24  1  0.114542  0.229082  0.749970  1
  Cd  Cd25  1  0.770918  0.885458  0.749970  1
  Os  Os26  1  0.333333  0.666667  0.249998  1
  Os  Os27  1  0.666667  0.333333  0.750002  1
