# generated using pymatgen
data_Be15Nb6(CoCu3)2
_symmetry_space_group_name_H-M   'P 1'
_cell_length_a   7.63786051
_cell_length_b   7.63786109
_cell_length_c   7.63786161
_cell_angle_alpha   59.81696089
_cell_angle_beta   59.81695632
_cell_angle_gamma   59.81696128
_symmetry_Int_Tables_number   1
_chemical_formula_structural   Be15Nb6(CoCu3)2
_chemical_formula_sum   'Be15 Nb6 Co2 Cu6'
_cell_volume   313.75606274
_cell_formula_units_Z   1
loop_
 _symmetry_equiv_pos_site_id
 _symmetry_equiv_pos_as_xyz
  1  'x, y, z'
loop_
 _atom_site_type_symbol
 _atom_site_label
 _atom_site_symmetry_multiplicity
 _atom_site_fract_x
 _atom_site_fract_y
 _atom_site_fract_z
 _atom_site_occupancy
  Be  Be0  1  0.327695  0.327695  0.327695  1
  Be  Be1  1  0.672305  0.672305  0.672305  1
  Be  Be2  1  0.322419  0.322419  0.024110  1
  Be  Be3  1  0.322419  0.024110  0.322419  1
  Be  Be4  1  0.677581  0.677581  0.975890  1
  Be  Be5  1  0.677581  0.975890  0.677581  1
  Be  Be6  1  0.024110  0.322419  0.322419  1
  Be  Be7  1  0.975890  0.677581  0.677581  1
  Be  Be8  1  0.500000  0.000000  0.000000  1
  Be  Be9  1  0.000000  0.500000  0.500000  1
  Be  Be10  1  0.000000  0.500000  0.000000  1
  Be  Be11  1  0.500000  0.000000  0.500000  1
  Be  Be12  1  0.000000  0.000000  0.500000  1
  Be  Be13  1  0.500000  0.500000  0.000000  1
  Be  Be14  1  0.000000  0.000000  0.000000  1
  Nb  Nb15  1  0.706787  0.300951  0.300951  1
  Nb  Nb16  1  0.293213  0.699049  0.699049  1
  Nb  Nb17  1  0.300951  0.706787  0.300951  1
  Nb  Nb18  1  0.699049  0.293213  0.699049  1
  Nb  Nb19  1  0.300951  0.300951  0.706787  1
  Nb  Nb20  1  0.699049  0.699049  0.293213  1
  Co  Co21  1  0.122063  0.122063  0.122063  1
  Co  Co22  1  0.877937  0.877937  0.877937  1
  Cu  Cu23  1  0.123486  0.123486  0.631422  1
  Cu  Cu24  1  0.123486  0.631422  0.123486  1
  Cu  Cu25  1  0.876514  0.876514  0.368578  1
  Cu  Cu26  1  0.876514  0.368578  0.876514  1
  Cu  Cu27  1  0.631422  0.123486  0.123486  1
  Cu  Cu28  1  0.368578  0.876514  0.876514  1
