# generated using pymatgen
data_Sc4Re4B8IrRu5
_symmetry_space_group_name_H-M   'P 1'
_cell_length_a   3.04382300
_cell_length_b   8.55110388
_cell_length_c   10.06058877
_cell_angle_alpha   90.22046636
_cell_angle_beta   90.00000000
_cell_angle_gamma   90.00000000
_symmetry_Int_Tables_number   1
_chemical_formula_structural   Sc4Re4B8IrRu5
_chemical_formula_sum   'Sc4 Re4 B8 Ir1 Ru5'
_cell_volume   261.85553538
_cell_formula_units_Z   1
loop_
 _symmetry_equiv_pos_site_id
 _symmetry_equiv_pos_as_xyz
  1  'x, y, z'
loop_
 _atom_site_type_symbol
 _atom_site_label
 _atom_site_symmetry_multiplicity
 _atom_site_fract_x
 _atom_site_fract_y
 _atom_site_fract_z
 _atom_site_occupancy
  Sc  Sc0  1  0.500000  0.840147  0.186040  1
  Sc  Sc1  1  0.500000  0.159853  0.813960  1
  Sc  Sc2  1  0.500000  0.657479  0.680640  1
  Sc  Sc3  1  0.500000  0.342521  0.319360  1
  Re  Re4  1  0.000000  0.660804  0.954094  1
  Re  Re5  1  0.000000  0.339196  0.045906  1
  Re  Re6  1  0.000000  0.839297  0.453307  1
  Re  Re7  1  0.000000  0.160703  0.546693  1
  B  B8  1  0.500000  0.964903  0.588385  1
  B  B9  1  0.500000  0.035097  0.411615  1
  B  B10  1  0.500000  0.845259  0.897925  1
  B  B11  1  0.500000  0.154741  0.102075  1
  B  B12  1  0.500000  0.651654  0.401955  1
  B  B13  1  0.500000  0.348346  0.598045  1
  B  B14  1  0.500000  0.465132  0.910570  1
  B  B15  1  0.500000  0.534868  0.089430  1
  Ir  Ir16  1  0.000000  0.000000  0.000000  1
  Ru  Ru17  1  0.000000  0.404828  0.760011  1
  Ru  Ru18  1  0.000000  0.595172  0.239989  1
  Ru  Ru19  1  0.000000  0.500000  0.500000  1
  Ru  Ru20  1  0.000000  0.904924  0.740349  1
  Ru  Ru21  1  0.000000  0.095076  0.259651  1
