# generated using pymatgen
data_Nd5Zn7Pt12
_symmetry_space_group_name_H-M   'P 1'
_cell_length_a   5.57253108
_cell_length_b   5.57253260
_cell_length_c   16.94260138
_cell_angle_alpha   80.53452391
_cell_angle_beta   80.53452211
_cell_angle_gamma   60.00001550
_symmetry_Int_Tables_number   1
_chemical_formula_structural   Nd5Zn7Pt12
_chemical_formula_sum   'Nd5 Zn7 Pt12'
_cell_volume   447.34330614
_cell_formula_units_Z   1
loop_
 _symmetry_equiv_pos_site_id
 _symmetry_equiv_pos_as_xyz
  1  'x, y, z'
loop_
 _atom_site_type_symbol
 _atom_site_label
 _atom_site_symmetry_multiplicity
 _atom_site_fract_x
 _atom_site_fract_y
 _atom_site_fract_z
 _atom_site_occupancy
  Nd  Nd0  1  0.000000  0.000000  0.000000  1
  Nd  Nd1  1  0.074535  0.074535  0.776394  1
  Nd  Nd2  1  0.925465  0.925465  0.223606  1
  Nd  Nd3  1  0.150887  0.150887  0.547338  1
  Nd  Nd4  1  0.849113  0.849113  0.452662  1
  Zn  Zn5  1  0.500000  0.500000  0.500000  1
  Zn  Zn6  1  0.249881  0.249881  0.250356  1
  Zn  Zn7  1  0.750119  0.750119  0.749644  1
  Zn  Zn8  1  0.333393  0.333393  0.999818  1
  Zn  Zn9  1  0.666607  0.666607  0.000182  1
  Zn  Zn10  1  0.416608  0.416608  0.750176  1
  Zn  Zn11  1  0.583392  0.583392  0.249824  1
  Pt  Pt12  1  0.122610  0.625921  0.625549  1
  Pt  Pt13  1  0.625921  0.625921  0.625549  1
  Pt  Pt14  1  0.625921  0.122610  0.625549  1
  Pt  Pt15  1  0.877390  0.374079  0.374451  1
  Pt  Pt16  1  0.374079  0.374079  0.374451  1
  Pt  Pt17  1  0.374079  0.877390  0.374451  1
  Pt  Pt18  1  0.041046  0.541609  0.875737  1
  Pt  Pt19  1  0.541609  0.541609  0.875737  1
  Pt  Pt20  1  0.541609  0.041046  0.875737  1
  Pt  Pt21  1  0.958954  0.458391  0.124263  1
  Pt  Pt22  1  0.458391  0.458391  0.124263  1
  Pt  Pt23  1  0.458391  0.958954  0.124263  1
