# generated using pymatgen
data_TbTm6Lu3(In2Pt)4
_symmetry_space_group_name_H-M   'P 1'
_cell_length_a   3.58586900
_cell_length_b   8.08437810
_cell_length_c   18.05656299
_cell_angle_alpha   90.00306855
_cell_angle_beta   90.00000000
_cell_angle_gamma   90.00000000
_symmetry_Int_Tables_number   1
_chemical_formula_structural   TbTm6Lu3(In2Pt)4
_chemical_formula_sum   'Tb1 Tm6 Lu3 In8 Pt4'
_cell_volume   523.45110783
_cell_formula_units_Z   1
loop_
 _symmetry_equiv_pos_site_id
 _symmetry_equiv_pos_as_xyz
  1  'x, y, z'
loop_
 _atom_site_type_symbol
 _atom_site_label
 _atom_site_symmetry_multiplicity
 _atom_site_fract_x
 _atom_site_fract_y
 _atom_site_fract_z
 _atom_site_occupancy
  Tb  Tb0  1  0.000000  0.499777  0.500476  1
  Tm  Tm1  1  0.000000  0.617107  0.085295  1
  Tm  Tm2  1  0.000000  0.242831  0.219876  1
  Tm  Tm3  1  0.000000  0.758647  0.780571  1
  Tm  Tm4  1  0.000000  0.258653  0.718370  1
  Tm  Tm5  1  0.000000  0.741180  0.281561  1
  Tm  Tm6  1  0.000000  0.999396  0.999366  1
  Lu  Lu7  1  0.000000  0.116632  0.414363  1
  Lu  Lu8  1  0.000000  0.882771  0.585871  1
  Lu  Lu9  1  0.000000  0.382965  0.913719  1
  In  In10  1  0.500000  0.419571  0.351071  1
  In  In11  1  0.500000  0.581204  0.649732  1
  In  In12  1  0.500000  0.079850  0.850577  1
  In  In13  1  0.500000  0.922617  0.149350  1
  In  In14  1  0.500000  0.292817  0.064710  1
  In  In15  1  0.500000  0.705697  0.934258  1
  In  In16  1  0.500000  0.202049  0.564627  1
  In  In17  1  0.500000  0.796629  0.435705  1
  Pt  Pt18  1  0.500000  0.025257  0.304599  1
  Pt  Pt19  1  0.500000  0.974752  0.695579  1
  Pt  Pt20  1  0.500000  0.473847  0.803851  1
  Pt  Pt21  1  0.500000  0.525752  0.196472  1
