# generated using pymatgen
data_Cs4TbY11S20
_symmetry_space_group_name_H-M   'P 1'
_cell_length_a   4.01742700
_cell_length_b   12.04557322
_cell_length_c   21.45999317
_cell_angle_alpha   90.05156972
_cell_angle_beta   90.00000000
_cell_angle_gamma   90.00000000
_symmetry_Int_Tables_number   1
_chemical_formula_structural   Cs4TbY11S20
_chemical_formula_sum   'Cs4 Tb1 Y11 S20'
_cell_volume   1038.49609884
_cell_formula_units_Z   1
loop_
 _symmetry_equiv_pos_site_id
 _symmetry_equiv_pos_as_xyz
  1  'x, y, z'
loop_
 _atom_site_type_symbol
 _atom_site_label
 _atom_site_symmetry_multiplicity
 _atom_site_fract_x
 _atom_site_fract_y
 _atom_site_fract_z
 _atom_site_occupancy
  Cs  Cs0  1  0.250000  0.853831  0.093480  1
  Cs  Cs1  1  0.750000  0.146227  0.906529  1
  Cs  Cs2  1  0.750000  0.353861  0.406526  1
  Cs  Cs3  1  0.250000  0.646152  0.593461  1
  Tb  Tb4  1  0.750000  0.797408  0.825505  1
  Y  Y5  1  0.250000  0.202607  0.174563  1
  Y  Y6  1  0.250000  0.297415  0.674573  1
  Y  Y7  1  0.750000  0.702604  0.325435  1
  Y  Y8  1  0.250000  0.958341  0.697308  1
  Y  Y9  1  0.750000  0.041804  0.302490  1
  Y  Y10  1  0.750000  0.458038  0.802491  1
  Y  Y11  1  0.250000  0.541826  0.197505  1
  Y  Y12  1  0.750000  0.390893  0.052872  1
  Y  Y13  1  0.250000  0.608944  0.947277  1
  Y  Y14  1  0.250000  0.890884  0.447128  1
  Y  Y15  1  0.750000  0.109118  0.552866  1
  S  S16  1  0.250000  0.951618  0.568792  1
  S  S17  1  0.750000  0.048403  0.431189  1
  S  S18  1  0.750000  0.451601  0.931198  1
  S  S19  1  0.250000  0.548375  0.068835  1
  S  S20  1  0.750000  0.761672  0.951943  1
  S  S21  1  0.250000  0.238117  0.048510  1
  S  S22  1  0.250000  0.261856  0.548519  1
  S  S23  1  0.750000  0.738142  0.451482  1
  S  S24  1  0.250000  0.947228  0.824214  1
  S  S25  1  0.750000  0.053418  0.175706  1
  S  S26  1  0.750000  0.446581  0.675705  1
  S  S27  1  0.250000  0.553416  0.324287  1
  S  S28  1  0.750000  0.126230  0.682647  1
  S  S29  1  0.250000  0.873779  0.317359  1
  S  S30  1  0.250000  0.625763  0.817349  1
  S  S31  1  0.750000  0.373773  0.182636  1
  S  S32  1  0.750000  0.689419  0.198783  1
  S  S33  1  0.250000  0.310524  0.801218  1
  S  S34  1  0.250000  0.189432  0.301227  1
  S  S35  1  0.750000  0.810700  0.698393  1
