# generated using pymatgen
data_Hf2InGaPd2
_symmetry_space_group_name_H-M   'P 1'
_cell_length_a   7.36308700
_cell_length_b   7.36308641
_cell_length_c   7.03864500
_cell_angle_alpha   90.00000000
_cell_angle_beta   90.00000000
_cell_angle_gamma   119.99999816
_symmetry_Int_Tables_number   1
_chemical_formula_structural   Hf2InGaPd2
_chemical_formula_sum   'Hf6 In3 Ga3 Pd6'
_cell_volume   330.47569967
_cell_formula_units_Z   3
loop_
 _symmetry_equiv_pos_site_id
 _symmetry_equiv_pos_as_xyz
  1  'x, y, z'
loop_
 _atom_site_type_symbol
 _atom_site_label
 _atom_site_symmetry_multiplicity
 _atom_site_fract_x
 _atom_site_fract_y
 _atom_site_fract_z
 _atom_site_occupancy
  Hf  Hf0  1  0.611995  0.590461  0.243801  1
  Hf  Hf1  1  0.021534  0.409539  0.756199  1
  Hf  Hf2  1  0.409539  0.021534  0.243801  1
  Hf  Hf3  1  0.978466  0.388005  0.243801  1
  Hf  Hf4  1  0.388005  0.978466  0.756199  1
  Hf  Hf5  1  0.590461  0.611995  0.756199  1
  In  In6  1  0.255362  0.255362  0.500000  1
  In  In7  1  0.744638  0.000000  0.500000  1
  In  In8  1  0.000000  0.744638  0.500000  1
  Ga  Ga9  1  0.714075  0.000000  0.000000  1
  Ga  Ga10  1  0.285925  0.285925  0.000000  1
  Ga  Ga11  1  0.000000  0.714075  0.000000  1
  Pd  Pd12  1  0.333333  0.666667  0.462980  1
  Pd  Pd13  1  0.000000  0.000000  0.792057  1
  Pd  Pd14  1  0.000000  0.000000  0.207943  1
  Pd  Pd15  1  0.333333  0.666667  0.034870  1
  Pd  Pd16  1  0.666667  0.333333  0.537020  1
  Pd  Pd17  1  0.666667  0.333333  0.965130  1
