# generated using pymatgen
data_Y3Er5Re(B8Os)3
_symmetry_space_group_name_H-M   'P 1'
_cell_length_a   3.64953300
_cell_length_b   9.12726492
_cell_length_c   11.51559100
_cell_angle_alpha   90.08529899
_cell_angle_beta   90.00000000
_cell_angle_gamma   90.00000000
_symmetry_Int_Tables_number   1
_chemical_formula_structural   Y3Er5Re(B8Os)3
_chemical_formula_sum   'Y3 Er5 Re1 B24 Os3'
_cell_volume   383.58684231
_cell_formula_units_Z   1
loop_
 _symmetry_equiv_pos_site_id
 _symmetry_equiv_pos_as_xyz
  1  'x, y, z'
loop_
 _atom_site_type_symbol
 _atom_site_label
 _atom_site_symmetry_multiplicity
 _atom_site_fract_x
 _atom_site_fract_y
 _atom_site_fract_z
 _atom_site_occupancy
  Y  Y0  1  0.000000  0.321932  0.414888  1
  Y  Y1  1  0.000000  0.680409  0.588095  1
  Y  Y2  1  0.000000  0.822272  0.083658  1
  Er  Er3  1  0.000000  0.176630  0.913220  1
  Er  Er4  1  0.000000  0.943444  0.371922  1
  Er  Er5  1  0.000000  0.055827  0.627827  1
  Er  Er6  1  0.000000  0.442963  0.127641  1
  Er  Er7  1  0.000000  0.556279  0.872773  1
  Re  Re8  1  0.000000  0.862686  0.821240  1
  B  B9  1  0.500000  0.554016  0.433073  1
  B  B10  1  0.500000  0.446056  0.567216  1
  B  B11  1  0.500000  0.054054  0.067102  1
  B  B12  1  0.500000  0.947338  0.933068  1
  B  B13  1  0.500000  0.748886  0.419258  1
  B  B14  1  0.500000  0.251190  0.580684  1
  B  B15  1  0.500000  0.248498  0.080445  1
  B  B16  1  0.500000  0.751084  0.919086  1
  B  B17  1  0.500000  0.790702  0.266144  1
  B  B18  1  0.500000  0.208795  0.733494  1
  B  B19  1  0.500000  0.291098  0.233806  1
  B  B20  1  0.500000  0.708292  0.766173  1
  B  B21  1  0.500000  0.630710  0.185360  1
  B  B22  1  0.500000  0.368513  0.814468  1
  B  B23  1  0.500000  0.131307  0.314734  1
  B  B24  1  0.500000  0.869103  0.685622  1
  B  B25  1  0.500000  0.983349  0.212868  1
  B  B26  1  0.500000  0.018168  0.787271  1
  B  B27  1  0.500000  0.483045  0.287477  1
  B  B28  1  0.500000  0.516866  0.712965  1
  B  B29  1  0.500000  0.604705  0.029656  1
  B  B30  1  0.500000  0.393318  0.970804  1
  B  B31  1  0.500000  0.106006  0.470343  1
  B  B32  1  0.500000  0.894506  0.528694  1
  Os  Os33  1  0.000000  0.637633  0.321122  1
  Os  Os34  1  0.000000  0.362189  0.678620  1
  Os  Os35  1  0.000000  0.138126  0.179182  1
