# generated using pymatgen
data_YBiPt2F14
_symmetry_space_group_name_H-M   'P 1'
_cell_length_a   5.58855834
_cell_length_b   9.07019005
_cell_length_c   12.14341578
_cell_angle_alpha   61.91363537
_cell_angle_beta   89.98466820
_cell_angle_gamma   89.82985953
_symmetry_Int_Tables_number   1
_chemical_formula_structural   YBiPt2F14
_chemical_formula_sum   'Y2 Bi2 Pt4 F28'
_cell_volume   543.05146473
_cell_formula_units_Z   2
loop_
 _symmetry_equiv_pos_site_id
 _symmetry_equiv_pos_as_xyz
  1  'x, y, z'
loop_
 _atom_site_type_symbol
 _atom_site_label
 _atom_site_symmetry_multiplicity
 _atom_site_fract_x
 _atom_site_fract_y
 _atom_site_fract_z
 _atom_site_occupancy
  Y  Y0  1  0.760381  0.190366  0.236754  1
  Y  Y1  1  0.239619  0.809634  0.763246  1
  Bi  Bi2  1  0.264329  0.820037  0.262494  1
  Bi  Bi3  1  0.735671  0.179963  0.737506  1
  Pt  Pt4  1  0.758708  0.725352  0.040524  1
  Pt  Pt5  1  0.241292  0.274648  0.959476  1
  Pt  Pt6  1  0.258850  0.270026  0.456947  1
  Pt  Pt7  1  0.741150  0.729974  0.543053  1
  F  F8  1  0.932206  0.708023  0.415880  1
  F  F9  1  0.067794  0.291977  0.584120  1
  F  F10  1  0.436313  0.293173  0.088088  1
  F  F11  1  0.563687  0.706827  0.911912  1
  F  F12  1  0.466845  0.725870  0.130168  1
  F  F13  1  0.533155  0.274130  0.869832  1
  F  F14  1  0.967364  0.270312  0.365197  1
  F  F15  1  0.032636  0.729688  0.634803  1
  F  F16  1  0.944582  0.738518  0.173214  1
  F  F17  1  0.055418  0.261482  0.826786  1
  F  F18  1  0.449419  0.255891  0.324948  1
  F  F19  1  0.550581  0.744109  0.675052  1
  F  F20  1  0.769174  0.479502  0.138574  1
  F  F21  1  0.230826  0.520498  0.861426  1
  F  F22  1  0.267308  0.514482  0.359873  1
  F  F23  1  0.732692  0.485518  0.640127  1
  F  F24  1  0.942267  0.280364  0.045275  1
  F  F25  1  0.057733  0.719636  0.954725  1
  F  F26  1  0.442474  0.719814  0.460438  1
  F  F27  1  0.557526  0.280186  0.539562  1
  F  F28  1  0.739854  0.976952  0.447369  1
  F  F29  1  0.260146  0.023048  0.552631  1
  F  F30  1  0.241146  0.028508  0.049660  1
  F  F31  1  0.758854  0.971492  0.950340  1
  F  F32  1  0.595291  0.973508  0.230155  1
  F  F33  1  0.404709  0.026492  0.769845  1
  F  F34  1  0.092017  0.036393  0.269120  1
  F  F35  1  0.907983  0.963607  0.730880  1
