# generated using pymatgen
data_Ta5(BeB)3
_symmetry_space_group_name_H-M   'P 1'
_cell_length_a   11.80705003
_cell_length_b   11.80705015
_cell_length_c   3.36571900
_cell_angle_alpha   90.00000000
_cell_angle_beta   90.00000000
_cell_angle_gamma   164.21000357
_symmetry_Int_Tables_number   1
_chemical_formula_structural   Ta5(BeB)3
_chemical_formula_sum   'Ta5 Be3 B3'
_cell_volume   127.67584760
_cell_formula_units_Z   1
loop_
 _symmetry_equiv_pos_site_id
 _symmetry_equiv_pos_as_xyz
  1  'x, y, z'
loop_
 _atom_site_type_symbol
 _atom_site_label
 _atom_site_symmetry_multiplicity
 _atom_site_fract_x
 _atom_site_fract_y
 _atom_site_fract_z
 _atom_site_occupancy
  Ta  Ta0  1  0.000331  0.999669  0.000000  1
  Ta  Ta1  1  0.386533  0.613463  0.000000  1
  Ta  Ta2  1  0.614342  0.385654  0.000000  1
  Ta  Ta3  1  0.194576  0.805420  0.500000  1
  Ta  Ta4  1  0.805015  0.194981  0.500000  1
  Be  Be5  1  0.082544  0.917451  0.500000  1
  Be  Be6  1  0.918139  0.081856  0.500000  1
  Be  Be7  1  0.272743  0.727253  0.000000  1
  B  B8  1  0.725120  0.274876  0.000000  1
  B  B9  1  0.462472  0.537524  0.500000  1
  B  B10  1  0.538164  0.461832  0.500000  1
