# generated using pymatgen
data_Tb6Si5Ni4Ge
_symmetry_space_group_name_H-M   'P 1'
_cell_length_a   5.51354906
_cell_length_b   5.51355002
_cell_length_c   13.98410900
_cell_angle_alpha   90.00000000
_cell_angle_beta   90.00000000
_cell_angle_gamma   135.51471820
_symmetry_Int_Tables_number   1
_chemical_formula_structural   Tb6Si5Ni4Ge
_chemical_formula_sum   'Tb6 Si5 Ni4 Ge1'
_cell_volume   297.88292368
_cell_formula_units_Z   1
loop_
 _symmetry_equiv_pos_site_id
 _symmetry_equiv_pos_as_xyz
  1  'x, y, z'
loop_
 _atom_site_type_symbol
 _atom_site_label
 _atom_site_symmetry_multiplicity
 _atom_site_fract_x
 _atom_site_fract_y
 _atom_site_fract_z
 _atom_site_occupancy
  Tb  Tb0  1  0.588586  0.411414  0.610174  1
  Tb  Tb1  1  0.411160  0.588840  0.392764  1
  Tb  Tb2  1  0.411160  0.588840  0.107236  1
  Tb  Tb3  1  0.588586  0.411414  0.889826  1
  Tb  Tb4  1  0.132050  0.867950  0.250000  1
  Tb  Tb5  1  0.869729  0.130271  0.750000  1
  Si  Si6  1  0.879497  0.120503  0.539391  1
  Si  Si7  1  0.118586  0.881414  0.461842  1
  Si  Si8  1  0.171336  0.828664  0.750000  1
  Si  Si9  1  0.879497  0.120503  0.960609  1
  Si  Si10  1  0.118586  0.881414  0.038158  1
  Ni  Ni11  1  0.298266  0.701734  0.596977  1
  Ni  Ni12  1  0.700633  0.299367  0.408975  1
  Ni  Ni13  1  0.700633  0.299367  0.091025  1
  Ni  Ni14  1  0.298266  0.701734  0.903023  1
  Ge  Ge15  1  0.833432  0.166568  0.250000  1
