# generated using pymatgen
data_CeYCu3Au
_symmetry_space_group_name_H-M   'P 1'
_cell_length_a   5.58707109
_cell_length_b   5.61405086
_cell_length_c   5.61405043
_cell_angle_alpha   134.19201555
_cell_angle_beta   103.38412793
_cell_angle_gamma   94.18168042
_symmetry_Int_Tables_number   1
_chemical_formula_structural   CeYCu3Au
_chemical_formula_sum   'Ce1 Y1 Cu3 Au1'
_cell_volume   115.69435272
_cell_formula_units_Z   1
loop_
 _symmetry_equiv_pos_site_id
 _symmetry_equiv_pos_as_xyz
  1  'x, y, z'
loop_
 _atom_site_type_symbol
 _atom_site_label
 _atom_site_symmetry_multiplicity
 _atom_site_fract_x
 _atom_site_fract_y
 _atom_site_fract_z
 _atom_site_occupancy
  Ce  Ce0  1  0.039772  0.539032  0.500740  1
  Y  Y1  1  0.464984  0.463144  0.001840  1
  Cu  Cu2  1  0.021134  0.821877  0.199257  1
  Cu  Cu3  1  0.648229  0.849374  0.798855  1
  Cu  Cu4  1  0.873184  0.165881  0.707303  1
  Au  Au5  1  0.452697  0.160692  0.292005  1
