# generated using pymatgen
data_NdHoNpO6
_symmetry_space_group_name_H-M   'P 1'
_cell_length_a   5.64801000
_cell_length_b   7.93663198
_cell_length_c   11.84411700
_cell_angle_alpha   74.70642368
_cell_angle_beta   90.00000000
_cell_angle_gamma   90.00000000
_symmetry_Int_Tables_number   1
_chemical_formula_structural   NdHoNpO6
_chemical_formula_sum   'Nd4 Ho4 Np4 O24'
_cell_volume   512.12478091
_cell_formula_units_Z   4
loop_
 _symmetry_equiv_pos_site_id
 _symmetry_equiv_pos_as_xyz
  1  'x, y, z'
loop_
 _atom_site_type_symbol
 _atom_site_label
 _atom_site_symmetry_multiplicity
 _atom_site_fract_x
 _atom_site_fract_y
 _atom_site_fract_z
 _atom_site_occupancy
  Nd  Nd0  1  0.694793  0.500000  0.250000  1
  Nd  Nd1  1  0.305207  0.500000  0.750000  1
  Nd  Nd2  1  0.748365  0.000000  0.250000  1
  Nd  Nd3  1  0.251635  0.000000  0.750000  1
  Ho  Ho4  1  0.185025  0.208334  0.419295  1
  Ho  Ho5  1  0.185025  0.791666  0.080705  1
  Ho  Ho6  1  0.814975  0.791666  0.580705  1
  Ho  Ho7  1  0.814975  0.208334  0.919295  1
  Np  Np8  1  0.256095  0.277136  0.112236  1
  Np  Np9  1  0.256095  0.722864  0.387764  1
  Np  Np10  1  0.743905  0.722864  0.887764  1
  Np  Np11  1  0.743905  0.277136  0.612236  1
  O  O12  1  0.443270  0.202688  0.273018  1
  O  O13  1  0.443270  0.797312  0.226982  1
  O  O14  1  0.556730  0.797312  0.726982  1
  O  O15  1  0.556730  0.202688  0.773018  1
  O  O16  1  0.057019  0.055689  0.100007  1
  O  O17  1  0.057019  0.944311  0.399993  1
  O  O18  1  0.942981  0.944311  0.899993  1
  O  O19  1  0.942981  0.055689  0.600007  1
  O  O20  1  0.972208  0.283161  0.233061  1
  O  O21  1  0.972208  0.716839  0.266939  1
  O  O22  1  0.027792  0.716839  0.766939  1
  O  O23  1  0.027792  0.283161  0.733061  1
  O  O24  1  0.877612  0.368856  0.446999  1
  O  O25  1  0.877612  0.631144  0.053001  1
  O  O26  1  0.122388  0.631144  0.553001  1
  O  O27  1  0.122388  0.368856  0.946999  1
  O  O28  1  0.624421  0.516421  0.614025  1
  O  O29  1  0.624421  0.483579  0.885975  1
  O  O30  1  0.375579  0.483579  0.385975  1
  O  O31  1  0.375579  0.516421  0.114025  1
  O  O32  1  0.443878  0.159643  0.563928  1
  O  O33  1  0.443878  0.840357  0.936072  1
  O  O34  1  0.556122  0.840357  0.436072  1
  O  O35  1  0.556122  0.159643  0.063928  1
