# generated using pymatgen
data_Tb5Dy15(Bi2Te)4
_symmetry_space_group_name_H-M   'P 1'
_cell_length_a   8.18079101
_cell_length_b   9.47739700
_cell_length_c   11.92647201
_cell_angle_alpha   89.99956143
_cell_angle_beta   90.00518076
_cell_angle_gamma   89.99743668
_symmetry_Int_Tables_number   1
_chemical_formula_structural   Tb5Dy15(Bi2Te)4
_chemical_formula_sum   'Tb5 Dy15 Bi8 Te4'
_cell_volume   924.69042929
_cell_formula_units_Z   1
loop_
 _symmetry_equiv_pos_site_id
 _symmetry_equiv_pos_as_xyz
  1  'x, y, z'
loop_
 _atom_site_type_symbol
 _atom_site_label
 _atom_site_symmetry_multiplicity
 _atom_site_fract_x
 _atom_site_fract_y
 _atom_site_fract_z
 _atom_site_occupancy
  Tb  Tb0  1  0.190181  0.561561  0.442663  1
  Tb  Tb1  1  0.318187  0.249970  0.218492  1
  Tb  Tb2  1  0.818193  0.250008  0.281482  1
  Tb  Tb3  1  0.681834  0.750008  0.781509  1
  Tb  Tb4  1  0.181855  0.750081  0.718620  1
  Dy  Dy5  1  0.353278  0.750115  0.213160  1
  Dy  Dy6  1  0.853044  0.750047  0.286644  1
  Dy  Dy7  1  0.646850  0.250042  0.786758  1
  Dy  Dy8  1  0.146883  0.250010  0.713304  1
  Dy  Dy9  1  0.690172  0.561771  0.057278  1
  Dy  Dy10  1  0.190146  0.938436  0.442660  1
  Dy  Dy11  1  0.309841  0.061775  0.942720  1
  Dy  Dy12  1  0.809812  0.438249  0.557335  1
  Dy  Dy13  1  0.309863  0.438232  0.942687  1
  Dy  Dy14  1  0.809785  0.061714  0.557316  1
  Dy  Dy15  1  0.690166  0.938242  0.057300  1
  Dy  Dy16  1  0.476223  0.249947  0.488211  1
  Dy  Dy17  1  0.976209  0.249989  0.011785  1
  Dy  Dy18  1  0.523952  0.750103  0.511828  1
  Dy  Dy19  1  0.023773  0.750012  0.988205  1
  Bi  Bi20  1  0.568102  0.994965  0.325317  1
  Bi  Bi21  1  0.068010  0.505098  0.174543  1
  Bi  Bi22  1  0.431974  0.494945  0.674768  1
  Bi  Bi23  1  0.931900  0.005089  0.825344  1
  Bi  Bi24  1  0.431953  0.005092  0.674670  1
  Bi  Bi25  1  0.931875  0.494933  0.825359  1
  Bi  Bi26  1  0.568231  0.505084  0.325268  1
  Bi  Bi27  1  0.068086  0.994950  0.174628  1
  Te  Te28  1  0.407825  0.749987  0.957955  1
  Te  Te29  1  0.907684  0.750168  0.542132  1
  Te  Te30  1  0.592168  0.250000  0.042035  1
  Te  Te31  1  0.091948  0.249377  0.458025  1
