# generated using pymatgen
data_Er2Mn4SiGeC2
_symmetry_space_group_name_H-M   'P 1'
_cell_length_a   5.63391505
_cell_length_b   5.63391603
_cell_length_c   7.06370100
_cell_angle_alpha   90.00000000
_cell_angle_beta   90.00000000
_cell_angle_gamma   141.81359265
_symmetry_Int_Tables_number   1
_chemical_formula_structural   Er2Mn4SiGeC2
_chemical_formula_sum   'Er2 Mn4 Si1 Ge1 C2'
_cell_volume   138.61090144
_cell_formula_units_Z   1
loop_
 _symmetry_equiv_pos_site_id
 _symmetry_equiv_pos_as_xyz
  1  'x, y, z'
loop_
 _atom_site_type_symbol
 _atom_site_label
 _atom_site_symmetry_multiplicity
 _atom_site_fract_x
 _atom_site_fract_y
 _atom_site_fract_z
 _atom_site_occupancy
  Er  Er0  1  0.541392  0.458608  0.250000  1
  Er  Er1  1  0.457957  0.542043  0.750000  1
  Mn  Mn2  1  0.833635  0.166365  0.054870  1
  Mn  Mn3  1  0.166431  0.833569  0.933724  1
  Mn  Mn4  1  0.166431  0.833569  0.566276  1
  Mn  Mn5  1  0.833635  0.166365  0.445130  1
  Si  Si6  1  0.736662  0.263338  0.750000  1
  Ge  Ge7  1  0.262645  0.737355  0.250000  1
  C  C8  1  0.000606  0.999394  0.998519  1
  C  C9  1  0.000606  0.999394  0.501481  1
