# generated using pymatgen
data_Er6Zn17Rh6Se
_symmetry_space_group_name_H-M   'P 1'
_cell_length_a   9.04587924
_cell_length_b   9.04587893
_cell_length_c   9.04587900
_cell_angle_alpha   59.99999608
_cell_angle_beta   59.99999721
_cell_angle_gamma   59.99999912
_symmetry_Int_Tables_number   1
_chemical_formula_structural   Er6Zn17Rh6Se
_chemical_formula_sum   'Er6 Zn17 Rh6 Se1'
_cell_volume   523.40432609
_cell_formula_units_Z   1
loop_
 _symmetry_equiv_pos_site_id
 _symmetry_equiv_pos_as_xyz
  1  'x, y, z'
loop_
 _atom_site_type_symbol
 _atom_site_label
 _atom_site_symmetry_multiplicity
 _atom_site_fract_x
 _atom_site_fract_y
 _atom_site_fract_z
 _atom_site_occupancy
  Er  Er0  1  0.722922  0.277078  0.277078  1
  Er  Er1  1  0.722922  0.277078  0.722922  1
  Er  Er2  1  0.722922  0.722922  0.277078  1
  Er  Er3  1  0.277078  0.722922  0.722922  1
  Er  Er4  1  0.277078  0.722922  0.277078  1
  Er  Er5  1  0.277078  0.277078  0.722922  1
  Zn  Zn6  1  0.625491  0.124837  0.124837  1
  Zn  Zn7  1  0.124837  0.625491  0.124837  1
  Zn  Zn8  1  0.124837  0.124837  0.625491  1
  Zn  Zn9  1  0.124837  0.124837  0.124837  1
  Zn  Zn10  1  0.374509  0.875163  0.875163  1
  Zn  Zn11  1  0.875163  0.374509  0.875163  1
  Zn  Zn12  1  0.875163  0.875163  0.374509  1
  Zn  Zn13  1  0.875163  0.875163  0.875163  1
  Zn  Zn14  1  0.000000  0.000000  0.000000  1
  Zn  Zn15  1  0.004753  0.331748  0.331748  1
  Zn  Zn16  1  0.331748  0.004753  0.331748  1
  Zn  Zn17  1  0.331748  0.331748  0.004753  1
  Zn  Zn18  1  0.331748  0.331748  0.331748  1
  Zn  Zn19  1  0.995247  0.668252  0.668252  1
  Zn  Zn20  1  0.668252  0.995247  0.668252  1
  Zn  Zn21  1  0.668252  0.668252  0.995247  1
  Zn  Zn22  1  0.668252  0.668252  0.668252  1
  Rh  Rh23  1  0.500000  0.000000  0.000000  1
  Rh  Rh24  1  0.500000  0.000000  0.500000  1
  Rh  Rh25  1  0.500000  0.500000  0.000000  1
  Rh  Rh26  1  0.000000  0.500000  0.500000  1
  Rh  Rh27  1  0.000000  0.500000  0.000000  1
  Rh  Rh28  1  0.000000  0.000000  0.500000  1
  Se  Se29  1  0.500000  0.500000  0.500000  1
