# generated using pymatgen
data_Er3TmGa4(CuRu)2
_symmetry_space_group_name_H-M   'P 1'
_cell_length_a   4.46025100
_cell_length_b   7.04898852
_cell_length_c   7.17973416
_cell_angle_alpha   89.09859357
_cell_angle_beta   90.00000000
_cell_angle_gamma   90.00000000
_symmetry_Int_Tables_number   1
_chemical_formula_structural   Er3TmGa4(CuRu)2
_chemical_formula_sum   'Er3 Tm1 Ga4 Cu2 Ru2'
_cell_volume   225.70475989
_cell_formula_units_Z   1
loop_
 _symmetry_equiv_pos_site_id
 _symmetry_equiv_pos_as_xyz
  1  'x, y, z'
loop_
 _atom_site_type_symbol
 _atom_site_label
 _atom_site_symmetry_multiplicity
 _atom_site_fract_x
 _atom_site_fract_y
 _atom_site_fract_z
 _atom_site_occupancy
  Er  Er0  1  0.250000  0.981118  0.803190  1
  Er  Er1  1  0.750000  0.018884  0.196986  1
  Er  Er2  1  0.250000  0.486098  0.701609  1
  Tm  Tm3  1  0.750000  0.514437  0.296455  1
  Ga  Ga4  1  0.250000  0.292658  0.095601  1
  Ga  Ga5  1  0.750000  0.707243  0.905170  1
  Ga  Ga6  1  0.250000  0.800821  0.393747  1
  Ga  Ga7  1  0.750000  0.199757  0.606250  1
  Cu  Cu8  1  0.750000  0.826349  0.571049  1
  Cu  Cu9  1  0.250000  0.172968  0.428603  1
  Ru  Ru10  1  0.750000  0.341830  0.932136  1
  Ru  Ru11  1  0.250000  0.657840  0.069203  1
