# generated using pymatgen
data_TaNbSiPRh2
_symmetry_space_group_name_H-M   'P 1'
_cell_length_a   3.76513600
_cell_length_b   6.40560400
_cell_length_c   7.30834800
_cell_angle_alpha   90.00000000
_cell_angle_beta   90.00000000
_cell_angle_gamma   90.00000000
_symmetry_Int_Tables_number   1
_chemical_formula_structural   TaNbSiPRh2
_chemical_formula_sum   'Ta2 Nb2 Si2 P2 Rh4'
_cell_volume   176.26251944
_cell_formula_units_Z   2
loop_
 _symmetry_equiv_pos_site_id
 _symmetry_equiv_pos_as_xyz
  1  'x, y, z'
loop_
 _atom_site_type_symbol
 _atom_site_label
 _atom_site_symmetry_multiplicity
 _atom_site_fract_x
 _atom_site_fract_y
 _atom_site_fract_z
 _atom_site_occupancy
  Ta  Ta0  1  0.750000  0.970823  0.167927  1
  Ta  Ta1  1  0.750000  0.470823  0.332073  1
  Nb  Nb2  1  0.250000  0.025740  0.828266  1
  Nb  Nb3  1  0.250000  0.525740  0.671734  1
  Si  Si4  1  0.250000  0.765696  0.374571  1
  Si  Si5  1  0.250000  0.265696  0.125429  1
  P  P6  1  0.750000  0.236749  0.626473  1
  P  P7  1  0.750000  0.736749  0.873527  1
  Rh  Rh8  1  0.250000  0.146119  0.437903  1
  Rh  Rh9  1  0.250000  0.646119  0.062097  1
  Rh  Rh10  1  0.750000  0.854873  0.562456  1
  Rh  Rh11  1  0.750000  0.354873  0.937544  1
