# generated using pymatgen
data_YLu5(AuO7)2
_symmetry_space_group_name_H-M   'P 1'
_cell_length_a   6.38457664
_cell_length_b   6.38457714
_cell_length_c   7.32178332
_cell_angle_alpha   90.02777839
_cell_angle_beta   89.97222514
_cell_angle_gamma   108.66231014
_symmetry_Int_Tables_number   1
_chemical_formula_structural   YLu5(AuO7)2
_chemical_formula_sum   'Y1 Lu5 Au2 O14'
_cell_volume   282.76394639
_cell_formula_units_Z   1
loop_
 _symmetry_equiv_pos_site_id
 _symmetry_equiv_pos_as_xyz
  1  'x, y, z'
loop_
 _atom_site_type_symbol
 _atom_site_label
 _atom_site_symmetry_multiplicity
 _atom_site_fract_x
 _atom_site_fract_y
 _atom_site_fract_z
 _atom_site_occupancy
  Y  Y0  1  0.500000  0.500000  0.000000  1
  Lu  Lu1  1  0.500000  0.500000  0.500000  1
  Lu  Lu2  1  0.528770  0.998322  0.748724  1
  Lu  Lu3  1  0.998322  0.528770  0.251276  1
  Lu  Lu4  1  0.471230  0.001678  0.251276  1
  Lu  Lu5  1  0.001678  0.471230  0.748724  1
  Au  Au6  1  0.000000  0.000000  0.500000  1
  Au  Au7  1  0.000000  0.000000  0.000000  1
  O  O8  1  0.665260  0.916371  0.475241  1
  O  O9  1  0.916371  0.665260  0.524759  1
  O  O10  1  0.665491  0.919776  0.024763  1
  O  O11  1  0.919776  0.665491  0.975237  1
  O  O12  1  0.334740  0.083629  0.524759  1
  O  O13  1  0.083629  0.334740  0.475241  1
  O  O14  1  0.334509  0.080224  0.975237  1
  O  O15  1  0.080224  0.334509  0.024763  1
  O  O16  1  0.916652  0.083348  0.749949  1
  O  O17  1  0.083348  0.916652  0.250051  1
  O  O18  1  0.365482  0.634518  0.745126  1
  O  O19  1  0.634518  0.365482  0.254874  1
  O  O20  1  0.641260  0.358740  0.745563  1
  O  O21  1  0.358740  0.641260  0.254437  1
