# generated using pymatgen
data_Cs2SiHgSe4
_symmetry_space_group_name_H-M   'P 1'
_cell_length_a   14.59126012
_cell_length_b   13.11609415
_cell_length_c   7.96322454
_cell_angle_alpha   83.80559879
_cell_angle_beta   63.33587761
_cell_angle_gamma   32.85852818
_symmetry_Int_Tables_number   1
_chemical_formula_structural   Cs2SiHgSe4
_chemical_formula_sum   'Cs4 Si2 Hg2 Se8'
_cell_volume   614.72564796
_cell_formula_units_Z   2
loop_
 _symmetry_equiv_pos_site_id
 _symmetry_equiv_pos_as_xyz
  1  'x, y, z'
loop_
 _atom_site_type_symbol
 _atom_site_label
 _atom_site_symmetry_multiplicity
 _atom_site_fract_x
 _atom_site_fract_y
 _atom_site_fract_z
 _atom_site_occupancy
  Cs  Cs0  1  0.680775  0.680775  0.319225  1
  Cs  Cs1  1  0.319225  0.319225  0.680775  1
  Cs  Cs2  1  0.930775  0.930775  0.569225  1
  Cs  Cs3  1  0.569225  0.569225  0.930775  1
  Si  Si4  1  0.750000  0.750000  0.750000  1
  Si  Si5  1  0.500000  0.500000  0.500000  1
  Hg  Hg6  1  0.000000  0.000000  0.000000  1
  Hg  Hg7  1  0.250000  0.250000  0.250000  1
  Se  Se8  1  0.402287  0.993629  0.915063  1
  Se  Se9  1  0.689021  0.915063  0.993629  1
  Se  Se10  1  0.915063  0.689021  0.402287  1
  Se  Se11  1  0.993629  0.402287  0.689021  1
  Se  Se12  1  0.256371  0.847713  0.560979  1
  Se  Se13  1  0.560979  0.334937  0.256371  1
  Se  Se14  1  0.334937  0.560979  0.847713  1
  Se  Se15  1  0.847713  0.256371  0.334937  1
