# generated using pymatgen
data_Tb2Dy4TcBi2
_symmetry_space_group_name_H-M   'P 1'
_cell_length_a   8.33937002
_cell_length_b   8.33936954
_cell_length_c   4.29439100
_cell_angle_alpha   90.00000000
_cell_angle_beta   90.00000000
_cell_angle_gamma   120.00691671
_symmetry_Int_Tables_number   1
_chemical_formula_structural   Tb2Dy4TcBi2
_chemical_formula_sum   'Tb2 Dy4 Tc1 Bi2'
_cell_volume   258.62375033
_cell_formula_units_Z   1
loop_
 _symmetry_equiv_pos_site_id
 _symmetry_equiv_pos_as_xyz
  1  'x, y, z'
loop_
 _atom_site_type_symbol
 _atom_site_label
 _atom_site_symmetry_multiplicity
 _atom_site_fract_x
 _atom_site_fract_y
 _atom_site_fract_z
 _atom_site_occupancy
  Tb  Tb0  1  0.607354  0.999959  0.000000  1
  Tb  Tb1  1  0.999959  0.607354  0.000000  1
  Dy  Dy2  1  0.232529  0.000183  0.500000  1
  Dy  Dy3  1  0.000183  0.232529  0.500000  1
  Dy  Dy4  1  0.767505  0.767505  0.500000  1
  Dy  Dy5  1  0.392460  0.392460  0.000000  1
  Tc  Tc6  1  0.000236  0.000236  0.000000  1
  Bi  Bi7  1  0.333320  0.666453  0.500000  1
  Bi  Bi8  1  0.666453  0.333320  0.500000  1
