# generated using pymatgen
data_Ba10NbReN10
_symmetry_space_group_name_H-M   'P 1'
_cell_length_a   8.21278023
_cell_length_b   8.21277956
_cell_length_c   9.61849287
_cell_angle_alpha   76.21088736
_cell_angle_beta   76.21089209
_cell_angle_gamma   97.05284320
_symmetry_Int_Tables_number   1
_chemical_formula_structural   Ba10NbReN10
_chemical_formula_sum   'Ba10 Nb1 Re1 N10'
_cell_volume   600.71317083
_cell_formula_units_Z   1
loop_
 _symmetry_equiv_pos_site_id
 _symmetry_equiv_pos_as_xyz
  1  'x, y, z'
loop_
 _atom_site_type_symbol
 _atom_site_label
 _atom_site_symmetry_multiplicity
 _atom_site_fract_x
 _atom_site_fract_y
 _atom_site_fract_z
 _atom_site_occupancy
  Ba  Ba0  1  0.391369  0.390398  0.383490  1
  Ba  Ba1  1  0.609602  0.608631  0.616510  1
  Ba  Ba2  1  0.667615  0.666667  0.009573  1
  Ba  Ba3  1  0.333333  0.332385  0.990427  1
  Ba  Ba4  1  0.915939  0.922487  0.204581  1
  Ba  Ba5  1  0.077513  0.084061  0.795419  1
  Ba  Ba6  1  0.568399  0.101445  0.751063  1
  Ba  Ba7  1  0.898555  0.431601  0.248937  1
  Ba  Ba8  1  0.440956  0.905655  0.247588  1
  Ba  Ba9  1  0.094345  0.559044  0.752412  1
  Nb  Nb10  1  0.756202  0.243798  0.000000  1
  Re  Re11  1  0.242752  0.757248  0.000000  1
  N  N12  1  0.654773  0.654138  0.309427  1
  N  N13  1  0.345862  0.345227  0.690573  1
  N  N14  1  0.712816  0.005849  0.990540  1
  N  N15  1  0.994151  0.287184  0.009460  1
  N  N16  1  0.286596  0.980026  0.008448  1
  N  N17  1  0.019974  0.713404  0.991552  1
  N  N18  1  0.389699  0.730919  0.832789  1
  N  N19  1  0.269081  0.610301  0.167210  1
  N  N20  1  0.598509  0.268041  0.180853  1
  N  N21  1  0.731959  0.401491  0.819146  1
