# generated using pymatgen
data_CaNpF7
_symmetry_space_group_name_H-M   'P 1'
_cell_length_a   5.93176100
_cell_length_b   6.32162917
_cell_length_c   8.76887418
_cell_angle_alpha   76.00774273
_cell_angle_beta   90.00000000
_cell_angle_gamma   90.00000000
_symmetry_Int_Tables_number   1
_chemical_formula_structural   CaNpF7
_chemical_formula_sum   'Ca2 Np2 F14'
_cell_volume   319.06211957
_cell_formula_units_Z   2
loop_
 _symmetry_equiv_pos_site_id
 _symmetry_equiv_pos_as_xyz
  1  'x, y, z'
loop_
 _atom_site_type_symbol
 _atom_site_label
 _atom_site_symmetry_multiplicity
 _atom_site_fract_x
 _atom_site_fract_y
 _atom_site_fract_z
 _atom_site_occupancy
  Ca  Ca0  1  0.195934  0.635582  0.329702  1
  Ca  Ca1  1  0.695934  0.364418  0.670298  1
  Np  Np2  1  0.208749  0.817674  0.776541  1
  Np  Np3  1  0.708749  0.182326  0.223459  1
  F  F4  1  0.399836  0.465275  0.524655  1
  F  F5  1  0.899836  0.534725  0.475345  1
  F  F6  1  0.935133  0.928081  0.227228  1
  F  F7  1  0.435133  0.071919  0.772772  1
  F  F8  1  0.441915  0.958995  0.238829  1
  F  F9  1  0.941915  0.041005  0.761171  1
  F  F10  1  0.488720  0.445218  0.207815  1
  F  F11  1  0.988720  0.554782  0.792185  1
  F  F12  1  0.202302  0.762586  0.016331  1
  F  F13  1  0.702302  0.237414  0.983669  1
  F  F14  1  0.211001  0.885236  0.535907  1
  F  F15  1  0.711001  0.114764  0.464093  1
  F  F16  1  0.992773  0.385077  0.205146  1
  F  F17  1  0.492773  0.614923  0.794854  1
