# generated using pymatgen
data_KBiSbPt2
_symmetry_space_group_name_H-M   'P 1'
_cell_length_a   4.81482410
_cell_length_b   4.81482508
_cell_length_c   6.47762610
_cell_angle_alpha   105.74822856
_cell_angle_beta   105.74822691
_cell_angle_gamma   97.38236589
_symmetry_Int_Tables_number   1
_chemical_formula_structural   KBiSbPt2
_chemical_formula_sum   'K1 Bi1 Sb1 Pt2'
_cell_volume   135.75306404
_cell_formula_units_Z   1
loop_
 _symmetry_equiv_pos_site_id
 _symmetry_equiv_pos_as_xyz
  1  'x, y, z'
loop_
 _atom_site_type_symbol
 _atom_site_label
 _atom_site_symmetry_multiplicity
 _atom_site_fract_x
 _atom_site_fract_y
 _atom_site_fract_z
 _atom_site_occupancy
  K  K0  1  0.002929  0.002929  0.002051  1
  Bi  Bi1  1  0.396762  0.396762  0.710066  1
  Sb  Sb2  1  0.610339  0.610339  0.312090  1
  Pt  Pt3  1  0.795194  0.194775  0.487896  1
  Pt  Pt4  1  0.194775  0.795194  0.487896  1
