# generated using pymatgen
data_Pr8Cd5InAu20
_symmetry_space_group_name_H-M   'P 1'
_cell_length_a   8.81747379
_cell_length_b   8.81747413
_cell_length_c   10.44293900
_cell_angle_alpha   90.10494245
_cell_angle_beta   89.89505105
_cell_angle_gamma   108.36528854
_symmetry_Int_Tables_number   1
_chemical_formula_structural   Pr8Cd5InAu20
_chemical_formula_sum   'Pr8 Cd5 In1 Au20'
_cell_volume   770.56079383
_cell_formula_units_Z   1
loop_
 _symmetry_equiv_pos_site_id
 _symmetry_equiv_pos_as_xyz
  1  'x, y, z'
loop_
 _atom_site_type_symbol
 _atom_site_label
 _atom_site_symmetry_multiplicity
 _atom_site_fract_x
 _atom_site_fract_y
 _atom_site_fract_z
 _atom_site_occupancy
  Pr  Pr0  1  0.702373  0.298510  0.999468  1
  Pr  Pr1  1  0.297310  0.700716  0.000162  1
  Pr  Pr2  1  0.798510  0.202373  0.500532  1
  Pr  Pr3  1  0.200716  0.797310  0.499838  1
  Pr  Pr4  1  0.300118  0.301573  0.204607  1
  Pr  Pr5  1  0.699973  0.697933  0.794592  1
  Pr  Pr6  1  0.197933  0.199973  0.705408  1
  Pr  Pr7  1  0.801573  0.800118  0.295393  1
  Cd  Cd8  1  0.983724  0.483724  0.750000  1
  Cd  Cd9  1  0.482003  0.982003  0.750000  1
  Cd  Cd10  1  0.517573  0.017573  0.250000  1
  Cd  Cd11  1  0.998500  0.998700  0.998811  1
  Cd  Cd12  1  0.498700  0.498500  0.501189  1
  In  In13  1  0.014420  0.514420  0.250000  1
  Au  Au14  1  0.097341  0.096908  0.406498  1
  Au  Au15  1  0.903832  0.904286  0.594404  1
  Au  Au16  1  0.404286  0.403832  0.905596  1
  Au  Au17  1  0.596908  0.597341  0.093502  1
  Au  Au18  1  0.886412  0.164193  0.208824  1
  Au  Au19  1  0.114431  0.834919  0.790602  1
  Au  Au20  1  0.614308  0.334103  0.709616  1
  Au  Au21  1  0.664193  0.386412  0.291176  1
  Au  Au22  1  0.390603  0.666081  0.290798  1
  Au  Au23  1  0.334919  0.614431  0.709398  1
  Au  Au24  1  0.834103  0.114308  0.790384  1
  Au  Au25  1  0.166081  0.890603  0.209202  1
  Au  Au26  1  0.930022  0.655768  0.020589  1
  Au  Au27  1  0.070517  0.342873  0.976271  1
  Au  Au28  1  0.569238  0.843801  0.519461  1
  Au  Au29  1  0.155768  0.430022  0.479411  1
  Au  Au30  1  0.431248  0.155691  0.480219  1
  Au  Au31  1  0.842873  0.570517  0.523729  1
  Au  Au32  1  0.343801  0.069238  0.980539  1
  Au  Au33  1  0.655691  0.931248  0.019781  1
