# generated using pymatgen
data_Lu3Pa5(Pd2Pb)4
_symmetry_space_group_name_H-M   'P 1'
_cell_length_a   7.66287200
_cell_length_b   7.66287193
_cell_length_c   7.33905500
_cell_angle_alpha   90.00000000
_cell_angle_beta   90.00000000
_cell_angle_gamma   89.92869870
_symmetry_Int_Tables_number   1
_chemical_formula_structural   Lu3Pa5(Pd2Pb)4
_chemical_formula_sum   'Lu3 Pa5 Pd8 Pb4'
_cell_volume   430.94609004
_cell_formula_units_Z   1
loop_
 _symmetry_equiv_pos_site_id
 _symmetry_equiv_pos_as_xyz
  1  'x, y, z'
loop_
 _atom_site_type_symbol
 _atom_site_label
 _atom_site_symmetry_multiplicity
 _atom_site_fract_x
 _atom_site_fract_y
 _atom_site_fract_z
 _atom_site_occupancy
  Lu  Lu0  1  0.687462  0.683938  0.000000  1
  Lu  Lu1  1  0.187098  0.812902  0.500000  1
  Lu  Lu2  1  0.316062  0.312538  0.000000  1
  Pa  Pa3  1  0.634070  0.635988  0.500000  1
  Pa  Pa4  1  0.813052  0.186948  0.500000  1
  Pa  Pa5  1  0.865049  0.134951  0.000000  1
  Pa  Pa6  1  0.137260  0.862740  0.000000  1
  Pa  Pa7  1  0.364012  0.365930  0.500000  1
  Pd  Pd8  1  0.634787  0.365213  0.203926  1
  Pd  Pd9  1  0.366319  0.633681  0.797515  1
  Pd  Pd10  1  0.865320  0.866731  0.701525  1
  Pd  Pd11  1  0.634787  0.365213  0.796074  1
  Pd  Pd12  1  0.366319  0.633681  0.202485  1
  Pd  Pd13  1  0.133269  0.134680  0.298475  1
  Pd  Pd14  1  0.865320  0.866731  0.298475  1
  Pd  Pd15  1  0.133269  0.134680  0.701525  1
  Pb  Pb16  1  0.001974  0.503702  0.245424  1
  Pb  Pb17  1  0.496298  0.998026  0.754576  1
  Pb  Pb18  1  0.496298  0.998026  0.245424  1
  Pb  Pb19  1  0.001974  0.503702  0.754576  1
