# generated using pymatgen
data_La5Pr(Al3Os)8
_symmetry_space_group_name_H-M   'P 1'
_cell_length_a   8.97239286
_cell_length_b   8.97239247
_cell_length_c   9.73504800
_cell_angle_alpha   90.00000000
_cell_angle_beta   90.00000000
_cell_angle_gamma   120.07384773
_symmetry_Int_Tables_number   1
_chemical_formula_structural   La5Pr(Al3Os)8
_chemical_formula_sum   'La5 Pr1 Al24 Os8'
_cell_volume   678.20598136
_cell_formula_units_Z   1
loop_
 _symmetry_equiv_pos_site_id
 _symmetry_equiv_pos_as_xyz
  1  'x, y, z'
loop_
 _atom_site_type_symbol
 _atom_site_label
 _atom_site_symmetry_multiplicity
 _atom_site_fract_x
 _atom_site_fract_y
 _atom_site_fract_z
 _atom_site_occupancy
  La  La0  1  0.192705  0.385398  0.250000  1
  La  La1  1  0.806573  0.614123  0.750000  1
  La  La2  1  0.614602  0.807295  0.250000  1
  La  La3  1  0.385877  0.193427  0.750000  1
  La  La4  1  0.192763  0.807237  0.250000  1
  Pr  Pr5  1  0.808752  0.191248  0.750000  1
  Al  Al6  1  0.333235  0.666765  0.003037  1
  Al  Al7  1  0.666970  0.333030  0.995416  1
  Al  Al8  1  0.666970  0.333030  0.504584  1
  Al  Al9  1  0.333235  0.666765  0.496963  1
  Al  Al10  1  0.162019  0.325290  0.575200  1
  Al  Al11  1  0.837291  0.674480  0.424780  1
  Al  Al12  1  0.674710  0.837981  0.575200  1
  Al  Al13  1  0.837291  0.674480  0.075220  1
  Al  Al14  1  0.325520  0.162709  0.424780  1
  Al  Al15  1  0.162019  0.325290  0.924800  1
  Al  Al16  1  0.162542  0.837458  0.575238  1
  Al  Al17  1  0.325520  0.162709  0.075220  1
  Al  Al18  1  0.837271  0.162729  0.425273  1
  Al  Al19  1  0.674710  0.837981  0.924800  1
  Al  Al20  1  0.837271  0.162729  0.074727  1
  Al  Al21  1  0.162542  0.837458  0.924762  1
  Al  Al22  1  0.563327  0.126467  0.250000  1
  Al  Al23  1  0.438104  0.875107  0.750000  1
  Al  Al24  1  0.873533  0.436673  0.250000  1
  Al  Al25  1  0.124893  0.561896  0.750000  1
  Al  Al26  1  0.563242  0.436758  0.250000  1
  Al  Al27  1  0.436712  0.563288  0.750000  1
  Al  Al28  1  0.000163  0.999837  0.250000  1
  Al  Al29  1  0.000008  0.999992  0.750000  1
  Os  Os30  1  0.499978  0.000001  0.000162  1
  Os  Os31  1  0.999999  0.500022  0.000162  1
  Os  Os32  1  0.499978  0.000001  0.499838  1
  Os  Os33  1  0.500024  0.499976  0.999791  1
  Os  Os34  1  0.999999  0.500022  0.499838  1
  Os  Os35  1  0.500024  0.499976  0.500209  1
  Os  Os36  1  0.999813  0.000187  0.999833  1
  Os  Os37  1  0.999813  0.000187  0.500167  1
