# generated using pymatgen
data_Ca(HfS2)4
_symmetry_space_group_name_H-M   'P 1'
_cell_length_a   7.95201819
_cell_length_b   7.95201710
_cell_length_c   7.95201794
_cell_angle_alpha   53.90816079
_cell_angle_beta   53.90816255
_cell_angle_gamma   53.90815934
_symmetry_Int_Tables_number   1
_chemical_formula_structural   Ca(HfS2)4
_chemical_formula_sum   'Ca1 Hf4 S8'
_cell_volume   304.95313643
_cell_formula_units_Z   1
loop_
 _symmetry_equiv_pos_site_id
 _symmetry_equiv_pos_as_xyz
  1  'x, y, z'
loop_
 _atom_site_type_symbol
 _atom_site_label
 _atom_site_symmetry_multiplicity
 _atom_site_fract_x
 _atom_site_fract_y
 _atom_site_fract_z
 _atom_site_occupancy
  Ca  Ca0  1  0.500000  0.500000  0.500000  1
  Hf  Hf1  1  0.000000  0.500000  0.500000  1
  Hf  Hf2  1  0.500000  0.000000  0.500000  1
  Hf  Hf3  1  0.500000  0.500000  0.000000  1
  Hf  Hf4  1  0.000000  0.000000  0.000000  1
  S  S5  1  0.256194  0.760249  0.760249  1
  S  S6  1  0.239751  0.239751  0.743806  1
  S  S7  1  0.743806  0.239751  0.239751  1
  S  S8  1  0.239751  0.743806  0.239751  1
  S  S9  1  0.261028  0.261028  0.261028  1
  S  S10  1  0.738972  0.738972  0.738972  1
  S  S11  1  0.760249  0.256194  0.760249  1
  S  S12  1  0.760249  0.760249  0.256194  1
