# generated using pymatgen
data_Cs2UTaS6
_symmetry_space_group_name_H-M   'P 1'
_cell_length_a   7.54188400
_cell_length_b   7.54188352
_cell_length_c   6.34908900
_cell_angle_alpha   90.00000000
_cell_angle_beta   90.00000000
_cell_angle_gamma   120.00001090
_symmetry_Int_Tables_number   1
_chemical_formula_structural   Cs2UTaS6
_chemical_formula_sum   'Cs2 U1 Ta1 S6'
_cell_volume   312.75313216
_cell_formula_units_Z   1
loop_
 _symmetry_equiv_pos_site_id
 _symmetry_equiv_pos_as_xyz
  1  'x, y, z'
loop_
 _atom_site_type_symbol
 _atom_site_label
 _atom_site_symmetry_multiplicity
 _atom_site_fract_x
 _atom_site_fract_y
 _atom_site_fract_z
 _atom_site_occupancy
  Cs  Cs0  1  0.666667  0.333333  0.246254  1
  Cs  Cs1  1  0.333333  0.666667  0.754339  1
  U  U2  1  0.000000  0.000000  0.508802  1
  Ta  Ta3  1  0.000000  0.000000  0.011534  1
  S  S4  1  0.302194  0.151097  0.772360  1
  S  S5  1  0.848903  0.697806  0.772360  1
  S  S6  1  0.848903  0.151097  0.772360  1
  S  S7  1  0.696661  0.848331  0.243130  1
  S  S8  1  0.151669  0.303339  0.243130  1
  S  S9  1  0.151669  0.848331  0.243130  1
