# generated using pymatgen
data_Er2SiGe(Ru2C)2
_symmetry_space_group_name_H-M   'P 1'
_cell_length_a   5.90279376
_cell_length_b   5.90279308
_cell_length_c   7.22493100
_cell_angle_alpha   90.00000000
_cell_angle_beta   90.00000000
_cell_angle_gamma   142.31325092
_symmetry_Int_Tables_number   1
_chemical_formula_structural   Er2SiGe(Ru2C)2
_chemical_formula_sum   'Er2 Si1 Ge1 Ru4 C2'
_cell_volume   153.89855861
_cell_formula_units_Z   1
loop_
 _symmetry_equiv_pos_site_id
 _symmetry_equiv_pos_as_xyz
  1  'x, y, z'
loop_
 _atom_site_type_symbol
 _atom_site_label
 _atom_site_symmetry_multiplicity
 _atom_site_fract_x
 _atom_site_fract_y
 _atom_site_fract_z
 _atom_site_occupancy
  Er  Er0  1  0.545865  0.454135  0.250000  1
  Er  Er1  1  0.454446  0.545554  0.750000  1
  Si  Si2  1  0.266974  0.733026  0.250000  1
  Ge  Ge3  1  0.733978  0.266022  0.750000  1
  Ru  Ru4  1  0.837373  0.162627  0.061145  1
  Ru  Ru5  1  0.162555  0.837445  0.948891  1
  Ru  Ru6  1  0.162555  0.837445  0.551109  1
  Ru  Ru7  1  0.837373  0.162627  0.438855  1
  C  C8  1  0.999441  0.000559  0.000306  1
  C  C9  1  0.999441  0.000559  0.499694  1
