# generated using pymatgen
data_Pa4SnPbC2
_symmetry_space_group_name_H-M   'P 1'
_cell_length_a   3.36336500
_cell_length_b   3.36336392
_cell_length_c   17.42711300
_cell_angle_alpha   90.00000000
_cell_angle_beta   90.00000000
_cell_angle_gamma   120.00002043
_symmetry_Int_Tables_number   1
_chemical_formula_structural   Pa4SnPbC2
_chemical_formula_sum   'Pa4 Sn1 Pb1 C2'
_cell_volume   170.72764567
_cell_formula_units_Z   1
loop_
 _symmetry_equiv_pos_site_id
 _symmetry_equiv_pos_as_xyz
  1  'x, y, z'
loop_
 _atom_site_type_symbol
 _atom_site_label
 _atom_site_symmetry_multiplicity
 _atom_site_fract_x
 _atom_site_fract_y
 _atom_site_fract_z
 _atom_site_occupancy
  Pa  Pa0  1  0.333333  0.666667  0.415934  1
  Pa  Pa1  1  0.666667  0.333333  0.588864  1
  Pa  Pa2  1  0.666667  0.333333  0.911136  1
  Pa  Pa3  1  0.333333  0.666667  0.084066  1
  Sn  Sn4  1  0.333333  0.666667  0.750000  1
  Pb  Pb5  1  0.666667  0.333333  0.250000  1
  C  C6  1  0.000000  0.000000  0.501738  1
  C  C7  1  0.000000  0.000000  0.998262  1
