# generated using pymatgen
data_Lu2Th(MgIr)3
_symmetry_space_group_name_H-M   'P 1'
_cell_length_a   7.35406300
_cell_length_b   7.23309989
_cell_length_c   4.06126500
_cell_angle_alpha   90.00000000
_cell_angle_beta   90.00000000
_cell_angle_gamma   120.55476528
_symmetry_Int_Tables_number   1
_chemical_formula_structural   Lu2Th(MgIr)3
_chemical_formula_sum   'Lu2 Th1 Mg3 Ir3'
_cell_volume   186.03246381
_cell_formula_units_Z   1
loop_
 _symmetry_equiv_pos_site_id
 _symmetry_equiv_pos_as_xyz
  1  'x, y, z'
loop_
 _atom_site_type_symbol
 _atom_site_label
 _atom_site_symmetry_multiplicity
 _atom_site_fract_x
 _atom_site_fract_y
 _atom_site_fract_z
 _atom_site_occupancy
  Lu  Lu0  1  0.999716  0.404981  0.500000  1
  Lu  Lu1  1  0.594735  0.595019  0.500000  1
  Th  Th2  1  0.417228  0.000000  0.500000  1
  Mg  Mg3  1  0.763064  0.000000  0.000000  1
  Mg  Mg4  1  0.243449  0.250820  0.000000  1
  Mg  Mg5  1  0.992628  0.749180  0.000000  1
  Ir  Ir6  1  0.660371  0.330596  0.000000  1
  Ir  Ir7  1  0.329775  0.669404  0.000000  1
  Ir  Ir8  1  0.999033  0.000000  0.500000  1
