# generated using pymatgen
data_Hf9(CoP2)2
_symmetry_space_group_name_H-M   'P 1'
_cell_length_a   12.03841000
_cell_length_b   12.03841000
_cell_length_c   3.56501200
_cell_angle_alpha   90.00000000
_cell_angle_beta   90.00000000
_cell_angle_gamma   90.00000000
_symmetry_Int_Tables_number   1
_chemical_formula_structural   Hf9(CoP2)2
_chemical_formula_sum   'Hf18 Co4 P8'
_cell_volume   516.65335822
_cell_formula_units_Z   2
loop_
 _symmetry_equiv_pos_site_id
 _symmetry_equiv_pos_as_xyz
  1  'x, y, z'
loop_
 _atom_site_type_symbol
 _atom_site_label
 _atom_site_symmetry_multiplicity
 _atom_site_fract_x
 _atom_site_fract_y
 _atom_site_fract_z
 _atom_site_occupancy
  Hf  Hf0  1  0.182507  0.105350  0.500000  1
  Hf  Hf1  1  0.817493  0.894650  0.500000  1
  Hf  Hf2  1  0.105350  0.817493  0.500000  1
  Hf  Hf3  1  0.682507  0.394650  0.500000  1
  Hf  Hf4  1  0.894650  0.182507  0.500000  1
  Hf  Hf5  1  0.317493  0.605350  0.500000  1
  Hf  Hf6  1  0.605350  0.682507  0.500000  1
  Hf  Hf7  1  0.394650  0.317493  0.500000  1
  Hf  Hf8  1  0.620794  0.120794  0.500000  1
  Hf  Hf9  1  0.379206  0.879206  0.500000  1
  Hf  Hf10  1  0.120794  0.379206  0.500000  1
  Hf  Hf11  1  0.879206  0.620794  0.500000  1
  Hf  Hf12  1  0.000000  0.000000  0.000000  1
  Hf  Hf13  1  0.500000  0.500000  0.000000  1
  Hf  Hf14  1  0.094473  0.594473  0.000000  1
  Hf  Hf15  1  0.905527  0.405527  0.000000  1
  Hf  Hf16  1  0.594473  0.905527  0.000000  1
  Hf  Hf17  1  0.405527  0.094473  0.000000  1
  Co  Co18  1  0.749737  0.249737  0.000000  1
  Co  Co19  1  0.250263  0.750263  0.000000  1
  Co  Co20  1  0.249737  0.250263  0.000000  1
  Co  Co21  1  0.750263  0.749737  0.000000  1
  P  P22  1  0.056370  0.223571  0.000000  1
  P  P23  1  0.943630  0.776429  0.000000  1
  P  P24  1  0.223571  0.943630  0.000000  1
  P  P25  1  0.556370  0.276429  0.000000  1
  P  P26  1  0.776429  0.056370  0.000000  1
  P  P27  1  0.443630  0.723571  0.000000  1
  P  P28  1  0.723571  0.556370  0.000000  1
  P  P29  1  0.276429  0.443630  0.000000  1
