# generated using pymatgen
data_KCaSm2CuSe5
_symmetry_space_group_name_H-M   'P 1'
_cell_length_a   4.18362000
_cell_length_b   7.43211787
_cell_length_c   18.25088200
_cell_angle_alpha   90.00000000
_cell_angle_beta   90.00000000
_cell_angle_gamma   73.65290287
_symmetry_Int_Tables_number   1
_chemical_formula_structural   KCaSm2CuSe5
_chemical_formula_sum   'K2 Ca2 Sm4 Cu2 Se10'
_cell_volume   544.53683890
_cell_formula_units_Z   2
loop_
 _symmetry_equiv_pos_site_id
 _symmetry_equiv_pos_as_xyz
  1  'x, y, z'
loop_
 _atom_site_type_symbol
 _atom_site_label
 _atom_site_symmetry_multiplicity
 _atom_site_fract_x
 _atom_site_fract_y
 _atom_site_fract_z
 _atom_site_occupancy
  K  K0  1  0.522306  0.955391  0.250000  1
  K  K1  1  0.477695  0.044609  0.750000  1
  Ca  Ca2  1  0.000000  0.000000  0.000000  1
  Ca  Ca3  1  0.000000  0.000000  0.500000  1
  Sm  Sm4  1  0.270022  0.459954  0.103180  1
  Sm  Sm5  1  0.270022  0.459954  0.396820  1
  Sm  Sm6  1  0.729979  0.540046  0.603180  1
  Sm  Sm7  1  0.729979  0.540046  0.896821  1
  Cu  Cu8  1  0.796740  0.406522  0.250000  1
  Cu  Cu9  1  0.203261  0.593477  0.750000  1
  Se  Se10  1  0.638444  0.723116  0.046889  1
  Se  Se11  1  0.900479  0.199044  0.140450  1
  Se  Se12  1  0.198971  0.602057  0.250000  1
  Se  Se13  1  0.900479  0.199044  0.359550  1
  Se  Se14  1  0.638444  0.723116  0.453112  1
  Se  Se15  1  0.361557  0.276884  0.546888  1
  Se  Se16  1  0.099521  0.800956  0.640450  1
  Se  Se17  1  0.801030  0.397943  0.750000  1
  Se  Se18  1  0.099521  0.800956  0.859550  1
  Se  Se19  1  0.361557  0.276884  0.953112  1
