# generated using pymatgen
data_Nd3Y3ZnGa17Pd4
_symmetry_space_group_name_H-M   'P 1'
_cell_length_a   8.24097214
_cell_length_b   8.24097623
_cell_length_c   15.89312450
_cell_angle_alpha   73.73711850
_cell_angle_beta   73.73712300
_cell_angle_gamma   30.69524125
_symmetry_Int_Tables_number   1
_chemical_formula_structural   Nd3Y3ZnGa17Pd4
_chemical_formula_sum   'Nd3 Y3 Zn1 Ga17 Pd4'
_cell_volume   527.23801217
_cell_formula_units_Z   1
loop_
 _symmetry_equiv_pos_site_id
 _symmetry_equiv_pos_as_xyz
  1  'x, y, z'
loop_
 _atom_site_type_symbol
 _atom_site_label
 _atom_site_symmetry_multiplicity
 _atom_site_fract_x
 _atom_site_fract_y
 _atom_site_fract_z
 _atom_site_occupancy
  Nd  Nd0  1  0.749476  0.749475  0.750707  1
  Nd  Nd1  1  0.250922  0.250918  0.249897  1
  Nd  Nd2  1  0.598972  0.598978  0.600105  1
  Y  Y3  1  0.100059  0.100053  0.101028  1
  Y  Y4  1  0.899827  0.899830  0.899369  1
  Y  Y5  1  0.402028  0.402029  0.400072  1
  Zn  Zn6  1  0.999631  0.999631  0.499508  1
  Ga  Ga7  1  0.824541  0.824541  0.539939  1
  Ga  Ga8  1  0.321479  0.321479  0.038698  1
  Ga  Ga9  1  0.678575  0.678577  0.961332  1
  Ga  Ga10  1  0.175798  0.175799  0.458751  1
  Ga  Ga11  1  0.538943  0.538943  0.821639  1
  Ga  Ga12  1  0.041077  0.041077  0.323747  1
  Ga  Ga13  1  0.957754  0.957754  0.676327  1
  Ga  Ga14  1  0.461006  0.461005  0.179089  1
  Ga  Ga15  1  0.260342  0.260344  0.896037  1
  Ga  Ga16  1  0.762502  0.762500  0.397441  1
  Ga  Ga17  1  0.238525  0.238523  0.602773  1
  Ga  Ga18  1  0.739670  0.739668  0.103798  1
  Ga  Ga19  1  0.395544  0.395543  0.761615  1
  Ga  Ga20  1  0.897478  0.897479  0.261401  1
  Ga  Ga21  1  0.102852  0.102853  0.740082  1
  Ga  Ga22  1  0.604339  0.604338  0.237966  1
  Ga  Ga23  1  0.499892  0.499894  0.000001  1
  Pd  Pd24  1  0.091024  0.091025  0.908641  1
  Pd  Pd25  1  0.594892  0.594892  0.403469  1
  Pd  Pd26  1  0.403807  0.403809  0.594711  1
  Pd  Pd27  1  0.909043  0.909042  0.091859  1
