# generated using pymatgen
data_Tb2ErZn3Ge2Pd
_symmetry_space_group_name_H-M   'P 1'
_cell_length_a   6.92459370
_cell_length_b   6.92459401
_cell_length_c   4.29922100
_cell_angle_alpha   90.00000000
_cell_angle_beta   90.00000000
_cell_angle_gamma   119.84062180
_symmetry_Int_Tables_number   1
_chemical_formula_structural   Tb2ErZn3Ge2Pd
_chemical_formula_sum   'Tb2 Er1 Zn3 Ge2 Pd1'
_cell_volume   178.81512599
_cell_formula_units_Z   1
loop_
 _symmetry_equiv_pos_site_id
 _symmetry_equiv_pos_as_xyz
  1  'x, y, z'
loop_
 _atom_site_type_symbol
 _atom_site_label
 _atom_site_symmetry_multiplicity
 _atom_site_fract_x
 _atom_site_fract_y
 _atom_site_fract_z
 _atom_site_occupancy
  Tb  Tb0  1  0.585617  0.999952  0.000000  1
  Tb  Tb1  1  0.999952  0.585617  0.000000  1
  Er  Er2  1  0.413957  0.413957  0.000000  1
  Zn  Zn3  1  0.236574  0.000928  0.500000  1
  Zn  Zn4  1  0.000928  0.236574  0.500000  1
  Zn  Zn5  1  0.762842  0.762842  0.500000  1
  Ge  Ge6  1  0.333763  0.665379  0.500000  1
  Ge  Ge7  1  0.665379  0.333763  0.500000  1
  Pd  Pd8  1  0.000988  0.000988  0.000000  1
