# generated using pymatgen
data_ThCr2SiC
_symmetry_space_group_name_H-M   'P 1'
_cell_length_a   5.68787703
_cell_length_b   5.68787709
_cell_length_c   7.34976500
_cell_angle_alpha   90.00000000
_cell_angle_beta   90.00000000
_cell_angle_gamma   141.02018993
_symmetry_Int_Tables_number   1
_chemical_formula_structural   ThCr2SiC
_chemical_formula_sum   'Th2 Cr4 Si2 C2'
_cell_volume   149.57417139
_cell_formula_units_Z   2
loop_
 _symmetry_equiv_pos_site_id
 _symmetry_equiv_pos_as_xyz
  1  'x, y, z'
loop_
 _atom_site_type_symbol
 _atom_site_label
 _atom_site_symmetry_multiplicity
 _atom_site_fract_x
 _atom_site_fract_y
 _atom_site_fract_z
 _atom_site_occupancy
  Th  Th0  1  0.541743  0.458257  0.250000  1
  Th  Th1  1  0.458257  0.541743  0.750000  1
  Cr  Cr2  1  0.824070  0.175930  0.058267  1
  Cr  Cr3  1  0.175930  0.824070  0.941733  1
  Cr  Cr4  1  0.175930  0.824070  0.558267  1
  Cr  Cr5  1  0.824070  0.175930  0.441733  1
  Si  Si6  1  0.263258  0.736742  0.250000  1
  Si  Si7  1  0.736742  0.263258  0.750000  1
  C  C8  1  0.000000  0.000000  0.000000  1
  C  C9  1  0.000000  0.000000  0.500000  1
