# generated using pymatgen
data_Ba5Tb2Y6Ni4O21
_symmetry_space_group_name_H-M   'P 1'
_cell_length_a   10.22124093
_cell_length_b   10.22124092
_cell_length_c   10.22327800
_cell_angle_alpha   94.53644642
_cell_angle_beta   94.53886789
_cell_angle_gamma   147.32430743
_symmetry_Int_Tables_number   1
_chemical_formula_structural   Ba5Tb2Y6Ni4O21
_chemical_formula_sum   'Ba5 Tb2 Y6 Ni4 O21'
_cell_volume   553.35503683
_cell_formula_units_Z   1
loop_
 _symmetry_equiv_pos_site_id
 _symmetry_equiv_pos_as_xyz
  1  'x, y, z'
loop_
 _atom_site_type_symbol
 _atom_site_label
 _atom_site_symmetry_multiplicity
 _atom_site_fract_x
 _atom_site_fract_y
 _atom_site_fract_z
 _atom_site_occupancy
  Ba  Ba0  1  0.000000  0.000000  0.000000  1
  Ba  Ba1  1  0.138277  0.534838  0.673115  1
  Ba  Ba2  1  0.861723  0.465162  0.326885  1
  Ba  Ba3  1  0.465179  0.138268  0.603447  1
  Ba  Ba4  1  0.534821  0.861732  0.396553  1
  Tb  Tb5  1  0.166796  0.249804  0.416600  1
  Tb  Tb6  1  0.833204  0.750196  0.583400  1
  Y  Y7  1  0.750138  0.166825  0.916963  1
  Y  Y8  1  0.249862  0.833175  0.083037  1
  Y  Y9  1  0.357638  0.410628  0.768266  1
  Y  Y10  1  0.642362  0.589372  0.231734  1
  Y  Y11  1  0.589400  0.357613  0.947013  1
  Y  Y12  1  0.410600  0.642387  0.052987  1
  Ni  Ni13  1  0.246444  0.040935  0.287380  1
  Ni  Ni14  1  0.753556  0.959065  0.712620  1
  Ni  Ni15  1  0.959078  0.246461  0.205539  1
  Ni  Ni16  1  0.040922  0.753539  0.794461  1
  O  O17  1  0.500000  0.500000  0.000000  1
  O  O18  1  0.963041  0.630078  0.593120  1
  O  O19  1  0.036959  0.369922  0.406880  1
  O  O20  1  0.369901  0.963019  0.332922  1
  O  O21  1  0.630099  0.036981  0.667078  1
  O  O22  1  0.295360  0.427608  0.225720  1
  O  O23  1  0.201888  0.069639  0.774280  1
  O  O24  1  0.069511  0.295306  0.867767  1
  O  O25  1  0.427538  0.201744  0.132233  1
  O  O26  1  0.704640  0.572392  0.774280  1
  O  O27  1  0.798112  0.930361  0.225720  1
  O  O28  1  0.930489  0.704694  0.132233  1
  O  O29  1  0.572462  0.798256  0.867767  1
  O  O30  1  0.496696  0.607658  0.595128  1
  O  O31  1  0.012530  0.901569  0.404872  1
  O  O32  1  0.901613  0.496666  0.889074  1
  O  O33  1  0.607592  0.012539  0.110926  1
  O  O34  1  0.503304  0.392342  0.404872  1
  O  O35  1  0.987470  0.098431  0.595128  1
  O  O36  1  0.098387  0.503334  0.110926  1
  O  O37  1  0.392408  0.987461  0.889074  1
