# generated using pymatgen
data_Pr20GaSi10As
_symmetry_space_group_name_H-M   'P 1'
_cell_length_a   7.83308700
_cell_length_b   7.83308700
_cell_length_c   14.44064800
_cell_angle_alpha   90.00000000
_cell_angle_beta   90.00000000
_cell_angle_gamma   90.00000000
_symmetry_Int_Tables_number   1
_chemical_formula_structural   Pr20GaSi10As
_chemical_formula_sum   'Pr20 Ga1 Si10 As1'
_cell_volume   886.03847765
_cell_formula_units_Z   1
loop_
 _symmetry_equiv_pos_site_id
 _symmetry_equiv_pos_as_xyz
  1  'x, y, z'
loop_
 _atom_site_type_symbol
 _atom_site_label
 _atom_site_symmetry_multiplicity
 _atom_site_fract_x
 _atom_site_fract_y
 _atom_site_fract_z
 _atom_site_occupancy
  Pr  Pr0  1  0.815496  0.827615  0.605569  1
  Pr  Pr1  1  0.187707  0.832920  0.109053  1
  Pr  Pr2  1  0.171197  0.814363  0.394160  1
  Pr  Pr3  1  0.000000  0.500000  0.729986  1
  Pr  Pr4  1  0.828803  0.185637  0.394160  1
  Pr  Pr5  1  0.685637  0.671197  0.394160  1
  Pr  Pr6  1  0.672385  0.315496  0.605569  1
  Pr  Pr7  1  0.327615  0.684504  0.605569  1
  Pr  Pr8  1  0.000000  0.500000  0.230456  1
  Pr  Pr9  1  0.667080  0.687707  0.109053  1
  Pr  Pr10  1  0.681797  0.325965  0.891398  1
  Pr  Pr11  1  0.825965  0.818203  0.891398  1
  Pr  Pr12  1  0.314363  0.328803  0.394160  1
  Pr  Pr13  1  0.184504  0.172385  0.605569  1
  Pr  Pr14  1  0.812293  0.167080  0.109053  1
  Pr  Pr15  1  0.318203  0.674035  0.891398  1
  Pr  Pr16  1  0.332920  0.312293  0.109053  1
  Pr  Pr17  1  0.500000  0.000000  0.275869  1
  Pr  Pr18  1  0.174035  0.181797  0.891398  1
  Pr  Pr19  1  0.500000  0.000000  0.762323  1
  Ga  Ga20  1  0.000000  0.500000  0.005028  1
  Si  Si21  1  0.614107  0.386392  0.251215  1
  Si  Si22  1  0.113137  0.886142  0.749279  1
  Si  Si23  1  0.386142  0.386863  0.749279  1
  Si  Si24  1  0.385893  0.613608  0.251215  1
  Si  Si25  1  0.886392  0.885893  0.251215  1
  Si  Si26  1  0.613858  0.613137  0.749279  1
  Si  Si27  1  0.000000  0.500000  0.505555  1
  Si  Si28  1  0.886863  0.113858  0.749279  1
  Si  Si29  1  0.500000  0.000000  0.497332  1
  Si  Si30  1  0.113608  0.114107  0.251215  1
  As  As31  1  0.500000  0.000000  0.990755  1
