# generated using pymatgen
data_La2Nd2AsI5
_symmetry_space_group_name_H-M   'P 1'
_cell_length_a   10.07146447
_cell_length_b   10.07146397
_cell_length_c   9.32870764
_cell_angle_alpha   77.52895256
_cell_angle_beta   77.52895447
_cell_angle_gamma   24.52607430
_symmetry_Int_Tables_number   1
_chemical_formula_structural   La2Nd2AsI5
_chemical_formula_sum   'La2 Nd2 As1 I5'
_cell_volume   383.08469646
_cell_formula_units_Z   1
loop_
 _symmetry_equiv_pos_site_id
 _symmetry_equiv_pos_as_xyz
  1  'x, y, z'
loop_
 _atom_site_type_symbol
 _atom_site_label
 _atom_site_symmetry_multiplicity
 _atom_site_fract_x
 _atom_site_fract_y
 _atom_site_fract_z
 _atom_site_occupancy
  La  La0  1  0.500820  0.500820  0.216706  1
  La  La1  1  0.499180  0.499180  0.783294  1
  Nd  Nd2  1  0.851047  0.851047  0.074255  1
  Nd  Nd3  1  0.148953  0.148953  0.925745  1
  As  As4  1  0.000000  0.000000  0.000000  1
  I  I5  1  0.672790  0.672790  0.170110  1
  I  I6  1  0.327210  0.327210  0.829890  1
  I  I7  1  0.666677  0.666677  0.665204  1
  I  I8  1  0.333323  0.333323  0.334796  1
  I  I9  1  0.000000  0.000000  0.500000  1
