# generated using pymatgen
data_Nd2AlZnRh2
_symmetry_space_group_name_H-M   'P 1'
_cell_length_a   4.17666300
_cell_length_b   7.14832770
_cell_length_c   8.23539668
_cell_angle_alpha   89.95140728
_cell_angle_beta   90.00000000
_cell_angle_gamma   90.00000000
_symmetry_Int_Tables_number   1
_chemical_formula_structural   Nd2AlZnRh2
_chemical_formula_sum   'Nd4 Al2 Zn2 Rh4'
_cell_volume   245.87719798
_cell_formula_units_Z   2
loop_
 _symmetry_equiv_pos_site_id
 _symmetry_equiv_pos_as_xyz
  1  'x, y, z'
loop_
 _atom_site_type_symbol
 _atom_site_label
 _atom_site_symmetry_multiplicity
 _atom_site_fract_x
 _atom_site_fract_y
 _atom_site_fract_z
 _atom_site_occupancy
  Nd  Nd0  1  0.250000  0.535476  0.190563  1
  Nd  Nd1  1  0.750000  0.464524  0.809437  1
  Nd  Nd2  1  0.750000  0.961148  0.682103  1
  Nd  Nd3  1  0.250000  0.038852  0.317897  1
  Al  Al4  1  0.750000  0.862940  0.062156  1
  Al  Al5  1  0.250000  0.137060  0.937844  1
  Zn  Zn6  1  0.250000  0.640206  0.563606  1
  Zn  Zn7  1  0.750000  0.359794  0.436394  1
  Rh  Rh8  1  0.250000  0.773474  0.894388  1
  Rh  Rh9  1  0.750000  0.226526  0.105612  1
  Rh  Rh10  1  0.750000  0.741184  0.372125  1
  Rh  Rh11  1  0.250000  0.258816  0.627875  1
