# generated using pymatgen
data_Ta4TiFe(B2Ru5)2
_symmetry_space_group_name_H-M   'P 1'
_cell_length_a   9.30496700
_cell_length_b   9.30496700
_cell_length_c   3.01687100
_cell_angle_alpha   90.00000000
_cell_angle_beta   90.00000000
_cell_angle_gamma   90.00000000
_symmetry_Int_Tables_number   1
_chemical_formula_structural   Ta4TiFe(B2Ru5)2
_chemical_formula_sum   'Ta4 Ti1 Fe1 B4 Ru10'
_cell_volume   261.20796447
_cell_formula_units_Z   1
loop_
 _symmetry_equiv_pos_site_id
 _symmetry_equiv_pos_as_xyz
  1  'x, y, z'
loop_
 _atom_site_type_symbol
 _atom_site_label
 _atom_site_symmetry_multiplicity
 _atom_site_fract_x
 _atom_site_fract_y
 _atom_site_fract_z
 _atom_site_occupancy
  Ta  Ta0  1  0.823350  0.676518  0.000000  1
  Ta  Ta1  1  0.176650  0.323482  0.000000  1
  Ta  Ta2  1  0.323482  0.823350  0.000000  1
  Ta  Ta3  1  0.676518  0.176650  0.000000  1
  Ti  Ti4  1  0.500000  0.500000  0.000000  1
  Fe  Fe5  1  0.000000  0.000000  0.000000  1
  B  B6  1  0.626373  0.877865  0.000000  1
  B  B7  1  0.373627  0.122135  0.000000  1
  B  B8  1  0.122135  0.626373  0.000000  1
  B  B9  1  0.877865  0.373627  0.000000  1
  Ru  Ru10  1  0.571671  0.716501  0.500000  1
  Ru  Ru11  1  0.428329  0.283499  0.500000  1
  Ru  Ru12  1  0.069062  0.786902  0.500000  1
  Ru  Ru13  1  0.930938  0.213098  0.500000  1
  Ru  Ru14  1  0.283499  0.571671  0.500000  1
  Ru  Ru15  1  0.716501  0.428329  0.500000  1
  Ru  Ru16  1  0.213098  0.069062  0.500000  1
  Ru  Ru17  1  0.786902  0.930938  0.500000  1
  Ru  Ru18  1  0.500000  0.000000  0.500000  1
  Ru  Ru19  1  0.000000  0.500000  0.500000  1
