# generated using pymatgen
data_Y6ErTm13(Cd3Ru)2
_symmetry_space_group_name_H-M   'P 1'
_cell_length_a   9.53483706
_cell_length_b   9.53483693
_cell_length_c   9.74116904
_cell_angle_alpha   89.99155592
_cell_angle_beta   90.00844173
_cell_angle_gamma   120.00918153
_symmetry_Int_Tables_number   1
_chemical_formula_structural   Y6ErTm13(Cd3Ru)2
_chemical_formula_sum   'Y6 Er1 Tm13 Cd6 Ru2'
_cell_volume   766.88114942
_cell_formula_units_Z   1
loop_
 _symmetry_equiv_pos_site_id
 _symmetry_equiv_pos_as_xyz
  1  'x, y, z'
loop_
 _atom_site_type_symbol
 _atom_site_label
 _atom_site_symmetry_multiplicity
 _atom_site_fract_x
 _atom_site_fract_y
 _atom_site_fract_z
 _atom_site_occupancy
  Y  Y0  1  0.540465  0.459535  0.250014  1
  Y  Y1  1  0.540574  0.081045  0.249922  1
  Y  Y2  1  0.918955  0.459426  0.249922  1
  Y  Y3  1  0.459531  0.540469  0.750014  1
  Y  Y4  1  0.459614  0.919095  0.750097  1
  Y  Y5  1  0.080905  0.540386  0.750097  1
  Er  Er6  1  0.209735  0.790265  0.440058  1
  Tm  Tm7  1  0.999938  0.000062  0.500021  1
  Tm  Tm8  1  0.999996  0.000004  0.000031  1
  Tm  Tm9  1  0.209873  0.419589  0.440134  1
  Tm  Tm10  1  0.580411  0.790127  0.440134  1
  Tm  Tm11  1  0.790108  0.209892  0.559902  1
  Tm  Tm12  1  0.790038  0.580190  0.559937  1
  Tm  Tm13  1  0.419810  0.209962  0.559937  1
  Tm  Tm14  1  0.790110  0.209890  0.940101  1
  Tm  Tm15  1  0.790129  0.580227  0.940115  1
  Tm  Tm16  1  0.419773  0.209871  0.940115  1
  Tm  Tm17  1  0.209853  0.790147  0.059790  1
  Tm  Tm18  1  0.209932  0.419775  0.059900  1
  Tm  Tm19  1  0.580225  0.790068  0.059900  1
  Cd  Cd20  1  0.885865  0.114135  0.250010  1
  Cd  Cd21  1  0.885824  0.771710  0.249980  1
  Cd  Cd22  1  0.228290  0.114176  0.249980  1
  Cd  Cd23  1  0.114118  0.885882  0.750056  1
  Cd  Cd24  1  0.114142  0.228293  0.750019  1
  Cd  Cd25  1  0.771707  0.885858  0.750019  1
  Ru  Ru26  1  0.333422  0.666578  0.249811  1
  Ru  Ru27  1  0.666656  0.333344  0.749987  1
