# generated using pymatgen
data_Tb3Sm(Sc3Sn4)2
_symmetry_space_group_name_H-M   'P 1'
_cell_length_a   7.70134809
_cell_length_b   7.95510868
_cell_length_c   14.85204700
_cell_angle_alpha   89.95519394
_cell_angle_beta   89.99105747
_cell_angle_gamma   90.11931505
_symmetry_Int_Tables_number   1
_chemical_formula_structural   Tb3Sm(Sc3Sn4)2
_chemical_formula_sum   'Tb6 Sm2 Sc12 Sn16'
_cell_volume   909.90930435
_cell_formula_units_Z   2
loop_
 _symmetry_equiv_pos_site_id
 _symmetry_equiv_pos_as_xyz
  1  'x, y, z'
loop_
 _atom_site_type_symbol
 _atom_site_label
 _atom_site_symmetry_multiplicity
 _atom_site_fract_x
 _atom_site_fract_y
 _atom_site_fract_z
 _atom_site_occupancy
  Tb  Tb0  1  0.992879  0.176659  0.094461  1
  Tb  Tb1  1  0.007121  0.823341  0.905539  1
  Tb  Tb2  1  0.506653  0.676564  0.905771  1
  Tb  Tb3  1  0.006824  0.822848  0.593937  1
  Tb  Tb4  1  0.493347  0.323436  0.094229  1
  Tb  Tb5  1  0.993176  0.177152  0.406063  1
  Sm  Sm6  1  0.492108  0.323616  0.406018  1
  Sm  Sm7  1  0.507892  0.676384  0.593982  1
  Sc  Sc8  1  0.167901  0.495702  0.749757  1
  Sc  Sc9  1  0.832099  0.504298  0.250243  1
  Sc  Sc10  1  0.332583  0.995478  0.250101  1
  Sc  Sc11  1  0.667417  0.004522  0.749899  1
  Sc  Sc12  1  0.338993  0.161371  0.627415  1
  Sc  Sc13  1  0.661007  0.838629  0.372585  1
  Sc  Sc14  1  0.160750  0.660645  0.372976  1
  Sc  Sc15  1  0.661157  0.839053  0.127654  1
  Sc  Sc16  1  0.839250  0.339355  0.627024  1
  Sc  Sc17  1  0.338843  0.160947  0.872346  1
  Sc  Sc18  1  0.838539  0.338649  0.872667  1
  Sc  Sc19  1  0.161461  0.661351  0.127333  1
  Sn  Sn20  1  0.030050  0.124808  0.749627  1
  Sn  Sn21  1  0.969950  0.875192  0.250373  1
  Sn  Sn22  1  0.469098  0.625203  0.249790  1
  Sn  Sn23  1  0.530902  0.374797  0.750210  1
  Sn  Sn24  1  0.309923  0.850807  0.750105  1
  Sn  Sn25  1  0.690077  0.149193  0.249895  1
  Sn  Sn26  1  0.189223  0.350175  0.249775  1
  Sn  Sn27  1  0.810777  0.649825  0.750225  1
  Sn  Sn28  1  0.180538  0.456833  0.542759  1
  Sn  Sn29  1  0.819462  0.543167  0.457241  1
  Sn  Sn30  1  0.318046  0.956822  0.457381  1
  Sn  Sn31  1  0.819065  0.543438  0.042721  1
  Sn  Sn32  1  0.681954  0.043178  0.542619  1
  Sn  Sn33  1  0.180935  0.456562  0.957279  1
  Sn  Sn34  1  0.681190  0.042535  0.957447  1
  Sn  Sn35  1  0.318810  0.957465  0.042553  1
