# generated using pymatgen
data_Cs12K5Tl(GaBi4)2
_symmetry_space_group_name_H-M   'P 1'
_cell_length_a   11.37515700
_cell_length_b   11.35795756
_cell_length_c   11.89257100
_cell_angle_alpha   90.00000000
_cell_angle_beta   90.00000000
_cell_angle_gamma   120.05010264
_symmetry_Int_Tables_number   1
_chemical_formula_structural   Cs12K5Tl(GaBi4)2
_chemical_formula_sum   'Cs12 K5 Tl1 Ga2 Bi8'
_cell_volume   1329.97826262
_cell_formula_units_Z   1
loop_
 _symmetry_equiv_pos_site_id
 _symmetry_equiv_pos_as_xyz
  1  'x, y, z'
loop_
 _atom_site_type_symbol
 _atom_site_label
 _atom_site_symmetry_multiplicity
 _atom_site_fract_x
 _atom_site_fract_y
 _atom_site_fract_z
 _atom_site_occupancy
  Cs  Cs0  1  0.208135  0.416267  0.536545  1
  Cs  Cs1  1  0.793812  0.210055  0.043859  1
  Cs  Cs2  1  0.416242  0.210055  0.043859  1
  Cs  Cs3  1  0.580602  0.790325  0.541095  1
  Cs  Cs4  1  0.209725  0.790325  0.541095  1
  Cs  Cs5  1  0.790337  0.580677  0.458997  1
  Cs  Cs6  1  0.793812  0.210055  0.456141  1
  Cs  Cs7  1  0.790337  0.580677  0.041003  1
  Cs  Cs8  1  0.416242  0.210055  0.456141  1
  Cs  Cs9  1  0.580602  0.790325  0.958905  1
  Cs  Cs10  1  0.208135  0.416267  0.963455  1
  Cs  Cs11  1  0.209725  0.790325  0.958905  1
  K  K12  1  0.881011  0.120624  0.750000  1
  K  K13  1  0.239612  0.120624  0.750000  1
  K  K14  1  0.765852  0.886008  0.250000  1
  K  K15  1  0.120157  0.886008  0.250000  1
  K  K16  1  0.881063  0.762127  0.750000  1
  Tl  Tl17  1  0.118019  0.236038  0.250000  1
  Ga  Ga18  1  0.333815  0.667632  0.250000  1
  Ga  Ga19  1  0.666540  0.333080  0.750000  1
  Bi  Bi20  1  0.467406  0.519250  0.250000  1
  Bi  Bi21  1  0.949295  0.475521  0.750000  1
  Bi  Bi22  1  0.524862  0.049726  0.750000  1
  Bi  Bi23  1  0.474346  0.948691  0.250000  1
  Bi  Bi24  1  0.051846  0.519250  0.250000  1
  Bi  Bi25  1  0.526224  0.475521  0.750000  1
  Bi  Bi26  1  0.001124  0.002247  0.002811  1
  Bi  Bi27  1  0.001124  0.002247  0.497189  1
