# generated using pymatgen
data_Ta3GaPtN
_symmetry_space_group_name_H-M   'P 1'
_cell_length_a   7.02936000
_cell_length_b   7.02936000
_cell_length_c   7.02936000
_cell_angle_alpha   90.00000000
_cell_angle_beta   90.00000000
_cell_angle_gamma   90.00000000
_symmetry_Int_Tables_number   1
_chemical_formula_structural   Ta3GaPtN
_chemical_formula_sum   'Ta12 Ga4 Pt4 N4'
_cell_volume   347.33404751
_cell_formula_units_Z   4
loop_
 _symmetry_equiv_pos_site_id
 _symmetry_equiv_pos_as_xyz
  1  'x, y, z'
loop_
 _atom_site_type_symbol
 _atom_site_label
 _atom_site_symmetry_multiplicity
 _atom_site_fract_x
 _atom_site_fract_y
 _atom_site_fract_z
 _atom_site_occupancy
  Ta  Ta0  1  0.789800  0.954341  0.378397  1
  Ta  Ta1  1  0.710200  0.045659  0.878397  1
  Ta  Ta2  1  0.210200  0.454341  0.121603  1
  Ta  Ta3  1  0.289800  0.545659  0.621603  1
  Ta  Ta4  1  0.954341  0.378397  0.789800  1
  Ta  Ta5  1  0.045659  0.878397  0.710200  1
  Ta  Ta6  1  0.454341  0.121603  0.210200  1
  Ta  Ta7  1  0.545659  0.621603  0.289800  1
  Ta  Ta8  1  0.378397  0.789800  0.954341  1
  Ta  Ta9  1  0.878397  0.710200  0.045659  1
  Ta  Ta10  1  0.121603  0.210200  0.454341  1
  Ta  Ta11  1  0.621603  0.289800  0.545659  1
  Ga  Ga12  1  0.569170  0.430830  0.930830  1
  Ga  Ga13  1  0.430830  0.930830  0.569170  1
  Ga  Ga14  1  0.930830  0.569170  0.430830  1
  Ga  Ga15  1  0.069170  0.069170  0.069170  1
  Pt  Pt16  1  0.179718  0.820282  0.320282  1
  Pt  Pt17  1  0.320282  0.179718  0.820282  1
  Pt  Pt18  1  0.820282  0.320282  0.179718  1
  Pt  Pt19  1  0.679718  0.679718  0.679718  1
  N  N20  1  0.874256  0.125744  0.625744  1
  N  N21  1  0.625744  0.874256  0.125744  1
  N  N22  1  0.125744  0.625744  0.874256  1
  N  N23  1  0.374256  0.374256  0.374256  1
