# generated using pymatgen
data_Dy5Mg2P12Ir16Rh
_symmetry_space_group_name_H-M   'P 1'
_cell_length_a   12.68443500
_cell_length_b   12.82519792
_cell_length_c   3.97527100
_cell_angle_alpha   90.00000000
_cell_angle_beta   90.00000000
_cell_angle_gamma   119.63759023
_symmetry_Int_Tables_number   1
_chemical_formula_structural   Dy5Mg2P12Ir16Rh
_chemical_formula_sum   'Dy5 Mg2 P12 Ir16 Rh1'
_cell_volume   562.09149175
_cell_formula_units_Z   1
loop_
 _symmetry_equiv_pos_site_id
 _symmetry_equiv_pos_as_xyz
  1  'x, y, z'
loop_
 _atom_site_type_symbol
 _atom_site_label
 _atom_site_symmetry_multiplicity
 _atom_site_fract_x
 _atom_site_fract_y
 _atom_site_fract_z
 _atom_site_occupancy
  Dy  Dy0  1  0.332816  0.664695  0.500000  1
  Dy  Dy1  1  0.668123  0.335305  0.500000  1
  Dy  Dy2  1  0.001638  0.812286  0.000000  1
  Dy  Dy3  1  0.189353  0.187714  0.000000  1
  Dy  Dy4  1  0.809679  0.000000  0.000000  1
  Mg  Mg5  1  0.998020  0.444137  0.500000  1
  Mg  Mg6  1  0.553884  0.555863  0.500000  1
  P  P7  1  0.003471  0.643262  0.500000  1
  P  P8  1  0.360209  0.356738  0.500000  1
  P  P9  1  0.640547  0.000000  0.500000  1
  P  P10  1  0.514031  0.686235  0.000000  1
  P  P11  1  0.309790  0.826484  0.000000  1
  P  P12  1  0.169446  0.481972  0.000000  1
  P  P13  1  0.483306  0.173516  0.000000  1
  P  P14  1  0.687474  0.518028  0.000000  1
  P  P15  1  0.827796  0.313765  0.000000  1
  P  P16  1  0.999088  0.176199  0.500000  1
  P  P17  1  0.822888  0.823801  0.500000  1
  P  P18  1  0.179101  0.000000  0.500000  1
  Ir  Ir19  1  0.506106  0.866312  0.000000  1
  Ir  Ir20  1  0.128888  0.640138  0.000000  1
  Ir  Ir21  1  0.358130  0.492618  0.000000  1
  Ir  Ir22  1  0.488751  0.359862  0.000000  1
  Ir  Ir23  1  0.865512  0.507382  0.000000  1
  Ir  Ir24  1  0.639794  0.133688  0.000000  1
  Ir  Ir25  1  0.996664  0.278956  0.000000  1
  Ir  Ir26  1  0.717708  0.721044  0.000000  1
  Ir  Ir27  1  0.283377  0.000000  0.000000  1
  Ir  Ir28  1  0.624042  0.807544  0.500000  1
  Ir  Ir29  1  0.199981  0.823973  0.500000  1
  Ir  Ir30  1  0.177297  0.367985  0.500000  1
  Ir  Ir31  1  0.376007  0.176027  0.500000  1
  Ir  Ir32  1  0.809312  0.632015  0.500000  1
  Ir  Ir33  1  0.816497  0.192456  0.500000  1
  Ir  Ir34  1  0.000434  0.000000  0.500000  1
  Rh  Rh35  1  0.460842  0.000000  0.500000  1
