# generated using pymatgen
data_Y16MgHg3RuRh3
_symmetry_space_group_name_H-M   'P 1'
_cell_length_a   9.69261969
_cell_length_b   9.68416327
_cell_length_c   9.68416272
_cell_angle_alpha   59.56034322
_cell_angle_beta   59.60656268
_cell_angle_gamma   59.60656188
_symmetry_Int_Tables_number   1
_chemical_formula_structural   Y16MgHg3RuRh3
_chemical_formula_sum   'Y16 Mg1 Hg3 Ru1 Rh3'
_cell_volume   636.78873717
_cell_formula_units_Z   1
loop_
 _symmetry_equiv_pos_site_id
 _symmetry_equiv_pos_as_xyz
  1  'x, y, z'
loop_
 _atom_site_type_symbol
 _atom_site_label
 _atom_site_symmetry_multiplicity
 _atom_site_fract_x
 _atom_site_fract_y
 _atom_site_fract_z
 _atom_site_occupancy
  Y  Y0  1  0.600178  0.598059  0.598059  1
  Y  Y1  1  0.600187  0.597777  0.205650  1
  Y  Y2  1  0.600187  0.205650  0.597777  1
  Y  Y3  1  0.192936  0.602491  0.602491  1
  Y  Y4  1  0.060121  0.440190  0.440190  1
  Y  Y5  1  0.436206  0.061500  0.061500  1
  Y  Y6  1  0.436775  0.062943  0.438445  1
  Y  Y7  1  0.057846  0.440025  0.059078  1
  Y  Y8  1  0.436775  0.438445  0.062943  1
  Y  Y9  1  0.057846  0.059078  0.440025  1
  Y  Y10  1  0.186384  0.812459  0.812459  1
  Y  Y11  1  0.810248  0.187310  0.187310  1
  Y  Y12  1  0.812189  0.187864  0.814076  1
  Y  Y13  1  0.187254  0.809474  0.189168  1
  Y  Y14  1  0.812189  0.814076  0.187864  1
  Y  Y15  1  0.187254  0.189168  0.809474  1
  Mg  Mg16  1  0.534819  0.820997  0.820997  1
  Hg  Hg17  1  0.831940  0.836583  0.836583  1
  Hg  Hg18  1  0.832299  0.836828  0.492815  1
  Hg  Hg19  1  0.832299  0.492815  0.836828  1
  Ru  Ru20  1  0.387474  0.393471  0.393471  1
  Rh  Rh21  1  0.390666  0.395440  0.824031  1
  Rh  Rh22  1  0.390666  0.824031  0.395440  1
  Rh  Rh23  1  0.825267  0.393329  0.393329  1
