# generated using pymatgen
data_Ca4TaN4
_symmetry_space_group_name_H-M   'P 1'
_cell_length_a   6.07402550
_cell_length_b   6.08072043
_cell_length_c   9.20300009
_cell_angle_alpha   72.20213785
_cell_angle_beta   81.98582723
_cell_angle_gamma   69.22608757
_symmetry_Int_Tables_number   1
_chemical_formula_structural   Ca4TaN4
_chemical_formula_sum   'Ca8 Ta2 N8'
_cell_volume   302.41572495
_cell_formula_units_Z   2
loop_
 _symmetry_equiv_pos_site_id
 _symmetry_equiv_pos_as_xyz
  1  'x, y, z'
loop_
 _atom_site_type_symbol
 _atom_site_label
 _atom_site_symmetry_multiplicity
 _atom_site_fract_x
 _atom_site_fract_y
 _atom_site_fract_z
 _atom_site_occupancy
  Ca  Ca0  1  0.239593  0.953481  0.602194  1
  Ca  Ca1  1  0.746785  0.613866  0.194541  1
  Ca  Ca2  1  0.759810  0.235606  0.986311  1
  Ca  Ca3  1  0.257102  0.532538  0.420355  1
  Ca  Ca4  1  0.760407  0.046519  0.397806  1
  Ca  Ca5  1  0.253215  0.386134  0.805459  1
  Ca  Ca6  1  0.742898  0.467462  0.579645  1
  Ca  Ca7  1  0.240190  0.764394  0.013689  1
  Ta  Ta8  1  0.718415  0.849437  0.761412  1
  Ta  Ta9  1  0.281585  0.150563  0.238588  1
  N  N10  1  0.973760  0.713156  0.622268  1
  N  N11  1  0.525589  0.173222  0.630210  1
  N  N12  1  0.026240  0.286844  0.377732  1
  N  N13  1  0.516706  0.637433  0.798517  1
  N  N14  1  0.161372  0.161178  0.049107  1
  N  N15  1  0.474411  0.826778  0.369790  1
  N  N16  1  0.483294  0.362567  0.201483  1
  N  N17  1  0.838628  0.838822  0.950893  1
