# generated using pymatgen
data_LuTa7(TcOs)4
_symmetry_space_group_name_H-M   'P 1'
_cell_length_a   6.40609700
_cell_length_b   4.52884900
_cell_length_c   9.07179500
_cell_angle_alpha   90.00000000
_cell_angle_beta   90.00008893
_cell_angle_gamma   90.00000000
_symmetry_Int_Tables_number   1
_chemical_formula_structural   LuTa7(TcOs)4
_chemical_formula_sum   'Lu1 Ta7 Tc4 Os4'
_cell_volume   263.19314813
_cell_formula_units_Z   1
loop_
 _symmetry_equiv_pos_site_id
 _symmetry_equiv_pos_as_xyz
  1  'x, y, z'
loop_
 _atom_site_type_symbol
 _atom_site_label
 _atom_site_symmetry_multiplicity
 _atom_site_fract_x
 _atom_site_fract_y
 _atom_site_fract_z
 _atom_site_occupancy
  Lu  Lu0  1  0.500585  0.749999  0.124991  1
  Ta  Ta1  1  0.999613  0.749999  0.125013  1
  Ta  Ta2  1  0.499735  0.250000  0.377173  1
  Ta  Ta3  1  0.000026  0.250000  0.374649  1
  Ta  Ta4  1  0.000251  0.749999  0.625006  1
  Ta  Ta5  1  0.499420  0.749999  0.625001  1
  Ta  Ta6  1  0.000012  0.250000  0.875346  1
  Ta  Ta7  1  0.499726  0.250000  0.872832  1
  Tc  Tc8  1  0.756325  0.250000  0.124988  1
  Tc  Tc9  1  0.247039  0.749999  0.379798  1
  Tc  Tc10  1  0.750164  0.250000  0.624997  1
  Tc  Tc11  1  0.247026  0.749999  0.870200  1
  Os  Os12  1  0.242922  0.250000  0.124986  1
  Os  Os13  1  0.753644  0.749999  0.380220  1
  Os  Os14  1  0.249872  0.250000  0.625023  1
  Os  Os15  1  0.753641  0.749999  0.869777  1
