# generated using pymatgen
data_Lu3ZnIn4Ir
_symmetry_space_group_name_H-M   'P 1'
_cell_length_a   7.88316700
_cell_length_b   7.88316548
_cell_length_c   3.76271400
_cell_angle_alpha   90.00000000
_cell_angle_beta   90.00000000
_cell_angle_gamma   119.99999377
_symmetry_Int_Tables_number   1
_chemical_formula_structural   Lu3ZnIn4Ir
_chemical_formula_sum   'Lu3 Zn1 In4 Ir1'
_cell_volume   202.50382862
_cell_formula_units_Z   1
loop_
 _symmetry_equiv_pos_site_id
 _symmetry_equiv_pos_as_xyz
  1  'x, y, z'
loop_
 _atom_site_type_symbol
 _atom_site_label
 _atom_site_symmetry_multiplicity
 _atom_site_fract_x
 _atom_site_fract_y
 _atom_site_fract_z
 _atom_site_occupancy
  Lu  Lu0  1  0.373254  0.416534  0.000000  1
  Lu  Lu1  1  0.043280  0.626745  0.000000  1
  Lu  Lu2  1  0.583466  0.956721  0.000000  1
  Zn  Zn3  1  0.000000  0.000000  0.000000  1
  In  In4  1  0.997023  0.263395  0.500000  1
  In  In5  1  0.666666  0.333334  0.500000  1
  In  In6  1  0.736606  0.733628  0.500000  1
  In  In7  1  0.266372  0.002978  0.500000  1
  Ir  Ir8  1  0.333333  0.666666  0.500000  1
