# generated using pymatgen
data_EuF10
_symmetry_space_group_name_H-M   'P 1'
_cell_length_a   4.45847125
_cell_length_b   4.46355938
_cell_length_c   10.26189315
_cell_angle_alpha   91.08035961
_cell_angle_beta   80.68885940
_cell_angle_gamma   90.13599896
_symmetry_Int_Tables_number   1
_chemical_formula_structural   EuF10
_chemical_formula_sum   'Eu1 F10'
_cell_volume   201.49175907
_cell_formula_units_Z   1
loop_
 _symmetry_equiv_pos_site_id
 _symmetry_equiv_pos_as_xyz
  1  'x, y, z'
loop_
 _atom_site_type_symbol
 _atom_site_label
 _atom_site_symmetry_multiplicity
 _atom_site_fract_x
 _atom_site_fract_y
 _atom_site_fract_z
 _atom_site_occupancy
  Eu  Eu0  1  0.642201  0.694608  0.280506  1
  F  F1  1  0.320552  0.117057  0.984873  1
  F  F2  1  0.075942  0.183168  0.916268  1
  F  F3  1  0.701299  0.626797  0.829078  1
  F  F4  1  0.079133  0.191525  0.631989  1
  F  F5  1  0.535377  0.681313  0.724344  1
  F  F6  1  0.055240  0.205976  0.495503  1
  F  F7  1  0.566894  0.705237  0.484168  1
  F  F8  1  0.651614  0.194493  0.278291  1
  F  F9  1  0.143203  0.690725  0.278918  1
  F  F10  1  0.715114  0.688001  0.076587  1
