# generated using pymatgen
data_Th4Mg2NiAu3
_symmetry_space_group_name_H-M   'P 1'
_cell_length_a   8.03080764
_cell_length_b   8.03080764
_cell_length_c   3.87948100
_cell_angle_alpha   90.00000000
_cell_angle_beta   90.00000000
_cell_angle_gamma   88.59615256
_symmetry_Int_Tables_number   1
_chemical_formula_structural   Th4Mg2NiAu3
_chemical_formula_sum   'Th4 Mg2 Ni1 Au3'
_cell_volume   250.12764943
_cell_formula_units_Z   1
loop_
 _symmetry_equiv_pos_site_id
 _symmetry_equiv_pos_as_xyz
  1  'x, y, z'
loop_
 _atom_site_type_symbol
 _atom_site_label
 _atom_site_symmetry_multiplicity
 _atom_site_fract_x
 _atom_site_fract_y
 _atom_site_fract_z
 _atom_site_occupancy
  Th  Th0  1  0.322279  0.846037  0.500000  1
  Th  Th1  1  0.829572  0.670428  0.500000  1
  Th  Th2  1  0.193038  0.306962  0.500000  1
  Th  Th3  1  0.653963  0.177721  0.500000  1
  Mg  Mg4  1  0.496860  0.504385  0.000000  1
  Mg  Mg5  1  0.995615  0.003140  0.000000  1
  Ni  Ni6  1  0.372901  0.127099  0.000000  1
  Au  Au7  1  0.135216  0.626214  0.000000  1
  Au  Au8  1  0.626770  0.873230  0.000000  1
  Au  Au9  1  0.873786  0.364784  0.000000  1
