# generated using pymatgen
data_Cs4HoLu3(Bi2Se5)4
_symmetry_space_group_name_H-M   'P 1'
_cell_length_a   4.16006100
_cell_length_b   12.37016425
_cell_length_c   23.17135636
_cell_angle_alpha   90.02157659
_cell_angle_beta   90.00000000
_cell_angle_gamma   90.00000000
_symmetry_Int_Tables_number   1
_chemical_formula_structural   Cs4HoLu3(Bi2Se5)4
_chemical_formula_sum   'Cs4 Ho1 Lu3 Bi8 Se20'
_cell_volume   1192.41269367
_cell_formula_units_Z   1
loop_
 _symmetry_equiv_pos_site_id
 _symmetry_equiv_pos_as_xyz
  1  'x, y, z'
loop_
 _atom_site_type_symbol
 _atom_site_label
 _atom_site_symmetry_multiplicity
 _atom_site_fract_x
 _atom_site_fract_y
 _atom_site_fract_z
 _atom_site_occupancy
  Cs  Cs0  1  0.250000  0.487531  0.209311  1
  Cs  Cs1  1  0.750000  0.512574  0.790655  1
  Cs  Cs2  1  0.750000  0.987194  0.290176  1
  Cs  Cs3  1  0.250000  0.011979  0.709928  1
  Ho  Ho4  1  0.250000  0.135250  0.522701  1
  Lu  Lu5  1  0.250000  0.365127  0.022248  1
  Lu  Lu6  1  0.750000  0.634766  0.977770  1
  Lu  Lu7  1  0.750000  0.864440  0.477333  1
  Bi  Bi8  1  0.250000  0.801847  0.121104  1
  Bi  Bi9  1  0.750000  0.198119  0.878873  1
  Bi  Bi10  1  0.750000  0.302200  0.378413  1
  Bi  Bi11  1  0.250000  0.698259  0.621151  1
  Bi  Bi12  1  0.250000  0.596003  0.426732  1
  Bi  Bi13  1  0.750000  0.404720  0.573567  1
  Bi  Bi14  1  0.750000  0.096425  0.073160  1
  Bi  Bi15  1  0.250000  0.903530  0.926878  1
  Se  Se16  1  0.250000  0.813753  0.396835  1
  Se  Se17  1  0.750000  0.188080  0.605079  1
  Se  Se18  1  0.750000  0.314036  0.102912  1
  Se  Se19  1  0.250000  0.685904  0.897116  1
  Se  Se20  1  0.250000  0.247096  0.302380  1
  Se  Se21  1  0.750000  0.753306  0.697202  1
  Se  Se22  1  0.750000  0.746522  0.197061  1
  Se  Se23  1  0.250000  0.253219  0.802885  1
  Se  Se24  1  0.250000  0.354194  0.480991  1
  Se  Se25  1  0.750000  0.648002  0.518484  1
  Se  Se26  1  0.750000  0.851555  0.018625  1
  Se  Se27  1  0.250000  0.148369  0.981409  1
  Se  Se28  1  0.250000  0.027640  0.153011  1
  Se  Se29  1  0.750000  0.972266  0.847038  1
  Se  Se30  1  0.750000  0.527482  0.346645  1
  Se  Se31  1  0.250000  0.472491  0.653342  1
  Se  Se32  1  0.250000  0.582410  0.055852  1
  Se  Se33  1  0.750000  0.417488  0.944175  1
  Se  Se34  1  0.750000  0.080883  0.442923  1
  Se  Se35  1  0.250000  0.915337  0.556039  1
