# generated using pymatgen
data_Er10BiP2Pb5
_symmetry_space_group_name_H-M   'P 1'
_cell_length_a   9.07740589
_cell_length_b   9.07740482
_cell_length_c   6.76948300
_cell_angle_alpha   90.00000000
_cell_angle_beta   90.00000000
_cell_angle_gamma   120.05086640
_symmetry_Int_Tables_number   1
_chemical_formula_structural   Er10BiP2Pb5
_chemical_formula_sum   'Er10 Bi1 P2 Pb5'
_cell_volume   482.82167773
_cell_formula_units_Z   1
loop_
 _symmetry_equiv_pos_site_id
 _symmetry_equiv_pos_as_xyz
  1  'x, y, z'
loop_
 _atom_site_type_symbol
 _atom_site_label
 _atom_site_symmetry_multiplicity
 _atom_site_fract_x
 _atom_site_fract_y
 _atom_site_fract_z
 _atom_site_occupancy
  Er  Er0  1  0.763882  0.763882  0.250000  1
  Er  Er1  1  0.234960  0.997431  0.250000  1
  Er  Er2  1  0.997431  0.234960  0.250000  1
  Er  Er3  1  0.236241  0.236241  0.750000  1
  Er  Er4  1  0.763170  0.999370  0.750000  1
  Er  Er5  1  0.999370  0.763170  0.750000  1
  Er  Er6  1  0.668389  0.332652  0.501625  1
  Er  Er7  1  0.332652  0.668389  0.501625  1
  Er  Er8  1  0.332652  0.668389  0.998375  1
  Er  Er9  1  0.668389  0.332652  0.998375  1
  Bi  Bi10  1  0.399544  0.399544  0.250000  1
  P  P11  1  0.000688  0.000688  0.499585  1
  P  P12  1  0.000688  0.000688  0.000415  1
  Pb  Pb13  1  0.599563  0.000459  0.250000  1
  Pb  Pb14  1  0.000459  0.599563  0.250000  1
  Pb  Pb15  1  0.600570  0.600570  0.750000  1
  Pb  Pb16  1  0.400720  0.000632  0.750000  1
  Pb  Pb17  1  0.000632  0.400720  0.750000  1
