# generated using pymatgen
data_YbEu3(TaN3)2
_symmetry_space_group_name_H-M   'P 1'
_cell_length_a   6.31047087
_cell_length_b   6.33648749
_cell_length_c   12.44542800
_cell_angle_alpha   88.73757978
_cell_angle_beta   88.66072772
_cell_angle_gamma   123.32862702
_symmetry_Int_Tables_number   1
_chemical_formula_structural   YbEu3(TaN3)2
_chemical_formula_sum   'Yb2 Eu6 Ta4 N12'
_cell_volume   415.32329310
_cell_formula_units_Z   2
loop_
 _symmetry_equiv_pos_site_id
 _symmetry_equiv_pos_as_xyz
  1  'x, y, z'
loop_
 _atom_site_type_symbol
 _atom_site_label
 _atom_site_symmetry_multiplicity
 _atom_site_fract_x
 _atom_site_fract_y
 _atom_site_fract_z
 _atom_site_occupancy
  Yb  Yb0  1  0.442671  0.054114  0.370332  1
  Yb  Yb1  1  0.594074  0.830714  0.077882  1
  Eu  Eu2  1  0.943818  0.539966  0.135699  1
  Eu  Eu3  1  0.156600  0.400919  0.418275  1
  Eu  Eu4  1  0.402071  0.156208  0.920513  1
  Eu  Eu5  1  0.840162  0.606314  0.580276  1
  Eu  Eu6  1  0.062651  0.453308  0.867732  1
  Eu  Eu7  1  0.541822  0.942103  0.631918  1
  Ta  Ta8  1  0.767628  0.768606  0.335006  1
  Ta  Ta9  1  0.236915  0.224773  0.162343  1
  Ta  Ta10  1  0.228785  0.235831  0.662559  1
  Ta  Ta11  1  0.767436  0.770662  0.839243  1
  N  N12  1  0.487354  0.515588  0.750117  1
  N  N13  1  0.508843  0.475639  0.254144  1
  N  N14  1  0.092275  0.910579  0.749845  1
  N  N15  1  0.901738  0.084527  0.242689  1
  N  N16  1  0.988656  0.317553  0.614324  1
  N  N17  1  0.688155  0.007712  0.892144  1
  N  N18  1  0.015720  0.700114  0.385240  1
  N  N19  1  0.320491  0.986416  0.114560  1
  N  N20  1  0.796311  0.594028  0.959734  1
  N  N21  1  0.589478  0.802097  0.454091  1
  N  N22  1  0.223042  0.411093  0.042105  1
  N  N23  1  0.403303  0.211132  0.539229  1
