# generated using pymatgen
data_Dy7Th(InTc)2
_symmetry_space_group_name_H-M   'P 1'
_cell_length_a   9.68295757
_cell_length_b   9.73379299
_cell_length_c   9.70656176
_cell_angle_alpha   59.90722794
_cell_angle_beta   60.08965492
_cell_angle_gamma   59.82617556
_symmetry_Int_Tables_number   1
_chemical_formula_structural   Dy7Th(InTc)2
_chemical_formula_sum   'Dy14 Th2 In4 Tc4'
_cell_volume   646.03250362
_cell_formula_units_Z   2
loop_
 _symmetry_equiv_pos_site_id
 _symmetry_equiv_pos_as_xyz
  1  'x, y, z'
loop_
 _atom_site_type_symbol
 _atom_site_label
 _atom_site_symmetry_multiplicity
 _atom_site_fract_x
 _atom_site_fract_y
 _atom_site_fract_z
 _atom_site_occupancy
  Dy  Dy0  1  0.299289  0.696737  0.307235  1
  Dy  Dy1  1  0.939428  0.940321  0.560726  1
  Dy  Dy2  1  0.153754  0.152958  0.540331  1
  Dy  Dy3  1  0.554567  0.944600  0.556234  1
  Dy  Dy4  1  0.155102  0.150290  0.150788  1
  Dy  Dy5  1  0.303522  0.307796  0.696705  1
  Dy  Dy6  1  0.939428  0.559525  0.560728  1
  Dy  Dy7  1  0.558533  0.557530  0.941229  1
  Dy  Dy8  1  0.558532  0.942709  0.941230  1
  Dy  Dy9  1  0.944486  0.556603  0.942308  1
  Dy  Dy10  1  0.155104  0.543818  0.150789  1
  Dy  Dy11  1  0.303522  0.691977  0.696705  1
  Dy  Dy12  1  0.692372  0.304333  0.698962  1
  Dy  Dy13  1  0.547255  0.152289  0.148169  1
  Th  Th14  1  0.685856  0.308843  0.312625  1
  Th  Th15  1  0.685858  0.692673  0.312625  1
  In  In16  1  0.921027  0.916788  0.245396  1
  In  In17  1  0.249447  0.916685  0.917181  1
  In  In18  1  0.918541  0.247222  0.915248  1
  In  In19  1  0.918541  0.918989  0.915248  1
  Tc  Tc20  1  0.380729  0.357140  0.360701  1
  Tc  Tc21  1  0.896229  0.374212  0.355350  1
  Tc  Tc22  1  0.358145  0.364534  0.912788  1
  Tc  Tc23  1  0.380732  0.901429  0.360700  1
