# generated using pymatgen
data_DyCoAs4Ru5
_symmetry_space_group_name_H-M   'P 1'
_cell_length_a   7.12010629
_cell_length_b   7.06682391
_cell_length_c   3.85886200
_cell_angle_alpha   90.00000000
_cell_angle_beta   90.00000000
_cell_angle_gamma   119.75276242
_symmetry_Int_Tables_number   1
_chemical_formula_structural   DyCoAs4Ru5
_chemical_formula_sum   'Dy1 Co1 As4 Ru5'
_cell_volume   168.56880745
_cell_formula_units_Z   1
loop_
 _symmetry_equiv_pos_site_id
 _symmetry_equiv_pos_as_xyz
  1  'x, y, z'
loop_
 _atom_site_type_symbol
 _atom_site_label
 _atom_site_symmetry_multiplicity
 _atom_site_fract_x
 _atom_site_fract_y
 _atom_site_fract_z
 _atom_site_occupancy
  Dy  Dy0  1  0.996156  0.998078  0.000000  1
  Co  Co1  1  0.594933  0.797466  0.500000  1
  As  As2  1  0.334399  0.667200  0.000000  1
  As  As3  1  0.382370  0.191186  0.500000  1
  As  As4  1  0.807012  0.183186  0.500000  1
  As  As5  1  0.807012  0.623827  0.500000  1
  Ru  Ru6  1  0.540134  0.067419  0.000000  1
  Ru  Ru7  1  0.931273  0.465636  0.000000  1
  Ru  Ru8  1  0.540134  0.472715  0.000000  1
  Ru  Ru9  1  0.199953  0.400172  0.500000  1
  Ru  Ru10  1  0.199953  0.799779  0.500000  1
