# generated using pymatgen
data_Ca5Pr(GaIr)4
_symmetry_space_group_name_H-M   'P 1'
_cell_length_a   5.79366140
_cell_length_b   7.88715539
_cell_length_c   13.84781335
_cell_angle_alpha   90.14695424
_cell_angle_beta   89.92473243
_cell_angle_gamma   90.09852513
_symmetry_Int_Tables_number   1
_chemical_formula_structural   Ca5Pr(GaIr)4
_chemical_formula_sum   'Ca10 Pr2 Ga8 Ir8'
_cell_volume   632.77930250
_cell_formula_units_Z   2
loop_
 _symmetry_equiv_pos_site_id
 _symmetry_equiv_pos_as_xyz
  1  'x, y, z'
loop_
 _atom_site_type_symbol
 _atom_site_label
 _atom_site_symmetry_multiplicity
 _atom_site_fract_x
 _atom_site_fract_y
 _atom_site_fract_z
 _atom_site_occupancy
  Ca  Ca0  1  0.143353  0.897309  0.901095  1
  Ca  Ca1  1  0.858716  0.104691  0.406099  1
  Ca  Ca2  1  0.856376  0.394725  0.595780  1
  Ca  Ca3  1  0.851436  0.392019  0.901679  1
  Ca  Ca4  1  0.860611  0.105029  0.094619  1
  Ca  Ca5  1  0.141920  0.893516  0.596258  1
  Ca  Ca6  1  0.140402  0.607727  0.404561  1
  Ca  Ca7  1  0.372843  0.243031  0.749072  1
  Ca  Ca8  1  0.626215  0.755567  0.252199  1
  Ca  Ca9  1  0.626313  0.744414  0.749227  1
  Pr  Pr10  1  0.142676  0.610052  0.093891  1
  Pr  Pr11  1  0.383187  0.254390  0.252222  1
  Ga  Ga12  1  0.394350  0.249243  0.997909  1
  Ga  Ga13  1  0.605509  0.750724  0.498801  1
  Ga  Ga14  1  0.613962  0.751412  0.998924  1
  Ga  Ga15  1  0.395462  0.249797  0.503080  1
  Ga  Ga16  1  0.863922  0.412237  0.251710  1
  Ga  Ga17  1  0.841087  0.087947  0.749412  1
  Ga  Ga18  1  0.149206  0.903119  0.251411  1
  Ga  Ga19  1  0.157059  0.587749  0.749674  1
  Ir  Ir20  1  0.637485  0.472152  0.095570  1
  Ir  Ir21  1  0.638730  0.027874  0.906596  1
  Ir  Ir22  1  0.357748  0.976309  0.405649  1
  Ir  Ir23  1  0.359557  0.530188  0.592826  1
  Ir  Ir24  1  0.351575  0.530121  0.907953  1
  Ir  Ir25  1  0.357610  0.972327  0.094383  1
  Ir  Ir26  1  0.639080  0.026506  0.593491  1
  Ir  Ir27  1  0.633610  0.469822  0.405909  1
