# generated using pymatgen
data_Ce3TlFe
_symmetry_space_group_name_H-M   'P 1'
_cell_length_a   5.67473900
_cell_length_b   7.09645995
_cell_length_c   7.09645900
_cell_angle_alpha   59.99999044
_cell_angle_beta   90.00000000
_cell_angle_gamma   90.00000000
_symmetry_Int_Tables_number   1
_chemical_formula_structural   Ce3TlFe
_chemical_formula_sum   'Ce6 Tl2 Fe2'
_cell_volume   247.49129920
_cell_formula_units_Z   2
loop_
 _symmetry_equiv_pos_site_id
 _symmetry_equiv_pos_as_xyz
  1  'x, y, z'
loop_
 _atom_site_type_symbol
 _atom_site_label
 _atom_site_symmetry_multiplicity
 _atom_site_fract_x
 _atom_site_fract_y
 _atom_site_fract_z
 _atom_site_occupancy
  Ce  Ce0  1  0.500000  0.181767  0.181767  1
  Ce  Ce1  1  0.500000  0.636466  0.181767  1
  Ce  Ce2  1  0.000000  0.818233  0.363534  1
  Ce  Ce3  1  0.500000  0.181767  0.636466  1
  Ce  Ce4  1  0.000000  0.363534  0.818233  1
  Ce  Ce5  1  0.000000  0.818233  0.818233  1
  Tl  Tl6  1  0.000000  0.333334  0.333334  1
  Tl  Tl7  1  0.500000  0.666666  0.666666  1
  Fe  Fe8  1  0.250000  0.000000  0.000000  1
  Fe  Fe9  1  0.750000  0.000000  0.000000  1
