# generated using pymatgen
data_Gd3CBr5
_symmetry_space_group_name_H-M   'P 1'
_cell_length_a   7.54167279
_cell_length_b   8.93420460
_cell_length_c   9.01467000
_cell_angle_alpha   108.14262034
_cell_angle_beta   97.33098526
_cell_angle_gamma   105.92081219
_symmetry_Int_Tables_number   1
_chemical_formula_structural   Gd3CBr5
_chemical_formula_sum   'Gd6 C2 Br10'
_cell_volume   539.76985550
_cell_formula_units_Z   2
loop_
 _symmetry_equiv_pos_site_id
 _symmetry_equiv_pos_as_xyz
  1  'x, y, z'
loop_
 _atom_site_type_symbol
 _atom_site_label
 _atom_site_symmetry_multiplicity
 _atom_site_fract_x
 _atom_site_fract_y
 _atom_site_fract_z
 _atom_site_occupancy
  Gd  Gd0  1  0.886460  0.955110  0.228872  1
  Gd  Gd1  1  0.113540  0.044890  0.771128  1
  Gd  Gd2  1  0.027001  0.721608  0.916316  1
  Gd  Gd3  1  0.972999  0.278392  0.083684  1
  Gd  Gd4  1  0.611866  0.846955  0.798344  1
  Gd  Gd5  1  0.388134  0.153045  0.201656  1
  C  C6  1  0.905808  0.964997  0.952056  1
  C  C7  1  0.094192  0.035003  0.047944  1
  Br  Br8  1  0.653063  0.529969  0.719175  1
  Br  Br9  1  0.346937  0.470031  0.280825  1
  Br  Br10  1  0.751482  0.914886  0.534282  1
  Br  Br11  1  0.248518  0.085114  0.465718  1
  Br  Br12  1  0.456039  0.818935  0.084170  1
  Br  Br13  1  0.543961  0.181065  0.915830  1
  Br  Br14  1  0.817384  0.267161  0.357499  1
  Br  Br15  1  0.182616  0.732839  0.642501  1
  Br  Br16  1  0.909732  0.627054  0.174957  1
  Br  Br17  1  0.090268  0.372946  0.825043  1
