# generated using pymatgen
data_Dy4HoNb3(Co4P3)4
_symmetry_space_group_name_H-M   'P 1'
_cell_length_a   12.18411500
_cell_length_b   12.18560858
_cell_length_c   3.69714900
_cell_angle_alpha   90.00000000
_cell_angle_beta   90.00000000
_cell_angle_gamma   119.99594282
_symmetry_Int_Tables_number   1
_chemical_formula_structural   Dy4HoNb3(Co4P3)4
_chemical_formula_sum   'Dy4 Ho1 Nb3 Co16 P12'
_cell_volume   475.39712629
_cell_formula_units_Z   1
loop_
 _symmetry_equiv_pos_site_id
 _symmetry_equiv_pos_as_xyz
  1  'x, y, z'
loop_
 _atom_site_type_symbol
 _atom_site_label
 _atom_site_symmetry_multiplicity
 _atom_site_fract_x
 _atom_site_fract_y
 _atom_site_fract_z
 _atom_site_occupancy
  Dy  Dy0  1  0.999984  0.816516  0.500000  1
  Dy  Dy1  1  0.183467  0.183484  0.500000  1
  Dy  Dy2  1  0.333355  0.666679  0.000000  1
  Dy  Dy3  1  0.666677  0.333321  0.000000  1
  Ho  Ho4  1  0.816447  0.000000  0.500000  1
  Nb  Nb5  1  0.444371  0.000000  0.000000  1
  Nb  Nb6  1  0.999881  0.444299  0.000000  1
  Nb  Nb7  1  0.555581  0.555701  0.000000  1
  Co  Co8  1  0.279373  0.000000  0.500000  1
  Co  Co9  1  0.999774  0.279076  0.500000  1
  Co  Co10  1  0.720698  0.720924  0.500000  1
  Co  Co11  1  0.626404  0.803406  0.000000  1
  Co  Co12  1  0.196860  0.823044  0.000000  1
  Co  Co13  1  0.176930  0.373770  0.000000  1
  Co  Co14  1  0.373817  0.176956  0.000000  1
  Co  Co15  1  0.803160  0.626230  0.000000  1
  Co  Co16  1  0.822998  0.196594  0.000000  1
  Co  Co17  1  0.519784  0.873128  0.500000  1
  Co  Co18  1  0.126866  0.646486  0.500000  1
  Co  Co19  1  0.353532  0.480346  0.500000  1
  Co  Co20  1  0.480381  0.353514  0.500000  1
  Co  Co21  1  0.873186  0.519654  0.500000  1
  Co  Co22  1  0.646656  0.126872  0.500000  1
  Co  Co23  1  0.999773  0.000000  0.000000  1
  P  P24  1  0.178449  0.000000  0.000000  1
  P  P25  1  0.999655  0.178175  0.000000  1
  P  P26  1  0.821480  0.821825  0.000000  1
  P  P27  1  0.520594  0.688488  0.500000  1
  P  P28  1  0.311556  0.832138  0.500000  1
  P  P29  1  0.167842  0.479318  0.500000  1
  P  P30  1  0.479417  0.167862  0.500000  1
  P  P31  1  0.688524  0.520682  0.500000  1
  P  P32  1  0.832106  0.311512  0.500000  1
  P  P33  1  0.644341  0.000000  0.000000  1
  P  P34  1  0.999993  0.643906  0.000000  1
  P  P35  1  0.356087  0.356094  0.000000  1
