# generated using pymatgen
data_Ho2Er3Ta3(Co4P3)4
_symmetry_space_group_name_H-M   'P 1'
_cell_length_a   12.15184600
_cell_length_b   12.15184534
_cell_length_c   3.69043300
_cell_angle_alpha   90.00000000
_cell_angle_beta   90.00000000
_cell_angle_gamma   120.00000724
_symmetry_Int_Tables_number   1
_chemical_formula_structural   Ho2Er3Ta3(Co4P3)4
_chemical_formula_sum   'Ho2 Er3 Ta3 Co16 P12'
_cell_volume   471.94611536
_cell_formula_units_Z   1
loop_
 _symmetry_equiv_pos_site_id
 _symmetry_equiv_pos_as_xyz
  1  'x, y, z'
loop_
 _atom_site_type_symbol
 _atom_site_label
 _atom_site_symmetry_multiplicity
 _atom_site_fract_x
 _atom_site_fract_y
 _atom_site_fract_z
 _atom_site_occupancy
  Ho  Ho0  1  0.666667  0.333333  0.000000  1
  Ho  Ho1  1  0.333333  0.666667  0.000000  1
  Er  Er2  1  0.816299  0.816299  0.500000  1
  Er  Er3  1  0.183701  0.000000  0.500000  1
  Er  Er4  1  0.000000  0.183701  0.500000  1
  Ta  Ta5  1  0.443443  0.443443  0.000000  1
  Ta  Ta6  1  0.556557  0.000000  0.000000  1
  Ta  Ta7  1  0.000000  0.556557  0.000000  1
  Co  Co8  1  0.873507  0.354962  0.500000  1
  Co  Co9  1  0.645038  0.518545  0.500000  1
  Co  Co10  1  0.481455  0.126493  0.500000  1
  Co  Co11  1  0.354962  0.873507  0.500000  1
  Co  Co12  1  0.518545  0.645038  0.500000  1
  Co  Co13  1  0.126493  0.481455  0.500000  1
  Co  Co14  1  0.802646  0.176795  0.000000  1
  Co  Co15  1  0.823205  0.625849  0.000000  1
  Co  Co16  1  0.374151  0.197354  0.000000  1
  Co  Co17  1  0.176795  0.802646  0.000000  1
  Co  Co18  1  0.625849  0.823205  0.000000  1
  Co  Co19  1  0.197354  0.374151  0.000000  1
  Co  Co20  1  0.279783  0.279783  0.500000  1
  Co  Co21  1  0.720217  0.000000  0.500000  1
  Co  Co22  1  0.000000  0.720217  0.500000  1
  Co  Co23  1  0.000000  0.000000  0.000000  1
  P  P24  1  0.688409  0.168429  0.500000  1
  P  P25  1  0.831571  0.519978  0.500000  1
  P  P26  1  0.480022  0.311591  0.500000  1
  P  P27  1  0.168429  0.688409  0.500000  1
  P  P28  1  0.519978  0.831571  0.500000  1
  P  P29  1  0.311591  0.480022  0.500000  1
  P  P30  1  0.177244  0.177244  0.000000  1
  P  P31  1  0.822756  0.000000  0.000000  1
  P  P32  1  0.000000  0.822756  0.000000  1
  P  P33  1  0.644884  0.644884  0.000000  1
  P  P34  1  0.355116  0.000000  0.000000  1
  P  P35  1  0.000000  0.355116  0.000000  1
