# generated using pymatgen
data_Rb8Tb6PtI20
_symmetry_space_group_name_H-M   'P 1'
_cell_length_a   13.28412686
_cell_length_b   13.28412809
_cell_length_c   13.28412700
_cell_angle_alpha   60.00000022
_cell_angle_beta   59.99999716
_cell_angle_gamma   59.99999685
_symmetry_Int_Tables_number   1
_chemical_formula_structural   Rb8Tb6PtI20
_chemical_formula_sum   'Rb8 Tb6 Pt1 I20'
_cell_volume   1657.61653777
_cell_formula_units_Z   1
loop_
 _symmetry_equiv_pos_site_id
 _symmetry_equiv_pos_as_xyz
  1  'x, y, z'
loop_
 _atom_site_type_symbol
 _atom_site_label
 _atom_site_symmetry_multiplicity
 _atom_site_fract_x
 _atom_site_fract_y
 _atom_site_fract_z
 _atom_site_occupancy
  Rb  Rb0  1  0.359251  0.359252  0.359251  1
  Rb  Rb1  1  0.640749  0.640748  0.640749  1
  Rb  Rb2  1  0.359270  0.359270  0.922238  1
  Rb  Rb3  1  0.359268  0.922239  0.359270  1
  Rb  Rb4  1  0.640730  0.640730  0.077762  1
  Rb  Rb5  1  0.640732  0.077761  0.640730  1
  Rb  Rb6  1  0.922237  0.359269  0.359271  1
  Rb  Rb7  1  0.077763  0.640731  0.640729  1
  Tb  Tb8  1  0.848505  0.151160  0.151161  1
  Tb  Tb9  1  0.151495  0.848840  0.848839  1
  Tb  Tb10  1  0.151161  0.848506  0.151160  1
  Tb  Tb11  1  0.848839  0.151494  0.848840  1
  Tb  Tb12  1  0.151162  0.151161  0.848504  1
  Tb  Tb13  1  0.848838  0.848839  0.151496  1
  Pt  Pt14  1  0.000000  0.000000  0.000000  1
  I  I15  1  0.331278  0.000017  0.000017  1
  I  I16  1  0.668722  0.999983  0.999983  1
  I  I17  1  0.000000  0.331377  0.668622  1
  I  I18  1  0.000000  0.668623  0.331378  1
  I  I19  1  0.000017  0.331278  0.000017  1
  I  I20  1  0.668623  0.000000  0.331378  1
  I  I21  1  0.999983  0.668722  0.999983  1
  I  I22  1  0.331377  0.000000  0.668622  1
  I  I23  1  0.000017  0.000017  0.331278  1
  I  I24  1  0.999983  0.999983  0.668722  1
  I  I25  1  0.668623  0.331377  0.000000  1
  I  I26  1  0.331377  0.668623  0.000000  1
  I  I27  1  0.679672  0.320267  0.320267  1
  I  I28  1  0.320328  0.679733  0.679733  1
  I  I29  1  0.320267  0.679671  0.320267  1
  I  I30  1  0.679733  0.320329  0.679733  1
  I  I31  1  0.320267  0.320267  0.679671  1
  I  I32  1  0.679733  0.679733  0.320329  1
  I  I33  1  0.249991  0.249991  0.249991  1
  I  I34  1  0.750009  0.750009  0.750009  1
