# generated using pymatgen
data_DyYI6
_symmetry_space_group_name_H-M   'P 1'
_cell_length_a   8.76385932
_cell_length_b   8.76385986
_cell_length_c   8.76385816
_cell_angle_alpha   52.10919600
_cell_angle_beta   52.10919406
_cell_angle_gamma   52.10919728
_symmetry_Int_Tables_number   1
_chemical_formula_structural   DyYI6
_chemical_formula_sum   'Dy1 Y1 I6'
_cell_volume   387.68905646
_cell_formula_units_Z   1
loop_
 _symmetry_equiv_pos_site_id
 _symmetry_equiv_pos_as_xyz
  1  'x, y, z'
loop_
 _atom_site_type_symbol
 _atom_site_label
 _atom_site_symmetry_multiplicity
 _atom_site_fract_x
 _atom_site_fract_y
 _atom_site_fract_z
 _atom_site_occupancy
  Dy  Dy0  1  0.166409  0.166409  0.166409  1
  Y  Y1  1  0.833592  0.833592  0.833592  1
  I  I2  1  0.577444  0.221568  0.935356  1
  I  I3  1  0.778567  0.064777  0.422287  1
  I  I4  1  0.064777  0.422287  0.778567  1
  I  I5  1  0.422287  0.778567  0.064777  1
  I  I6  1  0.935356  0.577444  0.221568  1
  I  I7  1  0.221568  0.935356  0.577444  1
