# generated using pymatgen
data_Rb2TiBe3As4
_symmetry_space_group_name_H-M   'P 1'
_cell_length_a   7.84750338
_cell_length_b   7.84750376
_cell_length_c   5.58806800
_cell_angle_alpha   90.00000000
_cell_angle_beta   90.00000000
_cell_angle_gamma   138.28556819
_symmetry_Int_Tables_number   1
_chemical_formula_structural   Rb2TiBe3As4
_chemical_formula_sum   'Rb2 Ti1 Be3 As4'
_cell_volume   228.99158917
_cell_formula_units_Z   1
loop_
 _symmetry_equiv_pos_site_id
 _symmetry_equiv_pos_as_xyz
  1  'x, y, z'
loop_
 _atom_site_type_symbol
 _atom_site_label
 _atom_site_symmetry_multiplicity
 _atom_site_fract_x
 _atom_site_fract_y
 _atom_site_fract_z
 _atom_site_occupancy
  Rb  Rb0  1  0.500000  0.000000  0.252814  1
  Rb  Rb1  1  0.000000  0.500000  0.747186  1
  Ti  Ti2  1  0.000000  0.000000  0.000000  1
  Be  Be3  1  0.500000  0.500000  0.500000  1
  Be  Be4  1  0.500000  0.500000  0.000000  1
  Be  Be5  1  0.000000  0.000000  0.500000  1
  As  As6  1  0.649249  0.832683  0.741570  1
  As  As7  1  0.167317  0.350751  0.258430  1
  As  As8  1  0.832683  0.649249  0.258430  1
  As  As9  1  0.350751  0.167317  0.741570  1
