# generated using pymatgen
data_Ac8Tb9Er3Pb16
_symmetry_space_group_name_H-M   'P 1'
_cell_length_a   8.50192933
_cell_length_b   8.57522112
_cell_length_c   16.26226400
_cell_angle_alpha   90.00000000
_cell_angle_beta   90.00000000
_cell_angle_gamma   89.97637786
_symmetry_Int_Tables_number   1
_chemical_formula_structural   Ac8Tb9Er3Pb16
_chemical_formula_sum   'Ac8 Tb9 Er3 Pb16'
_cell_volume   1185.61528262
_cell_formula_units_Z   1
loop_
 _symmetry_equiv_pos_site_id
 _symmetry_equiv_pos_as_xyz
  1  'x, y, z'
loop_
 _atom_site_type_symbol
 _atom_site_label
 _atom_site_symmetry_multiplicity
 _atom_site_fract_x
 _atom_site_fract_y
 _atom_site_fract_z
 _atom_site_occupancy
  Ac  Ac0  1  0.520195  0.323179  0.904053  1
  Ac  Ac1  1  0.019772  0.176369  0.595614  1
  Ac  Ac2  1  0.480011  0.676606  0.404079  1
  Ac  Ac3  1  0.980089  0.823327  0.095782  1
  Ac  Ac4  1  0.480011  0.676606  0.095921  1
  Ac  Ac5  1  0.980089  0.823327  0.404218  1
  Ac  Ac6  1  0.520195  0.323179  0.595947  1
  Ac  Ac7  1  0.019772  0.176369  0.904386  1
  Tb  Tb8  1  0.360380  0.843745  0.876703  1
  Tb  Tb9  1  0.859786  0.656347  0.623186  1
  Tb  Tb10  1  0.639816  0.156501  0.376497  1
  Tb  Tb11  1  0.139929  0.344085  0.123479  1
  Tb  Tb12  1  0.639816  0.156501  0.123503  1
  Tb  Tb13  1  0.139929  0.344085  0.376521  1
  Tb  Tb14  1  0.360380  0.843745  0.623297  1
  Tb  Tb15  1  0.859786  0.656347  0.876814  1
  Tb  Tb16  1  0.195452  0.504748  0.750000  1
  Er  Er17  1  0.695319  0.994597  0.750000  1
  Er  Er18  1  0.804475  0.494672  0.250000  1
  Er  Er19  1  0.304586  0.005397  0.250000  1
  Pb  Pb20  1  0.304683  0.045922  0.046336  1
  Pb  Pb21  1  0.804265  0.454161  0.453599  1
  Pb  Pb22  1  0.695361  0.954326  0.546030  1
  Pb  Pb23  1  0.195627  0.545840  0.954237  1
  Pb  Pb24  1  0.695361  0.954326  0.953970  1
  Pb  Pb25  1  0.195627  0.545840  0.545763  1
  Pb  Pb26  1  0.304683  0.045922  0.453664  1
  Pb  Pb27  1  0.804265  0.454161  0.046401  1
  Pb  Pb28  1  0.555561  0.635295  0.750000  1
  Pb  Pb29  1  0.053654  0.865753  0.750000  1
  Pb  Pb30  1  0.445670  0.365225  0.250000  1
  Pb  Pb31  1  0.945852  0.134599  0.250000  1
  Pb  Pb32  1  0.331347  0.145329  0.750000  1
  Pb  Pb33  1  0.831038  0.353304  0.750000  1
  Pb  Pb34  1  0.668576  0.853489  0.250000  1
  Pb  Pb35  1  0.168639  0.646773  0.250000  1
