# generated using pymatgen
data_Hf8In4PdAu7
_symmetry_space_group_name_H-M   'P 1'
_cell_length_a   7.58325216
_cell_length_b   7.58325216
_cell_length_c   7.02064319
_cell_angle_alpha   90.04708530
_cell_angle_beta   89.95291470
_cell_angle_gamma   89.87488946
_symmetry_Int_Tables_number   1
_chemical_formula_structural   Hf8In4PdAu7
_chemical_formula_sum   'Hf8 In4 Pd1 Au7'
_cell_volume   403.72585881
_cell_formula_units_Z   1
loop_
 _symmetry_equiv_pos_site_id
 _symmetry_equiv_pos_as_xyz
  1  'x, y, z'
loop_
 _atom_site_type_symbol
 _atom_site_label
 _atom_site_symmetry_multiplicity
 _atom_site_fract_x
 _atom_site_fract_y
 _atom_site_fract_z
 _atom_site_occupancy
  Hf  Hf0  1  0.150584  0.141645  0.996026  1
  Hf  Hf1  1  0.858355  0.849416  0.996026  1
  Hf  Hf2  1  0.646129  0.353871  0.499562  1
  Hf  Hf3  1  0.350162  0.649838  0.503799  1
  Hf  Hf4  1  0.694865  0.305135  0.999399  1
  Hf  Hf5  1  0.300325  0.699675  0.995831  1
  Hf  Hf6  1  0.810477  0.805075  0.503041  1
  Hf  Hf7  1  0.194925  0.189523  0.503041  1
  In  In8  1  0.501415  0.999864  0.249436  1
  In  In9  1  0.495194  0.998543  0.748249  1
  In  In10  1  0.000136  0.498585  0.249436  1
  In  In11  1  0.001457  0.504806  0.748249  1
  Pd  Pd12  1  0.129421  0.870579  0.707656  1
  Au  Au13  1  0.368122  0.371094  0.208764  1
  Au  Au14  1  0.629143  0.630587  0.794344  1
  Au  Au15  1  0.628906  0.631878  0.208764  1
  Au  Au16  1  0.870534  0.129466  0.706917  1
  Au  Au17  1  0.870216  0.129784  0.291749  1
  Au  Au18  1  0.369413  0.370857  0.794344  1
  Au  Au19  1  0.130221  0.869779  0.295367  1
