# generated using pymatgen
data_Th2Zn2Si4IrPt
_symmetry_space_group_name_H-M   'P 1'
_cell_length_a   4.27713900
_cell_length_b   4.27713900
_cell_length_c   9.97825500
_cell_angle_alpha   90.00000000
_cell_angle_beta   90.00000000
_cell_angle_gamma   90.00000000
_symmetry_Int_Tables_number   1
_chemical_formula_structural   Th2Zn2Si4IrPt
_chemical_formula_sum   'Th2 Zn2 Si4 Ir1 Pt1'
_cell_volume   182.54137901
_cell_formula_units_Z   1
loop_
 _symmetry_equiv_pos_site_id
 _symmetry_equiv_pos_as_xyz
  1  'x, y, z'
loop_
 _atom_site_type_symbol
 _atom_site_label
 _atom_site_symmetry_multiplicity
 _atom_site_fract_x
 _atom_site_fract_y
 _atom_site_fract_z
 _atom_site_occupancy
  Th  Th0  1  0.000000  0.500000  0.256950  1
  Th  Th1  1  0.500000  0.000000  0.736843  1
  Zn  Zn2  1  0.000000  0.000000  0.000236  1
  Zn  Zn3  1  0.500000  0.500000  0.000236  1
  Si  Si4  1  0.000000  0.000000  0.497425  1
  Si  Si5  1  0.500000  0.500000  0.497425  1
  Si  Si6  1  0.000000  0.500000  0.861442  1
  Si  Si7  1  0.500000  0.000000  0.145348  1
  Ir  Ir8  1  0.500000  0.000000  0.383730  1
  Pt  Pt9  1  0.000000  0.500000  0.620365  1
