# generated using pymatgen
data_Nd3SmMgAl17Pd6
_symmetry_space_group_name_H-M   'P 1'
_cell_length_a   7.72751239
_cell_length_b   7.74428052
_cell_length_c   9.61464000
_cell_angle_alpha   90.09047121
_cell_angle_beta   89.93167206
_cell_angle_gamma   119.55386228
_symmetry_Int_Tables_number   1
_chemical_formula_structural   Nd3SmMgAl17Pd6
_chemical_formula_sum   'Nd3 Sm1 Mg1 Al17 Pd6'
_cell_volume   500.51691417
_cell_formula_units_Z   1
loop_
 _symmetry_equiv_pos_site_id
 _symmetry_equiv_pos_as_xyz
  1  'x, y, z'
loop_
 _atom_site_type_symbol
 _atom_site_label
 _atom_site_symmetry_multiplicity
 _atom_site_fract_x
 _atom_site_fract_y
 _atom_site_fract_z
 _atom_site_occupancy
  Nd  Nd0  1  0.995287  0.674603  0.251847  1
  Nd  Nd1  1  0.004659  0.330603  0.748552  1
  Nd  Nd2  1  0.666044  0.987978  0.251873  1
  Sm  Sm3  1  0.330275  0.006233  0.749562  1
  Mg  Mg4  1  0.997452  0.334319  0.078107  1
  Al  Al5  1  0.134059  0.129914  0.250934  1
  Al  Al6  1  0.868394  0.867748  0.750928  1
  Al  Al7  1  0.999531  0.664988  0.924099  1
  Al  Al8  1  0.998888  0.666526  0.576760  1
  Al  Al9  1  0.335497  0.003445  0.427210  1
  Al  Al10  1  0.003343  0.334722  0.420551  1
  Al  Al11  1  0.664317  0.997730  0.576849  1
  Al  Al12  1  0.665903  0.999584  0.924474  1
  Al  Al13  1  0.335125  0.003056  0.072512  1
  Al  Al14  1  0.334367  0.334008  0.556788  1
  Al  Al15  1  0.665097  0.664479  0.449079  1
  Al  Al16  1  0.665166  0.664370  0.048960  1
  Al  Al17  1  0.331750  0.333755  0.943136  1
  Al  Al18  1  0.343081  0.544497  0.250653  1
  Al  Al19  1  0.658959  0.455926  0.748975  1
  Al  Al20  1  0.548860  0.337798  0.248896  1
  Al  Al21  1  0.454550  0.663363  0.750989  1
  Pd  Pd22  1  0.660204  0.327161  0.994707  1
  Pd  Pd23  1  0.335617  0.678305  0.999527  1
  Pd  Pd24  1  0.329421  0.671501  0.501846  1
  Pd  Pd25  1  0.671555  0.329053  0.501132  1
  Pd  Pd26  1  0.001643  0.994013  0.997993  1
  Pd  Pd27  1  0.000958  0.000322  0.503063  1
