# generated using pymatgen
data_Y3Er13(In3Os)2
_symmetry_space_group_name_H-M   'P 1'
_cell_length_a   10.33010800
_cell_length_b   10.33010754
_cell_length_c   7.07944000
_cell_angle_alpha   90.00000000
_cell_angle_beta   90.00000000
_cell_angle_gamma   119.99999506
_symmetry_Int_Tables_number   1
_chemical_formula_structural   Y3Er13(In3Os)2
_chemical_formula_sum   'Y3 Er13 In6 Os2'
_cell_volume   654.24326938
_cell_formula_units_Z   1
loop_
 _symmetry_equiv_pos_site_id
 _symmetry_equiv_pos_as_xyz
  1  'x, y, z'
loop_
 _atom_site_type_symbol
 _atom_site_label
 _atom_site_symmetry_multiplicity
 _atom_site_fract_x
 _atom_site_fract_y
 _atom_site_fract_z
 _atom_site_occupancy
  Y  Y0  1  0.532499  0.064998  0.793518  1
  Y  Y1  1  0.935002  0.467501  0.793518  1
  Y  Y2  1  0.532499  0.467501  0.793518  1
  Er  Er3  1  0.466215  0.932432  0.293747  1
  Er  Er4  1  0.067568  0.533785  0.293747  1
  Er  Er5  1  0.466215  0.533785  0.293747  1
  Er  Er6  1  0.822708  0.645416  0.497020  1
  Er  Er7  1  0.354584  0.177292  0.497020  1
  Er  Er8  1  0.822708  0.177292  0.497020  1
  Er  Er9  1  0.177174  0.354347  0.999960  1
  Er  Er10  1  0.645653  0.822826  0.999960  1
  Er  Er11  1  0.177174  0.822826  0.999960  1
  Er  Er12  1  0.666667  0.333333  0.171861  1
  Er  Er13  1  0.333333  0.666667  0.671252  1
  Er  Er14  1  0.000000  0.000000  0.777710  1
  Er  Er15  1  0.000000  0.000000  0.277534  1
  In  In16  1  0.837061  0.674123  0.041543  1
  In  In17  1  0.325877  0.162939  0.041543  1
  In  In18  1  0.837061  0.162939  0.041543  1
  In  In19  1  0.163209  0.326418  0.541897  1
  In  In20  1  0.673582  0.836791  0.541897  1
  In  In21  1  0.163209  0.836791  0.541897  1
  Os  Os22  1  0.666667  0.333333  0.566231  1
  Os  Os23  1  0.333333  0.666667  0.068264  1
