# generated using pymatgen
data_Tb2Nd(ZnPt)4
_symmetry_space_group_name_H-M   'P 1'
_cell_length_a   8.27892953
_cell_length_b   8.27893005
_cell_length_c   8.27892842
_cell_angle_alpha   151.64014074
_cell_angle_beta   125.84819354
_cell_angle_gamma   62.24956080
_symmetry_Int_Tables_number   1
_chemical_formula_structural   Tb2Nd(ZnPt)4
_chemical_formula_sum   'Tb2 Nd1 Zn4 Pt4'
_cell_volume   216.65137586
_cell_formula_units_Z   1
loop_
 _symmetry_equiv_pos_site_id
 _symmetry_equiv_pos_as_xyz
  1  'x, y, z'
loop_
 _atom_site_type_symbol
 _atom_site_label
 _atom_site_symmetry_multiplicity
 _atom_site_fract_x
 _atom_site_fract_y
 _atom_site_fract_z
 _atom_site_occupancy
  Tb  Tb0  1  0.874613  0.874613  0.000000  1
  Tb  Tb1  1  0.125387  0.125387  0.000000  1
  Nd  Nd2  1  0.500000  0.000000  0.500000  1
  Zn  Zn3  1  0.477039  0.673856  0.803183  1
  Zn  Zn4  1  0.870675  0.673856  0.196817  1
  Zn  Zn5  1  0.129325  0.326144  0.803183  1
  Zn  Zn6  1  0.522961  0.326144  0.196817  1
  Pt  Pt7  1  0.277589  0.777589  0.500000  1
  Pt  Pt8  1  0.722411  0.222411  0.500000  1
  Pt  Pt9  1  0.808883  0.500000  0.308883  1
  Pt  Pt10  1  0.191117  0.500000  0.691117  1
