# generated using pymatgen
data_Sm2Dy6Cu3Si12Rh
_symmetry_space_group_name_H-M   'P 1'
_cell_length_a   8.05453000
_cell_length_b   8.05453072
_cell_length_c   8.19004000
_cell_angle_alpha   90.00000000
_cell_angle_beta   90.00000000
_cell_angle_gamma   119.99998884
_symmetry_Int_Tables_number   1
_chemical_formula_structural   Sm2Dy6Cu3Si12Rh
_chemical_formula_sum   'Sm2 Dy6 Cu3 Si12 Rh1'
_cell_volume   460.14758691
_cell_formula_units_Z   1
loop_
 _symmetry_equiv_pos_site_id
 _symmetry_equiv_pos_as_xyz
  1  'x, y, z'
loop_
 _atom_site_type_symbol
 _atom_site_label
 _atom_site_symmetry_multiplicity
 _atom_site_fract_x
 _atom_site_fract_y
 _atom_site_fract_z
 _atom_site_occupancy
  Sm  Sm0  1  0.000000  0.000000  0.249996  1
  Sm  Sm1  1  0.000000  0.000000  0.749934  1
  Dy  Dy2  1  0.999452  0.499725  0.251838  1
  Dy  Dy3  1  0.500275  0.499725  0.251838  1
  Dy  Dy4  1  0.501130  0.002259  0.748165  1
  Dy  Dy5  1  0.500275  0.000548  0.251838  1
  Dy  Dy6  1  0.501130  0.498870  0.748165  1
  Dy  Dy7  1  0.997741  0.498870  0.748165  1
  Cu  Cu8  1  0.333333  0.666667  0.998360  1
  Cu  Cu9  1  0.333333  0.666667  0.500975  1
  Cu  Cu10  1  0.666667  0.333333  0.001413  1
  Si  Si11  1  0.169601  0.339200  0.000066  1
  Si  Si12  1  0.660800  0.830399  0.000066  1
  Si  Si13  1  0.168554  0.337106  0.500421  1
  Si  Si14  1  0.339071  0.169536  0.999941  1
  Si  Si15  1  0.169601  0.830399  0.000066  1
  Si  Si16  1  0.662894  0.831446  0.500421  1
  Si  Si17  1  0.830464  0.660929  0.999941  1
  Si  Si18  1  0.336590  0.168295  0.499468  1
  Si  Si19  1  0.168554  0.831446  0.500421  1
  Si  Si20  1  0.831705  0.663410  0.499468  1
  Si  Si21  1  0.830464  0.169536  0.999941  1
  Si  Si22  1  0.831705  0.168295  0.499468  1
  Rh  Rh23  1  0.666667  0.333333  0.499620  1
