# generated using pymatgen
data_Ta3Nb13(CoTe4)4
_symmetry_space_group_name_H-M   'P 1'
_cell_length_a   4.83418900
_cell_length_b   10.97545207
_cell_length_c   19.25063721
_cell_angle_alpha   89.94729419
_cell_angle_beta   90.00000000
_cell_angle_gamma   90.00000000
_symmetry_Int_Tables_number   1
_chemical_formula_structural   Ta3Nb13(CoTe4)4
_chemical_formula_sum   'Ta3 Nb13 Co4 Te16'
_cell_volume   1021.38851203
_cell_formula_units_Z   1
loop_
 _symmetry_equiv_pos_site_id
 _symmetry_equiv_pos_as_xyz
  1  'x, y, z'
loop_
 _atom_site_type_symbol
 _atom_site_label
 _atom_site_symmetry_multiplicity
 _atom_site_fract_x
 _atom_site_fract_y
 _atom_site_fract_z
 _atom_site_occupancy
  Ta  Ta0  1  0.000000  0.685992  0.444285  1
  Ta  Ta1  1  0.000000  0.313833  0.555556  1
  Ta  Ta2  1  0.000000  0.186006  0.055573  1
  Nb  Nb3  1  0.500000  0.563150  0.384511  1
  Nb  Nb4  1  0.500000  0.436729  0.615375  1
  Nb  Nb5  1  0.500000  0.062744  0.115608  1
  Nb  Nb6  1  0.500000  0.935724  0.884967  1
  Nb  Nb7  1  0.500000  0.702718  0.536316  1
  Nb  Nb8  1  0.500000  0.297086  0.463549  1
  Nb  Nb9  1  0.500000  0.202658  0.963158  1
  Nb  Nb10  1  0.500000  0.797108  0.035946  1
  Nb  Nb11  1  0.000000  0.811472  0.943757  1
  Nb  Nb12  1  0.000000  0.401464  0.392722  1
  Nb  Nb13  1  0.000000  0.598306  0.607092  1
  Nb  Nb14  1  0.000000  0.902180  0.107323  1
  Nb  Nb15  1  0.000000  0.098559  0.892954  1
  Co  Co16  1  0.249011  0.499879  0.499883  1
  Co  Co17  1  0.750415  0.001863  0.000619  1
  Co  Co18  1  0.750989  0.499879  0.499883  1
  Co  Co19  1  0.249585  0.001863  0.000619  1
  Te  Te20  1  0.000000  0.846473  0.561400  1
  Te  Te21  1  0.000000  0.153328  0.438438  1
  Te  Te22  1  0.000000  0.346814  0.938600  1
  Te  Te23  1  0.000000  0.654135  0.062521  1
  Te  Te24  1  0.500000  0.332023  0.316633  1
  Te  Te25  1  0.500000  0.667841  0.683262  1
  Te  Te26  1  0.500000  0.832215  0.183317  1
  Te  Te27  1  0.500000  0.167659  0.816724  1
  Te  Te28  1  0.500000  0.821698  0.404038  1
  Te  Te29  1  0.500000  0.178123  0.595795  1
  Te  Te30  1  0.500000  0.321393  0.095563  1
  Te  Te31  1  0.500000  0.677324  0.904227  1
  Te  Te32  1  0.000000  0.608810  0.302647  1
  Te  Te33  1  0.000000  0.390972  0.697199  1
  Te  Te34  1  0.000000  0.109640  0.197312  1
  Te  Te35  1  0.000000  0.892340  0.802626  1
