# generated using pymatgen
data_LaNd5Cu2(SnSe7)2
_symmetry_space_group_name_H-M   'P 1'
_cell_length_a   10.67733496
_cell_length_b   10.68836439
_cell_length_c   6.34427669
_cell_angle_alpha   90.07986111
_cell_angle_beta   89.87820567
_cell_angle_gamma   120.21142128
_symmetry_Int_Tables_number   1
_chemical_formula_structural   LaNd5Cu2(SnSe7)2
_chemical_formula_sum   'La1 Nd5 Cu2 Sn2 Se14'
_cell_volume   625.68634346
_cell_formula_units_Z   1
loop_
 _symmetry_equiv_pos_site_id
 _symmetry_equiv_pos_as_xyz
  1  'x, y, z'
loop_
 _atom_site_type_symbol
 _atom_site_label
 _atom_site_symmetry_multiplicity
 _atom_site_fract_x
 _atom_site_fract_y
 _atom_site_fract_z
 _atom_site_occupancy
  La  La0  1  0.137099  0.781388  0.962372  1
  Nd  Nd1  1  0.218574  0.355399  0.961335  1
  Nd  Nd2  1  0.781066  0.645170  0.461671  1
  Nd  Nd3  1  0.863564  0.218200  0.461093  1
  Nd  Nd4  1  0.644671  0.863442  0.961101  1
  Nd  Nd5  1  0.355263  0.137297  0.461062  1
  Cu  Cu6  1  0.000040  0.999967  0.501439  1
  Cu  Cu7  1  0.999697  0.000476  0.001588  1
  Sn  Sn8  1  0.665499  0.332778  0.884435  1
  Sn  Sn9  1  0.333536  0.666645  0.383927  1
  Se  Se10  1  0.100530  0.844184  0.488353  1
  Se  Se11  1  0.156372  0.256896  0.492849  1
  Se  Se12  1  0.841827  0.743553  0.991260  1
  Se  Se13  1  0.898861  0.156264  0.992145  1
  Se  Se14  1  0.743015  0.898831  0.492427  1
  Se  Se15  1  0.257250  0.103352  0.993130  1
  Se  Se16  1  0.570345  0.084138  0.709277  1
  Se  Se17  1  0.486531  0.571378  0.209196  1
  Se  Se18  1  0.513518  0.428826  0.709400  1
  Se  Se19  1  0.666849  0.333549  0.282313  1
  Se  Se20  1  0.335494  0.665163  0.781459  1
  Se  Se21  1  0.432126  0.916964  0.212058  1
  Se  Se22  1  0.083686  0.510392  0.211780  1
  Se  Se23  1  0.914592  0.485747  0.708335  1
