# generated using pymatgen
data_Ho20IrRu4Au7
_symmetry_space_group_name_H-M   'P 1'
_cell_length_a   11.17543056
_cell_length_b   11.17543073
_cell_length_c   6.37431700
_cell_angle_alpha   89.72506701
_cell_angle_beta   89.72506098
_cell_angle_gamma   90.60925093
_symmetry_Int_Tables_number   1
_chemical_formula_structural   Ho20IrRu4Au7
_chemical_formula_sum   'Ho20 Ir1 Ru4 Au7'
_cell_volume   796.02651096
_cell_formula_units_Z   1
loop_
 _symmetry_equiv_pos_site_id
 _symmetry_equiv_pos_as_xyz
  1  'x, y, z'
loop_
 _atom_site_type_symbol
 _atom_site_label
 _atom_site_symmetry_multiplicity
 _atom_site_fract_x
 _atom_site_fract_y
 _atom_site_fract_z
 _atom_site_occupancy
  Ho  Ho0  1  0.301926  0.079947  0.359496  1
  Ho  Ho1  1  0.300357  0.906341  0.861385  1
  Ho  Ho2  1  0.697591  0.082162  0.857921  1
  Ho  Ho3  1  0.696551  0.915780  0.357485  1
  Ho  Ho4  1  0.575548  0.794580  0.857701  1
  Ho  Ho5  1  0.583225  0.200895  0.360439  1
  Ho  Ho6  1  0.411089  0.793198  0.371674  1
  Ho  Ho7  1  0.415674  0.196374  0.861470  1
  Ho  Ho8  1  0.205420  0.424452  0.642299  1
  Ho  Ho9  1  0.206802  0.588911  0.128326  1
  Ho  Ho10  1  0.799105  0.416775  0.139561  1
  Ho  Ho11  1  0.803626  0.584326  0.638530  1
  Ho  Ho12  1  0.920053  0.698074  0.140504  1
  Ho  Ho13  1  0.917838  0.302409  0.642079  1
  Ho  Ho14  1  0.093659  0.699643  0.638615  1
  Ho  Ho15  1  0.084220  0.303449  0.142515  1
  Ho  Ho16  1  0.998876  0.000542  0.500447  1
  Ho  Ho17  1  0.999458  0.001124  0.999553  1
  Ho  Ho18  1  0.493856  0.503082  0.998296  1
  Ho  Ho19  1  0.496918  0.506144  0.501704  1
  Ir  Ir20  1  0.347939  0.652061  0.750000  1
  Ru  Ru21  1  0.499224  0.998869  0.114982  1
  Ru  Ru22  1  0.499082  0.999729  0.612813  1
  Ru  Ru23  1  0.000271  0.500918  0.887187  1
  Ru  Ru24  1  0.001131  0.500776  0.385018  1
  Au  Au25  1  0.844571  0.155429  0.250000  1
  Au  Au26  1  0.843155  0.844374  0.751573  1
  Au  Au27  1  0.155626  0.156845  0.748427  1
  Au  Au28  1  0.154166  0.845834  0.250000  1
  Au  Au29  1  0.653285  0.346715  0.750000  1
  Au  Au30  1  0.656012  0.656256  0.247559  1
  Au  Au31  1  0.343744  0.343988  0.252441  1
