# generated using pymatgen
data_MnCo2P2Ru
_symmetry_space_group_name_H-M   'P 1'
_cell_length_a   3.61044500
_cell_length_b   5.77041674
_cell_length_c   6.70761029
_cell_angle_alpha   90.44966726
_cell_angle_beta   90.00000000
_cell_angle_gamma   90.00000000
_symmetry_Int_Tables_number   1
_chemical_formula_structural   MnCo2P2Ru
_chemical_formula_sum   'Mn2 Co4 P4 Ru2'
_cell_volume   139.74052137
_cell_formula_units_Z   2
loop_
 _symmetry_equiv_pos_site_id
 _symmetry_equiv_pos_as_xyz
  1  'x, y, z'
loop_
 _atom_site_type_symbol
 _atom_site_label
 _atom_site_symmetry_multiplicity
 _atom_site_fract_x
 _atom_site_fract_y
 _atom_site_fract_z
 _atom_site_occupancy
  Mn  Mn0  1  0.750000  0.527640  0.830717  1
  Mn  Mn1  1  0.250000  0.472360  0.169283  1
  Co  Co2  1  0.250000  0.363513  0.567566  1
  Co  Co3  1  0.750000  0.636487  0.432434  1
  Co  Co4  1  0.250000  0.853451  0.934830  1
  Co  Co5  1  0.750000  0.146549  0.065170  1
  P  P6  1  0.250000  0.740355  0.621691  1
  P  P7  1  0.750000  0.259645  0.378309  1
  P  P8  1  0.250000  0.233531  0.877300  1
  P  P9  1  0.750000  0.766469  0.122700  1
  Ru  Ru10  1  0.750000  0.028753  0.666322  1
  Ru  Ru11  1  0.250000  0.971247  0.333678  1
