# generated using pymatgen
data_Er2Pa2(Al8Pt3)3
_symmetry_space_group_name_H-M   'P 1'
_cell_length_a   7.56064727
_cell_length_b   7.56165733
_cell_length_c   13.09124058
_cell_angle_alpha   84.55209370
_cell_angle_beta   101.06209600
_cell_angle_gamma   119.90713053
_symmetry_Int_Tables_number   1
_chemical_formula_structural   Er2Pa2(Al8Pt3)3
_chemical_formula_sum   'Er2 Pa2 Al24 Pt9'
_cell_volume   636.71887993
_cell_formula_units_Z   1
loop_
 _symmetry_equiv_pos_site_id
 _symmetry_equiv_pos_as_xyz
  1  'x, y, z'
loop_
 _atom_site_type_symbol
 _atom_site_label
 _atom_site_symmetry_multiplicity
 _atom_site_fract_x
 _atom_site_fract_y
 _atom_site_fract_z
 _atom_site_occupancy
  Er  Er0  1  0.062146  0.667644  0.192403  1
  Er  Er1  1  0.937854  0.332356  0.807597  1
  Pa  Pa2  1  0.733045  0.998789  0.195081  1
  Pa  Pa3  1  0.266955  0.001211  0.804919  1
  Al  Al4  1  0.807853  0.867813  0.815901  1
  Al  Al5  1  0.192147  0.132187  0.184099  1
  Al  Al6  1  0.981697  0.665541  0.943308  1
  Al  Al7  1  0.018303  0.334459  0.056692  1
  Al  Al8  1  0.399592  0.665288  0.817532  1
  Al  Al9  1  0.600408  0.334712  0.182468  1
  Al  Al10  1  0.879859  0.663110  0.670172  1
  Al  Al11  1  0.120141  0.336890  0.329828  1
  Al  Al12  1  0.601343  0.458503  0.816892  1
  Al  Al13  1  0.398657  0.541497  0.183108  1
  Al  Al14  1  0.229537  0.342772  0.668407  1
  Al  Al15  1  0.770463  0.657228  0.331593  1
  Al  Al16  1  0.852601  0.334284  0.558732  1
  Al  Al17  1  0.186386  0.999357  0.558017  1
  Al  Al18  1  0.813614  0.000643  0.441983  1
  Al  Al19  1  0.351470  0.998706  0.055628  1
  Al  Al20  1  0.648530  0.001294  0.944372  1
  Al  Al21  1  0.558523  0.993926  0.669452  1
  Al  Al22  1  0.441477  0.006074  0.330548  1
  Al  Al23  1  0.519859  0.666232  0.561397  1
  Al  Al24  1  0.480141  0.333768  0.438603  1
  Al  Al25  1  0.684260  0.667957  0.048178  1
  Al  Al26  1  0.315740  0.332043  0.951822  1
  Al  Al27  1  0.147399  0.665716  0.441268  1
  Pt  Pt28  1  0.327581  0.670550  0.000141  1
  Pt  Pt29  1  0.546086  0.324256  0.638662  1
  Pt  Pt30  1  0.453914  0.675744  0.361338  1
  Pt  Pt31  1  0.888921  0.009230  0.639816  1
  Pt  Pt32  1  0.111079  0.990770  0.360184  1
  Pt  Pt33  1  0.672419  0.329450  0.999859  1
  Pt  Pt34  1  0.203990  0.667133  0.640290  1
  Pt  Pt35  1  0.796010  0.332867  0.359710  1
  Pt  Pt36  1  0.000000  0.000000  0.000000  1
