# generated using pymatgen
data_Hf6Ga6CuRh5
_symmetry_space_group_name_H-M   'P 1'
_cell_length_a   7.21795600
_cell_length_b   7.21795578
_cell_length_c   6.75201900
_cell_angle_alpha   90.00000000
_cell_angle_beta   90.00000000
_cell_angle_gamma   120.00000103
_symmetry_Int_Tables_number   1
_chemical_formula_structural   Hf6Ga6CuRh5
_chemical_formula_sum   'Hf6 Ga6 Cu1 Rh5'
_cell_volume   304.64407081
_cell_formula_units_Z   1
loop_
 _symmetry_equiv_pos_site_id
 _symmetry_equiv_pos_as_xyz
  1  'x, y, z'
loop_
 _atom_site_type_symbol
 _atom_site_label
 _atom_site_symmetry_multiplicity
 _atom_site_fract_x
 _atom_site_fract_y
 _atom_site_fract_z
 _atom_site_occupancy
  Hf  Hf0  1  0.606009  0.602364  0.250000  1
  Hf  Hf1  1  0.003953  0.405691  0.750000  1
  Hf  Hf2  1  0.397636  0.003645  0.250000  1
  Hf  Hf3  1  0.996355  0.393991  0.250000  1
  Hf  Hf4  1  0.401738  0.996047  0.750000  1
  Hf  Hf5  1  0.594309  0.598262  0.750000  1
  Ga  Ga6  1  0.266365  0.266306  0.502422  1
  Ga  Ga7  1  0.733694  0.000059  0.502422  1
  Ga  Ga8  1  0.999941  0.733635  0.502422  1
  Ga  Ga9  1  0.733694  0.000059  0.997578  1
  Ga  Ga10  1  0.266365  0.266306  0.997578  1
  Ga  Ga11  1  0.999941  0.733635  0.997578  1
  Cu  Cu12  1  0.000000  0.000000  0.750000  1
  Rh  Rh13  1  0.333333  0.666667  0.494537  1
  Rh  Rh14  1  0.000000  0.000000  0.250000  1
  Rh  Rh15  1  0.333333  0.666667  0.005463  1
  Rh  Rh16  1  0.666667  0.333333  0.506037  1
  Rh  Rh17  1  0.666667  0.333333  0.993963  1
