# generated using pymatgen
data_Ce4ReTc2Os5
_symmetry_space_group_name_H-M   'P 1'
_cell_length_a   5.23964241
_cell_length_b   5.13268434
_cell_length_c   9.17846200
_cell_angle_alpha   90.00000000
_cell_angle_beta   90.00000000
_cell_angle_gamma   114.98569933
_symmetry_Int_Tables_number   1
_chemical_formula_structural   Ce4ReTc2Os5
_chemical_formula_sum   'Ce4 Re1 Tc2 Os5'
_cell_volume   223.73934359
_cell_formula_units_Z   1
loop_
 _symmetry_equiv_pos_site_id
 _symmetry_equiv_pos_as_xyz
  1  'x, y, z'
loop_
 _atom_site_type_symbol
 _atom_site_label
 _atom_site_symmetry_multiplicity
 _atom_site_fract_x
 _atom_site_fract_y
 _atom_site_fract_z
 _atom_site_occupancy
  Ce  Ce0  1  0.333805  0.664972  0.434479  1
  Ce  Ce1  1  0.665343  0.336329  0.564800  1
  Ce  Ce2  1  0.665343  0.336329  0.935200  1
  Ce  Ce3  1  0.333805  0.664972  0.065521  1
  Re  Re4  1  0.833931  0.164188  0.250000  1
  Tc  Tc5  1  0.169836  0.828730  0.750000  1
  Tc  Tc6  1  0.167198  0.337998  0.750000  1
  Os  Os7  1  0.994865  0.005536  0.499910  1
  Os  Os8  1  0.994865  0.005536  0.000090  1
  Os  Os9  1  0.836203  0.656970  0.250000  1
  Os  Os10  1  0.343205  0.164416  0.250000  1
  Os  Os11  1  0.661602  0.834024  0.750000  1
