# generated using pymatgen
data_Tm6P12Ru5Rh13
_symmetry_space_group_name_H-M   'P 1'
_cell_length_a   3.92066700
_cell_length_b   11.25367338
_cell_length_c   12.54053745
_cell_angle_alpha   89.71649016
_cell_angle_beta   90.00000000
_cell_angle_gamma   90.00000000
_symmetry_Int_Tables_number   1
_chemical_formula_structural   Tm6P12Ru5Rh13
_chemical_formula_sum   'Tm6 P12 Ru5 Rh13'
_cell_volume   553.30563894
_cell_formula_units_Z   1
loop_
 _symmetry_equiv_pos_site_id
 _symmetry_equiv_pos_as_xyz
  1  'x, y, z'
loop_
 _atom_site_type_symbol
 _atom_site_label
 _atom_site_symmetry_multiplicity
 _atom_site_fract_x
 _atom_site_fract_y
 _atom_site_fract_z
 _atom_site_occupancy
  Tm  Tm0  1  0.000000  0.499236  0.522679  1
  Tm  Tm1  1  0.500000  0.000851  0.476972  1
  Tm  Tm2  1  0.500000  0.817108  0.204279  1
  Tm  Tm3  1  0.500000  0.181731  0.203739  1
  Tm  Tm4  1  0.000000  0.681797  0.795996  1
  Tm  Tm5  1  0.000000  0.317881  0.797040  1
  P  P6  1  0.500000  0.497492  0.880644  1
  P  P7  1  0.000000  0.998660  0.121491  1
  P  P8  1  0.500000  0.499550  0.348761  1
  P  P9  1  0.000000  0.000298  0.650489  1
  P  P10  1  0.500000  0.314552  0.620503  1
  P  P11  1  0.500000  0.684784  0.620525  1
  P  P12  1  0.000000  0.185910  0.379399  1
  P  P13  1  0.000000  0.814964  0.380149  1
  P  P14  1  0.500000  0.849031  0.890310  1
  P  P15  1  0.500000  0.156276  0.894403  1
  P  P16  1  0.000000  0.652010  0.109290  1
  P  P17  1  0.000000  0.344421  0.103278  1
  Ru  Ru18  1  0.500000  0.507598  0.161946  1
  Ru  Ru19  1  0.000000  0.995156  0.837048  1
  Ru  Ru20  1  0.000000  0.502391  0.988854  1
  Ru  Ru21  1  0.500000  0.998663  0.011124  1
  Ru  Ru22  1  0.500000  0.332559  0.991573  1
  Rh  Rh23  1  0.500000  0.499562  0.698458  1
  Rh  Rh24  1  0.000000  0.000221  0.302485  1
  Rh  Rh25  1  0.500000  0.670882  0.983184  1
  Rh  Rh26  1  0.000000  0.164851  0.011865  1
  Rh  Rh27  1  0.000000  0.830431  0.015676  1
  Rh  Rh28  1  0.500000  0.297960  0.430359  1
  Rh  Rh29  1  0.500000  0.703322  0.431853  1
  Rh  Rh30  1  0.000000  0.203036  0.568998  1
  Rh  Rh31  1  0.000000  0.796672  0.568531  1
  Rh  Rh32  1  0.500000  0.874135  0.709040  1
  Rh  Rh33  1  0.500000  0.126147  0.712556  1
  Rh  Rh34  1  0.000000  0.626008  0.291102  1
  Rh  Rh35  1  0.000000  0.373854  0.285404  1
