# generated using pymatgen
data_Nd3Al12IrOsRh2
_symmetry_space_group_name_H-M   'P 1'
_cell_length_a   8.89943600
_cell_length_b   8.91917497
_cell_length_c   9.65526435
_cell_angle_alpha   90.02677057
_cell_angle_beta   90.00000000
_cell_angle_gamma   119.92682583
_symmetry_Int_Tables_number   1
_chemical_formula_structural   Nd3Al12IrOsRh2
_chemical_formula_sum   'Nd6 Al24 Ir2 Os2 Rh4'
_cell_volume   664.20426671
_cell_formula_units_Z   2
loop_
 _symmetry_equiv_pos_site_id
 _symmetry_equiv_pos_as_xyz
  1  'x, y, z'
loop_
 _atom_site_type_symbol
 _atom_site_label
 _atom_site_symmetry_multiplicity
 _atom_site_fract_x
 _atom_site_fract_y
 _atom_site_fract_z
 _atom_site_occupancy
  Nd  Nd0  1  0.190565  0.381130  0.250297  1
  Nd  Nd1  1  0.809435  0.618870  0.749703  1
  Nd  Nd2  1  0.619874  0.809428  0.250514  1
  Nd  Nd3  1  0.380126  0.190572  0.749486  1
  Nd  Nd4  1  0.189554  0.809428  0.250514  1
  Nd  Nd5  1  0.810446  0.190572  0.749486  1
  Al  Al6  1  0.333771  0.667544  0.022374  1
  Al  Al7  1  0.666229  0.332456  0.977626  1
  Al  Al8  1  0.666372  0.332744  0.522588  1
  Al  Al9  1  0.333628  0.667256  0.477412  1
  Al  Al10  1  0.164061  0.328124  0.573806  1
  Al  Al11  1  0.835939  0.671876  0.426194  1
  Al  Al12  1  0.672478  0.835477  0.575594  1
  Al  Al13  1  0.836417  0.672832  0.075518  1
  Al  Al14  1  0.327522  0.164523  0.424406  1
  Al  Al15  1  0.163583  0.327168  0.924482  1
  Al  Al16  1  0.162997  0.835477  0.575594  1
  Al  Al17  1  0.327608  0.164193  0.075919  1
  Al  Al18  1  0.837003  0.164523  0.424406  1
  Al  Al19  1  0.672392  0.835807  0.924081  1
  Al  Al20  1  0.836586  0.164193  0.075919  1
  Al  Al21  1  0.163414  0.835807  0.924081  1
  Al  Al22  1  0.562545  0.125091  0.250146  1
  Al  Al23  1  0.437455  0.874909  0.749854  1
  Al  Al24  1  0.874273  0.437309  0.249759  1
  Al  Al25  1  0.125727  0.562691  0.750241  1
  Al  Al26  1  0.563036  0.437309  0.249759  1
  Al  Al27  1  0.436964  0.562691  0.750241  1
  Al  Al28  1  0.000376  0.000751  0.250208  1
  Al  Al29  1  0.999624  0.999249  0.749792  1
  Ir  Ir30  1  0.000000  0.500000  0.500000  1
  Ir  Ir31  1  0.500000  0.500000  0.500000  1
  Os  Os32  1  0.000000  0.000000  0.000000  1
  Os  Os33  1  0.000000  0.000000  0.500000  1
  Rh  Rh34  1  0.500000  0.000000  0.000000  1
  Rh  Rh35  1  0.000000  0.500000  0.000000  1
  Rh  Rh36  1  0.500000  0.000000  0.500000  1
  Rh  Rh37  1  0.500000  0.500000  0.000000  1
