# generated using pymatgen
data_Yb3Al9Si3Ir4
_symmetry_space_group_name_H-M   'P 1'
_cell_length_a   8.69530415
_cell_length_b   8.69530388
_cell_length_c   9.50856400
_cell_angle_alpha   90.00000000
_cell_angle_beta   90.00000000
_cell_angle_gamma   119.83967493
_symmetry_Int_Tables_number   1
_chemical_formula_structural   Yb3Al9Si3Ir4
_chemical_formula_sum   'Yb6 Al18 Si6 Ir8'
_cell_volume   623.61200044
_cell_formula_units_Z   2
loop_
 _symmetry_equiv_pos_site_id
 _symmetry_equiv_pos_as_xyz
  1  'x, y, z'
loop_
 _atom_site_type_symbol
 _atom_site_label
 _atom_site_symmetry_multiplicity
 _atom_site_fract_x
 _atom_site_fract_y
 _atom_site_fract_z
 _atom_site_occupancy
  Yb  Yb0  1  0.806364  0.193636  0.750000  1
  Yb  Yb1  1  0.193636  0.806364  0.250000  1
  Yb  Yb2  1  0.389732  0.197697  0.750000  1
  Yb  Yb3  1  0.610268  0.802303  0.250000  1
  Yb  Yb4  1  0.802303  0.610268  0.750000  1
  Yb  Yb5  1  0.197697  0.389732  0.250000  1
  Al  Al6  1  0.835517  0.164483  0.418957  1
  Al  Al7  1  0.164483  0.835517  0.581043  1
  Al  Al8  1  0.328905  0.163677  0.421046  1
  Al  Al9  1  0.164483  0.835517  0.918957  1
  Al  Al10  1  0.671095  0.836323  0.578954  1
  Al  Al11  1  0.835517  0.164483  0.081043  1
  Al  Al12  1  0.836323  0.671095  0.421046  1
  Al  Al13  1  0.671095  0.836323  0.921046  1
  Al  Al14  1  0.163677  0.328905  0.578954  1
  Al  Al15  1  0.328905  0.163677  0.078954  1
  Al  Al16  1  0.163677  0.328905  0.921046  1
  Al  Al17  1  0.836323  0.671095  0.078954  1
  Al  Al18  1  0.127306  0.561000  0.750000  1
  Al  Al19  1  0.872694  0.439000  0.250000  1
  Al  Al20  1  0.439000  0.872694  0.750000  1
  Al  Al21  1  0.561000  0.127306  0.250000  1
  Al  Al22  1  0.000643  0.999357  0.750000  1
  Al  Al23  1  0.999357  0.000643  0.250000  1
  Si  Si24  1  0.668086  0.331914  0.959294  1
  Si  Si25  1  0.331914  0.668086  0.040706  1
  Si  Si26  1  0.331914  0.668086  0.459294  1
  Si  Si27  1  0.668086  0.331914  0.540706  1
  Si  Si28  1  0.435272  0.564728  0.750000  1
  Si  Si29  1  0.564728  0.435272  0.250000  1
  Ir  Ir30  1  0.500000  0.500000  0.000000  1
  Ir  Ir31  1  0.000000  0.500000  0.000000  1
  Ir  Ir32  1  0.500000  0.500000  0.500000  1
  Ir  Ir33  1  0.500000  0.000000  0.000000  1
  Ir  Ir34  1  0.000000  0.500000  0.500000  1
  Ir  Ir35  1  0.500000  0.000000  0.500000  1
  Ir  Ir36  1  0.000000  0.000000  0.000000  1
  Ir  Ir37  1  0.000000  0.000000  0.500000  1
