# generated using pymatgen
data_Tm12Th4MgHg3Rh4
_symmetry_space_group_name_H-M   'P 1'
_cell_length_a   9.63012608
_cell_length_b   9.64369527
_cell_length_c   9.64369400
_cell_angle_alpha   59.99999749
_cell_angle_beta   59.95337600
_cell_angle_gamma   59.95337969
_symmetry_Int_Tables_number   1
_chemical_formula_structural   Tm12Th4MgHg3Rh4
_chemical_formula_sum   'Tm12 Th4 Mg1 Hg3 Rh4'
_cell_volume   632.84515953
_cell_formula_units_Z   1
loop_
 _symmetry_equiv_pos_site_id
 _symmetry_equiv_pos_as_xyz
  1  'x, y, z'
loop_
 _atom_site_type_symbol
 _atom_site_label
 _atom_site_symmetry_multiplicity
 _atom_site_fract_x
 _atom_site_fract_y
 _atom_site_fract_z
 _atom_site_occupancy
  Tm  Tm0  1  0.063003  0.436664  0.436664  1
  Tm  Tm1  1  0.434539  0.064538  0.064538  1
  Tm  Tm2  1  0.434539  0.064538  0.436384  1
  Tm  Tm3  1  0.063003  0.436664  0.063670  1
  Tm  Tm4  1  0.434539  0.436384  0.064538  1
  Tm  Tm5  1  0.063003  0.063670  0.436664  1
  Tm  Tm6  1  0.181595  0.816822  0.816822  1
  Tm  Tm7  1  0.815461  0.184291  0.184291  1
  Tm  Tm8  1  0.815461  0.184291  0.815957  1
  Tm  Tm9  1  0.181595  0.816822  0.184761  1
  Tm  Tm10  1  0.815461  0.815957  0.184291  1
  Tm  Tm11  1  0.181595  0.184761  0.816822  1
  Th  Th12  1  0.601842  0.601062  0.601062  1
  Th  Th13  1  0.601842  0.601062  0.196033  1
  Th  Th14  1  0.601842  0.196033  0.601062  1
  Th  Th15  1  0.191898  0.602700  0.602700  1
  Mg  Mg16  1  0.518269  0.827244  0.827244  1
  Hg  Hg17  1  0.834277  0.839068  0.839068  1
  Hg  Hg18  1  0.834277  0.839068  0.487587  1
  Hg  Hg19  1  0.834277  0.487587  0.839068  1
  Rh  Rh20  1  0.393139  0.393623  0.393623  1
  Rh  Rh21  1  0.393139  0.393623  0.819614  1
  Rh  Rh22  1  0.393139  0.819614  0.393623  1
  Rh  Rh23  1  0.818263  0.393912  0.393912  1
