# generated using pymatgen
data_Ca2Hf(NbN2)3
_symmetry_space_group_name_H-M   'P 1'
_cell_length_a   5.46993300
_cell_length_b   5.46993331
_cell_length_c   10.93508000
_cell_angle_alpha   90.00000000
_cell_angle_beta   90.00000000
_cell_angle_gamma   120.00000420
_symmetry_Int_Tables_number   1
_chemical_formula_structural   Ca2Hf(NbN2)3
_chemical_formula_sum   'Ca4 Hf2 Nb6 N12'
_cell_volume   283.34569323
_cell_formula_units_Z   2
loop_
 _symmetry_equiv_pos_site_id
 _symmetry_equiv_pos_as_xyz
  1  'x, y, z'
loop_
 _atom_site_type_symbol
 _atom_site_label
 _atom_site_symmetry_multiplicity
 _atom_site_fract_x
 _atom_site_fract_y
 _atom_site_fract_z
 _atom_site_occupancy
  Ca  Ca0  1  0.333333  0.666667  0.000000  1
  Ca  Ca1  1  0.333333  0.666667  0.500000  1
  Ca  Ca2  1  0.666667  0.333333  0.500000  1
  Ca  Ca3  1  0.666667  0.333333  0.000000  1
  Hf  Hf4  1  0.000000  0.000000  0.500000  1
  Hf  Hf5  1  0.000000  0.000000  0.000000  1
  Nb  Nb6  1  0.000000  0.338682  0.250000  1
  Nb  Nb7  1  0.661318  0.000000  0.750000  1
  Nb  Nb8  1  0.338682  0.338682  0.750000  1
  Nb  Nb9  1  0.661318  0.661318  0.250000  1
  Nb  Nb10  1  0.338682  0.000000  0.250000  1
  Nb  Nb11  1  0.000000  0.661318  0.750000  1
  N  N12  1  0.684190  0.684190  0.630885  1
  N  N13  1  0.684190  0.684190  0.869115  1
  N  N14  1  0.315810  0.315810  0.130885  1
  N  N15  1  0.315810  0.315810  0.369115  1
  N  N16  1  0.315810  0.000000  0.869115  1
  N  N17  1  0.315810  0.000000  0.630885  1
  N  N18  1  0.000000  0.684190  0.369115  1
  N  N19  1  0.000000  0.684190  0.130885  1
  N  N20  1  0.684190  0.000000  0.130885  1
  N  N21  1  0.684190  0.000000  0.369115  1
  N  N22  1  0.000000  0.315810  0.869115  1
  N  N23  1  0.000000  0.315810  0.630885  1
