# generated using pymatgen
data_Zn9Cu3(Mo3N)4
_symmetry_space_group_name_H-M   'P 1'
_cell_length_a   8.00010461
_cell_length_b   7.99409225
_cell_length_c   8.00010400
_cell_angle_alpha   59.97512013
_cell_angle_beta   60.00000252
_cell_angle_gamma   59.97511451
_symmetry_Int_Tables_number   1
_chemical_formula_structural   Zn9Cu3(Mo3N)4
_chemical_formula_sum   'Zn9 Cu3 Mo12 N4'
_cell_volume   361.64463223
_cell_formula_units_Z   1
loop_
 _symmetry_equiv_pos_site_id
 _symmetry_equiv_pos_as_xyz
  1  'x, y, z'
loop_
 _atom_site_type_symbol
 _atom_site_label
 _atom_site_symmetry_multiplicity
 _atom_site_fract_x
 _atom_site_fract_y
 _atom_site_fract_z
 _atom_site_occupancy
  Zn  Zn0  1  0.416953  0.749138  0.416953  1
  Zn  Zn1  1  0.833676  0.834453  0.498197  1
  Zn  Zn2  1  0.833676  0.834453  0.833676  1
  Zn  Zn3  1  0.498197  0.834453  0.833676  1
  Zn  Zn4  1  0.834061  0.497820  0.834061  1
  Zn  Zn5  1  0.624930  0.619485  0.130656  1
  Zn  Zn6  1  0.624930  0.619485  0.624930  1
  Zn  Zn7  1  0.130656  0.619485  0.624930  1
  Zn  Zn8  1  0.621969  0.134093  0.621969  1
  Cu  Cu9  1  0.415567  0.416358  0.752506  1
  Cu  Cu10  1  0.415567  0.416358  0.415567  1
  Cu  Cu11  1  0.752506  0.416358  0.415567  1
  Mo  Mo12  1  0.810134  0.189890  0.189842  1
  Mo  Mo13  1  0.189863  0.810434  0.189863  1
  Mo  Mo14  1  0.809840  0.810434  0.189863  1
  Mo  Mo15  1  0.189863  0.810434  0.809840  1
  Mo  Mo16  1  0.810134  0.189890  0.810134  1
  Mo  Mo17  1  0.189842  0.189890  0.810134  1
  Mo  Mo18  1  0.439020  0.062515  0.059444  1
  Mo  Mo19  1  0.061451  0.439253  0.061451  1
  Mo  Mo20  1  0.437846  0.439253  0.061451  1
  Mo  Mo21  1  0.061451  0.439253  0.437846  1
  Mo  Mo22  1  0.439020  0.062515  0.439020  1
  Mo  Mo23  1  0.059444  0.062515  0.439020  1
  N  N24  1  0.124728  0.125167  0.625377  1
  N  N25  1  0.124728  0.125167  0.124728  1
  N  N26  1  0.625377  0.125167  0.124728  1
  N  N27  1  0.124572  0.626284  0.124572  1
