# generated using pymatgen
data_ScTi3(SiRh5)2
_symmetry_space_group_name_H-M   'P 1'
_cell_length_a   3.99124600
_cell_length_b   5.40775624
_cell_length_c   10.59408248
_cell_angle_alpha   89.92202763
_cell_angle_beta   90.00000000
_cell_angle_gamma   90.00000000
_symmetry_Int_Tables_number   1
_chemical_formula_structural   ScTi3(SiRh5)2
_chemical_formula_sum   'Sc1 Ti3 Si2 Rh10'
_cell_volume   228.65913218
_cell_formula_units_Z   1
loop_
 _symmetry_equiv_pos_site_id
 _symmetry_equiv_pos_as_xyz
  1  'x, y, z'
loop_
 _atom_site_type_symbol
 _atom_site_label
 _atom_site_symmetry_multiplicity
 _atom_site_fract_x
 _atom_site_fract_y
 _atom_site_fract_z
 _atom_site_occupancy
  Sc  Sc0  1  0.500000  0.326154  0.139073  1
  Ti  Ti1  1  0.500000  0.671752  0.859022  1
  Ti  Ti2  1  0.500000  0.826846  0.357758  1
  Ti  Ti3  1  0.500000  0.169956  0.640433  1
  Si  Si4  1  0.000000  0.000488  0.998567  1
  Si  Si5  1  0.000000  0.501578  0.501598  1
  Rh  Rh6  1  0.000000  0.998985  0.502083  1
  Rh  Rh7  1  0.000000  0.512863  0.993298  1
  Rh  Rh8  1  0.000000  0.068807  0.246806  1
  Rh  Rh9  1  0.000000  0.919624  0.759495  1
  Rh  Rh10  1  0.000000  0.577035  0.263454  1
  Rh  Rh11  1  0.000000  0.420229  0.737671  1
  Rh  Rh12  1  0.500000  0.317322  0.401755  1
  Rh  Rh13  1  0.500000  0.682747  0.604873  1
  Rh  Rh14  1  0.500000  0.823871  0.103989  1
  Rh  Rh15  1  0.500000  0.181744  0.890125  1
