# generated using pymatgen
data_Ho4Tm4Tc(B8Rh)3
_symmetry_space_group_name_H-M   'P 1'
_cell_length_a   3.64419500
_cell_length_b   9.10891167
_cell_length_c   11.46804123
_cell_angle_alpha   90.15109751
_cell_angle_beta   90.00000000
_cell_angle_gamma   90.00000000
_symmetry_Int_Tables_number   1
_chemical_formula_structural   Ho4Tm4Tc(B8Rh)3
_chemical_formula_sum   'Ho4 Tm4 Tc1 B24 Rh3'
_cell_volume   380.67629519
_cell_formula_units_Z   1
loop_
 _symmetry_equiv_pos_site_id
 _symmetry_equiv_pos_as_xyz
  1  'x, y, z'
loop_
 _atom_site_type_symbol
 _atom_site_label
 _atom_site_symmetry_multiplicity
 _atom_site_fract_x
 _atom_site_fract_y
 _atom_site_fract_z
 _atom_site_occupancy
  Ho  Ho0  1  0.500000  0.318175  0.410452  1
  Ho  Ho1  1  0.500000  0.677956  0.585761  1
  Ho  Ho2  1  0.500000  0.178785  0.917479  1
  Ho  Ho3  1  0.500000  0.824716  0.087116  1
  Tm  Tm4  1  0.500000  0.442753  0.126112  1
  Tm  Tm5  1  0.500000  0.556549  0.872622  1
  Tm  Tm6  1  0.500000  0.056197  0.627902  1
  Tm  Tm7  1  0.500000  0.946053  0.372733  1
  Tc  Tc8  1  0.500000  0.138777  0.179511  1
  B  B9  1  0.000000  0.106207  0.471991  1
  B  B10  1  0.000000  0.892863  0.529824  1
  B  B11  1  0.000000  0.394153  0.969918  1
  B  B12  1  0.000000  0.608185  0.028799  1
  B  B13  1  0.000000  0.131564  0.315291  1
  B  B14  1  0.000000  0.867394  0.683730  1
  B  B15  1  0.000000  0.368735  0.816365  1
  B  B16  1  0.000000  0.632246  0.183354  1
  B  B17  1  0.000000  0.053874  0.066742  1
  B  B18  1  0.000000  0.946203  0.933758  1
  B  B19  1  0.000000  0.444941  0.565440  1
  B  B20  1  0.000000  0.553253  0.433649  1
  B  B21  1  0.000000  0.482867  0.286276  1
  B  B22  1  0.000000  0.517594  0.712818  1
  B  B23  1  0.000000  0.017753  0.787245  1
  B  B24  1  0.000000  0.983107  0.213573  1
  B  B25  1  0.000000  0.249409  0.080468  1
  B  B26  1  0.000000  0.750427  0.920241  1
  B  B27  1  0.000000  0.249407  0.579404  1
  B  B28  1  0.000000  0.749792  0.420554  1
  B  B29  1  0.000000  0.292971  0.234474  1
  B  B30  1  0.000000  0.706008  0.763991  1
  B  B31  1  0.000000  0.207089  0.735828  1
  B  B32  1  0.000000  0.792811  0.265607  1
  Rh  Rh33  1  0.500000  0.861440  0.821138  1
  Rh  Rh34  1  0.500000  0.360886  0.678920  1
  Rh  Rh35  1  0.500000  0.638862  0.320913  1
