# generated using pymatgen
data_Li4Sm(Ni2P3)2
_symmetry_space_group_name_H-M   'P 1'
_cell_length_a   7.81921588
_cell_length_b   7.81921606
_cell_length_c   7.81921610
_cell_angle_alpha   151.42871057
_cell_angle_beta   113.94022155
_cell_angle_gamma   73.50055448
_symmetry_Int_Tables_number   1
_chemical_formula_structural   Li4Sm(Ni2P3)2
_chemical_formula_sum   'Li4 Sm1 Ni4 P6'
_cell_volume   206.08372999
_cell_formula_units_Z   1
loop_
 _symmetry_equiv_pos_site_id
 _symmetry_equiv_pos_as_xyz
  1  'x, y, z'
loop_
 _atom_site_type_symbol
 _atom_site_label
 _atom_site_symmetry_multiplicity
 _atom_site_fract_x
 _atom_site_fract_y
 _atom_site_fract_z
 _atom_site_occupancy
  Li  Li0  1  0.718351  0.718351  0.000000  1
  Li  Li1  1  0.669871  0.500000  0.169871  1
  Li  Li2  1  0.330129  0.500000  0.830129  1
  Li  Li3  1  0.281649  0.281649  0.000000  1
  Sm  Sm4  1  0.000000  0.000000  0.000000  1
  Ni  Ni5  1  0.906280  0.174213  0.732068  1
  Ni  Ni6  1  0.557855  0.825787  0.732068  1
  Ni  Ni7  1  0.442145  0.174213  0.267932  1
  Ni  Ni8  1  0.093720  0.825787  0.267932  1
  P  P9  1  0.977635  0.343803  0.633832  1
  P  P10  1  0.709969  0.343803  0.366168  1
  P  P11  1  0.586597  0.086597  0.500000  1
  P  P12  1  0.413403  0.913403  0.500000  1
  P  P13  1  0.290031  0.656197  0.633832  1
  P  P14  1  0.022365  0.656197  0.366168  1
