# generated using pymatgen
data_Ho9Er(GaSb)3
_symmetry_space_group_name_H-M   'P 1'
_cell_length_a   8.78981143
_cell_length_b   8.81392479
_cell_length_c   6.45598800
_cell_angle_alpha   90.00440741
_cell_angle_beta   89.98208083
_cell_angle_gamma   119.99280627
_symmetry_Int_Tables_number   1
_chemical_formula_structural   Ho9Er(GaSb)3
_chemical_formula_sum   'Ho9 Er1 Ga3 Sb3'
_cell_volume   433.18528818
_cell_formula_units_Z   1
loop_
 _symmetry_equiv_pos_site_id
 _symmetry_equiv_pos_as_xyz
  1  'x, y, z'
loop_
 _atom_site_type_symbol
 _atom_site_label
 _atom_site_symmetry_multiplicity
 _atom_site_fract_x
 _atom_site_fract_y
 _atom_site_fract_z
 _atom_site_occupancy
  Ho  Ho0  1  0.333457  0.682919  0.002953  1
  Ho  Ho1  1  0.666460  0.323773  0.497068  1
  Ho  Ho2  1  0.666362  0.323174  0.002981  1
  Ho  Ho3  1  0.233791  0.987305  0.250343  1
  Ho  Ho4  1  0.757933  0.000961  0.749693  1
  Ho  Ho5  1  0.985689  0.233934  0.250009  1
  Ho  Ho6  1  0.763467  0.764398  0.250126  1
  Ho  Ho7  1  0.245515  0.231457  0.750016  1
  Ho  Ho8  1  0.014178  0.770211  0.749668  1
  Er  Er9  1  0.333432  0.683411  0.497010  1
  Ga  Ga10  1  0.600807  0.998263  0.251003  1
  Ga  Ga11  1  0.402686  0.003340  0.749101  1
  Ga  Ga12  1  0.994910  0.601049  0.250645  1
  Sb  Sb13  1  0.386715  0.391480  0.250553  1
  Sb  Sb14  1  0.609701  0.608029  0.749599  1
  Sb  Sb15  1  0.004897  0.396293  0.749231  1
