# generated using pymatgen
data_Sr2ScHO3
_symmetry_space_group_name_H-M   'P 1'
_cell_length_a   4.08771100
_cell_length_b   4.08771700
_cell_length_c   13.10827800
_cell_angle_alpha   90.00000000
_cell_angle_beta   90.00000000
_cell_angle_gamma   90.00000000
_symmetry_Int_Tables_number   1
_chemical_formula_structural   Sr2ScHO3
_chemical_formula_sum   'Sr4 Sc2 H2 O6'
_cell_volume   219.03153573
_cell_formula_units_Z   2
loop_
 _symmetry_equiv_pos_site_id
 _symmetry_equiv_pos_as_xyz
  1  'x, y, z'
loop_
 _atom_site_type_symbol
 _atom_site_label
 _atom_site_symmetry_multiplicity
 _atom_site_fract_x
 _atom_site_fract_y
 _atom_site_fract_z
 _atom_site_occupancy
  Sr  Sr0  1  0.499999  0.000000  0.103112  1
  Sr  Sr1  1  0.499999  0.000000  0.374213  1
  Sr  Sr2  1  0.000000  0.499999  0.625787  1
  Sr  Sr3  1  0.000000  0.499999  0.896888  1
  Sc  Sc4  1  0.000000  0.499999  0.233964  1
  Sc  Sc5  1  0.499999  0.000000  0.766036  1
  H  H6  1  0.000000  0.499999  0.429058  1
  H  H7  1  0.499999  0.000000  0.570943  1
  O  O8  1  0.000000  0.499999  0.081002  1
  O  O9  1  0.000000  0.000000  0.257789  1
  O  O10  1  0.499999  0.499999  0.257789  1
  O  O11  1  0.000000  0.000000  0.742211  1
  O  O12  1  0.499999  0.499999  0.742211  1
  O  O13  1  0.499999  0.000000  0.918998  1
