# generated using pymatgen
data_Cs2TmBr5
_symmetry_space_group_name_H-M   'P 1'
_cell_length_a   7.92805500
_cell_length_b   10.27387000
_cell_length_c   16.16979800
_cell_angle_alpha   90.00000000
_cell_angle_beta   90.00000000
_cell_angle_gamma   90.00000000
_symmetry_Int_Tables_number   1
_chemical_formula_structural   Cs2TmBr5
_chemical_formula_sum   'Cs8 Tm4 Br20'
_cell_volume   1317.05925659
_cell_formula_units_Z   4
loop_
 _symmetry_equiv_pos_site_id
 _symmetry_equiv_pos_as_xyz
  1  'x, y, z'
loop_
 _atom_site_type_symbol
 _atom_site_label
 _atom_site_symmetry_multiplicity
 _atom_site_fract_x
 _atom_site_fract_y
 _atom_site_fract_z
 _atom_site_occupancy
  Cs  Cs0  1  0.250000  0.664430  0.917276  1
  Cs  Cs1  1  0.750000  0.335570  0.082724  1
  Cs  Cs2  1  0.750000  0.835570  0.417276  1
  Cs  Cs3  1  0.250000  0.164430  0.582724  1
  Cs  Cs4  1  0.250000  0.974192  0.209850  1
  Cs  Cs5  1  0.750000  0.025808  0.790150  1
  Cs  Cs6  1  0.750000  0.525808  0.709850  1
  Cs  Cs7  1  0.250000  0.474192  0.290150  1
  Tm  Tm8  1  0.250000  0.676818  0.564341  1
  Tm  Tm9  1  0.750000  0.323182  0.435659  1
  Tm  Tm10  1  0.750000  0.823182  0.064341  1
  Tm  Tm11  1  0.250000  0.176818  0.935659  1
  Br  Br12  1  0.250000  0.521120  0.701179  1
  Br  Br13  1  0.750000  0.478880  0.298821  1
  Br  Br14  1  0.750000  0.978880  0.201179  1
  Br  Br15  1  0.250000  0.021120  0.798821  1
  Br  Br16  1  0.503396  0.832150  0.617237  1
  Br  Br17  1  0.496604  0.167850  0.382763  1
  Br  Br18  1  0.496604  0.667850  0.117237  1
  Br  Br19  1  0.003396  0.167850  0.382763  1
  Br  Br20  1  0.503396  0.332150  0.882763  1
  Br  Br21  1  0.996604  0.832150  0.617237  1
  Br  Br22  1  0.996604  0.332150  0.882763  1
  Br  Br23  1  0.003396  0.667850  0.117237  1
  Br  Br24  1  0.250000  0.786404  0.406260  1
  Br  Br25  1  0.750000  0.213596  0.593740  1
  Br  Br26  1  0.750000  0.713596  0.906260  1
  Br  Br27  1  0.250000  0.286404  0.093740  1
  Br  Br28  1  0.000000  0.500000  0.500000  1
  Br  Br29  1  0.000000  0.000000  0.000000  1
  Br  Br30  1  0.500000  0.500000  0.500000  1
  Br  Br31  1  0.500000  0.000000  0.000000  1
