# generated using pymatgen
data_Er3Th5(ZnRh)8
_symmetry_space_group_name_H-M   'P 1'
_cell_length_a   3.87796700
_cell_length_b   7.46915620
_cell_length_c   16.51067868
_cell_angle_alpha   90.35996977
_cell_angle_beta   90.00000000
_cell_angle_gamma   90.00000000
_symmetry_Int_Tables_number   1
_chemical_formula_structural   Er3Th5(ZnRh)8
_chemical_formula_sum   'Er3 Th5 Zn8 Rh8'
_cell_volume   478.22470168
_cell_formula_units_Z   1
loop_
 _symmetry_equiv_pos_site_id
 _symmetry_equiv_pos_as_xyz
  1  'x, y, z'
loop_
 _atom_site_type_symbol
 _atom_site_label
 _atom_site_symmetry_multiplicity
 _atom_site_fract_x
 _atom_site_fract_y
 _atom_site_fract_z
 _atom_site_occupancy
  Er  Er0  1  0.750000  0.440398  0.212447  1
  Er  Er1  1  0.250000  0.056960  0.713096  1
  Er  Er2  1  0.250000  0.558826  0.786853  1
  Th  Th3  1  0.250000  0.176750  0.935266  1
  Th  Th4  1  0.250000  0.672468  0.564779  1
  Th  Th5  1  0.750000  0.324758  0.438939  1
  Th  Th6  1  0.750000  0.940397  0.284441  1
  Th  Th7  1  0.750000  0.830115  0.059912  1
  Zn  Zn8  1  0.750000  0.009666  0.565170  1
  Zn  Zn9  1  0.250000  0.605910  0.341145  1
  Zn  Zn10  1  0.750000  0.383344  0.661389  1
  Zn  Zn11  1  0.250000  0.493189  0.063828  1
  Zn  Zn12  1  0.750000  0.511769  0.934768  1
  Zn  Zn13  1  0.250000  0.990307  0.443220  1
  Zn  Zn14  1  0.250000  0.125649  0.154013  1
  Zn  Zn15  1  0.750000  0.883782  0.839327  1
  Rh  Rh16  1  0.750000  0.738430  0.439161  1
  Rh  Rh17  1  0.250000  0.231325  0.316983  1
  Rh  Rh18  1  0.750000  0.255337  0.816319  1
  Rh  Rh19  1  0.750000  0.754621  0.683392  1
  Rh  Rh20  1  0.250000  0.261707  0.563311  1
  Rh  Rh21  1  0.250000  0.749802  0.185365  1
  Rh  Rh22  1  0.750000  0.242450  0.058392  1
  Rh  Rh23  1  0.250000  0.762037  0.938481  1
