# generated using pymatgen
data_Dy2Al16MoPt8
_symmetry_space_group_name_H-M   'P 1'
_cell_length_a   11.23653311
_cell_length_b   11.23653261
_cell_length_c   11.23653404
_cell_angle_alpha   158.80258794
_cell_angle_beta   117.12286227
_cell_angle_gamma   67.15496058
_symmetry_Int_Tables_number   1
_chemical_formula_structural   Dy2Al16MoPt8
_chemical_formula_sum   'Dy2 Al16 Mo1 Pt8'
_cell_volume   453.57510943
_cell_formula_units_Z   1
loop_
 _symmetry_equiv_pos_site_id
 _symmetry_equiv_pos_as_xyz
  1  'x, y, z'
loop_
 _atom_site_type_symbol
 _atom_site_label
 _atom_site_symmetry_multiplicity
 _atom_site_fract_x
 _atom_site_fract_y
 _atom_site_fract_z
 _atom_site_occupancy
  Dy  Dy0  1  0.231614  0.232600  0.999014  1
  Dy  Dy1  1  0.766414  0.767400  0.999014  1
  Al  Al2  1  0.273325  0.391827  0.881499  1
  Al  Al3  1  0.088810  0.924767  0.164043  1
  Al  Al4  1  0.503466  0.200767  0.302702  1
  Al  Al5  1  0.239276  0.075233  0.164043  1
  Al  Al6  1  0.908796  0.416021  0.492775  1
  Al  Al7  1  0.725338  0.599396  0.125942  1
  Al  Al8  1  0.903078  0.210475  0.692603  1
  Al  Al9  1  0.482130  0.789525  0.692603  1
  Al  Al10  1  0.390506  0.000000  0.390506  1
  Al  Al11  1  0.628286  0.000000  0.628286  1
  Al  Al12  1  0.489672  0.608173  0.881499  1
  Al  Al13  1  0.101935  0.799233  0.302702  1
  Al  Al14  1  0.912932  0.089664  0.823268  1
  Al  Al15  1  0.733605  0.910336  0.823268  1
  Al  Al16  1  0.526546  0.400604  0.125942  1
  Al  Al17  1  0.076755  0.583979  0.492775  1
  Mo  Mo18  1  0.788040  0.500000  0.288040  1
  Pt  Pt19  1  0.021544  0.343435  0.678109  1
  Pt  Pt20  1  0.630456  0.128034  0.502422  1
  Pt  Pt21  1  0.256539  0.500000  0.756539  1
  Pt  Pt22  1  0.374388  0.871966  0.502422  1
  Pt  Pt23  1  0.983080  0.000000  0.983080  1
  Pt  Pt24  1  0.647884  0.333488  0.314397  1
  Pt  Pt25  1  0.334675  0.656565  0.678109  1
  Pt  Pt26  1  0.980909  0.666512  0.314397  1
