# generated using pymatgen
data_Tb4Tm2Si24OsRu7
_symmetry_space_group_name_H-M   'P 1'
_cell_length_a   10.11125804
_cell_length_b   10.11125732
_cell_length_c   8.15782708
_cell_angle_alpha   89.99159821
_cell_angle_beta   89.99159125
_cell_angle_gamma   132.47225527
_symmetry_Int_Tables_number   1
_chemical_formula_structural   Tb4Tm2Si24OsRu7
_chemical_formula_sum   'Tb4 Tm2 Si24 Os1 Ru7'
_cell_volume   615.18865763
_cell_formula_units_Z   1
loop_
 _symmetry_equiv_pos_site_id
 _symmetry_equiv_pos_as_xyz
  1  'x, y, z'
loop_
 _atom_site_type_symbol
 _atom_site_label
 _atom_site_symmetry_multiplicity
 _atom_site_fract_x
 _atom_site_fract_y
 _atom_site_fract_z
 _atom_site_occupancy
  Tb  Tb0  1  0.502285  0.002344  0.750306  1
  Tb  Tb1  1  0.997656  0.497715  0.249694  1
  Tb  Tb2  1  0.497686  0.997270  0.249603  1
  Tb  Tb3  1  0.002730  0.502314  0.750397  1
  Tm  Tm4  1  0.499997  0.500003  0.500000  1
  Tm  Tm5  1  0.000067  0.999933  0.000000  1
  Si  Si6  1  0.795268  0.204732  0.500000  1
  Si  Si7  1  0.294626  0.705374  0.000000  1
  Si  Si8  1  0.205251  0.794749  0.500000  1
  Si  Si9  1  0.705546  0.294454  0.000000  1
  Si  Si10  1  0.331509  0.331761  0.833532  1
  Si  Si11  1  0.668239  0.668491  0.166468  1
  Si  Si12  1  0.167450  0.167226  0.332265  1
  Si  Si13  1  0.832774  0.832550  0.667735  1
  Si  Si14  1  0.121472  0.887731  0.729281  1
  Si  Si15  1  0.112269  0.878528  0.270719  1
  Si  Si16  1  0.612298  0.378628  0.227278  1
  Si  Si17  1  0.621372  0.387702  0.772722  1
  Si  Si18  1  0.877515  0.110938  0.270122  1
  Si  Si19  1  0.889062  0.122485  0.729878  1
  Si  Si20  1  0.387168  0.621530  0.771719  1
  Si  Si21  1  0.378470  0.612832  0.228281  1
  Si  Si22  1  0.343875  0.111306  0.504725  1
  Si  Si23  1  0.888694  0.656125  0.495275  1
  Si  Si24  1  0.387132  0.154206  0.004291  1
  Si  Si25  1  0.845794  0.612868  0.995709  1
  Si  Si26  1  0.654145  0.887329  0.493783  1
  Si  Si27  1  0.112671  0.345855  0.506217  1
  Si  Si28  1  0.612602  0.845462  0.995995  1
  Si  Si29  1  0.154538  0.387398  0.004005  1
  Os  Os30  1  0.668271  0.331729  0.500000  1
  Ru  Ru31  1  0.168246  0.831754  0.000000  1
  Ru  Ru32  1  0.331725  0.668275  0.500000  1
  Ru  Ru33  1  0.831813  0.168187  0.000000  1
  Ru  Ru34  1  0.127138  0.127128  0.626563  1
  Ru  Ru35  1  0.872872  0.872862  0.373437  1
  Ru  Ru36  1  0.374658  0.374883  0.127693  1
  Ru  Ru37  1  0.625117  0.625342  0.872307  1
