# generated using pymatgen
data_Hf8Ti11Si16Ru
_symmetry_space_group_name_H-M   'P 1'
_cell_length_a   6.58632878
_cell_length_b   6.75699902
_cell_length_c   12.91254200
_cell_angle_alpha   90.00000000
_cell_angle_beta   90.00000000
_cell_angle_gamma   90.02308805
_symmetry_Int_Tables_number   1
_chemical_formula_structural   Hf8Ti11Si16Ru
_chemical_formula_sum   'Hf8 Ti11 Si16 Ru1'
_cell_volume   574.65736081
_cell_formula_units_Z   1
loop_
 _symmetry_equiv_pos_site_id
 _symmetry_equiv_pos_as_xyz
  1  'x, y, z'
loop_
 _atom_site_type_symbol
 _atom_site_label
 _atom_site_symmetry_multiplicity
 _atom_site_fract_x
 _atom_site_fract_y
 _atom_site_fract_z
 _atom_site_occupancy
  Hf  Hf0  1  0.997990  0.173957  0.094558  1
  Hf  Hf1  1  0.006025  0.827596  0.905547  1
  Hf  Hf2  1  0.500851  0.671721  0.906481  1
  Hf  Hf3  1  0.006025  0.827596  0.594453  1
  Hf  Hf4  1  0.500575  0.326189  0.094310  1
  Hf  Hf5  1  0.997990  0.173957  0.405442  1
  Hf  Hf6  1  0.500575  0.326189  0.405690  1
  Hf  Hf7  1  0.500851  0.671721  0.593519  1
  Ti  Ti8  1  0.163791  0.493609  0.750000  1
  Ti  Ti9  1  0.835306  0.504722  0.250000  1
  Ti  Ti10  1  0.336161  0.994289  0.250000  1
  Ti  Ti11  1  0.332951  0.172584  0.625026  1
  Ti  Ti12  1  0.662858  0.828110  0.375164  1
  Ti  Ti13  1  0.163165  0.672951  0.374562  1
  Ti  Ti14  1  0.662858  0.828110  0.124836  1
  Ti  Ti15  1  0.836493  0.331626  0.625353  1
  Ti  Ti16  1  0.332951  0.172584  0.874974  1
  Ti  Ti17  1  0.836493  0.331626  0.874647  1
  Ti  Ti18  1  0.163165  0.672951  0.125438  1
  Si  Si19  1  0.032580  0.115191  0.750000  1
  Si  Si20  1  0.960723  0.881920  0.250000  1
  Si  Si21  1  0.462003  0.616941  0.250000  1
  Si  Si22  1  0.538314  0.382457  0.750000  1
  Si  Si23  1  0.301446  0.862703  0.750000  1
  Si  Si24  1  0.703304  0.135529  0.250000  1
  Si  Si25  1  0.202991  0.363549  0.250000  1
  Si  Si26  1  0.795999  0.639069  0.750000  1
  Si  Si27  1  0.169621  0.463165  0.538710  1
  Si  Si28  1  0.829646  0.538496  0.460537  1
  Si  Si29  1  0.330561  0.962506  0.461286  1
  Si  Si30  1  0.829646  0.538496  0.039463  1
  Si  Si31  1  0.670302  0.038291  0.541081  1
  Si  Si32  1  0.169621  0.463165  0.961290  1
  Si  Si33  1  0.670302  0.038291  0.958919  1
  Si  Si34  1  0.330561  0.962506  0.038714  1
  Ru  Ru35  1  0.665306  0.995639  0.750000  1
