# generated using pymatgen
data_Y2Er3AlSb2
_symmetry_space_group_name_H-M   'P 1'
_cell_length_a   8.84977731
_cell_length_b   8.84823436
_cell_length_c   6.36598600
_cell_angle_alpha   90.00000000
_cell_angle_beta   90.00000000
_cell_angle_gamma   119.99422269
_symmetry_Int_Tables_number   1
_chemical_formula_structural   Y2Er3AlSb2
_chemical_formula_sum   'Y4 Er6 Al2 Sb4'
_cell_volume   431.72833264
_cell_formula_units_Z   2
loop_
 _symmetry_equiv_pos_site_id
 _symmetry_equiv_pos_as_xyz
  1  'x, y, z'
loop_
 _atom_site_type_symbol
 _atom_site_label
 _atom_site_symmetry_multiplicity
 _atom_site_fract_x
 _atom_site_fract_y
 _atom_site_fract_z
 _atom_site_occupancy
  Y  Y0  1  0.008864  0.765763  0.750000  1
  Y  Y1  1  0.008864  0.243101  0.250000  1
  Y  Y2  1  0.755312  0.756319  0.250000  1
  Y  Y3  1  0.755312  0.998994  0.750000  1
  Er  Er4  1  0.242611  0.232667  0.750000  1
  Er  Er5  1  0.242611  0.009944  0.250000  1
  Er  Er6  1  0.335554  0.667778  0.500000  1
  Er  Er7  1  0.655520  0.327760  0.000000  1
  Er  Er8  1  0.655520  0.327760  0.500000  1
  Er  Er9  1  0.335554  0.667778  0.000000  1
  Al  Al10  1  0.397938  0.997418  0.750000  1
  Al  Al11  1  0.397938  0.400520  0.250000  1
  Sb  Sb12  1  0.999164  0.606900  0.250000  1
  Sb  Sb13  1  0.999164  0.392263  0.750000  1
  Sb  Sb14  1  0.605036  0.604205  0.750000  1
  Sb  Sb15  1  0.605036  0.000831  0.250000  1
