# generated using pymatgen
data_Mg3Sc(GaPt5)2
_symmetry_space_group_name_H-M   'P 1'
_cell_length_a   4.09189100
_cell_length_b   5.55162904
_cell_length_c   10.96378500
_cell_angle_alpha   90.15004010
_cell_angle_beta   90.00000000
_cell_angle_gamma   90.00000000
_symmetry_Int_Tables_number   1
_chemical_formula_structural   Mg3Sc(GaPt5)2
_chemical_formula_sum   'Mg3 Sc1 Ga2 Pt10'
_cell_volume   249.05973189
_cell_formula_units_Z   1
loop_
 _symmetry_equiv_pos_site_id
 _symmetry_equiv_pos_as_xyz
  1  'x, y, z'
loop_
 _atom_site_type_symbol
 _atom_site_label
 _atom_site_symmetry_multiplicity
 _atom_site_fract_x
 _atom_site_fract_y
 _atom_site_fract_z
 _atom_site_occupancy
  Mg  Mg0  1  0.500000  0.187893  0.639423  1
  Mg  Mg1  1  0.500000  0.811313  0.363084  1
  Mg  Mg2  1  0.500000  0.689540  0.858306  1
  Sc  Sc3  1  0.500000  0.309759  0.139427  1
  Ga  Ga4  1  0.000000  0.500171  0.501349  1
  Ga  Ga5  1  0.000000  0.998184  0.997645  1
  Pt  Pt6  1  0.500000  0.301821  0.392471  1
  Pt  Pt7  1  0.500000  0.698964  0.608861  1
  Pt  Pt8  1  0.500000  0.801863  0.108497  1
  Pt  Pt9  1  0.500000  0.201563  0.890471  1
  Pt  Pt10  1  0.000000  0.442240  0.741890  1
  Pt  Pt11  1  0.000000  0.555932  0.257144  1
  Pt  Pt12  1  0.000000  0.942944  0.757391  1
  Pt  Pt13  1  0.000000  0.055476  0.244877  1
  Pt  Pt14  1  0.000000  0.502686  0.998283  1
  Pt  Pt15  1  0.000000  0.999649  0.500878  1
