# generated using pymatgen
data_ZnTe19
_symmetry_space_group_name_H-M   'P 1'
_cell_length_a   7.96740280
_cell_length_b   8.94102754
_cell_length_c   10.12016500
_cell_angle_alpha   103.09486428
_cell_angle_beta   96.93454965
_cell_angle_gamma   107.31739481
_symmetry_Int_Tables_number   1
_chemical_formula_structural   ZnTe19
_chemical_formula_sum   'Zn1 Te19'
_cell_volume   656.48094483
_cell_formula_units_Z   1
loop_
 _symmetry_equiv_pos_site_id
 _symmetry_equiv_pos_as_xyz
  1  'x, y, z'
loop_
 _atom_site_type_symbol
 _atom_site_label
 _atom_site_symmetry_multiplicity
 _atom_site_fract_x
 _atom_site_fract_y
 _atom_site_fract_z
 _atom_site_occupancy
  Zn  Zn0  1  0.000000  0.500000  0.000000  1
  Te  Te1  1  0.796191  0.581514  0.618768  1
  Te  Te2  1  0.632453  0.208360  0.198834  1
  Te  Te3  1  0.367547  0.791640  0.801166  1
  Te  Te4  1  0.599568  0.688420  0.192235  1
  Te  Te5  1  0.203809  0.418486  0.381232  1
  Te  Te6  1  0.400432  0.311580  0.807765  1
  Te  Te7  1  0.000000  0.000000  0.000000  1
  Te  Te8  1  0.197261  0.909591  0.393324  1
  Te  Te9  1  0.802739  0.090409  0.606676  1
  Te  Te10  1  0.712464  0.629366  0.909846  1
  Te  Te11  1  0.516891  0.258220  0.498702  1
  Te  Te12  1  0.718603  0.156889  0.909628  1
  Te  Te13  1  0.281397  0.843111  0.090372  1
  Te  Te14  1  0.483109  0.741780  0.501298  1
  Te  Te15  1  0.095500  0.464132  0.720629  1
  Te  Te16  1  0.287536  0.370634  0.090154  1
  Te  Te17  1  0.911277  0.038639  0.297740  1
  Te  Te18  1  0.088723  0.961361  0.702260  1
  Te  Te19  1  0.904500  0.535868  0.279371  1
