# generated using pymatgen
data_Tm8Sc12Si15Os
_symmetry_space_group_name_H-M   'P 1'
_cell_length_a   7.03329609
_cell_length_b   7.39895225
_cell_length_c   13.86140300
_cell_angle_alpha   90.00000000
_cell_angle_beta   90.00000000
_cell_angle_gamma   90.18450165
_symmetry_Int_Tables_number   1
_chemical_formula_structural   Tm8Sc12Si15Os
_chemical_formula_sum   'Tm8 Sc12 Si15 Os1'
_cell_volume   721.33011464
_cell_formula_units_Z   1
loop_
 _symmetry_equiv_pos_site_id
 _symmetry_equiv_pos_as_xyz
  1  'x, y, z'
loop_
 _atom_site_type_symbol
 _atom_site_label
 _atom_site_symmetry_multiplicity
 _atom_site_fract_x
 _atom_site_fract_y
 _atom_site_fract_z
 _atom_site_occupancy
  Tm  Tm0  1  0.011057  0.179508  0.095730  1
  Tm  Tm1  1  0.991348  0.827138  0.904945  1
  Tm  Tm2  1  0.489237  0.677934  0.904677  1
  Tm  Tm3  1  0.991348  0.827138  0.595055  1
  Tm  Tm4  1  0.510954  0.321733  0.095851  1
  Tm  Tm5  1  0.011057  0.179508  0.404270  1
  Tm  Tm6  1  0.510954  0.321733  0.404149  1
  Tm  Tm7  1  0.489237  0.677934  0.595323  1
  Sc  Sc8  1  0.158135  0.502978  0.750000  1
  Sc  Sc9  1  0.837687  0.494260  0.250000  1
  Sc  Sc10  1  0.339107  0.006321  0.250000  1
  Sc  Sc11  1  0.669189  0.996773  0.750000  1
  Sc  Sc12  1  0.316735  0.172052  0.627626  1
  Sc  Sc13  1  0.671746  0.825408  0.374110  1
  Sc  Sc14  1  0.171081  0.677892  0.374197  1
  Sc  Sc15  1  0.671746  0.825408  0.125890  1
  Sc  Sc16  1  0.837941  0.319927  0.627626  1
  Sc  Sc17  1  0.316735  0.172052  0.872374  1
  Sc  Sc18  1  0.837941  0.319927  0.872374  1
  Sc  Sc19  1  0.171081  0.677892  0.125803  1
  Si  Si20  1  0.968700  0.887151  0.250000  1
  Si  Si21  1  0.469448  0.611945  0.250000  1
  Si  Si22  1  0.529425  0.390568  0.750000  1
  Si  Si23  1  0.286670  0.864446  0.750000  1
  Si  Si24  1  0.713749  0.131731  0.250000  1
  Si  Si25  1  0.213915  0.368842  0.250000  1
  Si  Si26  1  0.779306  0.629061  0.750000  1
  Si  Si27  1  0.161413  0.468841  0.537196  1
  Si  Si28  1  0.842244  0.535006  0.461544  1
  Si  Si29  1  0.342937  0.966466  0.460257  1
  Si  Si30  1  0.842244  0.535006  0.038456  1
  Si  Si31  1  0.656978  0.034283  0.538546  1
  Si  Si32  1  0.161413  0.468841  0.962804  1
  Si  Si33  1  0.656978  0.034283  0.961454  1
  Si  Si34  1  0.342937  0.966466  0.039743  1
  Os  Os35  1  0.027323  0.103552  0.750000  1
