# generated using pymatgen
data_Cs2PuU(CuSe3)2
_symmetry_space_group_name_H-M   'P 1'
_cell_length_a   8.33644336
_cell_length_b   8.33644288
_cell_length_c   10.74384295
_cell_angle_alpha   89.71432075
_cell_angle_beta   90.28567820
_cell_angle_gamma   150.89076852
_symmetry_Int_Tables_number   1
_chemical_formula_structural   Cs2PuU(CuSe3)2
_chemical_formula_sum   'Cs2 Pu1 U1 Cu2 Se6'
_cell_volume   363.22608546
_cell_formula_units_Z   1
loop_
 _symmetry_equiv_pos_site_id
 _symmetry_equiv_pos_as_xyz
  1  'x, y, z'
loop_
 _atom_site_type_symbol
 _atom_site_label
 _atom_site_symmetry_multiplicity
 _atom_site_fract_x
 _atom_site_fract_y
 _atom_site_fract_z
 _atom_site_occupancy
  Cs  Cs0  1  0.743264  0.256736  0.244037  1
  Cs  Cs1  1  0.256736  0.743264  0.755963  1
  Pu  Pu2  1  0.000000  0.000000  0.000000  1
  U  U3  1  0.000000  0.000000  0.500000  1
  Cu  Cu4  1  0.531627  0.468373  0.749793  1
  Cu  Cu5  1  0.468373  0.531627  0.250207  1
  Se  Se6  1  0.612486  0.387514  0.558108  1
  Se  Se7  1  0.387514  0.612486  0.441892  1
  Se  Se8  1  0.056241  0.943759  0.255807  1
  Se  Se9  1  0.943759  0.056241  0.744193  1
  Se  Se10  1  0.613423  0.386577  0.940546  1
  Se  Se11  1  0.386577  0.613423  0.059454  1
