# generated using pymatgen
data_HgP6SeO18
_symmetry_space_group_name_H-M   'P 1'
_cell_length_a   6.84831700
_cell_length_b   6.84831819
_cell_length_c   10.09676700
_cell_angle_alpha   90.00000000
_cell_angle_beta   90.00000000
_cell_angle_gamma   120.00000876
_symmetry_Int_Tables_number   1
_chemical_formula_structural   HgP6SeO18
_chemical_formula_sum   'Hg1 P6 Se1 O18'
_cell_volume   410.09144844
_cell_formula_units_Z   1
loop_
 _symmetry_equiv_pos_site_id
 _symmetry_equiv_pos_as_xyz
  1  'x, y, z'
loop_
 _atom_site_type_symbol
 _atom_site_label
 _atom_site_symmetry_multiplicity
 _atom_site_fract_x
 _atom_site_fract_y
 _atom_site_fract_z
 _atom_site_occupancy
  Hg  Hg0  1  0.000000  0.000000  0.500000  1
  P  P1  1  0.724505  0.118132  0.770292  1
  P  P2  1  0.881868  0.275495  0.229708  1
  P  P3  1  0.724505  0.606373  0.229708  1
  P  P4  1  0.881868  0.606373  0.770292  1
  P  P5  1  0.393627  0.275495  0.770292  1
  P  P6  1  0.393627  0.118132  0.229708  1
  Se  Se7  1  0.000000  0.000000  0.000000  1
  O  O8  1  0.900066  0.516970  0.206846  1
  O  O9  1  0.900066  0.383097  0.793154  1
  O  O10  1  0.483030  0.099934  0.793154  1
  O  O11  1  0.616903  0.099934  0.206846  1
  O  O12  1  0.740223  0.038819  0.636421  1
  O  O13  1  0.747504  0.992921  0.890128  1
  O  O14  1  0.483030  0.383097  0.206846  1
  O  O15  1  0.740223  0.701404  0.363579  1
  O  O16  1  0.747504  0.754584  0.109872  1
  O  O17  1  0.616903  0.516970  0.793154  1
  O  O18  1  0.961181  0.259777  0.363579  1
  O  O19  1  0.007079  0.252496  0.109872  1
  O  O20  1  0.245416  0.252496  0.890128  1
  O  O21  1  0.298596  0.259777  0.636421  1
  O  O22  1  0.007079  0.754584  0.890128  1
  O  O23  1  0.961181  0.701404  0.636421  1
  O  O24  1  0.245416  0.992921  0.109872  1
  O  O25  1  0.298596  0.038819  0.363579  1
