# generated using pymatgen
data_NpS23
_symmetry_space_group_name_H-M   'P 1'
_cell_length_a   5.59544714
_cell_length_b   9.59366147
_cell_length_c   16.29899500
_cell_angle_alpha   82.42591977
_cell_angle_beta   85.98404499
_cell_angle_gamma   91.36398319
_symmetry_Int_Tables_number   1
_chemical_formula_structural   NpS23
_chemical_formula_sum   'Np1 S23'
_cell_volume   864.69732289
_cell_formula_units_Z   1
loop_
 _symmetry_equiv_pos_site_id
 _symmetry_equiv_pos_as_xyz
  1  'x, y, z'
loop_
 _atom_site_type_symbol
 _atom_site_label
 _atom_site_symmetry_multiplicity
 _atom_site_fract_x
 _atom_site_fract_y
 _atom_site_fract_z
 _atom_site_occupancy
  Np  Np0  1  0.596660  0.178875  0.423944  1
  S  S1  1  0.737332  0.922438  0.396749  1
  S  S2  1  0.027091  0.298565  0.095995  1
  S  S3  1  0.770893  0.237590  0.562444  1
  S  S4  1  0.475342  0.892131  0.491805  1
  S  S5  1  0.177598  0.280299  0.978792  1
  S  S6  1  0.821862  0.736494  0.024720  1
  S  S7  1  0.105330  0.182692  0.381985  1
  S  S8  1  0.576245  0.368961  0.289323  1
  S  S9  1  0.864744  0.107767  0.146300  1
  S  S10  1  0.276035  0.868723  0.115926  1
  S  S11  1  0.698402  0.656370  0.636710  1
  S  S12  1  0.302443  0.456609  0.565763  1
  S  S13  1  0.150777  0.901347  0.859010  1
  S  S14  1  0.734576  0.139642  0.884201  1
  S  S15  1  0.070650  0.688546  0.111068  1
  S  S16  1  0.616120  0.863177  0.610140  1
  S  S17  1  0.407656  0.245022  0.584476  1
  S  S18  1  0.973487  0.714255  0.908092  1
  S  S19  1  0.925592  0.323505  0.892945  1
  S  S20  1  0.280895  0.382832  0.368128  1
  S  S21  1  0.116893  0.982054  0.202995  1
  S  S22  1  0.380239  0.539943  0.670495  1
  S  S23  1  0.913137  0.032161  0.797997  1
