# generated using pymatgen
data_Rb7Ta(SO4)6
_symmetry_space_group_name_H-M   'P 1'
_cell_length_a   9.79478247
_cell_length_b   9.79478327
_cell_length_c   9.79478365
_cell_angle_alpha   109.76096306
_cell_angle_beta   109.76095662
_cell_angle_gamma   109.76097056
_symmetry_Int_Tables_number   1
_chemical_formula_structural   Rb7Ta(SO4)6
_chemical_formula_sum   'Rb7 Ta1 S6 O24'
_cell_volume   715.50836590
_cell_formula_units_Z   1
loop_
 _symmetry_equiv_pos_site_id
 _symmetry_equiv_pos_as_xyz
  1  'x, y, z'
loop_
 _atom_site_type_symbol
 _atom_site_label
 _atom_site_symmetry_multiplicity
 _atom_site_fract_x
 _atom_site_fract_y
 _atom_site_fract_z
 _atom_site_occupancy
  Rb  Rb0  1  0.500000  0.500000  0.500000  1
  Rb  Rb1  1  0.836050  0.334765  0.677573  1
  Rb  Rb2  1  0.334765  0.677573  0.836050  1
  Rb  Rb3  1  0.677573  0.836050  0.334765  1
  Rb  Rb4  1  0.163950  0.665235  0.322427  1
  Rb  Rb5  1  0.665235  0.322427  0.163950  1
  Rb  Rb6  1  0.322427  0.163950  0.665235  1
  Ta  Ta7  1  0.000000  0.000000  0.000000  1
  S  S8  1  0.969371  0.750567  0.627372  1
  S  S9  1  0.750567  0.627372  0.969371  1
  S  S10  1  0.627372  0.969371  0.750567  1
  S  S11  1  0.030629  0.249433  0.372628  1
  S  S12  1  0.249433  0.372628  0.030629  1
  S  S13  1  0.372628  0.030629  0.249433  1
  O  O14  1  0.412237  0.910421  0.159482  1
  O  O15  1  0.910421  0.159482  0.412237  1
  O  O16  1  0.159482  0.412237  0.910421  1
  O  O17  1  0.587763  0.089579  0.840518  1
  O  O18  1  0.089579  0.840518  0.587763  1
  O  O19  1  0.840518  0.587763  0.089579  1
  O  O20  1  0.311307  0.986961  0.354726  1
  O  O21  1  0.986961  0.354726  0.311307  1
  O  O22  1  0.354726  0.311307  0.986961  1
  O  O23  1  0.688693  0.013039  0.645274  1
  O  O24  1  0.013039  0.645274  0.688693  1
  O  O25  1  0.645274  0.688693  0.013039  1
  O  O26  1  0.775798  0.978418  0.890820  1
  O  O27  1  0.978418  0.890820  0.775798  1
  O  O28  1  0.655779  0.486239  0.793604  1
  O  O29  1  0.793604  0.655779  0.486239  1
  O  O30  1  0.486239  0.793604  0.655779  1
  O  O31  1  0.344221  0.513761  0.206396  1
  O  O32  1  0.206396  0.344221  0.513761  1
  O  O33  1  0.513761  0.206396  0.344221  1
  O  O34  1  0.109180  0.224202  0.021582  1
  O  O35  1  0.021582  0.109180  0.224202  1
  O  O36  1  0.224202  0.021582  0.109180  1
  O  O37  1  0.890820  0.775798  0.978418  1
