# generated using pymatgen
data_CaAc3(MgIr)4
_symmetry_space_group_name_H-M   'P 1'
_cell_length_a   4.31423500
_cell_length_b   7.47775434
_cell_length_c   8.76597565
_cell_angle_alpha   89.94706974
_cell_angle_beta   90.00000000
_cell_angle_gamma   90.00000000
_symmetry_Int_Tables_number   1
_chemical_formula_structural   CaAc3(MgIr)4
_chemical_formula_sum   'Ca1 Ac3 Mg4 Ir4'
_cell_volume   282.79717448
_cell_formula_units_Z   1
loop_
 _symmetry_equiv_pos_site_id
 _symmetry_equiv_pos_as_xyz
  1  'x, y, z'
loop_
 _atom_site_type_symbol
 _atom_site_label
 _atom_site_symmetry_multiplicity
 _atom_site_fract_x
 _atom_site_fract_y
 _atom_site_fract_z
 _atom_site_occupancy
  Ca  Ca0  1  0.750000  0.465037  0.819209  1
  Ac  Ac1  1  0.250000  0.033535  0.320873  1
  Ac  Ac2  1  0.250000  0.531486  0.172044  1
  Ac  Ac3  1  0.750000  0.966335  0.682091  1
  Mg  Mg4  1  0.250000  0.143201  0.939485  1
  Mg  Mg5  1  0.250000  0.626088  0.564628  1
  Mg  Mg6  1  0.750000  0.866015  0.054009  1
  Mg  Mg7  1  0.750000  0.369058  0.448464  1
  Ir  Ir8  1  0.250000  0.260385  0.623102  1
  Ir  Ir9  1  0.250000  0.769840  0.874604  1
  Ir  Ir10  1  0.750000  0.734267  0.374767  1
  Ir  Ir11  1  0.750000  0.234753  0.126724  1
