# generated using pymatgen
data_K2LaP2Se7
_symmetry_space_group_name_H-M   'P 1'
_cell_length_a   7.34274900
_cell_length_b   9.61446806
_cell_length_c   22.32902700
_cell_angle_alpha   71.15978304
_cell_angle_beta   90.00000000
_cell_angle_gamma   90.00000000
_symmetry_Int_Tables_number   1
_chemical_formula_structural   K2LaP2Se7
_chemical_formula_sum   'K8 La4 P8 Se28'
_cell_volume   1491.89736637
_cell_formula_units_Z   4
loop_
 _symmetry_equiv_pos_site_id
 _symmetry_equiv_pos_as_xyz
  1  'x, y, z'
loop_
 _atom_site_type_symbol
 _atom_site_label
 _atom_site_symmetry_multiplicity
 _atom_site_fract_x
 _atom_site_fract_y
 _atom_site_fract_z
 _atom_site_occupancy
  K  K0  1  0.510179  0.753337  0.490809  1
  K  K1  1  0.010179  0.246663  0.009191  1
  K  K2  1  0.489821  0.246663  0.509191  1
  K  K3  1  0.989821  0.753337  0.990809  1
  K  K4  1  0.049888  0.841832  0.317047  1
  K  K5  1  0.549888  0.158168  0.182953  1
  K  K6  1  0.950112  0.158168  0.682953  1
  K  K7  1  0.450112  0.841832  0.817047  1
  La  La8  1  0.970484  0.344351  0.350105  1
  La  La9  1  0.470484  0.655649  0.149895  1
  La  La10  1  0.029516  0.655649  0.649895  1
  La  La11  1  0.529516  0.344351  0.850105  1
  P  P12  1  0.515801  0.574219  0.330363  1
  P  P13  1  0.015801  0.425781  0.169637  1
  P  P14  1  0.484199  0.425781  0.669637  1
  P  P15  1  0.984199  0.574219  0.830363  1
  P  P16  1  0.988463  0.037883  0.542644  1
  P  P17  1  0.488463  0.962117  0.957356  1
  P  P18  1  0.011537  0.962117  0.457356  1
  P  P19  1  0.511537  0.037883  0.042643  1
  Se  Se20  1  0.955280  0.277782  0.502702  1
  Se  Se21  1  0.455280  0.722218  0.997298  1
  Se  Se22  1  0.044720  0.722218  0.497298  1
  Se  Se23  1  0.544720  0.277782  0.002702  1
  Se  Se24  1  0.277076  0.512926  0.395040  1
  Se  Se25  1  0.777076  0.487074  0.104960  1
  Se  Se26  1  0.722924  0.487074  0.604960  1
  Se  Se27  1  0.222924  0.512926  0.895040  1
  Se  Se28  1  0.588268  0.413735  0.280047  1
  Se  Se29  1  0.088268  0.586265  0.219953  1
  Se  Se30  1  0.411732  0.586265  0.719953  1
  Se  Se31  1  0.911732  0.413735  0.780047  1
  Se  Se32  1  0.966311  0.209338  0.243617  1
  Se  Se33  1  0.466311  0.790662  0.256383  1
  Se  Se34  1  0.033689  0.790662  0.756383  1
  Se  Se35  1  0.533689  0.209338  0.743617  1
  Se  Se36  1  0.764301  0.043422  0.400137  1
  Se  Se37  1  0.264301  0.956578  0.099863  1
  Se  Se38  1  0.235699  0.956578  0.599863  1
  Se  Se39  1  0.735699  0.043422  0.900137  1
  Se  Se40  1  0.249497  0.076938  0.403587  1
  Se  Se41  1  0.749497  0.923062  0.096413  1
  Se  Se42  1  0.750503  0.923062  0.596413  1
  Se  Se43  1  0.250503  0.076938  0.903587  1
  Se  Se44  1  0.752956  0.579763  0.391396  1
  Se  Se45  1  0.252956  0.420237  0.108604  1
  Se  Se46  1  0.247044  0.420237  0.608604  1
  Se  Se47  1  0.747044  0.579763  0.891396  1
