# generated using pymatgen
data_La6Be(P3Rh5)4
_symmetry_space_group_name_H-M   'P 1'
_cell_length_a   13.56694600
_cell_length_b   13.56694560
_cell_length_c   3.97405800
_cell_angle_alpha   90.00000000
_cell_angle_beta   90.00000000
_cell_angle_gamma   119.99999611
_symmetry_Int_Tables_number   1
_chemical_formula_structural   La6Be(P3Rh5)4
_chemical_formula_sum   'La6 Be1 P12 Rh20'
_cell_volume   633.47434311
_cell_formula_units_Z   1
loop_
 _symmetry_equiv_pos_site_id
 _symmetry_equiv_pos_as_xyz
  1  'x, y, z'
loop_
 _atom_site_type_symbol
 _atom_site_label
 _atom_site_symmetry_multiplicity
 _atom_site_fract_x
 _atom_site_fract_y
 _atom_site_fract_z
 _atom_site_occupancy
  La  La0  1  0.530884  0.718500  0.247466  1
  La  La1  1  0.281500  0.812384  0.247466  1
  La  La2  1  0.187616  0.469116  0.247466  1
  La  La3  1  0.469116  0.281500  0.752534  1
  La  La4  1  0.718500  0.187616  0.752534  1
  La  La5  1  0.812384  0.530884  0.752534  1
  Be  Be6  1  0.000000  0.000000  0.000000  1
  P  P7  1  0.519487  0.132674  0.250889  1
  P  P8  1  0.867326  0.386815  0.250889  1
  P  P9  1  0.613185  0.480513  0.250889  1
  P  P10  1  0.950128  0.725279  0.253163  1
  P  P11  1  0.274721  0.224849  0.253163  1
  P  P12  1  0.775151  0.049872  0.253163  1
  P  P13  1  0.386815  0.519487  0.749111  1
  P  P14  1  0.480513  0.867326  0.749111  1
  P  P15  1  0.132674  0.613185  0.749111  1
  P  P16  1  0.725279  0.775151  0.746837  1
  P  P17  1  0.224849  0.950128  0.746837  1
  P  P18  1  0.049872  0.274721  0.746837  1
  Rh  Rh19  1  0.333333  0.666667  0.751527  1
  Rh  Rh20  1  0.925390  0.248795  0.255424  1
  Rh  Rh21  1  0.751205  0.676595  0.255424  1
  Rh  Rh22  1  0.323405  0.074610  0.255424  1
  Rh  Rh23  1  0.440050  0.025480  0.750922  1
  Rh  Rh24  1  0.974520  0.414571  0.750922  1
  Rh  Rh25  1  0.585429  0.559950  0.750922  1
  Rh  Rh26  1  0.666667  0.333333  0.248473  1
  Rh  Rh27  1  0.090925  0.187622  0.240369  1
  Rh  Rh28  1  0.812378  0.903303  0.240369  1
  Rh  Rh29  1  0.096697  0.909075  0.240369  1
  Rh  Rh30  1  0.025480  0.585429  0.249078  1
  Rh  Rh31  1  0.414571  0.440050  0.249078  1
  Rh  Rh32  1  0.559950  0.974520  0.249078  1
  Rh  Rh33  1  0.676595  0.925390  0.744576  1
  Rh  Rh34  1  0.074610  0.751205  0.744576  1
  Rh  Rh35  1  0.248795  0.323405  0.744576  1
  Rh  Rh36  1  0.909075  0.812378  0.759631  1
  Rh  Rh37  1  0.187622  0.096697  0.759631  1
  Rh  Rh38  1  0.903303  0.090925  0.759631  1
