# generated using pymatgen
data_LaY15(In3Tc)2
_symmetry_space_group_name_H-M   'P 1'
_cell_length_a   10.46816471
_cell_length_b   10.46816566
_cell_length_c   7.12596378
_cell_angle_alpha   90.59209096
_cell_angle_beta   89.40790608
_cell_angle_gamma   119.39145334
_symmetry_Int_Tables_number   1
_chemical_formula_structural   LaY15(In3Tc)2
_chemical_formula_sum   'La1 Y15 In6 Tc2'
_cell_volume   680.32257308
_cell_formula_units_Z   1
loop_
 _symmetry_equiv_pos_site_id
 _symmetry_equiv_pos_as_xyz
  1  'x, y, z'
loop_
 _atom_site_type_symbol
 _atom_site_label
 _atom_site_symmetry_multiplicity
 _atom_site_fract_x
 _atom_site_fract_y
 _atom_site_fract_z
 _atom_site_occupancy
  La  La0  1  0.462720  0.537280  0.488180  1
  Y  Y1  1  0.061903  0.530304  0.476915  1
  Y  Y2  1  0.469696  0.938097  0.476915  1
  Y  Y3  1  0.532522  0.467478  0.982305  1
  Y  Y4  1  0.932462  0.467174  0.977213  1
  Y  Y5  1  0.532826  0.067538  0.977213  1
  Y  Y6  1  0.822165  0.177835  0.272487  1
  Y  Y7  1  0.352370  0.176682  0.275476  1
  Y  Y8  1  0.823318  0.647630  0.275476  1
  Y  Y9  1  0.179308  0.820692  0.776043  1
  Y  Y10  1  0.653453  0.828412  0.777494  1
  Y  Y11  1  0.171588  0.346547  0.777494  1
  Y  Y12  1  0.332456  0.667544  0.100106  1
  Y  Y13  1  0.666771  0.333229  0.606064  1
  Y  Y14  1  0.001084  0.998916  0.496574  1
  Y  Y15  1  0.000973  0.999027  0.997064  1
  In  In16  1  0.162224  0.837776  0.237571  1
  In  In17  1  0.675329  0.841495  0.231486  1
  In  In18  1  0.158505  0.324671  0.231486  1
  In  In19  1  0.836627  0.163373  0.734026  1
  In  In20  1  0.326295  0.160236  0.736329  1
  In  In21  1  0.839764  0.673705  0.736329  1
  Tc  Tc22  1  0.340300  0.659700  0.696872  1
  Tc  Tc23  1  0.665343  0.334657  0.207434  1
