# generated using pymatgen
data_Hf2ScSnRu4
_symmetry_space_group_name_H-M   'P 1'
_cell_length_a   6.43294600
_cell_length_b   6.44198601
_cell_length_c   6.45867901
_cell_angle_alpha   89.99580736
_cell_angle_beta   89.99794679
_cell_angle_gamma   90.00328448
_symmetry_Int_Tables_number   1
_chemical_formula_structural   Hf2ScSnRu4
_chemical_formula_sum   'Hf4 Sc2 Sn2 Ru8'
_cell_volume   267.65378038
_cell_formula_units_Z   2
loop_
 _symmetry_equiv_pos_site_id
 _symmetry_equiv_pos_as_xyz
  1  'x, y, z'
loop_
 _atom_site_type_symbol
 _atom_site_label
 _atom_site_symmetry_multiplicity
 _atom_site_fract_x
 _atom_site_fract_y
 _atom_site_fract_z
 _atom_site_occupancy
  Hf  Hf0  1  0.749935  0.250005  0.999995  1
  Hf  Hf1  1  0.250062  0.749998  0.999988  1
  Hf  Hf2  1  0.249939  0.749997  0.499971  1
  Hf  Hf3  1  0.750062  0.249998  0.500048  1
  Sc  Sc4  1  0.749858  0.749993  0.500767  1
  Sc  Sc5  1  0.249848  0.250008  0.999241  1
  Sn  Sn6  1  0.750171  0.749995  0.000769  1
  Sn  Sn7  1  0.250163  0.250001  0.499212  1
  Ru  Ru8  1  0.500060  0.499956  0.249891  1
  Ru  Ru9  1  0.500048  0.999997  0.249896  1
  Ru  Ru10  1  0.000004  0.500035  0.250111  1
  Ru  Ru11  1  0.999994  0.000010  0.250110  1
  Ru  Ru12  1  0.999986  0.499968  0.749892  1
  Ru  Ru13  1  0.999997  0.999986  0.749888  1
  Ru  Ru14  1  0.499933  0.500040  0.750109  1
  Ru  Ru15  1  0.499944  0.000007  0.750112  1
