# generated using pymatgen
data_TbTm(ReN3)2
_symmetry_space_group_name_H-M   'P 1'
_cell_length_a   7.37299149
_cell_length_b   7.37303474
_cell_length_c   6.27892776
_cell_angle_alpha   72.78436610
_cell_angle_beta   72.78470833
_cell_angle_gamma   81.82054487
_symmetry_Int_Tables_number   1
_chemical_formula_structural   TbTm(ReN3)2
_chemical_formula_sum   'Tb2 Tm2 Re4 N12'
_cell_volume   310.87194784
_cell_formula_units_Z   2
loop_
 _symmetry_equiv_pos_site_id
 _symmetry_equiv_pos_as_xyz
  1  'x, y, z'
loop_
 _atom_site_type_symbol
 _atom_site_label
 _atom_site_symmetry_multiplicity
 _atom_site_fract_x
 _atom_site_fract_y
 _atom_site_fract_z
 _atom_site_occupancy
  Tb  Tb0  1  0.712191  0.287811  0.250001  1
  Tb  Tb1  1  0.287809  0.712189  0.749999  1
  Tm  Tm2  1  0.906942  0.093058  0.750002  1
  Tm  Tm3  1  0.093058  0.906942  0.249998  1
  Re  Re4  1  0.623231  0.795852  0.280723  1
  Re  Re5  1  0.204152  0.376767  0.219277  1
  Re  Re6  1  0.376769  0.204148  0.719277  1
  Re  Re7  1  0.795848  0.623233  0.780723  1
  N  N8  1  0.667862  0.635150  0.084423  1
  N  N9  1  0.372776  0.872461  0.335787  1
  N  N10  1  0.364850  0.332138  0.415568  1
  N  N11  1  0.127534  0.627222  0.164223  1
  N  N12  1  0.007500  0.214732  0.341975  1
  N  N13  1  0.785264  0.992499  0.158026  1
  N  N14  1  0.214736  0.007501  0.841974  1
  N  N15  1  0.627224  0.127539  0.664213  1
  N  N16  1  0.332138  0.364850  0.915577  1
  N  N17  1  0.872466  0.372778  0.835777  1
  N  N18  1  0.635150  0.667862  0.584432  1
  N  N19  1  0.992500  0.785268  0.658025  1
