# generated using pymatgen
data_Cs5Np2S4Cl9
_symmetry_space_group_name_H-M   'P 1'
_cell_length_a   10.86549670
_cell_length_b   10.86549686
_cell_length_c   10.86549624
_cell_angle_alpha   139.33034982
_cell_angle_beta   120.93559179
_cell_angle_gamma   74.18370919
_symmetry_Int_Tables_number   1
_chemical_formula_structural   Cs5Np2S4Cl9
_chemical_formula_sum   'Cs5 Np2 S4 Cl9'
_cell_volume   701.07369639
_cell_formula_units_Z   1
loop_
 _symmetry_equiv_pos_site_id
 _symmetry_equiv_pos_as_xyz
  1  'x, y, z'
loop_
 _atom_site_type_symbol
 _atom_site_label
 _atom_site_symmetry_multiplicity
 _atom_site_fract_x
 _atom_site_fract_y
 _atom_site_fract_z
 _atom_site_occupancy
  Cs  Cs0  1  0.433498  0.659008  0.774490  1
  Cs  Cs1  1  0.884518  0.659008  0.225510  1
  Cs  Cs2  1  0.500000  0.000000  0.500000  1
  Cs  Cs3  1  0.566502  0.340992  0.225510  1
  Cs  Cs4  1  0.115482  0.340992  0.774490  1
  Np  Np5  1  0.108667  0.108667  0.000000  1
  Np  Np6  1  0.891333  0.891333  0.000000  1
  S  S7  1  0.095470  0.764227  0.859697  1
  S  S8  1  0.904530  0.764227  0.668758  1
  S  S9  1  0.904530  0.235773  0.140303  1
  S  S10  1  0.095470  0.235773  0.331242  1
  Cl  Cl11  1  0.218727  0.972217  0.753489  1
  Cl  Cl12  1  0.609945  0.864405  0.745541  1
  Cl  Cl13  1  0.781273  0.027783  0.246511  1
  Cl  Cl14  1  0.390055  0.135595  0.254459  1
  Cl  Cl15  1  0.118864  0.864405  0.254459  1
  Cl  Cl16  1  0.218727  0.465238  0.246511  1
  Cl  Cl17  1  0.781273  0.534762  0.753489  1
  Cl  Cl18  1  0.881136  0.135595  0.745541  1
  Cl  Cl19  1  0.500000  0.500000  0.000000  1
