# generated using pymatgen
data_Pr2NdSmGeI5
_symmetry_space_group_name_H-M   'P 1'
_cell_length_a   10.07640122
_cell_length_b   10.07639994
_cell_length_c   9.12497918
_cell_angle_alpha   77.74459613
_cell_angle_beta   77.74459705
_cell_angle_gamma   25.04024839
_symmetry_Int_Tables_number   1
_chemical_formula_structural   Pr2NdSmGeI5
_chemical_formula_sum   'Pr2 Nd1 Sm1 Ge1 I5'
_cell_volume   382.76055895
_cell_formula_units_Z   1
loop_
 _symmetry_equiv_pos_site_id
 _symmetry_equiv_pos_as_xyz
  1  'x, y, z'
loop_
 _atom_site_type_symbol
 _atom_site_label
 _atom_site_symmetry_multiplicity
 _atom_site_fract_x
 _atom_site_fract_y
 _atom_site_fract_z
 _atom_site_occupancy
  Pr  Pr0  1  0.500831  0.500831  0.216282  1
  Pr  Pr1  1  0.499130  0.499130  0.783767  1
  Nd  Nd2  1  0.853075  0.853075  0.074967  1
  Sm  Sm3  1  0.146747  0.146747  0.924707  1
  Ge  Ge4  1  0.000939  0.000939  0.999533  1
  I  I5  1  0.672663  0.672663  0.163268  1
  I  I6  1  0.326400  0.326400  0.832814  1
  I  I7  1  0.667253  0.667253  0.669729  1
  I  I8  1  0.332875  0.332875  0.334935  1
  I  I9  1  0.000087  0.000087  0.499998  1
