# generated using pymatgen
data_Ho2Ni9Mo3As7
_symmetry_space_group_name_H-M   'P 1'
_cell_length_a   3.85834000
_cell_length_b   9.48631034
_cell_length_c   9.48631000
_cell_angle_alpha   119.99999693
_cell_angle_beta   90.00000000
_cell_angle_gamma   90.00000000
_symmetry_Int_Tables_number   1
_chemical_formula_structural   Ho2Ni9Mo3As7
_chemical_formula_sum   'Ho2 Ni9 Mo3 As7'
_cell_volume   300.69470575
_cell_formula_units_Z   1
loop_
 _symmetry_equiv_pos_site_id
 _symmetry_equiv_pos_as_xyz
  1  'x, y, z'
loop_
 _atom_site_type_symbol
 _atom_site_label
 _atom_site_symmetry_multiplicity
 _atom_site_fract_x
 _atom_site_fract_y
 _atom_site_fract_z
 _atom_site_occupancy
  Ho  Ho0  1  0.000000  0.666667  0.333333  1
  Ho  Ho1  1  0.500000  0.333333  0.666667  1
  Ni  Ni2  1  0.000000  0.568959  0.938171  1
  Ni  Ni3  1  0.000000  0.369212  0.431041  1
  Ni  Ni4  1  0.000000  0.061829  0.630788  1
  Ni  Ni5  1  0.000000  0.870765  0.155193  1
  Ni  Ni6  1  0.000000  0.284428  0.129235  1
  Ni  Ni7  1  0.000000  0.844807  0.715572  1
  Ni  Ni8  1  0.500000  0.942021  0.380904  1
  Ni  Ni9  1  0.500000  0.438882  0.057979  1
  Ni  Ni10  1  0.500000  0.619096  0.561118  1
  Mo  Mo11  1  0.500000  0.784762  0.897510  1
  Mo  Mo12  1  0.500000  0.112748  0.215238  1
  Mo  Mo13  1  0.500000  0.102490  0.887252  1
  As  As14  1  0.000000  0.000000  0.000000  1
  As  As15  1  0.500000  0.707528  0.116498  1
  As  As16  1  0.500000  0.408971  0.292472  1
  As  As17  1  0.500000  0.883502  0.591029  1
  As  As18  1  0.000000  0.587495  0.700898  1
  As  As19  1  0.000000  0.113404  0.412505  1
  As  As20  1  0.000000  0.299102  0.886596  1
