# generated using pymatgen
data_Eu2Sb2PtRh
_symmetry_space_group_name_H-M   'P 1'
_cell_length_a   4.69878300
_cell_length_b   7.57449600
_cell_length_c   7.93161300
_cell_angle_alpha   90.00000000
_cell_angle_beta   90.00000000
_cell_angle_gamma   90.00000000
_symmetry_Int_Tables_number   1
_chemical_formula_structural   Eu2Sb2PtRh
_chemical_formula_sum   'Eu4 Sb4 Pt2 Rh2'
_cell_volume   282.29334854
_cell_formula_units_Z   2
loop_
 _symmetry_equiv_pos_site_id
 _symmetry_equiv_pos_as_xyz
  1  'x, y, z'
loop_
 _atom_site_type_symbol
 _atom_site_label
 _atom_site_symmetry_multiplicity
 _atom_site_fract_x
 _atom_site_fract_y
 _atom_site_fract_z
 _atom_site_occupancy
  Eu  Eu0  1  0.750000  0.486292  0.804909  1
  Eu  Eu1  1  0.250000  0.010899  0.303030  1
  Eu  Eu2  1  0.750000  0.986292  0.695091  1
  Eu  Eu3  1  0.250000  0.510899  0.196970  1
  Sb  Sb4  1  0.250000  0.680252  0.593173  1
  Sb  Sb5  1  0.250000  0.180252  0.906827  1
  Sb  Sb6  1  0.750000  0.314145  0.417125  1
  Sb  Sb7  1  0.750000  0.814145  0.082875  1
  Pt  Pt8  1  0.750000  0.699337  0.412600  1
  Pt  Pt9  1  0.750000  0.199337  0.087400  1
  Rh  Rh10  1  0.250000  0.809075  0.912377  1
  Rh  Rh11  1  0.250000  0.309075  0.587623  1
