# generated using pymatgen
data_Lu3Th(CdNi2)2
_symmetry_space_group_name_H-M   'P 1'
_cell_length_a   7.42438471
_cell_length_b   7.42438491
_cell_length_c   3.54784300
_cell_angle_alpha   90.00000000
_cell_angle_beta   90.00000000
_cell_angle_gamma   91.16584061
_symmetry_Int_Tables_number   1
_chemical_formula_structural   Lu3Th(CdNi2)2
_chemical_formula_sum   'Lu3 Th1 Cd2 Ni4'
_cell_volume   195.52190874
_cell_formula_units_Z   1
loop_
 _symmetry_equiv_pos_site_id
 _symmetry_equiv_pos_as_xyz
  1  'x, y, z'
loop_
 _atom_site_type_symbol
 _atom_site_label
 _atom_site_symmetry_multiplicity
 _atom_site_fract_x
 _atom_site_fract_y
 _atom_site_fract_z
 _atom_site_occupancy
  Lu  Lu0  1  0.828909  0.668813  0.500000  1
  Lu  Lu1  1  0.168813  0.328909  0.500000  1
  Lu  Lu2  1  0.673628  0.173628  0.500000  1
  Th  Th3  1  0.327977  0.827977  0.500000  1
  Cd  Cd4  1  0.988699  0.007306  0.000000  1
  Cd  Cd5  1  0.507306  0.488699  0.000000  1
  Ni  Ni6  1  0.376436  0.121811  0.000000  1
  Ni  Ni7  1  0.882144  0.382144  0.000000  1
  Ni  Ni8  1  0.124280  0.624280  0.000000  1
  Ni  Ni9  1  0.621811  0.876436  0.000000  1
