# generated using pymatgen
data_Tb4ZnCo12GeB6
_symmetry_space_group_name_H-M   'P 1'
_cell_length_a   5.13502708
_cell_length_b   5.13269264
_cell_length_c   12.47528600
_cell_angle_alpha   89.99879795
_cell_angle_beta   90.00101033
_cell_angle_gamma   119.95816594
_symmetry_Int_Tables_number   1
_chemical_formula_structural   Tb4ZnCo12GeB6
_chemical_formula_sum   'Tb4 Zn1 Co12 Ge1 B6'
_cell_volume   284.87350565
_cell_formula_units_Z   1
loop_
 _symmetry_equiv_pos_site_id
 _symmetry_equiv_pos_as_xyz
  1  'x, y, z'
loop_
 _atom_site_type_symbol
 _atom_site_label
 _atom_site_symmetry_multiplicity
 _atom_site_fract_x
 _atom_site_fract_y
 _atom_site_fract_z
 _atom_site_occupancy
  Tb  Tb0  1  0.999931  0.999957  0.259557  1
  Tb  Tb1  1  0.999872  0.999977  0.499968  1
  Tb  Tb2  1  0.000047  0.000065  0.999878  1
  Tb  Tb3  1  0.000034  0.000019  0.740535  1
  Zn  Zn4  1  0.666697  0.333505  0.999934  1
  Co  Co5  1  0.500109  0.000262  0.614723  1
  Co  Co6  1  0.498896  0.997709  0.840275  1
  Co  Co7  1  0.498887  0.501175  0.840221  1
  Co  Co8  1  0.500074  0.499809  0.385328  1
  Co  Co9  1  0.999753  0.499882  0.614747  1
  Co  Co10  1  0.002288  0.501113  0.159760  1
  Co  Co11  1  0.002391  0.501197  0.840232  1
  Co  Co12  1  0.498852  0.501146  0.159714  1
  Co  Co13  1  0.500058  0.000216  0.385339  1
  Co  Co14  1  0.498781  0.997681  0.159670  1
  Co  Co15  1  0.500119  0.499863  0.614742  1
  Co  Co16  1  0.999701  0.499835  0.385296  1
  Ge  Ge17  1  0.333437  0.666603  0.999899  1
  B  B18  1  0.666657  0.333286  0.732076  1
  B  B19  1  0.333434  0.666792  0.730576  1
  B  B20  1  0.333478  0.666757  0.269522  1
  B  B21  1  0.666787  0.333359  0.499988  1
  B  B22  1  0.666476  0.333188  0.268033  1
  B  B23  1  0.333237  0.666602  0.499988  1
