# generated using pymatgen
data_Nb8AlVTe8
_symmetry_space_group_name_H-M   'P 1'
_cell_length_a   4.94146300
_cell_length_b   11.10314000
_cell_length_c   19.54795800
_cell_angle_alpha   90.00000000
_cell_angle_beta   90.00000000
_cell_angle_gamma   90.00000000
_symmetry_Int_Tables_number   1
_chemical_formula_structural   Nb8AlVTe8
_chemical_formula_sum   'Nb16 Al2 V2 Te16'
_cell_volume   1072.51348403
_cell_formula_units_Z   2
loop_
 _symmetry_equiv_pos_site_id
 _symmetry_equiv_pos_as_xyz
  1  'x, y, z'
loop_
 _atom_site_type_symbol
 _atom_site_label
 _atom_site_symmetry_multiplicity
 _atom_site_fract_x
 _atom_site_fract_y
 _atom_site_fract_z
 _atom_site_occupancy
  Nb  Nb0  1  0.498740  0.598762  0.609141  1
  Nb  Nb1  1  0.498740  0.401238  0.390859  1
  Nb  Nb2  1  0.501260  0.098762  0.890859  1
  Nb  Nb3  1  0.501260  0.901238  0.109141  1
  Nb  Nb4  1  0.001869  0.293870  0.462504  1
  Nb  Nb5  1  0.001869  0.706130  0.537496  1
  Nb  Nb6  1  0.998131  0.793870  0.037496  1
  Nb  Nb7  1  0.998131  0.206130  0.962504  1
  Nb  Nb8  1  0.498254  0.307433  0.556209  1
  Nb  Nb9  1  0.498254  0.692567  0.443791  1
  Nb  Nb10  1  0.501746  0.807433  0.943791  1
  Nb  Nb11  1  0.501746  0.192567  0.056209  1
  Nb  Nb12  1  0.001346  0.433766  0.616815  1
  Nb  Nb13  1  0.001346  0.566234  0.383185  1
  Nb  Nb14  1  0.998654  0.933766  0.883185  1
  Nb  Nb15  1  0.998654  0.066234  0.116815  1
  Al  Al16  1  0.250049  0.500000  0.500000  1
  Al  Al17  1  0.749951  0.000000  0.000000  1
  V  V18  1  0.750046  0.500000  0.500000  1
  V  V19  1  0.249954  0.000000  0.000000  1
  Te  Te20  1  0.996127  0.664056  0.681390  1
  Te  Te21  1  0.996127  0.335944  0.318610  1
  Te  Te22  1  0.003873  0.164056  0.818610  1
  Te  Te23  1  0.003873  0.835944  0.181390  1
  Te  Te24  1  0.503866  0.390197  0.694309  1
  Te  Te25  1  0.503866  0.609803  0.305691  1
  Te  Te26  1  0.496134  0.890197  0.805691  1
  Te  Te27  1  0.496134  0.109803  0.194309  1
  Te  Te28  1  0.504493  0.157578  0.437519  1
  Te  Te29  1  0.504493  0.842422  0.562481  1
  Te  Te30  1  0.495507  0.657578  0.062481  1
  Te  Te31  1  0.495507  0.342422  0.937519  1
  Te  Te32  1  0.004231  0.320051  0.093451  1
  Te  Te33  1  0.004231  0.679949  0.906549  1
  Te  Te34  1  0.995769  0.820051  0.406549  1
  Te  Te35  1  0.995769  0.179949  0.593451  1
