# generated using pymatgen
data_Er12InCo6
_symmetry_space_group_name_H-M   'P 1'
_cell_length_a   8.27297546
_cell_length_b   8.27286748
_cell_length_c   8.27286836
_cell_angle_alpha   109.45532126
_cell_angle_beta   109.43642247
_cell_angle_gamma   109.52141206
_symmetry_Int_Tables_number   1
_chemical_formula_structural   Er12InCo6
_chemical_formula_sum   'Er12 In1 Co6'
_cell_volume   435.86755443
_cell_formula_units_Z   1
loop_
 _symmetry_equiv_pos_site_id
 _symmetry_equiv_pos_as_xyz
  1  'x, y, z'
loop_
 _atom_site_type_symbol
 _atom_site_label
 _atom_site_symmetry_multiplicity
 _atom_site_fract_x
 _atom_site_fract_y
 _atom_site_fract_z
 _atom_site_occupancy
  Er  Er0  1  0.890295  0.192609  0.697686  1
  Er  Er1  1  0.807267  0.697554  0.504932  1
  Er  Er2  1  0.193089  0.302396  0.495585  1
  Er  Er3  1  0.193089  0.697504  0.890693  1
  Er  Er4  1  0.807267  0.302334  0.109713  1
  Er  Er5  1  0.697558  0.504634  0.807085  1
  Er  Er6  1  0.302578  0.495207  0.192902  1
  Er  Er7  1  0.697558  0.890472  0.192924  1
  Er  Er8  1  0.302578  0.109677  0.807371  1
  Er  Er9  1  0.505106  0.807356  0.697749  1
  Er  Er10  1  0.495053  0.192798  0.302255  1
  Er  Er11  1  0.108827  0.807033  0.301794  1
  In  In12  1  0.999939  0.000015  0.999925  1
  Co  Co13  1  0.886147  0.385976  0.500171  1
  Co  Co14  1  0.114378  0.614300  0.500078  1
  Co  Co15  1  0.386176  0.500070  0.886105  1
  Co  Co16  1  0.614863  0.500428  0.114435  1
  Co  Co17  1  0.499117  0.885687  0.385166  1
  Co  Co18  1  0.499117  0.113951  0.613430  1
