# generated using pymatgen
data_U(MnAl5)2
_symmetry_space_group_name_H-M   'P 1'
_cell_length_a   6.77998722
_cell_length_b   6.77751552
_cell_length_c   8.95239241
_cell_angle_alpha   90.02445236
_cell_angle_beta   89.97220089
_cell_angle_gamma   97.98143148
_symmetry_Int_Tables_number   1
_chemical_formula_structural   U(MnAl5)2
_chemical_formula_sum   'U2 Mn4 Al20'
_cell_volume   407.39055852
_cell_formula_units_Z   2
loop_
 _symmetry_equiv_pos_site_id
 _symmetry_equiv_pos_as_xyz
  1  'x, y, z'
loop_
 _atom_site_type_symbol
 _atom_site_label
 _atom_site_symmetry_multiplicity
 _atom_site_fract_x
 _atom_site_fract_y
 _atom_site_fract_z
 _atom_site_occupancy
  U  U0  1  0.127423  0.872650  0.250006  1
  U  U1  1  0.872577  0.127350  0.749994  1
  Mn  Mn2  1  0.500000  0.000000  0.000000  1
  Mn  Mn3  1  0.000000  0.500000  0.000000  1
  Mn  Mn4  1  0.500000  0.000000  0.500000  1
  Mn  Mn5  1  0.000000  0.500000  0.500000  1
  Al  Al6  1  0.224854  0.225017  0.000007  1
  Al  Al7  1  0.775147  0.774984  0.999993  1
  Al  Al8  1  0.374541  0.625336  0.049662  1
  Al  Al9  1  0.842657  0.157511  0.097574  1
  Al  Al10  1  0.476189  0.218424  0.250036  1
  Al  Al11  1  0.132182  0.409710  0.250008  1
  Al  Al12  1  0.781614  0.523802  0.249998  1
  Al  Al13  1  0.590308  0.867761  0.250081  1
  Al  Al14  1  0.842573  0.157447  0.402462  1
  Al  Al15  1  0.374567  0.625419  0.450352  1
  Al  Al16  1  0.224916  0.224931  0.499997  1
  Al  Al17  1  0.775085  0.775070  0.500003  1
  Al  Al18  1  0.625434  0.374582  0.549648  1
  Al  Al19  1  0.157427  0.842553  0.597538  1
  Al  Al20  1  0.409692  0.132238  0.749919  1
  Al  Al21  1  0.218386  0.476197  0.750002  1
  Al  Al22  1  0.867817  0.590290  0.749992  1
  Al  Al23  1  0.523810  0.781576  0.749964  1
  Al  Al24  1  0.157343  0.842489  0.902426  1
  Al  Al25  1  0.625460  0.374665  0.950337  1
