# generated using pymatgen
data_CaLa5NdOsI12
_symmetry_space_group_name_H-M   'P 1'
_cell_length_a   10.25856278
_cell_length_b   10.13602186
_cell_length_c   10.12091624
_cell_angle_alpha   107.04726458
_cell_angle_beta   107.27322656
_cell_angle_gamma   106.92792691
_symmetry_Int_Tables_number   1
_chemical_formula_structural   CaLa5NdOsI12
_chemical_formula_sum   'Ca1 La5 Nd1 Os1 I12'
_cell_volume   874.44114195
_cell_formula_units_Z   1
loop_
 _symmetry_equiv_pos_site_id
 _symmetry_equiv_pos_as_xyz
  1  'x, y, z'
loop_
 _atom_site_type_symbol
 _atom_site_label
 _atom_site_symmetry_multiplicity
 _atom_site_fract_x
 _atom_site_fract_y
 _atom_site_fract_z
 _atom_site_occupancy
  Ca  Ca0  1  0.500045  0.499349  0.499323  1
  La  La1  1  0.029623  0.300854  0.096324  1
  La  La2  1  0.097377  0.030119  0.302119  1
  La  La3  1  0.904726  0.970413  0.698511  1
  La  La4  1  0.970510  0.699396  0.903930  1
  La  La5  1  0.683032  0.898741  0.969510  1
  Nd  Nd6  1  0.311254  0.100720  0.030472  1
  Os  Os7  1  0.999830  0.000081  0.000380  1
  I  I8  1  0.684411  0.231445  0.074631  1
  I  I9  1  0.387872  0.457400  0.158614  1
  I  I10  1  0.075101  0.684334  0.232287  1
  I  I11  1  0.771745  0.926134  0.316649  1
  I  I12  1  0.459506  0.159625  0.385008  1
  I  I13  1  0.164806  0.391237  0.463341  1
  I  I14  1  0.835770  0.608763  0.536950  1
  I  I15  1  0.540389  0.838973  0.609539  1
  I  I16  1  0.231726  0.074879  0.688339  1
  I  I17  1  0.925285  0.315780  0.767919  1
  I  I18  1  0.612134  0.538052  0.838809  1
  I  I19  1  0.314862  0.773708  0.927349  1
