# generated using pymatgen
data_Dy4Er2CrCo17P12
_symmetry_space_group_name_H-M   'P 1'
_cell_length_a   3.68253600
_cell_length_b   10.50751400
_cell_length_c   12.17670100
_cell_angle_alpha   90.00000000
_cell_angle_beta   90.00000000
_cell_angle_gamma   90.00000000
_symmetry_Int_Tables_number   1
_chemical_formula_structural   Dy4Er2CrCo17P12
_chemical_formula_sum   'Dy4 Er2 Cr1 Co17 P12'
_cell_volume   471.16890416
_cell_formula_units_Z   1
loop_
 _symmetry_equiv_pos_site_id
 _symmetry_equiv_pos_as_xyz
  1  'x, y, z'
loop_
 _atom_site_type_symbol
 _atom_site_label
 _atom_site_symmetry_multiplicity
 _atom_site_fract_x
 _atom_site_fract_y
 _atom_site_fract_z
 _atom_site_occupancy
  Dy  Dy0  1  0.750000  0.250000  0.476997  1
  Dy  Dy1  1  0.250000  0.750000  0.522678  1
  Dy  Dy2  1  0.750000  0.067743  0.204287  1
  Dy  Dy3  1  0.750000  0.432257  0.204287  1
  Er  Er4  1  0.250000  0.932219  0.793560  1
  Er  Er5  1  0.250000  0.567781  0.793560  1
  Cr  Cr6  1  0.250000  0.250000  0.845297  1
  Co  Co7  1  0.750000  0.750000  0.160086  1
  Co  Co8  1  0.250000  0.250000  0.297065  1
  Co  Co9  1  0.750000  0.750000  0.703509  1
  Co  Co10  1  0.750000  0.250000  0.011782  1
  Co  Co11  1  0.250000  0.750000  0.984434  1
  Co  Co12  1  0.250000  0.417838  0.006271  1
  Co  Co13  1  0.250000  0.082162  0.006271  1
  Co  Co14  1  0.750000  0.583841  0.993685  1
  Co  Co15  1  0.750000  0.916159  0.993685  1
  Co  Co16  1  0.250000  0.453494  0.569968  1
  Co  Co17  1  0.250000  0.046506  0.569968  1
  Co  Co18  1  0.750000  0.546791  0.431130  1
  Co  Co19  1  0.750000  0.953209  0.431130  1
  Co  Co20  1  0.250000  0.870816  0.291339  1
  Co  Co21  1  0.250000  0.629184  0.291339  1
  Co  Co22  1  0.750000  0.129058  0.709532  1
  Co  Co23  1  0.750000  0.370942  0.709532  1
  P  P24  1  0.250000  0.250000  0.117174  1
  P  P25  1  0.750000  0.750000  0.881723  1
  P  P26  1  0.250000  0.250000  0.653896  1
  P  P27  1  0.750000  0.750000  0.344189  1
  P  P28  1  0.250000  0.439059  0.383942  1
  P  P29  1  0.250000  0.060941  0.383942  1
  P  P30  1  0.750000  0.561398  0.616454  1
  P  P31  1  0.750000  0.938602  0.616454  1
  P  P32  1  0.250000  0.900380  0.107653  1
  P  P33  1  0.250000  0.599620  0.107653  1
  P  P34  1  0.750000  0.095215  0.892766  1
  P  P35  1  0.750000  0.404785  0.892766  1
