# generated using pymatgen
data_Ho3ErNb2(B2Ru5)2
_symmetry_space_group_name_H-M   'P 1'
_cell_length_a   9.66345823
_cell_length_b   9.66345823
_cell_length_c   3.12670500
_cell_angle_alpha   90.00000000
_cell_angle_beta   90.00000000
_cell_angle_gamma   90.02500902
_symmetry_Int_Tables_number   1
_chemical_formula_structural   Ho3ErNb2(B2Ru5)2
_chemical_formula_sum   'Ho3 Er1 Nb2 B4 Ru10'
_cell_volume   291.97926724
_cell_formula_units_Z   1
loop_
 _symmetry_equiv_pos_site_id
 _symmetry_equiv_pos_as_xyz
  1  'x, y, z'
loop_
 _atom_site_type_symbol
 _atom_site_label
 _atom_site_symmetry_multiplicity
 _atom_site_fract_x
 _atom_site_fract_y
 _atom_site_fract_z
 _atom_site_occupancy
  Ho  Ho0  1  0.825169  0.674861  0.000000  1
  Ho  Ho1  1  0.174861  0.325169  0.000000  1
  Ho  Ho2  1  0.325122  0.825122  0.000000  1
  Er  Er3  1  0.674868  0.174868  0.000000  1
  Nb  Nb4  1  0.500025  0.499912  0.000000  1
  Nb  Nb5  1  0.999912  0.000025  0.000000  1
  B  B6  1  0.620285  0.879803  0.000000  1
  B  B7  1  0.379803  0.120285  0.000000  1
  B  B8  1  0.120274  0.620274  0.000000  1
  B  B9  1  0.879604  0.379604  0.000000  1
  Ru  Ru10  1  0.571044  0.718281  0.500000  1
  Ru  Ru11  1  0.429259  0.281622  0.500000  1
  Ru  Ru12  1  0.071074  0.781752  0.500000  1
  Ru  Ru13  1  0.928586  0.218191  0.500000  1
  Ru  Ru14  1  0.281752  0.571074  0.500000  1
  Ru  Ru15  1  0.718191  0.428586  0.500000  1
  Ru  Ru16  1  0.218281  0.071044  0.500000  1
  Ru  Ru17  1  0.781622  0.929259  0.500000  1
  Ru  Ru18  1  0.500302  0.000302  0.500000  1
  Ru  Ru19  1  0.999968  0.499968  0.500000  1
