# generated using pymatgen
data_Ho6TaMn5O18
_symmetry_space_group_name_H-M   'P 1'
_cell_length_a   6.23389319
_cell_length_b   6.22538717
_cell_length_c   11.80007546
_cell_angle_alpha   90.29817282
_cell_angle_beta   89.40444173
_cell_angle_gamma   120.04525873
_symmetry_Int_Tables_number   1
_chemical_formula_structural   Ho6TaMn5O18
_chemical_formula_sum   'Ho6 Ta1 Mn5 O18'
_cell_volume   396.38702817
_cell_formula_units_Z   1
loop_
 _symmetry_equiv_pos_site_id
 _symmetry_equiv_pos_as_xyz
  1  'x, y, z'
loop_
 _atom_site_type_symbol
 _atom_site_label
 _atom_site_symmetry_multiplicity
 _atom_site_fract_x
 _atom_site_fract_y
 _atom_site_fract_z
 _atom_site_occupancy
  Ho  Ho0  1  0.665748  0.341480  0.223760  1
  Ho  Ho1  1  0.328517  0.660740  0.740031  1
  Ho  Ho2  1  0.667777  0.339261  0.740030  1
  Ho  Ho3  1  0.324268  0.658520  0.223760  1
  Ho  Ho4  1  0.008107  0.000001  0.777676  1
  Ho  Ho5  1  0.005501  0.999999  0.266326  1
  Ta  Ta6  1  0.665334  0.999997  0.499541  1
  Mn  Mn7  1  0.667624  0.670293  0.999402  1
  Mn  Mn8  1  0.997329  0.329705  0.999403  1
  Mn  Mn9  1  0.000157  0.665938  0.497665  1
  Mn  Mn10  1  0.334217  0.334061  0.497665  1
  Mn  Mn11  1  0.334950  0.000002  0.999651  1
  O  O12  1  0.667327  0.335639  0.020200  1
  O  O13  1  0.361267  0.695246  0.520537  1
  O  O14  1  0.666020  0.304750  0.520537  1
  O  O15  1  0.331686  0.664360  0.020200  1
  O  O16  1  0.002438  0.000001  0.973755  1
  O  O17  1  0.970463  0.999999  0.472841  1
  O  O18  1  0.363063  0.000001  0.838108  1
  O  O19  1  0.354634  0.355639  0.324680  1
  O  O20  1  0.998995  0.644362  0.324679  1
  O  O21  1  0.998531  0.357278  0.838432  1
  O  O22  1  0.641256  0.642724  0.838433  1
  O  O23  1  0.632994  0.000000  0.333090  1
  O  O24  1  0.308641  0.000000  0.160873  1
  O  O25  1  0.314341  0.313454  0.672192  1
  O  O26  1  0.000888  0.686549  0.672192  1
  O  O27  1  0.994859  0.301155  0.160801  1
  O  O28  1  0.693703  0.698845  0.160801  1
  O  O29  1  0.699366  0.999999  0.668740  1
