# generated using pymatgen
data_Dy3Tm2Sn3
_symmetry_space_group_name_H-M   'P 1'
_cell_length_a   6.49620700
_cell_length_b   8.93812198
_cell_length_c   8.94086600
_cell_angle_alpha   119.98984703
_cell_angle_beta   90.00000000
_cell_angle_gamma   90.00000000
_symmetry_Int_Tables_number   1
_chemical_formula_structural   Dy3Tm2Sn3
_chemical_formula_sum   'Dy6 Tm4 Sn6'
_cell_volume   449.63568642
_cell_formula_units_Z   2
loop_
 _symmetry_equiv_pos_site_id
 _symmetry_equiv_pos_as_xyz
  1  'x, y, z'
loop_
 _atom_site_type_symbol
 _atom_site_label
 _atom_site_symmetry_multiplicity
 _atom_site_fract_x
 _atom_site_fract_y
 _atom_site_fract_z
 _atom_site_occupancy
  Dy  Dy0  1  0.750001  0.239363  0.000000  1
  Dy  Dy1  1  0.749998  0.760557  0.760627  1
  Dy  Dy2  1  0.749998  0.999930  0.239373  1
  Dy  Dy3  1  0.250001  0.760637  0.000000  1
  Dy  Dy4  1  0.249998  0.239443  0.239373  1
  Dy  Dy5  1  0.249998  0.000070  0.760627  1
  Tm  Tm6  1  0.499999  0.333364  0.666751  1
  Tm  Tm7  1  0.499999  0.666612  0.333249  1
  Tm  Tm8  1  0.999999  0.666636  0.333249  1
  Tm  Tm9  1  0.999999  0.333388  0.666751  1
  Sn  Sn10  1  0.749998  0.604672  0.000000  1
  Sn  Sn11  1  0.750003  0.395221  0.395192  1
  Sn  Sn12  1  0.750003  0.000029  0.604808  1
  Sn  Sn13  1  0.249998  0.395328  0.000000  1
  Sn  Sn14  1  0.250003  0.604779  0.604808  1
  Sn  Sn15  1  0.250003  0.999971  0.395192  1
