# generated using pymatgen
data_Y11Ho9Si15Hg
_symmetry_space_group_name_H-M   'P 1'
_cell_length_a   7.44611798
_cell_length_b   7.70550351
_cell_length_c   14.64692636
_cell_angle_alpha   89.92621906
_cell_angle_beta   89.24612507
_cell_angle_gamma   90.08685125
_symmetry_Int_Tables_number   1
_chemical_formula_structural   Y11Ho9Si15Hg
_chemical_formula_sum   'Y11 Ho9 Si15 Hg1'
_cell_volume   840.30891090
_cell_formula_units_Z   1
loop_
 _symmetry_equiv_pos_site_id
 _symmetry_equiv_pos_as_xyz
  1  'x, y, z'
loop_
 _atom_site_type_symbol
 _atom_site_label
 _atom_site_symmetry_multiplicity
 _atom_site_fract_x
 _atom_site_fract_y
 _atom_site_fract_z
 _atom_site_occupancy
  Y  Y0  1  0.650107  0.991313  0.250451  1
  Y  Y1  1  0.152122  0.510288  0.248830  1
  Y  Y2  1  0.848260  0.490504  0.747751  1
  Y  Y3  1  0.347651  0.010594  0.749355  1
  Y  Y4  1  0.978039  0.823864  0.101890  1
  Y  Y5  1  0.472125  0.684000  0.401397  1
  Y  Y6  1  0.516883  0.312417  0.899040  1
  Y  Y7  1  0.029503  0.181704  0.597734  1
  Y  Y8  1  0.026536  0.175657  0.900060  1
  Y  Y9  1  0.528955  0.316204  0.597987  1
  Y  Y10  1  0.476504  0.682433  0.101122  1
  Ho  Ho11  1  0.970267  0.816550  0.400392  1
  Ho  Ho12  1  0.672114  0.830308  0.873619  1
  Ho  Ho13  1  0.182117  0.679833  0.621231  1
  Ho  Ho14  1  0.823030  0.320330  0.126727  1
  Ho  Ho15  1  0.318465  0.177993  0.377910  1
  Ho  Ho16  1  0.324156  0.176825  0.124446  1
  Ho  Ho17  1  0.819709  0.321052  0.377555  1
  Ho  Ho18  1  0.181084  0.675433  0.876926  1
  Ho  Ho19  1  0.682203  0.822600  0.621556  1
  Si  Si20  1  0.769095  0.629097  0.252517  1
  Si  Si21  1  0.268431  0.872929  0.252238  1
  Si  Si22  1  0.733114  0.126786  0.747757  1
  Si  Si23  1  0.229467  0.373036  0.747328  1
  Si  Si24  1  0.024210  0.104579  0.252332  1
  Si  Si25  1  0.524560  0.394408  0.252720  1
  Si  Si26  1  0.475513  0.605246  0.747430  1
  Si  Si27  1  0.975843  0.891336  0.747503  1
  Si  Si28  1  0.355082  0.971330  0.540373  1
  Si  Si29  1  0.653039  0.030354  0.041091  1
  Si  Si30  1  0.146473  0.470588  0.460058  1
  Si  Si31  1  0.162054  0.468841  0.042296  1
  Si  Si32  1  0.646580  0.028652  0.458905  1
  Si  Si33  1  0.347574  0.967480  0.961568  1
  Si  Si34  1  0.855164  0.530685  0.538860  1
  Hg  Hg35  1  0.833972  0.534753  0.961047  1
