# generated using pymatgen
data_Lu4Cu3Sb8
_symmetry_space_group_name_H-M   'P 1'
_cell_length_a   10.42213875
_cell_length_b   10.42213870
_cell_length_c   10.42213924
_cell_angle_alpha   146.16360305
_cell_angle_beta   146.16360245
_cell_angle_gamma   48.60382390
_symmetry_Int_Tables_number   1
_chemical_formula_structural   Lu4Cu3Sb8
_chemical_formula_sum   'Lu4 Cu3 Sb8'
_cell_volume   349.49321725
_cell_formula_units_Z   1
loop_
 _symmetry_equiv_pos_site_id
 _symmetry_equiv_pos_as_xyz
  1  'x, y, z'
loop_
 _atom_site_type_symbol
 _atom_site_label
 _atom_site_symmetry_multiplicity
 _atom_site_fract_x
 _atom_site_fract_y
 _atom_site_fract_z
 _atom_site_occupancy
  Lu  Lu0  1  0.633709  0.633709  0.509929  1
  Lu  Lu1  1  0.123779  0.123779  0.490071  1
  Lu  Lu2  1  0.366291  0.876221  0.000000  1
  Lu  Lu3  1  0.876221  0.366291  0.000000  1
  Cu  Cu4  1  0.000000  0.000000  0.000000  1
  Cu  Cu5  1  0.000000  0.500000  0.500000  1
  Cu  Cu6  1  0.500000  0.000000  0.500000  1
  Sb  Sb7  1  0.336952  0.336952  0.517893  1
  Sb  Sb8  1  0.819059  0.819059  0.482107  1
  Sb  Sb9  1  0.663048  0.180941  0.000000  1
  Sb  Sb10  1  0.180941  0.663048  0.000000  1
  Sb  Sb11  1  0.250039  0.250039  0.000000  1
  Sb  Sb12  1  0.749961  0.749961  0.000000  1
  Sb  Sb13  1  0.750000  0.250000  0.500000  1
  Sb  Sb14  1  0.250000  0.750000  0.500000  1
