# generated using pymatgen
data_PmTcF8
_symmetry_space_group_name_H-M   'P 1'
_cell_length_a   4.51873897
_cell_length_b   4.49914810
_cell_length_c   7.30587200
_cell_angle_alpha   90.65795823
_cell_angle_beta   106.97003166
_cell_angle_gamma   101.46946262
_symmetry_Int_Tables_number   1
_chemical_formula_structural   PmTcF8
_chemical_formula_sum   'Pm1 Tc1 F8'
_cell_volume   138.84405262
_cell_formula_units_Z   1
loop_
 _symmetry_equiv_pos_site_id
 _symmetry_equiv_pos_as_xyz
  1  'x, y, z'
loop_
 _atom_site_type_symbol
 _atom_site_label
 _atom_site_symmetry_multiplicity
 _atom_site_fract_x
 _atom_site_fract_y
 _atom_site_fract_z
 _atom_site_occupancy
  Pm  Pm0  1  0.337373  0.586887  0.299612  1
  Tc  Tc1  1  0.677234  0.357287  0.851021  1
  F  F2  1  0.376813  0.999427  0.788014  1
  F  F3  1  0.965293  0.727262  0.953238  1
  F  F4  1  0.906352  0.242771  0.701644  1
  F  F5  1  0.423542  0.097006  0.336211  1
  F  F6  1  0.431282  0.488443  0.999322  1
  F  F7  1  0.459184  0.545767  0.626580  1
  F  F8  1  0.875337  0.654673  0.355143  1
  F  F9  1  0.898650  0.207555  0.088574  1
