# generated using pymatgen
data_Ti2VFe5B2
_symmetry_space_group_name_H-M   'P 1'
_cell_length_a   8.60048800
_cell_length_b   8.60048800
_cell_length_c   2.86179900
_cell_angle_alpha   90.00000000
_cell_angle_beta   90.00000000
_cell_angle_gamma   90.00000000
_symmetry_Int_Tables_number   1
_chemical_formula_structural   Ti2VFe5B2
_chemical_formula_sum   'Ti4 V2 Fe10 B4'
_cell_volume   211.68267552
_cell_formula_units_Z   2
loop_
 _symmetry_equiv_pos_site_id
 _symmetry_equiv_pos_as_xyz
  1  'x, y, z'
loop_
 _atom_site_type_symbol
 _atom_site_label
 _atom_site_symmetry_multiplicity
 _atom_site_fract_x
 _atom_site_fract_y
 _atom_site_fract_z
 _atom_site_occupancy
  Ti  Ti0  1  0.674803  0.174803  0.000000  1
  Ti  Ti1  1  0.325197  0.825197  0.000000  1
  Ti  Ti2  1  0.174803  0.325197  0.000000  1
  Ti  Ti3  1  0.825197  0.674803  0.000000  1
  V  V4  1  0.500000  0.500000  0.000000  1
  V  V5  1  0.000000  0.000000  0.000000  1
  Fe  Fe6  1  0.568845  0.715188  0.500000  1
  Fe  Fe7  1  0.431155  0.284812  0.500000  1
  Fe  Fe8  1  0.068845  0.784812  0.500000  1
  Fe  Fe9  1  0.931155  0.215188  0.500000  1
  Fe  Fe10  1  0.284812  0.568845  0.500000  1
  Fe  Fe11  1  0.715188  0.431155  0.500000  1
  Fe  Fe12  1  0.215188  0.068845  0.500000  1
  Fe  Fe13  1  0.784812  0.931155  0.500000  1
  Fe  Fe14  1  0.500000  0.000000  0.500000  1
  Fe  Fe15  1  0.000000  0.500000  0.500000  1
  B  B16  1  0.122280  0.622280  0.000000  1
  B  B17  1  0.877720  0.377720  0.000000  1
  B  B18  1  0.622280  0.877720  0.000000  1
  B  B19  1  0.377720  0.122280  0.000000  1
