# generated using pymatgen
data_Ta11Nb(OsW)6
_symmetry_space_group_name_H-M   'P 1'
_cell_length_a   4.51891900
_cell_length_b   6.41993400
_cell_length_c   13.70746400
_cell_angle_alpha   90.00005603
_cell_angle_beta   90.00005462
_cell_angle_gamma   90.00004321
_symmetry_Int_Tables_number   1
_chemical_formula_structural   Ta11Nb(OsW)6
_chemical_formula_sum   'Ta11 Nb1 Os6 W6'
_cell_volume   397.66945503
_cell_formula_units_Z   1
loop_
 _symmetry_equiv_pos_site_id
 _symmetry_equiv_pos_as_xyz
  1  'x, y, z'
loop_
 _atom_site_type_symbol
 _atom_site_label
 _atom_site_symmetry_multiplicity
 _atom_site_fract_x
 _atom_site_fract_y
 _atom_site_fract_z
 _atom_site_occupancy
  Ta  Ta0  1  0.500000  0.750032  0.000001  1
  Ta  Ta1  1  0.999992  0.249918  0.166857  1
  Ta  Ta2  1  0.999991  0.750127  0.166632  1
  Ta  Ta3  1  0.499993  0.250097  0.333350  1
  Ta  Ta4  1  0.499991  0.749980  0.333354  1
  Ta  Ta5  1  0.000000  0.249842  0.499999  1
  Ta  Ta6  1  0.000001  0.749953  0.499998  1
  Ta  Ta7  1  0.500008  0.250096  0.666648  1
  Ta  Ta8  1  0.500008  0.749981  0.666644  1
  Ta  Ta9  1  0.000007  0.249919  0.833145  1
  Ta  Ta10  1  0.000007  0.750125  0.833369  1
  Nb  Nb11  1  0.500001  0.250207  0.000002  1
  Os  Os12  1  0.999999  0.998605  0.999999  1
  Os  Os13  1  0.499990  0.500714  0.167026  1
  Os  Os14  1  0.999993  0.000050  0.333281  1
  Os  Os15  1  0.500001  0.499950  0.500000  1
  Os  Os16  1  0.000007  0.000050  0.666720  1
  Os  Os17  1  0.500009  0.500709  0.832975  1
  W  W18  1  0.000001  0.499412  0.999998  1
  W  W19  1  0.499994  0.000102  0.166667  1
  W  W20  1  0.999993  0.499994  0.333372  1
  W  W21  1  0.500000  0.000041  0.500002  1
  W  W22  1  0.000007  0.499993  0.666630  1
  W  W23  1  0.500007  0.000102  0.833330  1
