# generated using pymatgen
data_Nb8VGeSe16
_symmetry_space_group_name_H-M   'P 1'
_cell_length_a   7.00881400
_cell_length_b   7.00881539
_cell_length_c   13.52052100
_cell_angle_alpha   90.00000000
_cell_angle_beta   90.00000000
_cell_angle_gamma   120.00000289
_symmetry_Int_Tables_number   1
_chemical_formula_structural   Nb8VGeSe16
_chemical_formula_sum   'Nb8 V1 Ge1 Se16'
_cell_volume   575.19248300
_cell_formula_units_Z   1
loop_
 _symmetry_equiv_pos_site_id
 _symmetry_equiv_pos_as_xyz
  1  'x, y, z'
loop_
 _atom_site_type_symbol
 _atom_site_label
 _atom_site_symmetry_multiplicity
 _atom_site_fract_x
 _atom_site_fract_y
 _atom_site_fract_z
 _atom_site_occupancy
  Nb  Nb0  1  0.000000  0.000000  0.261830  1
  Nb  Nb1  1  0.000000  0.000000  0.738170  1
  Nb  Nb2  1  0.506514  0.013027  0.261624  1
  Nb  Nb3  1  0.493486  0.986973  0.738376  1
  Nb  Nb4  1  0.986973  0.493486  0.261624  1
  Nb  Nb5  1  0.013027  0.506514  0.738376  1
  Nb  Nb6  1  0.506514  0.493486  0.261624  1
  Nb  Nb7  1  0.493486  0.506514  0.738376  1
  V  V8  1  0.000000  0.000000  0.500000  1
  Ge  Ge9  1  0.000000  0.000000  0.000000  1
  Se  Se10  1  0.333333  0.666667  0.612256  1
  Se  Se11  1  0.666667  0.333333  0.387744  1
  Se  Se12  1  0.666667  0.333333  0.134107  1
  Se  Se13  1  0.333333  0.666667  0.865893  1
  Se  Se14  1  0.168633  0.337266  0.138469  1
  Se  Se15  1  0.831367  0.662734  0.861531  1
  Se  Se16  1  0.662734  0.831367  0.138469  1
  Se  Se17  1  0.833166  0.666332  0.615891  1
  Se  Se18  1  0.337266  0.168633  0.861531  1
  Se  Se19  1  0.166834  0.333668  0.384109  1
  Se  Se20  1  0.168633  0.831367  0.138469  1
  Se  Se21  1  0.333668  0.166834  0.615891  1
  Se  Se22  1  0.831367  0.168633  0.861531  1
  Se  Se23  1  0.666332  0.833166  0.384109  1
  Se  Se24  1  0.833166  0.166834  0.615891  1
  Se  Se25  1  0.166834  0.833166  0.384109  1
