# generated using pymatgen
data_CaYb5(SbI3)2
_symmetry_space_group_name_H-M   'P 1'
_cell_length_a   11.08471356
_cell_length_b   11.08718706
_cell_length_c   11.08717397
_cell_angle_alpha   109.51997792
_cell_angle_beta   109.51039995
_cell_angle_gamma   109.39228134
_symmetry_Int_Tables_number   1
_chemical_formula_structural   CaYb5(SbI3)2
_chemical_formula_sum   'Ca2 Yb10 Sb4 I12'
_cell_volume   1048.80823012
_cell_formula_units_Z   2
loop_
 _symmetry_equiv_pos_site_id
 _symmetry_equiv_pos_as_xyz
  1  'x, y, z'
loop_
 _atom_site_type_symbol
 _atom_site_label
 _atom_site_symmetry_multiplicity
 _atom_site_fract_x
 _atom_site_fract_y
 _atom_site_fract_z
 _atom_site_occupancy
  Ca  Ca0  1  0.258784  0.008774  0.017619  1
  Ca  Ca1  1  0.241214  0.258832  0.749987  1
  Yb  Yb2  1  0.483817  0.491835  0.241888  1
  Yb  Yb3  1  0.749985  0.241841  0.258135  1
  Yb  Yb4  1  0.750016  0.008151  0.491857  1
  Yb  Yb5  1  0.241909  0.483685  0.491863  1
  Yb  Yb6  1  0.258091  0.749954  0.241777  1
  Yb  Yb7  1  0.016184  0.258072  0.008019  1
  Yb  Yb8  1  0.008137  0.016162  0.258023  1
  Yb  Yb9  1  0.491863  0.749885  0.008025  1
  Yb  Yb10  1  0.491967  0.241958  0.483871  1
  Yb  Yb11  1  0.008032  0.491903  0.749989  1
  Sb  Sb12  1  0.250031  0.250222  0.250258  1
  Sb  Sb13  1  0.500243  0.000021  0.250258  1
  Sb  Sb14  1  0.999758  0.250016  0.499779  1
  Sb  Sb15  1  0.249969  0.500228  0.000191  1
  I  I16  1  0.249980  0.750317  0.748045  1
  I  I17  1  0.503191  0.502055  0.751118  1
  I  I18  1  0.996810  0.747927  0.998864  1
  I  I19  1  0.748869  0.250030  0.751167  1
  I  I20  1  0.997150  0.996823  0.748086  1
  I  I21  1  0.250021  0.998066  0.500337  1
  I  I22  1  0.751130  0.502296  0.501159  1
  I  I23  1  0.502849  0.250935  0.999672  1
  I  I24  1  0.751175  0.748840  0.250017  1
  I  I25  1  0.748826  0.998843  0.997666  1
  I  I26  1  0.998853  0.501167  0.250016  1
  I  I27  1  0.501146  0.751163  0.502313  1
