# generated using pymatgen
data_Zr5AlSnSb
_symmetry_space_group_name_H-M   'P 1'
_cell_length_a   5.54302132
_cell_length_b   8.40356848
_cell_length_c   8.42610409
_cell_angle_alpha   83.77240337
_cell_angle_beta   70.79678465
_cell_angle_gamma   70.74326496
_symmetry_Int_Tables_number   1
_chemical_formula_structural   Zr5AlSnSb
_chemical_formula_sum   'Zr10 Al2 Sn2 Sb2'
_cell_volume   349.92006915
_cell_formula_units_Z   2
loop_
 _symmetry_equiv_pos_site_id
 _symmetry_equiv_pos_as_xyz
  1  'x, y, z'
loop_
 _atom_site_type_symbol
 _atom_site_label
 _atom_site_symmetry_multiplicity
 _atom_site_fract_x
 _atom_site_fract_y
 _atom_site_fract_z
 _atom_site_occupancy
  Zr  Zr0  1  0.247973  0.500000  0.500000  1
  Zr  Zr1  1  0.752027  0.500000  0.500000  1
  Zr  Zr2  1  0.076960  0.137388  0.708692  1
  Zr  Zr3  1  0.923040  0.862612  0.291308  1
  Zr  Zr4  1  0.785287  0.291363  0.138062  1
  Zr  Zr5  1  0.423349  0.291363  0.861938  1
  Zr  Zr6  1  0.214713  0.708637  0.861938  1
  Zr  Zr7  1  0.576651  0.708637  0.138062  1
  Zr  Zr8  1  0.714348  0.862612  0.708692  1
  Zr  Zr9  1  0.285652  0.137388  0.291308  1
  Al  Al10  1  0.250000  0.000000  0.000000  1
  Al  Al11  1  0.750000  0.000000  0.000000  1
  Sn  Sn12  1  0.163913  0.500000  0.172174  1
  Sn  Sn13  1  0.836087  0.500000  0.827826  1
  Sb  Sb14  1  0.336371  0.827258  0.500000  1
  Sb  Sb15  1  0.663629  0.172742  0.500000  1
