# generated using pymatgen
data_NaPr2Nd4IrI12
_symmetry_space_group_name_H-M   'P 1'
_cell_length_a   10.04964400
_cell_length_b   10.04490229
_cell_length_c   10.16063069
_cell_angle_alpha   106.99992543
_cell_angle_beta   107.50797456
_cell_angle_gamma   106.91546764
_symmetry_Int_Tables_number   1
_chemical_formula_structural   NaPr2Nd4IrI12
_chemical_formula_sum   'Na1 Pr2 Nd4 Ir1 I12'
_cell_volume   850.87587920
_cell_formula_units_Z   1
loop_
 _symmetry_equiv_pos_site_id
 _symmetry_equiv_pos_as_xyz
  1  'x, y, z'
loop_
 _atom_site_type_symbol
 _atom_site_label
 _atom_site_symmetry_multiplicity
 _atom_site_fract_x
 _atom_site_fract_y
 _atom_site_fract_z
 _atom_site_occupancy
  Na  Na0  1  0.500018  0.499989  0.499956  1
  Pr  Pr1  1  0.694321  0.969760  0.898231  1
  Pr  Pr2  1  0.898201  0.695434  0.970005  1
  Nd  Nd3  1  0.102302  0.303337  0.030339  1
  Nd  Nd4  1  0.304426  0.030701  0.101451  1
  Nd  Nd5  1  0.031585  0.106647  0.316858  1
  Nd  Nd6  1  0.969060  0.894257  0.683613  1
  Ir  Ir7  1  0.000662  0.000634  0.000340  1
  I  I8  1  0.227904  0.684043  0.076289  1
  I  I9  1  0.456044  0.377414  0.149503  1
  I  I10  1  0.683451  0.075756  0.225951  1
  I  I11  1  0.924537  0.774329  0.316729  1
  I  I12  1  0.148768  0.455117  0.374836  1
  I  I13  1  0.376386  0.148118  0.453453  1
  I  I14  1  0.623569  0.851109  0.544453  1
  I  I15  1  0.851098  0.544569  0.623193  1
  I  I16  1  0.075749  0.226493  0.685048  1
  I  I17  1  0.315845  0.924813  0.775768  1
  I  I18  1  0.541284  0.620408  0.849413  1
  I  I19  1  0.774794  0.317074  0.924573  1
