# generated using pymatgen
data_TbNd10Hg9Pd4
_symmetry_space_group_name_H-M   'P 1'
_cell_length_a   13.44621211
_cell_length_b   13.44621133
_cell_length_c   3.79843400
_cell_angle_alpha   90.00000000
_cell_angle_beta   90.00000000
_cell_angle_gamma   112.76712730
_symmetry_Int_Tables_number   1
_chemical_formula_structural   TbNd10Hg9Pd4
_chemical_formula_sum   'Tb1 Nd10 Hg9 Pd4'
_cell_volume   633.25056883
_cell_formula_units_Z   1
loop_
 _symmetry_equiv_pos_site_id
 _symmetry_equiv_pos_as_xyz
  1  'x, y, z'
loop_
 _atom_site_type_symbol
 _atom_site_label
 _atom_site_symmetry_multiplicity
 _atom_site_fract_x
 _atom_site_fract_y
 _atom_site_fract_z
 _atom_site_occupancy
  Tb  Tb0  1  0.693245  0.693245  0.000000  1
  Nd  Nd1  1  0.417431  0.073275  0.000000  1
  Nd  Nd2  1  0.584656  0.924889  0.000000  1
  Nd  Nd3  1  0.073275  0.417431  0.000000  1
  Nd  Nd4  1  0.924889  0.584656  0.000000  1
  Nd  Nd5  1  0.165105  0.834076  0.000000  1
  Nd  Nd6  1  0.834076  0.165105  0.000000  1
  Nd  Nd7  1  0.373069  0.628168  0.000000  1
  Nd  Nd8  1  0.628168  0.373069  0.000000  1
  Nd  Nd9  1  0.306818  0.306818  0.000000  1
  Nd  Nd10  1  0.999130  0.999130  0.000000  1
  Hg  Hg11  1  0.369771  0.840590  0.500000  1
  Hg  Hg12  1  0.631603  0.159146  0.500000  1
  Hg  Hg13  1  0.840590  0.369771  0.500000  1
  Hg  Hg14  1  0.159146  0.631603  0.500000  1
  Hg  Hg15  1  0.215341  0.068324  0.500000  1
  Hg  Hg16  1  0.784018  0.927941  0.500000  1
  Hg  Hg17  1  0.068324  0.215341  0.500000  1
  Hg  Hg18  1  0.927941  0.784018  0.500000  1
  Hg  Hg19  1  0.501621  0.501621  0.500000  1
  Pd  Pd20  1  0.450994  0.249777  0.500000  1
  Pd  Pd21  1  0.553266  0.747746  0.500000  1
  Pd  Pd22  1  0.249777  0.450994  0.500000  1
  Pd  Pd23  1  0.747746  0.553266  0.500000  1
