# generated using pymatgen
data_TbDy10Ho(BBr3)4
_symmetry_space_group_name_H-M   'P 1'
_cell_length_a   9.73979051
_cell_length_b   9.73985837
_cell_length_c   9.74212605
_cell_angle_alpha   109.46991227
_cell_angle_beta   109.47543550
_cell_angle_gamma   109.45242238
_symmetry_Int_Tables_number   1
_chemical_formula_structural   TbDy10Ho(BBr3)4
_chemical_formula_sum   'Tb1 Dy10 Ho1 B4 Br12'
_cell_volume   711.57264433
_cell_formula_units_Z   1
loop_
 _symmetry_equiv_pos_site_id
 _symmetry_equiv_pos_as_xyz
  1  'x, y, z'
loop_
 _atom_site_type_symbol
 _atom_site_label
 _atom_site_symmetry_multiplicity
 _atom_site_fract_x
 _atom_site_fract_y
 _atom_site_fract_z
 _atom_site_occupancy
  Tb  Tb0  1  0.230810  0.269191  0.750011  1
  Dy  Dy1  1  0.459794  0.479934  0.230082  1
  Dy  Dy2  1  0.749755  0.229931  0.269856  1
  Dy  Dy3  1  0.749938  0.020190  0.479867  1
  Dy  Dy4  1  0.229831  0.459723  0.479745  1
  Dy  Dy5  1  0.270038  0.750226  0.230082  1
  Dy  Dy6  1  0.040142  0.270114  0.020116  1
  Dy  Dy7  1  0.019982  0.040210  0.269874  1
  Dy  Dy8  1  0.479838  0.750040  0.020066  1
  Dy  Dy9  1  0.479772  0.229902  0.459631  1
  Dy  Dy10  1  0.019977  0.479939  0.749958  1
  Ho  Ho11  1  0.270375  0.020561  0.040938  1
  B  B12  1  0.249983  0.249733  0.249725  1
  B  B13  1  0.499670  0.000033  0.249713  1
  B  B14  1  0.999422  0.249969  0.499404  1
  B  B15  1  0.250034  0.500589  0.000595  1
  Br  Br16  1  0.249999  0.758401  0.742204  1
  Br  Br17  1  0.517148  0.509356  0.757892  1
  Br  Br18  1  0.984222  0.742279  0.991956  1
  Br  Br19  1  0.741844  0.249973  0.758005  1
  Br  Br20  1  0.990873  0.982835  0.742317  1
  Br  Br21  1  0.249906  0.990908  0.507023  1
  Br  Br22  1  0.757973  0.516021  0.507995  1
  Br  Br23  1  0.508808  0.249821  0.992961  1
  Br  Br24  1  0.757994  0.741990  0.250007  1
  Br  Br25  1  0.741925  0.991997  0.983896  1
  Br  Br26  1  0.991934  0.508061  0.249999  1
  Br  Br27  1  0.508012  0.758073  0.516080  1
