# generated using pymatgen
data_TbYb3Re3TcB16
_symmetry_space_group_name_H-M   'P 1'
_cell_length_a   3.57751000
_cell_length_b   5.98886934
_cell_length_c   11.58235901
_cell_angle_alpha   89.97827765
_cell_angle_beta   90.00000000
_cell_angle_gamma   90.00000000
_symmetry_Int_Tables_number   1
_chemical_formula_structural   TbYb3Re3TcB16
_chemical_formula_sum   'Tb1 Yb3 Re3 Tc1 B16'
_cell_volume   248.15480329
_cell_formula_units_Z   1
loop_
 _symmetry_equiv_pos_site_id
 _symmetry_equiv_pos_as_xyz
  1  'x, y, z'
loop_
 _atom_site_type_symbol
 _atom_site_label
 _atom_site_symmetry_multiplicity
 _atom_site_fract_x
 _atom_site_fract_y
 _atom_site_fract_z
 _atom_site_occupancy
  Tb  Tb0  1  0.500000  0.372032  0.151306  1
  Yb  Yb1  1  0.500000  0.627947  0.848752  1
  Yb  Yb2  1  0.500000  0.127733  0.649480  1
  Yb  Yb3  1  0.500000  0.873324  0.351307  1
  Re  Re4  1  0.500000  0.630751  0.583578  1
  Re  Re5  1  0.500000  0.131336  0.915998  1
  Re  Re6  1  0.500000  0.870163  0.084937  1
  Tc  Tc7  1  0.500000  0.370927  0.416370  1
  B  B8  1  0.000000  0.112655  0.047153  1
  B  B9  1  0.000000  0.884606  0.951964  1
  B  B10  1  0.000000  0.384789  0.546964  1
  B  B11  1  0.000000  0.614146  0.452299  1
  B  B12  1  0.000000  0.134691  0.467668  1
  B  B13  1  0.000000  0.865124  0.531982  1
  B  B14  1  0.000000  0.364331  0.967557  1
  B  B15  1  0.000000  0.635681  0.031341  1
  B  B16  1  0.000000  0.024557  0.192831  1
  B  B17  1  0.000000  0.975466  0.807447  1
  B  B18  1  0.000000  0.475401  0.692220  1
  B  B19  1  0.000000  0.525010  0.308109  1
  B  B20  1  0.000000  0.215440  0.315846  1
  B  B21  1  0.000000  0.783957  0.684917  1
  B  B22  1  0.000000  0.283278  0.814394  1
  B  B23  1  0.000000  0.716654  0.185584  1
