# generated using pymatgen
data_Tb5Lu11(In3Os)2
_symmetry_space_group_name_H-M   'P 1'
_cell_length_a   10.24359240
_cell_length_b   10.24359218
_cell_length_c   7.01483027
_cell_angle_alpha   90.02774226
_cell_angle_beta   89.97225672
_cell_angle_gamma   120.05311442
_symmetry_Int_Tables_number   1
_chemical_formula_structural   Tb5Lu11(In3Os)2
_chemical_formula_sum   'Tb5 Lu11 In6 Os2'
_cell_volume   637.11761172
_cell_formula_units_Z   1
loop_
 _symmetry_equiv_pos_site_id
 _symmetry_equiv_pos_as_xyz
  1  'x, y, z'
loop_
 _atom_site_type_symbol
 _atom_site_label
 _atom_site_symmetry_multiplicity
 _atom_site_fract_x
 _atom_site_fract_y
 _atom_site_fract_z
 _atom_site_occupancy
  Tb  Tb0  1  0.531402  0.062891  0.523321  1
  Tb  Tb1  1  0.937109  0.468598  0.523321  1
  Tb  Tb2  1  0.531097  0.468903  0.523800  1
  Tb  Tb3  1  0.468482  0.936663  0.023252  1
  Tb  Tb4  1  0.063337  0.531518  0.023252  1
  Lu  Lu5  1  0.467789  0.532211  0.023834  1
  Lu  Lu6  1  0.178161  0.355105  0.729165  1
  Lu  Lu7  1  0.644895  0.821839  0.729165  1
  Lu  Lu8  1  0.177065  0.822935  0.728759  1
  Lu  Lu9  1  0.821863  0.645145  0.227817  1
  Lu  Lu10  1  0.354855  0.178137  0.227817  1
  Lu  Lu11  1  0.822911  0.177089  0.228551  1
  Lu  Lu12  1  0.666188  0.333812  0.903012  1
  Lu  Lu13  1  0.333818  0.666182  0.402692  1
  Lu  Lu14  1  0.999992  0.000008  0.506194  1
  Lu  Lu15  1  0.000013  0.999987  0.006080  1
  In  In16  1  0.837157  0.674816  0.772465  1
  In  In17  1  0.325184  0.162843  0.772465  1
  In  In18  1  0.837392  0.162608  0.772391  1
  In  In19  1  0.163864  0.326114  0.271355  1
  In  In20  1  0.673886  0.836136  0.271355  1
  In  In21  1  0.162531  0.837469  0.272386  1
  Os  Os22  1  0.666843  0.333157  0.295981  1
  Os  Os23  1  0.334169  0.665831  0.797247  1
