# generated using pymatgen
data_Er3Bi3(RuO7)2
_symmetry_space_group_name_H-M   'P 1'
_cell_length_a   6.38140380
_cell_length_b   6.61184429
_cell_length_c   7.52657175
_cell_angle_alpha   106.45995351
_cell_angle_beta   89.60276276
_cell_angle_gamma   98.23972404
_symmetry_Int_Tables_number   1
_chemical_formula_structural   Er3Bi3(RuO7)2
_chemical_formula_sum   'Er3 Bi3 Ru2 O14'
_cell_volume   301.21931400
_cell_formula_units_Z   1
loop_
 _symmetry_equiv_pos_site_id
 _symmetry_equiv_pos_as_xyz
  1  'x, y, z'
loop_
 _atom_site_type_symbol
 _atom_site_label
 _atom_site_symmetry_multiplicity
 _atom_site_fract_x
 _atom_site_fract_y
 _atom_site_fract_z
 _atom_site_occupancy
  Er  Er0  1  0.549538  0.994789  0.751450  1
  Er  Er1  1  0.450181  0.002986  0.251916  1
  Er  Er2  1  0.256238  0.538949  0.883462  1
  Bi  Bi3  1  0.742135  0.476411  0.113858  1
  Bi  Bi4  1  0.735900  0.462702  0.614286  1
  Bi  Bi5  1  0.256257  0.531260  0.390484  1
  Ru  Ru6  1  0.002239  0.005961  0.501283  1
  Ru  Ru7  1  0.004231  0.002154  0.998624  1
  O  O8  1  0.441447  0.650863  0.163447  1
  O  O9  1  0.542964  0.344385  0.827223  1
  O  O10  1  0.296604  0.928617  0.952641  1
  O  O11  1  0.712082  0.049029  0.049806  1
  O  O12  1  0.289771  0.925067  0.513885  1
  O  O13  1  0.711783  0.080124  0.488405  1
  O  O14  1  0.529493  0.352736  0.346018  1
  O  O15  1  0.454823  0.645282  0.661580  1
  O  O16  1  0.937584  0.679806  0.952753  1
  O  O17  1  0.084620  0.304875  0.029774  1
  O  O18  1  0.092971  0.312684  0.623507  1
  O  O19  1  0.905145  0.702922  0.383786  1
  O  O20  1  0.903444  0.943765  0.736082  1
  O  O21  1  0.100549  0.064633  0.265728  1
