# generated using pymatgen
data_Ce2Tc3Ge4
_symmetry_space_group_name_H-M   'P 1'
_cell_length_a   8.33568500
_cell_length_b   5.79253906
_cell_length_c   7.02084373
_cell_angle_alpha   76.12513355
_cell_angle_beta   90.00000000
_cell_angle_gamma   90.00000000
_symmetry_Int_Tables_number   1
_chemical_formula_structural   Ce2Tc3Ge4
_chemical_formula_sum   'Ce4 Tc6 Ge8'
_cell_volume   329.10848410
_cell_formula_units_Z   2
loop_
 _symmetry_equiv_pos_site_id
 _symmetry_equiv_pos_as_xyz
  1  'x, y, z'
loop_
 _atom_site_type_symbol
 _atom_site_label
 _atom_site_symmetry_multiplicity
 _atom_site_fract_x
 _atom_site_fract_y
 _atom_site_fract_z
 _atom_site_occupancy
  Ce  Ce0  1  0.555104  0.076467  0.247685  1
  Ce  Ce1  1  0.055104  0.423533  0.752315  1
  Ce  Ce2  1  0.444896  0.923533  0.752315  1
  Ce  Ce3  1  0.944896  0.576467  0.247685  1
  Tc  Tc4  1  0.207007  0.115826  0.109382  1
  Tc  Tc5  1  0.707007  0.384174  0.890618  1
  Tc  Tc6  1  0.792993  0.884174  0.890618  1
  Tc  Tc7  1  0.292993  0.615826  0.109382  1
  Tc  Tc8  1  0.000000  0.000000  0.500000  1
  Tc  Tc9  1  0.500000  0.500000  0.500000  1
  Ge  Ge10  1  0.903062  0.118604  0.129129  1
  Ge  Ge11  1  0.403062  0.381396  0.870871  1
  Ge  Ge12  1  0.096938  0.881396  0.870871  1
  Ge  Ge13  1  0.596938  0.618604  0.129129  1
  Ge  Ge14  1  0.748981  0.223281  0.582267  1
  Ge  Ge15  1  0.248981  0.276719  0.417733  1
  Ge  Ge16  1  0.251019  0.776719  0.417733  1
  Ge  Ge17  1  0.751019  0.723281  0.582267  1
