# generated using pymatgen
data_MnZn2P6BrN12
_symmetry_space_group_name_H-M   'P 1'
_cell_length_a   7.25921026
_cell_length_b   7.23749783
_cell_length_c   7.25920906
_cell_angle_alpha   109.42235687
_cell_angle_beta   110.52126402
_cell_angle_gamma   109.42231816
_symmetry_Int_Tables_number   1
_chemical_formula_structural   MnZn2P6BrN12
_chemical_formula_sum   'Mn1 Zn2 P6 Br1 N12'
_cell_volume   290.06433966
_cell_formula_units_Z   1
loop_
 _symmetry_equiv_pos_site_id
 _symmetry_equiv_pos_as_xyz
  1  'x, y, z'
loop_
 _atom_site_type_symbol
 _atom_site_label
 _atom_site_symmetry_multiplicity
 _atom_site_fract_x
 _atom_site_fract_y
 _atom_site_fract_z
 _atom_site_occupancy
  Mn  Mn0  1  0.046617  0.427385  0.046617  1
  Zn  Zn1  1  0.001516  0.996740  0.366940  1
  Zn  Zn2  1  0.366940  0.996740  0.001516  1
  P  P3  1  0.509474  0.257579  0.755333  1
  P  P4  1  0.242601  0.746111  0.494438  1
  P  P5  1  0.732201  0.493666  0.260500  1
  P  P6  1  0.755333  0.257579  0.509474  1
  P  P7  1  0.494438  0.746111  0.242601  1
  P  P8  1  0.260500  0.493666  0.732201  1
  Br  Br9  1  0.023603  0.016404  0.023603  1
  N  N10  1  0.354445  0.644762  0.354445  1
  N  N11  1  0.711094  0.436364  0.447355  1
  N  N12  1  0.447355  0.436364  0.711094  1
  N  N13  1  0.747985  0.289116  0.747985  1
  N  N14  1  0.980107  0.558955  0.279173  1
  N  N15  1  0.279173  0.558955  0.980107  1
  N  N16  1  0.287670  0.999657  0.552435  1
  N  N17  1  0.999973  0.273343  0.546763  1
  N  N18  1  0.722505  0.728750  0.297269  1
  N  N19  1  0.552435  0.999657  0.287670  1
  N  N20  1  0.297269  0.728750  0.722505  1
  N  N21  1  0.546763  0.273343  0.999973  1
