# generated using pymatgen
data_Er6Ga5Tc11O
_symmetry_space_group_name_H-M   'P 1'
_cell_length_a   8.04717760
_cell_length_b   8.06471120
_cell_length_c   8.04717800
_cell_angle_alpha   109.61297163
_cell_angle_beta   109.09936295
_cell_angle_gamma   109.61299035
_symmetry_Int_Tables_number   1
_chemical_formula_structural   Er6Ga5Tc11O
_chemical_formula_sum   'Er6 Ga5 Tc11 O1'
_cell_volume   402.45559753
_cell_formula_units_Z   1
loop_
 _symmetry_equiv_pos_site_id
 _symmetry_equiv_pos_as_xyz
  1  'x, y, z'
loop_
 _atom_site_type_symbol
 _atom_site_label
 _atom_site_symmetry_multiplicity
 _atom_site_fract_x
 _atom_site_fract_y
 _atom_site_fract_z
 _atom_site_occupancy
  Er  Er0  1  0.264403  0.000000  0.261852  1
  Er  Er1  1  0.002083  0.262641  0.260557  1
  Er  Er2  1  0.996336  0.729829  0.733494  1
  Er  Er3  1  0.266506  0.270171  0.003664  1
  Er  Er4  1  0.739443  0.737359  0.997917  1
  Er  Er5  1  0.738148  0.000000  0.735597  1
  Ga  Ga6  1  0.346432  0.000000  0.653568  1
  Ga  Ga7  1  0.675680  0.340330  0.340834  1
  Ga  Ga8  1  0.999495  0.340330  0.664652  1
  Ga  Ga9  1  0.659166  0.659670  0.324320  1
  Ga  Ga10  1  0.335348  0.659670  0.000505  1
  Tc  Tc11  1  0.999525  0.000000  0.472212  1
  Tc  Tc12  1  0.527788  0.000000  0.000475  1
  Tc  Tc13  1  0.990148  0.500000  0.009852  1
  Tc  Tc14  1  0.490148  0.500000  0.509852  1
  Tc  Tc15  1  0.345665  0.692342  0.346676  1
  Tc  Tc16  1  0.653324  0.307658  0.654335  1
  Tc  Tc17  1  0.338177  0.337411  0.686679  1
  Tc  Tc18  1  0.313321  0.662589  0.661823  1
  Tc  Tc19  1  0.650733  0.337411  0.999234  1
  Tc  Tc20  1  0.000766  0.662589  0.349267  1
  Tc  Tc21  1  0.659612  0.000000  0.340388  1
  O  O22  1  0.007755  0.000000  0.992245  1
