# generated using pymatgen
data_Ba4H(AuF8)3
_symmetry_space_group_name_H-M   'P 1'
_cell_length_a   4.91450677
_cell_length_b   9.54168009
_cell_length_c   12.30714548
_cell_angle_alpha   68.04576712
_cell_angle_beta   85.59429387
_cell_angle_gamma   79.73449298
_symmetry_Int_Tables_number   1
_chemical_formula_structural   Ba4H(AuF8)3
_chemical_formula_sum   'Ba4 H1 Au3 F24'
_cell_volume   526.66285604
_cell_formula_units_Z   1
loop_
 _symmetry_equiv_pos_site_id
 _symmetry_equiv_pos_as_xyz
  1  'x, y, z'
loop_
 _atom_site_type_symbol
 _atom_site_label
 _atom_site_symmetry_multiplicity
 _atom_site_fract_x
 _atom_site_fract_y
 _atom_site_fract_z
 _atom_site_occupancy
  Ba  Ba0  1  0.626056  0.553383  0.243303  1
  Ba  Ba1  1  0.373944  0.446617  0.756697  1
  Ba  Ba2  1  0.258040  0.208331  0.200572  1
  Ba  Ba3  1  0.741960  0.791669  0.799428  1
  H  H4  1  0.500000  0.500000  0.000000  1
  Au  Au5  1  0.168869  0.218769  0.557773  1
  Au  Au6  1  0.831131  0.781231  0.442227  1
  Au  Au7  1  0.000000  0.000000  0.000000  1
  F  F8  1  0.599004  0.594122  0.012186  1
  F  F9  1  0.400996  0.405878  0.987814  1
  F  F10  1  0.159717  0.474385  0.221025  1
  F  F11  1  0.840283  0.525615  0.778975  1
  F  F12  1  0.726557  0.292508  0.219223  1
  F  F13  1  0.273443  0.707492  0.780777  1
  F  F14  1  0.854920  0.303347  0.452874  1
  F  F15  1  0.145080  0.696653  0.547126  1
  F  F16  1  0.959772  0.978098  0.375497  1
  F  F17  1  0.040228  0.021902  0.624503  1
  F  F18  1  0.978451  0.288347  0.678836  1
  F  F19  1  0.021549  0.711653  0.321164  1
  F  F20  1  0.482311  0.134429  0.664636  1
  F  F21  1  0.517689  0.865571  0.335364  1
  F  F22  1  0.369204  0.155889  0.436219  1
  F  F23  1  0.630796  0.844111  0.563781  1
  F  F24  1  0.304672  0.414416  0.494564  1
  F  F25  1  0.695328  0.585584  0.505436  1
  F  F26  1  0.300810  0.904819  0.112158  1
  F  F27  1  0.699190  0.095181  0.887842  1
  F  F28  1  0.858967  0.807070  0.042848  1
  F  F29  1  0.141033  0.192930  0.957152  1
  F  F30  1  0.211281  0.940446  0.878686  1
  F  F31  1  0.788719  0.059554  0.121314  1
