# generated using pymatgen
data_Sc5Tc3P12Ir15Ru
_symmetry_space_group_name_H-M   'P 1'
_cell_length_a   12.58918856
_cell_length_b   12.52530651
_cell_length_c   3.92369600
_cell_angle_alpha   90.00000000
_cell_angle_beta   90.00000000
_cell_angle_gamma   119.92814201
_symmetry_Int_Tables_number   1
_chemical_formula_structural   Sc5Tc3P12Ir15Ru
_chemical_formula_sum   'Sc5 Tc3 P12 Ir15 Ru1'
_cell_volume   536.19911982
_cell_formula_units_Z   1
loop_
 _symmetry_equiv_pos_site_id
 _symmetry_equiv_pos_as_xyz
  1  'x, y, z'
loop_
 _atom_site_type_symbol
 _atom_site_label
 _atom_site_symmetry_multiplicity
 _atom_site_fract_x
 _atom_site_fract_y
 _atom_site_fract_z
 _atom_site_occupancy
  Sc  Sc0  1  0.332314  0.664366  0.000000  1
  Sc  Sc1  1  0.667078  0.333464  0.000000  1
  Sc  Sc2  1  0.822872  0.001445  0.500000  1
  Sc  Sc3  1  0.000515  0.821374  0.500000  1
  Sc  Sc4  1  0.179513  0.181164  0.500000  1
  Tc  Tc5  1  0.455742  0.999419  0.000000  1
  Tc  Tc6  1  0.997871  0.454513  0.000000  1
  Tc  Tc7  1  0.545418  0.543919  0.000000  1
  P  P8  1  0.175550  0.001055  0.000000  1
  P  P9  1  0.003498  0.179074  0.000000  1
  P  P10  1  0.824891  0.825970  0.000000  1
  P  P11  1  0.171015  0.482173  0.500000  1
  P  P12  1  0.514411  0.683610  0.500000  1
  P  P13  1  0.314846  0.828489  0.500000  1
  P  P14  1  0.684536  0.514247  0.500000  1
  P  P15  1  0.829794  0.315459  0.500000  1
  P  P16  1  0.485251  0.169737  0.500000  1
  P  P17  1  0.641077  0.999842  0.000000  1
  P  P18  1  0.000265  0.641161  0.000000  1
  P  P19  1  0.355598  0.360055  0.000000  1
  Ir  Ir20  1  0.359035  0.489943  0.500000  1
  Ir  Ir21  1  0.508271  0.865207  0.500000  1
  Ir  Ir22  1  0.134061  0.641141  0.500000  1
  Ir  Ir23  1  0.866209  0.509656  0.500000  1
  Ir  Ir24  1  0.642359  0.133774  0.500000  1
  Ir  Ir25  1  0.492348  0.356851  0.500000  1
  Ir  Ir26  1  0.629316  0.808705  0.000000  1
  Ir  Ir27  1  0.190770  0.820484  0.000000  1
  Ir  Ir28  1  0.809589  0.630426  0.000000  1
  Ir  Ir29  1  0.819230  0.190468  0.000000  1
  Ir  Ir30  1  0.369925  0.179935  0.000000  1
  Ir  Ir31  1  0.290143  0.999934  0.500000  1
  Ir  Ir32  1  0.997772  0.287719  0.500000  1
  Ir  Ir33  1  0.710473  0.710617  0.500000  1
  Ir  Ir34  1  0.000299  0.000500  0.000000  1
  Ru  Ru35  1  0.178145  0.374105  0.000000  1
