# generated using pymatgen
data_ErScV6O18
_symmetry_space_group_name_H-M   'P 1'
_cell_length_a   7.23693576
_cell_length_b   8.25382207
_cell_length_c   9.31378000
_cell_angle_alpha   105.91015114
_cell_angle_beta   112.88533831
_cell_angle_gamma   64.04313200
_symmetry_Int_Tables_number   1
_chemical_formula_structural   ErScV6O18
_chemical_formula_sum   'Er1 Sc1 V6 O18'
_cell_volume   457.19845616
_cell_formula_units_Z   1
loop_
 _symmetry_equiv_pos_site_id
 _symmetry_equiv_pos_as_xyz
  1  'x, y, z'
loop_
 _atom_site_type_symbol
 _atom_site_label
 _atom_site_symmetry_multiplicity
 _atom_site_fract_x
 _atom_site_fract_y
 _atom_site_fract_z
 _atom_site_occupancy
  Er  Er0  1  0.683620  0.356973  0.242567  1
  Sc  Sc1  1  0.203920  0.858909  0.743356  1
  V  V2  1  0.735111  0.610049  0.001941  1
  V  V3  1  0.994337  0.908778  0.066649  1
  V  V4  1  0.417104  0.805448  0.424521  1
  V  V5  1  0.663556  0.103475  0.512679  1
  V  V6  1  0.177471  0.415684  0.574802  1
  V  V7  1  0.186630  0.301764  0.916323  1
  O  O8  1  0.360799  0.385016  0.063892  1
  O  O9  1  0.832429  0.130612  0.076624  1
  O  O10  1  0.856043  0.776634  0.071955  1
  O  O11  1  0.667093  0.582681  0.144669  1
  O  O12  1  0.222425  0.877207  0.240825  1
  O  O13  1  0.660931  0.162548  0.351956  1
  O  O14  1  0.009291  0.350690  0.406348  1
  O  O15  1  0.527881  0.576836  0.410045  1
  O  O16  1  0.619934  0.894910  0.463742  1
  O  O17  1  0.304155  0.890106  0.570619  1
  O  O18  1  0.128119  0.639090  0.591477  1
  O  O19  1  0.455581  0.280678  0.587763  1
  O  O20  1  0.907470  0.066216  0.650323  1
  O  O21  1  0.135023  0.377063  0.736899  1
  O  O22  1  0.514024  0.676265  0.844657  1
  O  O23  1  0.073317  0.841329  0.904034  1
  O  O24  1  0.290718  0.072425  0.900499  1
  O  O25  1  0.929812  0.395215  0.951037  1
