# generated using pymatgen
data_Li7Dy8ZnSn8
_symmetry_space_group_name_H-M   'P 1'
_cell_length_a   9.37630500
_cell_length_b   9.37463915
_cell_length_c   7.30442384
_cell_angle_alpha   89.92999571
_cell_angle_beta   90.00000000
_cell_angle_gamma   120.00587485
_symmetry_Int_Tables_number   1
_chemical_formula_structural   Li7Dy8ZnSn8
_chemical_formula_sum   'Li7 Dy8 Zn1 Sn8'
_cell_volume   556.00249140
_cell_formula_units_Z   1
loop_
 _symmetry_equiv_pos_site_id
 _symmetry_equiv_pos_as_xyz
  1  'x, y, z'
loop_
 _atom_site_type_symbol
 _atom_site_label
 _atom_site_symmetry_multiplicity
 _atom_site_fract_x
 _atom_site_fract_y
 _atom_site_fract_z
 _atom_site_occupancy
  Li  Li0  1  0.165190  0.832393  0.289315  1
  Li  Li1  1  0.667203  0.832393  0.289315  1
  Li  Li2  1  0.833119  0.666239  0.789236  1
  Li  Li3  1  0.832307  0.166355  0.789087  1
  Li  Li4  1  0.334049  0.166355  0.789087  1
  Li  Li5  1  0.334127  0.668254  0.672842  1
  Li  Li6  1  0.667974  0.335947  0.170451  1
  Dy  Dy7  1  0.512211  0.024421  0.496979  1
  Dy  Dy8  1  0.511763  0.487668  0.493081  1
  Dy  Dy9  1  0.975906  0.487668  0.493081  1
  Dy  Dy10  1  0.487908  0.975818  0.990270  1
  Dy  Dy11  1  0.486581  0.511319  0.993048  1
  Dy  Dy12  1  0.024737  0.511319  0.993048  1
  Dy  Dy13  1  0.999755  0.999510  0.499350  1
  Dy  Dy14  1  0.000793  0.001585  0.999042  1
  Zn  Zn15  1  0.166551  0.333101  0.295995  1
  Sn  Sn16  1  0.166750  0.333501  0.730226  1
  Sn  Sn17  1  0.166311  0.832768  0.729783  1
  Sn  Sn18  1  0.666458  0.832768  0.729783  1
  Sn  Sn19  1  0.833164  0.666328  0.230467  1
  Sn  Sn20  1  0.830676  0.165587  0.227913  1
  Sn  Sn21  1  0.334911  0.165587  0.227913  1
  Sn  Sn22  1  0.334714  0.669429  0.260170  1
  Sn  Sn23  1  0.666843  0.333684  0.762512  1
