# generated using pymatgen
data_Er8Si8Pt5Rh3
_symmetry_space_group_name_H-M   'P 1'
_cell_length_a   4.25686500
_cell_length_b   7.42066803
_cell_length_c   13.82756181
_cell_angle_alpha   89.79158966
_cell_angle_beta   90.00000000
_cell_angle_gamma   90.00000000
_symmetry_Int_Tables_number   1
_chemical_formula_structural   Er8Si8Pt5Rh3
_chemical_formula_sum   'Er8 Si8 Pt5 Rh3'
_cell_volume   436.79294587
_cell_formula_units_Z   1
loop_
 _symmetry_equiv_pos_site_id
 _symmetry_equiv_pos_as_xyz
  1  'x, y, z'
loop_
 _atom_site_type_symbol
 _atom_site_label
 _atom_site_symmetry_multiplicity
 _atom_site_fract_x
 _atom_site_fract_y
 _atom_site_fract_z
 _atom_site_occupancy
  Er  Er0  1  0.000000  0.309720  0.999514  1
  Er  Er1  1  0.500000  0.690315  0.501025  1
  Er  Er2  1  0.000000  0.284220  0.500347  1
  Er  Er3  1  0.500000  0.716018  0.998674  1
  Er  Er4  1  0.000000  0.201921  0.251199  1
  Er  Er5  1  0.500000  0.796392  0.251521  1
  Er  Er6  1  0.000000  0.201005  0.749469  1
  Er  Er7  1  0.500000  0.799413  0.750478  1
  Si  Si8  1  0.000000  0.890914  0.595444  1
  Si  Si9  1  0.500000  0.110223  0.904251  1
  Si  Si10  1  0.000000  0.891643  0.405506  1
  Si  Si11  1  0.500000  0.102885  0.093595  1
  Si  Si12  1  0.000000  0.600953  0.145227  1
  Si  Si13  1  0.500000  0.403844  0.357095  1
  Si  Si14  1  0.000000  0.597253  0.854306  1
  Si  Si15  1  0.500000  0.402915  0.645441  1
  Pt  Pt16  1  0.500000  0.070616  0.607311  1
  Pt  Pt17  1  0.000000  0.930298  0.893225  1
  Pt  Pt18  1  0.500000  0.071262  0.392680  1
  Pt  Pt19  1  0.000000  0.929972  0.108025  1
  Pt  Pt20  1  0.500000  0.427143  0.161359  1
  Rh  Rh21  1  0.000000  0.570810  0.333292  1
  Rh  Rh22  1  0.500000  0.433961  0.829926  1
  Rh  Rh23  1  0.000000  0.566301  0.671088  1
