# generated using pymatgen
data_Lu12Fe3HgBi
_symmetry_space_group_name_H-M   'P 1'
_cell_length_a   8.19220746
_cell_length_b   8.19220756
_cell_length_c   8.19220630
_cell_angle_alpha   108.05648760
_cell_angle_beta   109.13490405
_cell_angle_gamma   111.23855823
_symmetry_Int_Tables_number   1
_chemical_formula_structural   Lu12Fe3HgBi
_chemical_formula_sum   'Lu12 Fe3 Hg1 Bi1'
_cell_volume   422.89502421
_cell_formula_units_Z   1
loop_
 _symmetry_equiv_pos_site_id
 _symmetry_equiv_pos_as_xyz
  1  'x, y, z'
loop_
 _atom_site_type_symbol
 _atom_site_label
 _atom_site_symmetry_multiplicity
 _atom_site_fract_x
 _atom_site_fract_y
 _atom_site_fract_z
 _atom_site_occupancy
  Lu  Lu0  1  0.313721  0.304018  0.617739  1
  Lu  Lu1  1  0.686279  0.695982  0.382261  1
  Lu  Lu2  1  0.686279  0.304018  0.990297  1
  Lu  Lu3  1  0.313721  0.695982  0.009703  1
  Lu  Lu4  1  0.192787  0.419621  0.226834  1
  Lu  Lu5  1  0.807213  0.580379  0.773166  1
  Lu  Lu6  1  0.192787  0.965952  0.773166  1
  Lu  Lu7  1  0.946438  0.189678  0.756762  1
  Lu  Lu8  1  0.807213  0.034048  0.226834  1
  Lu  Lu9  1  0.053562  0.810322  0.243238  1
  Lu  Lu10  1  0.432917  0.189678  0.243238  1
  Lu  Lu11  1  0.567083  0.810322  0.756762  1
  Fe  Fe12  1  0.383172  0.383172  0.000000  1
  Fe  Fe13  1  0.616828  0.616828  0.000000  1
  Fe  Fe14  1  0.000000  0.000000  0.000000  1
  Hg  Hg15  1  0.500000  0.000000  0.500000  1
  Bi  Bi16  1  0.000000  0.500000  0.500000  1
