# generated using pymatgen
data_Tb7Y3(Sn3Cl)2
_symmetry_space_group_name_H-M   'P 1'
_cell_length_a   9.14041100
_cell_length_b   9.14041027
_cell_length_c   6.57825100
_cell_angle_alpha   90.00000000
_cell_angle_beta   90.00000000
_cell_angle_gamma   120.00000625
_symmetry_Int_Tables_number   1
_chemical_formula_structural   Tb7Y3(Sn3Cl)2
_chemical_formula_sum   'Tb7 Y3 Sn6 Cl2'
_cell_volume   475.96219518
_cell_formula_units_Z   1
loop_
 _symmetry_equiv_pos_site_id
 _symmetry_equiv_pos_as_xyz
  1  'x, y, z'
loop_
 _atom_site_type_symbol
 _atom_site_label
 _atom_site_symmetry_multiplicity
 _atom_site_fract_x
 _atom_site_fract_y
 _atom_site_fract_z
 _atom_site_occupancy
  Tb  Tb0  1  0.261585  0.261578  0.750023  1
  Tb  Tb1  1  0.999993  0.738415  0.750023  1
  Tb  Tb2  1  0.738422  0.000007  0.750023  1
  Tb  Tb3  1  0.999993  0.261578  0.249977  1
  Tb  Tb4  1  0.333333  0.666667  0.500000  1
  Tb  Tb5  1  0.738422  0.738415  0.249977  1
  Tb  Tb6  1  0.261585  0.000007  0.249977  1
  Y  Y7  1  0.666667  0.333333  0.500000  1
  Y  Y8  1  0.333333  0.666667  0.000000  1
  Y  Y9  1  0.666667  0.333333  0.000000  1
  Sn  Sn10  1  0.609941  0.000076  0.249969  1
  Sn  Sn11  1  0.999924  0.390059  0.750031  1
  Sn  Sn12  1  0.390134  0.000076  0.750031  1
  Sn  Sn13  1  0.609941  0.609866  0.750031  1
  Sn  Sn14  1  0.999924  0.609866  0.249969  1
  Sn  Sn15  1  0.390134  0.390059  0.249969  1
  Cl  Cl16  1  0.000000  0.000000  0.000000  1
  Cl  Cl17  1  0.000000  0.000000  0.500000  1
