# generated using pymatgen
data_BaCd9Ag2
_symmetry_space_group_name_H-M   'P 1'
_cell_length_a   9.45111736
_cell_length_b   9.45111750
_cell_length_c   9.45111719
_cell_angle_alpha   99.50358038
_cell_angle_beta   99.50358389
_cell_angle_gamma   132.05019602
_symmetry_Int_Tables_number   1
_chemical_formula_structural   BaCd9Ag2
_chemical_formula_sum   'Ba2 Cd18 Ag4'
_cell_volume   572.78925860
_cell_formula_units_Z   2
loop_
 _symmetry_equiv_pos_site_id
 _symmetry_equiv_pos_as_xyz
  1  'x, y, z'
loop_
 _atom_site_type_symbol
 _atom_site_label
 _atom_site_symmetry_multiplicity
 _atom_site_fract_x
 _atom_site_fract_y
 _atom_site_fract_z
 _atom_site_occupancy
  Ba  Ba0  1  0.750000  0.250000  0.500000  1
  Ba  Ba1  1  0.500000  0.500000  0.000000  1
  Cd  Cd2  1  0.928713  0.009848  0.323228  1
  Cd  Cd3  1  0.686620  0.605486  0.676772  1
  Cd  Cd4  1  0.250000  0.750000  0.500000  1
  Cd  Cd5  1  0.000000  0.000000  0.000000  1
  Cd  Cd6  1  0.928713  0.605486  0.918866  1
  Cd  Cd7  1  0.855486  0.436620  0.176772  1
  Cd  Cd8  1  0.259848  0.678713  0.823228  1
  Cd  Cd9  1  0.686620  0.009848  0.081134  1
  Cd  Cd10  1  0.394514  0.071287  0.081134  1
  Cd  Cd11  1  0.990152  0.313380  0.918866  1
  Cd  Cd12  1  0.563380  0.144514  0.823228  1
  Cd  Cd13  1  0.321287  0.740152  0.176772  1
  Cd  Cd14  1  0.321287  0.144514  0.581134  1
  Cd  Cd15  1  0.394514  0.313380  0.323228  1
  Cd  Cd16  1  0.990152  0.071287  0.676772  1
  Cd  Cd17  1  0.563380  0.740152  0.418866  1
  Cd  Cd18  1  0.855486  0.678713  0.418866  1
  Cd  Cd19  1  0.259848  0.436620  0.581134  1
  Ag  Ag20  1  0.125000  0.875000  0.250000  1
  Ag  Ag21  1  0.125000  0.375000  0.250000  1
  Ag  Ag22  1  0.125000  0.875000  0.750000  1
  Ag  Ag23  1  0.625000  0.875000  0.750000  1
