# generated using pymatgen
data_Sr3MoI2O5
_symmetry_space_group_name_H-M   'P 1'
_cell_length_a   7.72376810
_cell_length_b   7.72376787
_cell_length_c   11.62655500
_cell_angle_alpha   90.00000000
_cell_angle_beta   90.00000000
_cell_angle_gamma   135.40993867
_symmetry_Int_Tables_number   1
_chemical_formula_structural   Sr3MoI2O5
_chemical_formula_sum   'Sr6 Mo2 I4 O10'
_cell_volume   486.92813803
_cell_formula_units_Z   2
loop_
 _symmetry_equiv_pos_site_id
 _symmetry_equiv_pos_as_xyz
  1  'x, y, z'
loop_
 _atom_site_type_symbol
 _atom_site_label
 _atom_site_symmetry_multiplicity
 _atom_site_fract_x
 _atom_site_fract_y
 _atom_site_fract_z
 _atom_site_occupancy
  Sr  Sr0  1  0.664475  0.335525  0.528384  1
  Sr  Sr1  1  0.335525  0.664475  0.028384  1
  Sr  Sr2  1  0.664475  0.335525  0.971616  1
  Sr  Sr3  1  0.871250  0.128750  0.750000  1
  Sr  Sr4  1  0.335525  0.664475  0.471616  1
  Sr  Sr5  1  0.128750  0.871250  0.250000  1
  Mo  Mo6  1  0.763695  0.236305  0.250000  1
  Mo  Mo7  1  0.236305  0.763695  0.750000  1
  I  I8  1  0.502624  0.497376  0.250000  1
  I  I9  1  0.000000  0.000000  0.500000  1
  I  I10  1  0.497376  0.502624  0.750000  1
  I  I11  1  0.000000  0.000000  0.000000  1
  O  O12  1  0.502324  0.042841  0.365025  1
  O  O13  1  0.042841  0.502324  0.634975  1
  O  O14  1  0.497676  0.957159  0.865025  1
  O  O15  1  0.497676  0.957159  0.634975  1
  O  O16  1  0.115530  0.884470  0.750000  1
  O  O17  1  0.042841  0.502324  0.865025  1
  O  O18  1  0.502324  0.042841  0.134975  1
  O  O19  1  0.957159  0.497676  0.365025  1
  O  O20  1  0.884470  0.115530  0.250000  1
  O  O21  1  0.957159  0.497676  0.134975  1
