# generated using pymatgen
data_Lu6UCo17P12
_symmetry_space_group_name_H-M   'P 1'
_cell_length_a   3.70068300
_cell_length_b   10.54542600
_cell_length_c   12.23079100
_cell_angle_alpha   90.00000000
_cell_angle_beta   90.00000000
_cell_angle_gamma   90.00000000
_symmetry_Int_Tables_number   1
_chemical_formula_structural   Lu6UCo17P12
_chemical_formula_sum   'Lu6 U1 Co17 P12'
_cell_volume   477.31002781
_cell_formula_units_Z   1
loop_
 _symmetry_equiv_pos_site_id
 _symmetry_equiv_pos_as_xyz
  1  'x, y, z'
loop_
 _atom_site_type_symbol
 _atom_site_label
 _atom_site_symmetry_multiplicity
 _atom_site_fract_x
 _atom_site_fract_y
 _atom_site_fract_z
 _atom_site_occupancy
  Lu  Lu0  1  0.000000  0.500000  0.535969  1
  Lu  Lu1  1  0.500000  0.000000  0.475555  1
  Lu  Lu2  1  0.500000  0.826647  0.208708  1
  Lu  Lu3  1  0.500000  0.173353  0.208708  1
  Lu  Lu4  1  0.000000  0.682221  0.796505  1
  Lu  Lu5  1  0.000000  0.317779  0.796505  1
  U  U6  1  0.500000  0.500000  0.163501  1
  Co  Co7  1  0.000000  0.000000  0.831873  1
  Co  Co8  1  0.500000  0.500000  0.704465  1
  Co  Co9  1  0.000000  0.000000  0.295875  1
  Co  Co10  1  0.000000  0.500000  0.987581  1
  Co  Co11  1  0.500000  0.000000  0.013814  1
  Co  Co12  1  0.500000  0.325080  0.989102  1
  Co  Co13  1  0.500000  0.674920  0.989102  1
  Co  Co14  1  0.000000  0.158004  0.997238  1
  Co  Co15  1  0.000000  0.841996  0.997238  1
  Co  Co16  1  0.500000  0.293462  0.436169  1
  Co  Co17  1  0.500000  0.706538  0.436169  1
  Co  Co18  1  0.000000  0.201507  0.570352  1
  Co  Co19  1  0.000000  0.798493  0.570352  1
  Co  Co20  1  0.500000  0.879153  0.705242  1
  Co  Co21  1  0.500000  0.120847  0.705242  1
  Co  Co22  1  0.000000  0.623102  0.291140  1
  Co  Co23  1  0.000000  0.376898  0.291140  1
  P  P24  1  0.500000  0.500000  0.881490  1
  P  P25  1  0.000000  0.000000  0.117045  1
  P  P26  1  0.500000  0.500000  0.377283  1
  P  P27  1  0.000000  0.000000  0.650697  1
  P  P28  1  0.500000  0.311241  0.619587  1
  P  P29  1  0.500000  0.688759  0.619587  1
  P  P30  1  0.000000  0.185834  0.386261  1
  P  P31  1  0.000000  0.814166  0.386261  1
  P  P32  1  0.500000  0.853605  0.884491  1
  P  P33  1  0.500000  0.146395  0.884491  1
  P  P34  1  0.000000  0.675027  0.097632  1
  P  P35  1  0.000000  0.324973  0.097632  1
