# generated using pymatgen
data_Ba3GaSe4Br
_symmetry_space_group_name_H-M   'P 1'
_cell_length_a   8.91191400
_cell_length_b   10.04758600
_cell_length_c   13.05897300
_cell_angle_alpha   90.00000000
_cell_angle_beta   90.00000000
_cell_angle_gamma   90.00000000
_symmetry_Int_Tables_number   1
_chemical_formula_structural   Ba3GaSe4Br
_chemical_formula_sum   'Ba12 Ga4 Se16 Br4'
_cell_volume   1169.34252287
_cell_formula_units_Z   4
loop_
 _symmetry_equiv_pos_site_id
 _symmetry_equiv_pos_as_xyz
  1  'x, y, z'
loop_
 _atom_site_type_symbol
 _atom_site_label
 _atom_site_symmetry_multiplicity
 _atom_site_fract_x
 _atom_site_fract_y
 _atom_site_fract_z
 _atom_site_occupancy
  Ba  Ba0  1  0.579965  0.750000  0.013737  1
  Ba  Ba1  1  0.920035  0.750000  0.513737  1
  Ba  Ba2  1  0.420035  0.250000  0.986263  1
  Ba  Ba3  1  0.079965  0.250000  0.486263  1
  Ba  Ba4  1  0.921622  0.481336  0.831810  1
  Ba  Ba5  1  0.578378  0.018664  0.331810  1
  Ba  Ba6  1  0.078378  0.981336  0.168190  1
  Ba  Ba7  1  0.421622  0.518664  0.668190  1
  Ba  Ba8  1  0.078378  0.518664  0.168190  1
  Ba  Ba9  1  0.421622  0.981336  0.668190  1
  Ba  Ba10  1  0.921622  0.018664  0.831810  1
  Ba  Ba11  1  0.578378  0.481336  0.331810  1
  Ga  Ga12  1  0.186885  0.750000  0.890172  1
  Ga  Ga13  1  0.313115  0.750000  0.390172  1
  Ga  Ga14  1  0.813115  0.250000  0.109828  1
  Ga  Ga15  1  0.686885  0.250000  0.609828  1
  Se  Se16  1  0.686797  0.455516  0.076497  1
  Se  Se17  1  0.813203  0.044484  0.576497  1
  Se  Se18  1  0.313203  0.955516  0.923503  1
  Se  Se19  1  0.186797  0.544484  0.423503  1
  Se  Se20  1  0.313203  0.544484  0.923503  1
  Se  Se21  1  0.186797  0.955516  0.423503  1
  Se  Se22  1  0.686797  0.044484  0.076497  1
  Se  Se23  1  0.813203  0.455516  0.576497  1
  Se  Se24  1  0.358384  0.750000  0.207216  1
  Se  Se25  1  0.141616  0.750000  0.707216  1
  Se  Se26  1  0.641616  0.250000  0.792784  1
  Se  Se27  1  0.858384  0.250000  0.292784  1
  Se  Se28  1  0.960277  0.750000  0.993240  1
  Se  Se29  1  0.539723  0.750000  0.493240  1
  Se  Se30  1  0.039723  0.250000  0.006760  1
  Se  Se31  1  0.460277  0.250000  0.506760  1
  Br  Br32  1  0.665718  0.750000  0.768925  1
  Br  Br33  1  0.834282  0.750000  0.268925  1
  Br  Br34  1  0.334282  0.250000  0.231075  1
  Br  Br35  1  0.165718  0.250000  0.731075  1
