# generated using pymatgen
data_Tb3Y2(GeB4)2
_symmetry_space_group_name_H-M   'P 1'
_cell_length_a   7.27368409
_cell_length_b   7.27368430
_cell_length_c   8.19055300
_cell_angle_alpha   90.00000000
_cell_angle_beta   90.00000000
_cell_angle_gamma   90.02530135
_symmetry_Int_Tables_number   1
_chemical_formula_structural   Tb3Y2(GeB4)2
_chemical_formula_sum   'Tb6 Y4 Ge4 B16'
_cell_volume   433.33330058
_cell_formula_units_Z   2
loop_
 _symmetry_equiv_pos_site_id
 _symmetry_equiv_pos_as_xyz
  1  'x, y, z'
loop_
 _atom_site_type_symbol
 _atom_site_label
 _atom_site_symmetry_multiplicity
 _atom_site_fract_x
 _atom_site_fract_y
 _atom_site_fract_z
 _atom_site_occupancy
  Tb  Tb0  1  0.680336  0.180306  0.221206  1
  Tb  Tb1  1  0.319694  0.819664  0.778794  1
  Tb  Tb2  1  0.319694  0.819664  0.221206  1
  Tb  Tb3  1  0.819560  0.680440  0.221286  1
  Tb  Tb4  1  0.819560  0.680440  0.778714  1
  Tb  Tb5  1  0.680336  0.180306  0.778794  1
  Y  Y6  1  0.180262  0.319738  0.779690  1
  Y  Y7  1  0.180262  0.319738  0.220310  1
  Y  Y8  1  0.000089  0.000104  0.500000  1
  Y  Y9  1  0.499896  0.499911  0.500000  1
  Ge  Ge10  1  0.119977  0.619326  0.500000  1
  Ge  Ge11  1  0.880674  0.380023  0.500000  1
  Ge  Ge12  1  0.379563  0.120437  0.500000  1
  Ge  Ge13  1  0.619499  0.880501  0.500000  1
  B  B14  1  0.172226  0.039108  0.000000  1
  B  B15  1  0.828012  0.960865  0.000000  1
  B  B16  1  0.960472  0.171948  0.000000  1
  B  B17  1  0.328052  0.539528  0.000000  1
  B  B18  1  0.039419  0.828097  0.000000  1
  B  B19  1  0.671903  0.460581  0.000000  1
  B  B20  1  0.539135  0.671988  0.000000  1
  B  B21  1  0.460892  0.327774  0.000000  1
  B  B22  1  0.090485  0.590466  0.000000  1
  B  B23  1  0.909534  0.409515  0.000000  1
  B  B24  1  0.409883  0.090117  0.000000  1
  B  B25  1  0.590428  0.909572  0.000000  1
  B  B26  1  0.000160  0.000082  0.160767  1
  B  B27  1  0.000160  0.000082  0.839233  1
  B  B28  1  0.499918  0.499840  0.839233  1
  B  B29  1  0.499918  0.499840  0.160767  1
