# generated using pymatgen
data_Zr16Co4CuAg3N4
_symmetry_space_group_name_H-M   'P 1'
_cell_length_a   8.77519584
_cell_length_b   8.77519592
_cell_length_c   8.77519677
_cell_angle_alpha   60.16573867
_cell_angle_beta   60.16574283
_cell_angle_gamma   60.16574126
_symmetry_Int_Tables_number   1
_chemical_formula_structural   Zr16Co4CuAg3N4
_chemical_formula_sum   'Zr16 Co4 Cu1 Ag3 N4'
_cell_volume   479.60390885
_cell_formula_units_Z   1
loop_
 _symmetry_equiv_pos_site_id
 _symmetry_equiv_pos_as_xyz
  1  'x, y, z'
loop_
 _atom_site_type_symbol
 _atom_site_label
 _atom_site_symmetry_multiplicity
 _atom_site_fract_x
 _atom_site_fract_y
 _atom_site_fract_z
 _atom_site_occupancy
  Zr  Zr0  1  0.062735  0.644794  0.644794  1
  Zr  Zr1  1  0.644794  0.062735  0.644794  1
  Zr  Zr2  1  0.644794  0.644794  0.062735  1
  Zr  Zr3  1  0.647300  0.647300  0.647300  1
  Zr  Zr4  1  0.818108  0.818108  0.181755  1
  Zr  Zr5  1  0.182771  0.182771  0.817398  1
  Zr  Zr6  1  0.818108  0.181755  0.818108  1
  Zr  Zr7  1  0.182771  0.817398  0.182771  1
  Zr  Zr8  1  0.181755  0.818108  0.818108  1
  Zr  Zr9  1  0.817398  0.182771  0.182771  1
  Zr  Zr10  1  0.431832  0.431832  0.072020  1
  Zr  Zr11  1  0.068868  0.068868  0.431517  1
  Zr  Zr12  1  0.431832  0.072020  0.431832  1
  Zr  Zr13  1  0.068868  0.431517  0.068868  1
  Zr  Zr14  1  0.072020  0.431832  0.431832  1
  Zr  Zr15  1  0.431517  0.068868  0.068868  1
  Co  Co16  1  0.438015  0.854526  0.854526  1
  Co  Co17  1  0.854526  0.438015  0.854526  1
  Co  Co18  1  0.854526  0.854526  0.438015  1
  Co  Co19  1  0.853002  0.853002  0.853002  1
  Cu  Cu20  1  0.415878  0.415878  0.415878  1
  Ag  Ag21  1  0.743480  0.417308  0.417308  1
  Ag  Ag22  1  0.417308  0.743480  0.417308  1
  Ag  Ag23  1  0.417308  0.417308  0.743480  1
  N  N24  1  0.623114  0.125750  0.125750  1
  N  N25  1  0.125750  0.623114  0.125750  1
  N  N26  1  0.125750  0.125750  0.623114  1
  N  N27  1  0.125873  0.125873  0.125873  1
