# generated using pymatgen
data_CeTh7(Si3Os4)2
_symmetry_space_group_name_H-M   'P 1'
_cell_length_a   10.85346646
_cell_length_b   10.87068746
_cell_length_c   7.92985176
_cell_angle_alpha   71.60947440
_cell_angle_beta   71.66911803
_cell_angle_gamma   30.30943546
_symmetry_Int_Tables_number   1
_chemical_formula_structural   CeTh7(Si3Os4)2
_chemical_formula_sum   'Ce1 Th7 Si6 Os8'
_cell_volume   446.31721595
_cell_formula_units_Z   1
loop_
 _symmetry_equiv_pos_site_id
 _symmetry_equiv_pos_as_xyz
  1  'x, y, z'
loop_
 _atom_site_type_symbol
 _atom_site_label
 _atom_site_symmetry_multiplicity
 _atom_site_fract_x
 _atom_site_fract_y
 _atom_site_fract_z
 _atom_site_occupancy
  Ce  Ce0  1  0.081493  0.778707  0.662290  1
  Th  Th1  1  0.787848  0.552962  0.607789  1
  Th  Th2  1  0.446336  0.214448  0.891014  1
  Th  Th3  1  0.212320  0.447256  0.393413  1
  Th  Th4  1  0.553848  0.787051  0.106574  1
  Th  Th5  1  0.780809  0.079005  0.163934  1
  Th  Th6  1  0.920869  0.217719  0.339586  1
  Th  Th7  1  0.217488  0.921365  0.835524  1
  Si  Si8  1  0.950606  0.701159  0.054166  1
  Si  Si9  1  0.299516  0.049546  0.444329  1
  Si  Si10  1  0.050058  0.298128  0.944354  1
  Si  Si11  1  0.704659  0.949228  0.555785  1
  Si  Si12  1  0.600458  0.398581  0.750037  1
  Si  Si13  1  0.394448  0.604626  0.250585  1
  Os  Os14  1  0.593719  0.283704  0.527587  1
  Os  Os15  1  0.715335  0.406867  0.972980  1
  Os  Os16  1  0.402871  0.718498  0.474143  1
  Os  Os17  1  0.281784  0.595233  0.026144  1
  Os  Os18  1  0.634848  0.925502  0.309314  1
  Os  Os19  1  0.074286  0.366097  0.190496  1
  Os  Os20  1  0.368925  0.072364  0.691613  1
  Os  Os21  1  0.927477  0.631953  0.808341  1
