# generated using pymatgen
data_Th2TlFe2
_symmetry_space_group_name_H-M   'P 1'
_cell_length_a   3.94525800
_cell_length_b   3.94525830
_cell_length_c   18.40478300
_cell_angle_alpha   90.00000000
_cell_angle_beta   90.00000000
_cell_angle_gamma   119.99999748
_symmetry_Int_Tables_number   1
_chemical_formula_structural   Th2TlFe2
_chemical_formula_sum   'Th4 Tl2 Fe4'
_cell_volume   248.09167740
_cell_formula_units_Z   2
loop_
 _symmetry_equiv_pos_site_id
 _symmetry_equiv_pos_as_xyz
  1  'x, y, z'
loop_
 _atom_site_type_symbol
 _atom_site_label
 _atom_site_symmetry_multiplicity
 _atom_site_fract_x
 _atom_site_fract_y
 _atom_site_fract_z
 _atom_site_occupancy
  Th  Th0  1  0.000000  0.000000  0.103936  1
  Th  Th1  1  0.000000  0.000000  0.603936  1
  Th  Th2  1  0.000000  0.000000  0.896064  1
  Th  Th3  1  0.000000  0.000000  0.396064  1
  Tl  Tl4  1  0.666667  0.333333  0.250000  1
  Tl  Tl5  1  0.333333  0.666667  0.750000  1
  Fe  Fe6  1  0.666667  0.333333  0.999356  1
  Fe  Fe7  1  0.333333  0.666667  0.499356  1
  Fe  Fe8  1  0.333333  0.666667  0.000644  1
  Fe  Fe9  1  0.666667  0.333333  0.500644  1
