# generated using pymatgen
data_MnSn2P6BrN12
_symmetry_space_group_name_H-M   'P 1'
_cell_length_a   7.42216868
_cell_length_b   7.37963272
_cell_length_c   7.37963420
_cell_angle_alpha   107.37937795
_cell_angle_beta   110.78065928
_cell_angle_gamma   110.78063810
_symmetry_Int_Tables_number   1
_chemical_formula_structural   MnSn2P6BrN12
_chemical_formula_sum   'Mn1 Sn2 P6 Br1 N12'
_cell_volume   308.84667390
_cell_formula_units_Z   1
loop_
 _symmetry_equiv_pos_site_id
 _symmetry_equiv_pos_as_xyz
  1  'x, y, z'
loop_
 _atom_site_type_symbol
 _atom_site_label
 _atom_site_symmetry_multiplicity
 _atom_site_fract_x
 _atom_site_fract_y
 _atom_site_fract_z
 _atom_site_occupancy
  Mn  Mn0  1  0.389247  0.995145  0.995145  1
  Sn  Sn1  1  0.998855  0.332350  0.022262  1
  Sn  Sn2  1  0.998855  0.022262  0.332350  1
  P  P3  1  0.498604  0.263075  0.756302  1
  P  P4  1  0.256501  0.760717  0.506991  1
  P  P5  1  0.744738  0.507195  0.260620  1
  P  P6  1  0.744738  0.260620  0.507195  1
  P  P7  1  0.498604  0.756302  0.263075  1
  P  P8  1  0.256501  0.506991  0.760717  1
  Br  Br9  1  0.006298  0.886036  0.886036  1
  N  N10  1  0.418071  0.715763  0.427899  1
  N  N11  1  0.697634  0.421659  0.421659  1
  N  N12  1  0.418071  0.427899  0.715763  1
  N  N13  1  0.713829  0.290270  0.723447  1
  N  N14  1  0.997384  0.589640  0.291783  1
  N  N15  1  0.280315  0.579531  0.007163  1
  N  N16  1  0.280315  0.007163  0.579531  1
  N  N17  1  0.997384  0.291783  0.589640  1
  N  N18  1  0.713829  0.723447  0.290270  1
  N  N19  1  0.574925  0.006332  0.288021  1
  N  N20  1  0.300375  0.727798  0.727798  1
  N  N21  1  0.574925  0.288021  0.006332  1
