# generated using pymatgen
data_ZrSn2Pt(SeO3)8
_symmetry_space_group_name_H-M   'P 1'
_cell_length_a   8.32462508
_cell_length_b   8.39793298
_cell_length_c   8.37068512
_cell_angle_alpha   90.40244818
_cell_angle_beta   89.95870135
_cell_angle_gamma   89.48794633
_symmetry_Int_Tables_number   1
_chemical_formula_structural   ZrSn2Pt(SeO3)8
_chemical_formula_sum   'Zr1 Sn2 Pt1 Se8 O24'
_cell_volume   585.15362814
_cell_formula_units_Z   1
loop_
 _symmetry_equiv_pos_site_id
 _symmetry_equiv_pos_as_xyz
  1  'x, y, z'
loop_
 _atom_site_type_symbol
 _atom_site_label
 _atom_site_symmetry_multiplicity
 _atom_site_fract_x
 _atom_site_fract_y
 _atom_site_fract_z
 _atom_site_occupancy
  Zr  Zr0  1  0.500000  0.000000  0.500000  1
  Sn  Sn1  1  0.000000  0.000000  0.000000  1
  Sn  Sn2  1  0.000000  0.500000  0.500000  1
  Pt  Pt3  1  0.500000  0.500000  0.000000  1
  Se  Se4  1  0.846095  0.177848  0.673922  1
  Se  Se5  1  0.153905  0.822152  0.326078  1
  Se  Se6  1  0.669864  0.650655  0.690694  1
  Se  Se7  1  0.182178  0.663800  0.836422  1
  Se  Se8  1  0.326436  0.187142  0.850350  1
  Se  Se9  1  0.817822  0.336200  0.163578  1
  Se  Se10  1  0.673564  0.812858  0.149650  1
  Se  Se11  1  0.330136  0.349345  0.309306  1
  O  O12  1  0.244918  0.477245  0.451511  1
  O  O13  1  0.952149  0.242982  0.033904  1
  O  O14  1  0.015850  0.742850  0.459927  1
  O  O15  1  0.472476  0.259707  0.984814  1
  O  O16  1  0.258538  0.940502  0.456557  1
  O  O17  1  0.523747  0.516211  0.758972  1
  O  O18  1  0.974083  0.034640  0.755790  1
  O  O19  1  0.527524  0.740293  0.015186  1
  O  O20  1  0.554246  0.938875  0.261201  1
  O  O21  1  0.445754  0.061125  0.738799  1
  O  O22  1  0.755114  0.951840  0.020331  1
  O  O23  1  0.258004  0.525067  0.975137  1
  O  O24  1  0.047407  0.537459  0.743816  1
  O  O25  1  0.025917  0.965360  0.244210  1
  O  O26  1  0.244886  0.048160  0.979669  1
  O  O27  1  0.476253  0.483789  0.241028  1
  O  O28  1  0.755082  0.522755  0.548489  1
  O  O29  1  0.952593  0.462541  0.256184  1
  O  O30  1  0.047851  0.757018  0.966096  1
  O  O31  1  0.450025  0.236909  0.431762  1
  O  O32  1  0.549975  0.763091  0.568238  1
  O  O33  1  0.984150  0.257150  0.540073  1
  O  O34  1  0.741462  0.059498  0.543443  1
  O  O35  1  0.741996  0.474933  0.024863  1
