# generated using pymatgen
data_Tb3Tm13In4OsRh3
_symmetry_space_group_name_H-M   'P 1'
_cell_length_a   9.57959137
_cell_length_b   9.55743610
_cell_length_c   9.59601428
_cell_angle_alpha   59.98633114
_cell_angle_beta   59.97379107
_cell_angle_gamma   59.86010404
_symmetry_Int_Tables_number   1
_chemical_formula_structural   Tb3Tm13In4OsRh3
_chemical_formula_sum   'Tb3 Tm13 In4 Os1 Rh3'
_cell_volume   620.40075977
_cell_formula_units_Z   1
loop_
 _symmetry_equiv_pos_site_id
 _symmetry_equiv_pos_as_xyz
  1  'x, y, z'
loop_
 _atom_site_type_symbol
 _atom_site_label
 _atom_site_symmetry_multiplicity
 _atom_site_fract_x
 _atom_site_fract_y
 _atom_site_fract_z
 _atom_site_occupancy
  Tb  Tb0  1  0.057249  0.057233  0.438766  1
  Tb  Tb1  1  0.444240  0.061085  0.434800  1
  Tb  Tb2  1  0.063511  0.438676  0.060908  1
  Tm  Tm3  1  0.046997  0.649229  0.650729  1
  Tm  Tm4  1  0.439846  0.438499  0.060266  1
  Tm  Tm5  1  0.649568  0.046374  0.650540  1
  Tm  Tm6  1  0.188913  0.809462  0.192340  1
  Tm  Tm7  1  0.190483  0.190357  0.810273  1
  Tm  Tm8  1  0.809152  0.809778  0.193229  1
  Tm  Tm9  1  0.440641  0.060632  0.058228  1
  Tm  Tm10  1  0.809997  0.188836  0.192297  1
  Tm  Tm11  1  0.057174  0.448033  0.438136  1
  Tm  Tm12  1  0.809055  0.191872  0.810158  1
  Tm  Tm13  1  0.191900  0.809397  0.809870  1
  Tm  Tm14  1  0.650154  0.649888  0.047749  1
  Tm  Tm15  1  0.651552  0.652008  0.651199  1
  In  In16  1  0.416145  0.418546  0.416013  1
  In  In17  1  0.748829  0.418035  0.416219  1
  In  In18  1  0.418320  0.747923  0.415495  1
  In  In19  1  0.418348  0.416967  0.747685  1
  Os  Os20  1  0.858957  0.856351  0.425158  1
  Rh  Rh21  1  0.858172  0.859424  0.860613  1
  Rh  Rh22  1  0.423227  0.857717  0.860863  1
  Rh  Rh23  1  0.857570  0.423677  0.858473  1
