# generated using pymatgen
data_Sr14AgBi11
_symmetry_space_group_name_H-M   'P 1'
_cell_length_a   17.41501692
_cell_length_b   17.41502671
_cell_length_c   17.41503200
_cell_angle_alpha   94.39898063
_cell_angle_beta   117.49359858
_cell_angle_gamma   117.49361955
_symmetry_Int_Tables_number   1
_chemical_formula_structural   Sr14AgBi11
_chemical_formula_sum   'Sr56 Ag4 Bi44'
_cell_volume   3863.87811173
_cell_formula_units_Z   4
loop_
 _symmetry_equiv_pos_site_id
 _symmetry_equiv_pos_as_xyz
  1  'x, y, z'
loop_
 _atom_site_type_symbol
 _atom_site_label
 _atom_site_symmetry_multiplicity
 _atom_site_fract_x
 _atom_site_fract_y
 _atom_site_fract_z
 _atom_site_occupancy
  Sr  Sr0  1  0.101722  0.122653  0.975105  1
  Sr  Sr1  1  0.355015  0.250000  0.605016  1
  Sr  Sr2  1  0.032575  0.785315  0.403075  1
  Sr  Sr3  1  0.088649  0.522215  0.752455  1
  Sr  Sr4  1  0.644985  0.750000  0.394984  1
  Sr  Sr5  1  0.644984  0.394982  0.250001  1
  Sr  Sr6  1  0.882239  0.752742  0.785318  1
  Sr  Sr7  1  0.398281  0.373386  0.020936  1
  Sr  Sr8  1  0.269761  0.336194  0.747546  1
  Sr  Sr9  1  0.088648  0.066433  0.336195  1
  Sr  Sr10  1  0.911352  0.933567  0.663805  1
  Sr  Sr11  1  0.730239  0.663806  0.252454  1
  Sr  Sr12  1  0.647549  0.126613  0.524895  1
  Sr  Sr13  1  0.852450  0.975107  0.373378  1
  Sr  Sr14  1  0.144986  0.749998  0.894983  1
  Sr  Sr15  1  0.601719  0.626614  0.979064  1
  Sr  Sr16  1  0.730241  0.566435  0.477786  1
  Sr  Sr17  1  0.588649  0.252454  0.022215  1
  Sr  Sr18  1  0.398278  0.524899  0.377346  1
  Sr  Sr19  1  0.230240  0.977785  0.066433  1
  Sr  Sr20  1  0.411351  0.747546  0.977785  1
  Sr  Sr21  1  0.147550  0.622658  0.520931  1
  Sr  Sr22  1  0.382240  0.285317  0.252743  1
  Sr  Sr23  1  0.532576  0.129499  0.247259  1
  Sr  Sr24  1  0.911351  0.477785  0.247545  1
  Sr  Sr25  1  0.588650  0.836194  0.566434  1
  Sr  Sr26  1  0.882240  0.629497  0.096922  1
  Sr  Sr27  1  0.117760  0.370503  0.903078  1
  Sr  Sr28  1  0.352451  0.873387  0.475105  1
  Sr  Sr29  1  0.467424  0.870501  0.752741  1
  Sr  Sr30  1  0.352450  0.979067  0.877343  1
  Sr  Sr31  1  0.898278  0.877347  0.024895  1
  Sr  Sr32  1  0.852450  0.377342  0.479069  1
  Sr  Sr33  1  0.855014  0.250002  0.105017  1
  Sr  Sr34  1  0.898274  0.520932  0.873382  1
  Sr  Sr35  1  0.101726  0.479068  0.126618  1
  Sr  Sr36  1  0.117761  0.247258  0.214682  1
  Sr  Sr37  1  0.532575  0.903077  0.285316  1
  Sr  Sr38  1  0.601722  0.475101  0.622654  1
  Sr  Sr39  1  0.230238  0.752452  0.163804  1
  Sr  Sr40  1  0.617761  0.403077  0.870503  1
  Sr  Sr41  1  0.382239  0.596923  0.129497  1
  Sr  Sr42  1  0.032575  0.747259  0.629499  1
  Sr  Sr43  1  0.967425  0.214685  0.596925  1
  Sr  Sr44  1  0.769762  0.247548  0.836196  1
  Sr  Sr45  1  0.355016  0.605018  0.749999  1
  Sr  Sr46  1  0.411350  0.163806  0.433566  1
  Sr  Sr47  1  0.147550  0.024893  0.626622  1
  Sr  Sr48  1  0.647550  0.020933  0.122657  1
  Sr  Sr49  1  0.855019  0.105017  0.750002  1
  Sr  Sr50  1  0.617760  0.714683  0.747257  1
  Sr  Sr51  1  0.269759  0.433565  0.522214  1
  Sr  Sr52  1  0.144981  0.894983  0.249998  1
  Sr  Sr53  1  0.467425  0.096923  0.714684  1
  Sr  Sr54  1  0.769760  0.022215  0.933567  1
  Sr  Sr55  1  0.967425  0.252741  0.370501  1
  Ag  Ag56  1  0.749995  0.874997  0.124993  1
  Ag  Ag57  1  0.749999  0.375000  0.624997  1
  Ag  Ag58  1  0.250001  0.625000  0.375003  1
  Ag  Ag59  1  0.250005  0.125003  0.875007  1
  Bi  Bi60  1  0.481395  0.490698  0.740698  1
  Bi  Bi61  1  0.395459  0.915649  0.073205  1
  Bi  Bi62  1  0.518605  0.509302  0.259302  1
  Bi  Bi63  1  0.104542  0.177746  0.520190  1
  Bi  Bi64  1  0.895456  0.573204  0.415646  1
  Bi  Bi65  1  0.750002  0.990698  0.509303  1
  Bi  Bi66  1  0.604541  0.084351  0.926795  1
  Bi  Bi67  1  0.395456  0.979811  0.322252  1
  Bi  Bi68  1  0.388480  0.682633  0.579118  1
  Bi  Bi69  1  0.657559  0.677747  0.573205  1
  Bi  Bi70  1  0.750000  0.125000  0.375000  1
  Bi  Bi71  1  0.895458  0.822254  0.479810  1
  Bi  Bi72  1  0.103517  0.420885  0.309364  1
  Bi  Bi73  1  0.888476  0.309361  0.705846  1
  Bi  Bi74  1  0.888474  0.079111  0.182631  1
  Bi  Bi75  1  0.611523  0.794155  0.190637  1
  Bi  Bi76  1  0.396486  0.190639  0.079120  1
  Bi  Bi77  1  0.603520  0.294155  0.682633  1
  Bi  Bi78  1  0.396480  0.705845  0.317367  1
  Bi  Bi79  1  0.250000  0.375000  0.125000  1
  Bi  Bi80  1  0.103518  0.182633  0.794156  1
  Bi  Bi81  1  0.249998  0.009302  0.490697  1
  Bi  Bi82  1  0.111524  0.690639  0.294154  1
  Bi  Bi83  1  0.750000  0.625000  0.875000  1
  Bi  Bi84  1  0.111526  0.920889  0.817369  1
  Bi  Bi85  1  0.104544  0.426796  0.584354  1
  Bi  Bi86  1  0.250000  0.875000  0.625000  1
  Bi  Bi87  1  0.604544  0.020189  0.677748  1
  Bi  Bi88  1  0.842442  0.926796  0.822253  1
  Bi  Bi89  1  0.342441  0.322253  0.426795  1
  Bi  Bi90  1  0.842443  0.415647  0.020189  1
  Bi  Bi91  1  0.896482  0.817367  0.205844  1
  Bi  Bi92  1  0.157557  0.584353  0.979811  1
  Bi  Bi93  1  0.249998  0.740696  0.759301  1
  Bi  Bi94  1  0.896483  0.579115  0.690636  1
  Bi  Bi95  1  0.750002  0.259304  0.240699  1
  Bi  Bi96  1  0.611520  0.317367  0.420882  1
  Bi  Bi97  1  0.388477  0.205845  0.809363  1
  Bi  Bi98  1  0.657560  0.479811  0.084356  1
  Bi  Bi99  1  0.342440  0.520189  0.915644  1
  Bi  Bi100  1  0.157558  0.073204  0.177747  1
  Bi  Bi101  1  0.018606  0.759303  0.009303  1
  Bi  Bi102  1  0.981394  0.240697  0.990697  1
  Bi  Bi103  1  0.603514  0.809361  0.920880  1
