# generated using pymatgen
data_Cs6SmDyBr12
_symmetry_space_group_name_H-M   'P 1'
_cell_length_a   10.02725488
_cell_length_b   10.03470588
_cell_length_c   8.34042000
_cell_angle_alpha   90.00000000
_cell_angle_beta   90.00000000
_cell_angle_gamma   89.91322507
_symmetry_Int_Tables_number   1
_chemical_formula_structural   Cs6SmDyBr12
_chemical_formula_sum   'Cs6 Sm1 Dy1 Br12'
_cell_volume   839.21671373
_cell_formula_units_Z   1
loop_
 _symmetry_equiv_pos_site_id
 _symmetry_equiv_pos_as_xyz
  1  'x, y, z'
loop_
 _atom_site_type_symbol
 _atom_site_label
 _atom_site_symmetry_multiplicity
 _atom_site_fract_x
 _atom_site_fract_y
 _atom_site_fract_z
 _atom_site_occupancy
  Cs  Cs0  1  0.000000  0.000000  0.500000  1
  Cs  Cs1  1  0.000000  0.000000  0.000000  1
  Cs  Cs2  1  0.234848  0.584881  0.500000  1
  Cs  Cs3  1  0.765152  0.415119  0.500000  1
  Cs  Cs4  1  0.414972  0.235281  0.000000  1
  Cs  Cs5  1  0.585028  0.764719  0.000000  1
  Sm  Sm6  1  0.500000  0.000000  0.500000  1
  Dy  Dy7  1  0.000000  0.500000  0.000000  1
  Br  Br8  1  0.694430  0.058917  0.743342  1
  Br  Br9  1  0.305570  0.941083  0.743342  1
  Br  Br10  1  0.942014  0.691053  0.239417  1
  Br  Br11  1  0.057986  0.308947  0.239417  1
  Br  Br12  1  0.305570  0.941083  0.256658  1
  Br  Br13  1  0.694430  0.058917  0.256658  1
  Br  Br14  1  0.057986  0.308947  0.760583  1
  Br  Br15  1  0.942014  0.691053  0.760583  1
  Br  Br16  1  0.571723  0.724979  0.500000  1
  Br  Br17  1  0.428277  0.275021  0.500000  1
  Br  Br18  1  0.270104  0.570405  0.000000  1
  Br  Br19  1  0.729896  0.429595  0.000000  1
