# generated using pymatgen
data_Nd4Cd2CuAg2Ir
_symmetry_space_group_name_H-M   'P 1'
_cell_length_a   8.00231296
_cell_length_b   8.00231317
_cell_length_c   3.89838200
_cell_angle_alpha   90.00000000
_cell_angle_beta   90.00000000
_cell_angle_gamma   90.81006842
_symmetry_Int_Tables_number   1
_chemical_formula_structural   Nd4Cd2CuAg2Ir
_chemical_formula_sum   'Nd4 Cd2 Cu1 Ag2 Ir1'
_cell_volume   249.61579377
_cell_formula_units_Z   1
loop_
 _symmetry_equiv_pos_site_id
 _symmetry_equiv_pos_as_xyz
  1  'x, y, z'
loop_
 _atom_site_type_symbol
 _atom_site_label
 _atom_site_symmetry_multiplicity
 _atom_site_fract_x
 _atom_site_fract_y
 _atom_site_fract_z
 _atom_site_occupancy
  Nd  Nd0  1  0.695477  0.195477  0.000000  1
  Nd  Nd1  1  0.314662  0.814662  0.000000  1
  Nd  Nd2  1  0.154330  0.327670  0.000000  1
  Nd  Nd3  1  0.827670  0.654330  0.000000  1
  Cd  Cd4  1  0.493412  0.501070  0.500000  1
  Cd  Cd5  1  0.001070  0.993412  0.500000  1
  Cu  Cu6  1  0.121588  0.621588  0.500000  1
  Ag  Ag7  1  0.377971  0.127188  0.500000  1
  Ag  Ag8  1  0.627188  0.877971  0.500000  1
  Ir  Ir9  1  0.886632  0.386632  0.500000  1
