# generated using pymatgen
data_La2Dy2HoIr2
_symmetry_space_group_name_H-M   'P 1'
_cell_length_a   6.58061012
_cell_length_b   7.23992253
_cell_length_c   8.86359439
_cell_angle_alpha   96.98941793
_cell_angle_beta   111.79060625
_cell_angle_gamma   89.99999307
_symmetry_Int_Tables_number   1
_chemical_formula_structural   La2Dy2HoIr2
_chemical_formula_sum   'La4 Dy4 Ho2 Ir4'
_cell_volume   388.73353277
_cell_formula_units_Z   2
loop_
 _symmetry_equiv_pos_site_id
 _symmetry_equiv_pos_as_xyz
  1  'x, y, z'
loop_
 _atom_site_type_symbol
 _atom_site_label
 _atom_site_symmetry_multiplicity
 _atom_site_fract_x
 _atom_site_fract_y
 _atom_site_fract_z
 _atom_site_occupancy
  La  La0  1  0.975475  0.918447  0.194292  1
  La  La1  1  0.781184  0.581553  0.805708  1
  La  La2  1  0.024525  0.081553  0.805708  1
  La  La3  1  0.218816  0.418447  0.194292  1
  Dy  Dy4  1  0.641740  0.816861  0.433418  1
  Dy  Dy5  1  0.208320  0.683139  0.566582  1
  Dy  Dy6  1  0.358260  0.183139  0.566582  1
  Dy  Dy7  1  0.791680  0.316861  0.433418  1
  Ho  Ho8  1  0.429963  0.750000  0.000000  1
  Ho  Ho9  1  0.570037  0.250000  0.000000  1
  Ir  Ir10  1  0.815276  0.575577  0.226193  1
  Ir  Ir11  1  0.589083  0.924423  0.773807  1
  Ir  Ir12  1  0.184724  0.424423  0.773807  1
  Ir  Ir13  1  0.410917  0.075577  0.226193  1
