# generated using pymatgen
data_ErTh3(Si5Rh3)2
_symmetry_space_group_name_H-M   'P 1'
_cell_length_a   8.24613553
_cell_length_b   8.23757606
_cell_length_c   8.23757538
_cell_angle_alpha   138.20583470
_cell_angle_beta   105.39705765
_cell_angle_gamma   89.35170550
_symmetry_Int_Tables_number   1
_chemical_formula_structural   ErTh3(Si5Rh3)2
_chemical_formula_sum   'Er1 Th3 Si10 Rh6'
_cell_volume   344.03910991
_cell_formula_units_Z   1
loop_
 _symmetry_equiv_pos_site_id
 _symmetry_equiv_pos_as_xyz
  1  'x, y, z'
loop_
 _atom_site_type_symbol
 _atom_site_label
 _atom_site_symmetry_multiplicity
 _atom_site_fract_x
 _atom_site_fract_y
 _atom_site_fract_z
 _atom_site_occupancy
  Er  Er0  1  0.899252  0.630807  0.268445  1
  Th  Th1  1  0.636833  0.869485  0.767348  1
  Th  Th2  1  0.363988  0.130920  0.233069  1
  Th  Th3  1  0.099037  0.367613  0.731424  1
  Si  Si4  1  0.273423  0.025811  0.750369  1
  Si  Si5  1  0.724847  0.971566  0.249628  1
  Si  Si6  1  0.724847  0.475220  0.753282  1
  Si  Si7  1  0.273423  0.523053  0.247612  1
  Si  Si8  1  0.455015  0.607103  0.847912  1
  Si  Si9  1  0.550100  0.396694  0.153405  1
  Si  Si10  1  0.761475  0.107813  0.653662  1
  Si  Si11  1  0.238146  0.890586  0.347560  1
  Si  Si12  1  0.000199  0.749442  0.746243  1
  Si  Si13  1  0.000199  0.253957  0.250757  1
  Rh  Rh14  1  0.250705  0.639550  0.611155  1
  Rh  Rh15  1  0.751191  0.361857  0.389333  1
  Rh  Rh16  1  0.026473  0.138180  0.888293  1
  Rh  Rh17  1  0.971405  0.860601  0.110804  1
  Rh  Rh18  1  0.499721  0.751211  0.251190  1
  Rh  Rh19  1  0.499721  0.248532  0.748510  1
