# generated using pymatgen
data_Hf4NbSiGe2N
_symmetry_space_group_name_H-M   'P 1'
_cell_length_a   7.86701376
_cell_length_b   7.86701298
_cell_length_c   5.50906006
_cell_angle_alpha   89.99174160
_cell_angle_beta   89.99174499
_cell_angle_gamma   120.17082335
_symmetry_Int_Tables_number   1
_chemical_formula_structural   Hf4NbSiGe2N
_chemical_formula_sum   'Hf8 Nb2 Si2 Ge4 N2'
_cell_volume   294.76625021
_cell_formula_units_Z   2
loop_
 _symmetry_equiv_pos_site_id
 _symmetry_equiv_pos_as_xyz
  1  'x, y, z'
loop_
 _atom_site_type_symbol
 _atom_site_label
 _atom_site_symmetry_multiplicity
 _atom_site_fract_x
 _atom_site_fract_y
 _atom_site_fract_z
 _atom_site_occupancy
  Hf  Hf0  1  0.234134  0.002375  0.250275  1
  Hf  Hf1  1  0.765866  0.997625  0.749725  1
  Hf  Hf2  1  0.002375  0.234134  0.250275  1
  Hf  Hf3  1  0.997625  0.765866  0.749725  1
  Hf  Hf4  1  0.762718  0.762718  0.250051  1
  Hf  Hf5  1  0.237282  0.237282  0.749949  1
  Hf  Hf6  1  0.335825  0.664175  0.000000  1
  Hf  Hf7  1  0.664175  0.335825  0.000000  1
  Nb  Nb8  1  0.663968  0.336032  0.500000  1
  Nb  Nb9  1  0.336032  0.663968  0.500000  1
  Si  Si10  1  0.406720  0.406720  0.260298  1
  Si  Si11  1  0.593280  0.593280  0.739702  1
  Ge  Ge12  1  0.595221  0.000879  0.256787  1
  Ge  Ge13  1  0.404779  0.999121  0.743213  1
  Ge  Ge14  1  0.000879  0.595221  0.256787  1
  Ge  Ge15  1  0.999121  0.404779  0.743213  1
  N  N16  1  0.000000  0.000000  0.000000  1
  N  N17  1  0.000000  0.000000  0.500000  1
