# generated using pymatgen
data_Lu4TcOs6Ru
_symmetry_space_group_name_H-M   'P 1'
_cell_length_a   5.33892900
_cell_length_b   5.23090029
_cell_length_c   8.82874453
_cell_angle_alpha   89.96583018
_cell_angle_beta   90.00000000
_cell_angle_gamma   120.68554153
_symmetry_Int_Tables_number   1
_chemical_formula_structural   Lu4TcOs6Ru
_chemical_formula_sum   'Lu4 Tc1 Os6 Ru1'
_cell_volume   212.04026024
_cell_formula_units_Z   1
loop_
 _symmetry_equiv_pos_site_id
 _symmetry_equiv_pos_as_xyz
  1  'x, y, z'
loop_
 _atom_site_type_symbol
 _atom_site_label
 _atom_site_symmetry_multiplicity
 _atom_site_fract_x
 _atom_site_fract_y
 _atom_site_fract_z
 _atom_site_occupancy
  Lu  Lu0  1  0.333075  0.666150  0.434136  1
  Lu  Lu1  1  0.668641  0.337281  0.565182  1
  Lu  Lu2  1  0.668636  0.337272  0.934761  1
  Lu  Lu3  1  0.333056  0.666114  0.066059  1
  Tc  Tc4  1  0.168208  0.336416  0.749668  1
  Os  Os5  1  0.172510  0.826348  0.749582  1
  Os  Os6  1  0.341607  0.168946  0.250281  1
  Os  Os7  1  0.826880  0.653761  0.250619  1
  Os  Os8  1  0.653838  0.826348  0.749582  1
  Os  Os9  1  0.827341  0.168946  0.250281  1
  Os  Os10  1  0.003003  0.006006  0.499322  1
  Ru  Ru11  1  0.003205  0.006411  0.000528  1
