# generated using pymatgen
data_TbHoMnIr3
_symmetry_space_group_name_H-M   'P 1'
_cell_length_a   5.18529163
_cell_length_b   5.18529243
_cell_length_c   5.18529101
_cell_angle_alpha   63.77712867
_cell_angle_beta   63.77712898
_cell_angle_gamma   63.77713316
_symmetry_Int_Tables_number   1
_chemical_formula_structural   TbHoMnIr3
_chemical_formula_sum   'Tb1 Ho1 Mn1 Ir3'
_cell_volume   106.79937950
_cell_formula_units_Z   1
loop_
 _symmetry_equiv_pos_site_id
 _symmetry_equiv_pos_as_xyz
  1  'x, y, z'
loop_
 _atom_site_type_symbol
 _atom_site_label
 _atom_site_symmetry_multiplicity
 _atom_site_fract_x
 _atom_site_fract_y
 _atom_site_fract_z
 _atom_site_occupancy
  Tb  Tb0  1  0.250961  0.250961  0.250961  1
  Ho  Ho1  1  0.998775  0.998775  0.998775  1
  Mn  Mn2  1  0.625022  0.625022  0.625022  1
  Ir  Ir3  1  0.625217  0.625217  0.124804  1
  Ir  Ir4  1  0.625217  0.124804  0.625217  1
  Ir  Ir5  1  0.124804  0.625217  0.625217  1
