# generated using pymatgen
data_TbHo3Al16(GaIr3)2
_symmetry_space_group_name_H-M   'P 1'
_cell_length_a   7.53368955
_cell_length_b   7.53484916
_cell_length_c   9.51424000
_cell_angle_alpha   90.00000000
_cell_angle_beta   90.00000000
_cell_angle_gamma   119.45299524
_symmetry_Int_Tables_number   1
_chemical_formula_structural   TbHo3Al16(GaIr3)2
_chemical_formula_sum   'Tb1 Ho3 Al16 Ga2 Ir6'
_cell_volume   470.27787458
_cell_formula_units_Z   1
loop_
 _symmetry_equiv_pos_site_id
 _symmetry_equiv_pos_as_xyz
  1  'x, y, z'
loop_
 _atom_site_type_symbol
 _atom_site_label
 _atom_site_symmetry_multiplicity
 _atom_site_fract_x
 _atom_site_fract_y
 _atom_site_fract_z
 _atom_site_occupancy
  Tb  Tb0  1  0.994082  0.673497  0.250000  1
  Ho  Ho1  1  0.005807  0.326398  0.750000  1
  Ho  Ho2  1  0.673567  0.994207  0.250000  1
  Ho  Ho3  1  0.326391  0.005864  0.750000  1
  Al  Al4  1  0.001390  0.335427  0.073289  1
  Al  Al5  1  0.998678  0.664202  0.925677  1
  Al  Al6  1  0.998678  0.664202  0.574323  1
  Al  Al7  1  0.336097  0.001639  0.426741  1
  Al  Al8  1  0.001390  0.335427  0.426711  1
  Al  Al9  1  0.664246  0.998755  0.573806  1
  Al  Al10  1  0.664246  0.998755  0.926194  1
  Al  Al11  1  0.336097  0.001639  0.073259  1
  Al  Al12  1  0.333851  0.333873  0.554483  1
  Al  Al13  1  0.665805  0.666096  0.446486  1
  Al  Al14  1  0.665805  0.666096  0.053514  1
  Al  Al15  1  0.333851  0.333873  0.945517  1
  Al  Al16  1  0.338618  0.548900  0.250000  1
  Al  Al17  1  0.661671  0.450870  0.750000  1
  Al  Al18  1  0.548422  0.337651  0.250000  1
  Al  Al19  1  0.451025  0.661923  0.750000  1
  Ga  Ga20  1  0.133368  0.133674  0.250000  1
  Ga  Ga21  1  0.866771  0.866955  0.750000  1
  Ir  Ir22  1  0.671349  0.328427  0.999789  1
  Ir  Ir23  1  0.328606  0.671412  0.999785  1
  Ir  Ir24  1  0.328606  0.671412  0.500215  1
  Ir  Ir25  1  0.671349  0.328427  0.500211  1
  Ir  Ir26  1  0.000118  0.000200  0.999742  1
  Ir  Ir27  1  0.000118  0.000200  0.500258  1
