# generated using pymatgen
data_La3EuPt4F28
_symmetry_space_group_name_H-M   'P 1'
_cell_length_a   5.75563973
_cell_length_b   9.32399673
_cell_length_c   12.53559700
_cell_angle_alpha   62.21074966
_cell_angle_beta   90.02888860
_cell_angle_gamma   89.82364361
_symmetry_Int_Tables_number   1
_chemical_formula_structural   La3EuPt4F28
_chemical_formula_sum   'La3 Eu1 Pt4 F28'
_cell_volume   595.13868427
_cell_formula_units_Z   1
loop_
 _symmetry_equiv_pos_site_id
 _symmetry_equiv_pos_as_xyz
  1  'x, y, z'
loop_
 _atom_site_type_symbol
 _atom_site_label
 _atom_site_symmetry_multiplicity
 _atom_site_fract_x
 _atom_site_fract_y
 _atom_site_fract_z
 _atom_site_occupancy
  La  La0  1  0.260284  0.184800  0.735980  1
  La  La1  1  0.239282  0.190024  0.235482  1
  La  La2  1  0.740479  0.809336  0.264707  1
  Eu  Eu3  1  0.762257  0.809685  0.763857  1
  Pt  Pt4  1  0.757012  0.276063  0.956171  1
  Pt  Pt5  1  0.259069  0.727153  0.545137  1
  Pt  Pt6  1  0.242541  0.726960  0.040249  1
  Pt  Pt7  1  0.743016  0.271744  0.458426  1
  F  F8  1  0.433403  0.707847  0.917616  1
  F  F9  1  0.930691  0.292201  0.581732  1
  F  F10  1  0.568360  0.293755  0.080561  1
  F  F11  1  0.068026  0.707967  0.421736  1
  F  F12  1  0.455098  0.280803  0.540203  1
  F  F13  1  0.956308  0.719609  0.956329  1
  F  F14  1  0.544426  0.718516  0.460838  1
  F  F15  1  0.043998  0.283460  0.039767  1
  F  F16  1  0.763426  0.514669  0.861750  1
  F  F17  1  0.267296  0.488532  0.639150  1
  F  F18  1  0.233116  0.488470  0.135421  1
  F  F19  1  0.734203  0.510761  0.363126  1
  F  F20  1  0.756982  0.037746  0.048051  1
  F  F21  1  0.257510  0.965336  0.452731  1
  F  F22  1  0.244165  0.965012  0.950777  1
  F  F23  1  0.744005  0.033997  0.549415  1
  F  F24  1  0.977586  0.731009  0.632951  1
  F  F25  1  0.475004  0.271345  0.868891  1
  F  F26  1  0.026526  0.269592  0.371099  1
  F  F27  1  0.523785  0.729378  0.129451  1
  F  F28  1  0.054908  0.742968  0.166676  1
  F  F29  1  0.557991  0.255579  0.331791  1
  F  F30  1  0.943042  0.259203  0.830278  1
  F  F31  1  0.447683  0.745381  0.669613  1
  F  F32  1  0.409839  0.967862  0.232675  1
  F  F33  1  0.910154  0.031122  0.267813  1
  F  F34  1  0.587226  0.024059  0.766292  1
  F  F35  1  0.081302  0.968054  0.733261  1
