# generated using pymatgen
data_SmDyAl3Cu7
_symmetry_space_group_name_H-M   'P 1'
_cell_length_a   4.20361400
_cell_length_b   5.13295066
_cell_length_c   8.92153791
_cell_angle_alpha   90.64008115
_cell_angle_beta   90.00000000
_cell_angle_gamma   90.00000000
_symmetry_Int_Tables_number   1
_chemical_formula_structural   SmDyAl3Cu7
_chemical_formula_sum   'Sm1 Dy1 Al3 Cu7'
_cell_volume   192.48750508
_cell_formula_units_Z   1
loop_
 _symmetry_equiv_pos_site_id
 _symmetry_equiv_pos_as_xyz
  1  'x, y, z'
loop_
 _atom_site_type_symbol
 _atom_site_label
 _atom_site_symmetry_multiplicity
 _atom_site_fract_x
 _atom_site_fract_y
 _atom_site_fract_z
 _atom_site_occupancy
  Sm  Sm0  1  0.000000  0.497902  0.500871  1
  Dy  Dy1  1  0.000000  0.001972  0.000363  1
  Al  Al2  1  0.500000  0.514161  0.994363  1
  Al  Al3  1  0.500000  0.987073  0.504752  1
  Al  Al4  1  0.500000  0.248429  0.248620  1
  Cu  Cu5  1  0.000000  0.997712  0.332233  1
  Cu  Cu6  1  0.000000  0.500214  0.835356  1
  Cu  Cu7  1  0.000000  0.501552  0.162567  1
  Cu  Cu8  1  0.000000  0.000046  0.669950  1
  Cu  Cu9  1  0.500000  0.751758  0.750981  1
  Cu  Cu10  1  0.500000  0.750332  0.248655  1
  Cu  Cu11  1  0.500000  0.248646  0.751288  1
