# generated using pymatgen
data_CeNd7Zn8CuRh7
_symmetry_space_group_name_H-M   'P 1'
_cell_length_a   3.96584700
_cell_length_b   7.37748151
_cell_length_c   16.52961594
_cell_angle_alpha   90.40657861
_cell_angle_beta   90.00000000
_cell_angle_gamma   90.00000000
_symmetry_Int_Tables_number   1
_chemical_formula_structural   CeNd7Zn8CuRh7
_chemical_formula_sum   'Ce1 Nd7 Zn8 Cu1 Rh7'
_cell_volume   483.61071371
_cell_formula_units_Z   1
loop_
 _symmetry_equiv_pos_site_id
 _symmetry_equiv_pos_as_xyz
  1  'x, y, z'
loop_
 _atom_site_type_symbol
 _atom_site_label
 _atom_site_symmetry_multiplicity
 _atom_site_fract_x
 _atom_site_fract_y
 _atom_site_fract_z
 _atom_site_occupancy
  Ce  Ce0  1  0.250000  0.173449  0.940146  1
  Nd  Nd1  1  0.250000  0.667254  0.564316  1
  Nd  Nd2  1  0.750000  0.326545  0.440127  1
  Nd  Nd3  1  0.750000  0.953726  0.282158  1
  Nd  Nd4  1  0.750000  0.830548  0.060690  1
  Nd  Nd5  1  0.750000  0.449009  0.214861  1
  Nd  Nd6  1  0.250000  0.049399  0.715415  1
  Nd  Nd7  1  0.250000  0.549454  0.785162  1
  Zn  Zn8  1  0.750000  0.000762  0.560302  1
  Zn  Zn9  1  0.250000  0.625177  0.349306  1
  Zn  Zn10  1  0.750000  0.380634  0.651525  1
  Zn  Zn11  1  0.250000  0.500850  0.059728  1
  Zn  Zn12  1  0.750000  0.506771  0.939385  1
  Zn  Zn13  1  0.250000  0.997022  0.439143  1
  Zn  Zn14  1  0.250000  0.121397  0.149976  1
  Zn  Zn15  1  0.750000  0.880340  0.847879  1
  Cu  Cu16  1  0.750000  0.759381  0.434639  1
  Rh  Rh17  1  0.250000  0.248462  0.313084  1
  Rh  Rh18  1  0.750000  0.243934  0.823172  1
  Rh  Rh19  1  0.750000  0.751491  0.684478  1
  Rh  Rh20  1  0.250000  0.241687  0.565390  1
  Rh  Rh21  1  0.250000  0.744357  0.188080  1
  Rh  Rh22  1  0.750000  0.247802  0.056849  1
  Rh  Rh23  1  0.250000  0.750553  0.934188  1
