# generated using pymatgen
data_DyYAl5Ga4Ir3
_symmetry_space_group_name_H-M   'P 1'
_cell_length_a   7.54960451
_cell_length_b   7.54743018
_cell_length_c   9.57497219
_cell_angle_alpha   90.09559679
_cell_angle_beta   89.85617753
_cell_angle_gamma   119.66455152
_symmetry_Int_Tables_number   1
_chemical_formula_structural   DyYAl5Ga4Ir3
_chemical_formula_sum   'Dy2 Y2 Al10 Ga8 Ir6'
_cell_volume   474.07618471
_cell_formula_units_Z   2
loop_
 _symmetry_equiv_pos_site_id
 _symmetry_equiv_pos_as_xyz
  1  'x, y, z'
loop_
 _atom_site_type_symbol
 _atom_site_label
 _atom_site_symmetry_multiplicity
 _atom_site_fract_x
 _atom_site_fract_y
 _atom_site_fract_z
 _atom_site_occupancy
  Dy  Dy0  1  0.672405  0.998563  0.749101  1
  Dy  Dy1  1  0.327595  0.001437  0.250899  1
  Y  Y2  1  0.996300  0.666945  0.745816  1
  Y  Y3  1  0.003700  0.333055  0.254184  1
  Al  Al4  1  0.997763  0.665360  0.070759  1
  Al  Al5  1  0.334529  0.000779  0.927752  1
  Al  Al6  1  0.002237  0.334640  0.929241  1
  Al  Al7  1  0.665471  0.999221  0.072248  1
  Al  Al8  1  0.664106  0.996976  0.426778  1
  Al  Al9  1  0.335894  0.003024  0.573222  1
  Al  Al10  1  0.333500  0.333425  0.055305  1
  Al  Al11  1  0.666500  0.666575  0.944695  1
  Al  Al12  1  0.666834  0.666198  0.554037  1
  Al  Al13  1  0.333166  0.333802  0.445963  1
  Ga  Ga14  1  0.129906  0.126514  0.750616  1
  Ga  Ga15  1  0.870094  0.873486  0.249384  1
  Ga  Ga16  1  0.999742  0.333514  0.579786  1
  Ga  Ga17  1  0.000258  0.666486  0.420214  1
  Ga  Ga18  1  0.341337  0.548884  0.750859  1
  Ga  Ga19  1  0.658663  0.451116  0.249141  1
  Ga  Ga20  1  0.546218  0.339612  0.750080  1
  Ga  Ga21  1  0.453782  0.660388  0.249920  1
  Ir  Ir22  1  0.667058  0.325831  0.499290  1
  Ir  Ir23  1  0.332942  0.674169  0.500710  1
  Ir  Ir24  1  0.328249  0.671825  0.000760  1
  Ir  Ir25  1  0.671751  0.328175  0.999240  1
  Ir  Ir26  1  0.000000  0.000000  0.500000  1
  Ir  Ir27  1  0.000000  0.000000  0.000000  1
