# generated using pymatgen
data_Er10FeBi4Au
_symmetry_space_group_name_H-M   'P 1'
_cell_length_a   7.97614500
_cell_length_b   9.01417100
_cell_length_c   12.24840600
_cell_angle_alpha   90.00000000
_cell_angle_beta   90.00000000
_cell_angle_gamma   90.00000000
_symmetry_Int_Tables_number   1
_chemical_formula_structural   Er10FeBi4Au
_chemical_formula_sum   'Er20 Fe2 Bi8 Au2'
_cell_volume   880.63999720
_cell_formula_units_Z   2
loop_
 _symmetry_equiv_pos_site_id
 _symmetry_equiv_pos_as_xyz
  1  'x, y, z'
loop_
 _atom_site_type_symbol
 _atom_site_label
 _atom_site_symmetry_multiplicity
 _atom_site_fract_x
 _atom_site_fract_y
 _atom_site_fract_z
 _atom_site_occupancy
  Er  Er0  1  0.821614  0.558030  0.065058  1
  Er  Er1  1  0.678386  0.941970  0.565058  1
  Er  Er2  1  0.175116  0.028774  0.936184  1
  Er  Er3  1  0.324884  0.471226  0.436184  1
  Er  Er4  1  0.175116  0.471226  0.936184  1
  Er  Er5  1  0.324884  0.028774  0.436184  1
  Er  Er6  1  0.821614  0.941970  0.065058  1
  Er  Er7  1  0.678386  0.558030  0.565058  1
  Er  Er8  1  0.158813  0.750000  0.202447  1
  Er  Er9  1  0.341187  0.750000  0.702447  1
  Er  Er10  1  0.830540  0.250000  0.783553  1
  Er  Er11  1  0.669460  0.250000  0.283553  1
  Er  Er12  1  0.445260  0.750000  0.997073  1
  Er  Er13  1  0.054740  0.750000  0.497073  1
  Er  Er14  1  0.540619  0.250000  0.998001  1
  Er  Er15  1  0.959381  0.250000  0.498001  1
  Er  Er16  1  0.615029  0.750000  0.310009  1
  Er  Er17  1  0.884971  0.750000  0.810009  1
  Er  Er18  1  0.366590  0.250000  0.703872  1
  Er  Er19  1  0.133410  0.250000  0.203872  1
  Fe  Fe20  1  0.426054  0.750000  0.490055  1
  Fe  Fe21  1  0.073946  0.750000  0.990055  1
  Bi  Bi22  1  0.930022  0.510846  0.326251  1
  Bi  Bi23  1  0.569978  0.989154  0.826251  1
  Bi  Bi24  1  0.067864  0.009843  0.672255  1
  Bi  Bi25  1  0.432136  0.490157  0.172255  1
  Bi  Bi26  1  0.067864  0.490157  0.672255  1
  Bi  Bi27  1  0.432136  0.009843  0.172255  1
  Bi  Bi28  1  0.930022  0.989154  0.326251  1
  Bi  Bi29  1  0.569978  0.510846  0.826251  1
  Au  Au30  1  0.582423  0.250000  0.515494  1
  Au  Au31  1  0.917577  0.250000  0.015494  1
