# generated using pymatgen
data_Ca4CuH12Pd
_symmetry_space_group_name_H-M   'P 1'
_cell_length_a   7.06990040
_cell_length_b   7.06989894
_cell_length_c   5.20940271
_cell_angle_alpha   90.00803702
_cell_angle_beta   90.00804801
_cell_angle_gamma   136.66719620
_symmetry_Int_Tables_number   1
_chemical_formula_structural   Ca4CuH12Pd
_chemical_formula_sum   'Ca4 Cu1 H12 Pd1'
_cell_volume   178.68463652
_cell_formula_units_Z   1
loop_
 _symmetry_equiv_pos_site_id
 _symmetry_equiv_pos_as_xyz
  1  'x, y, z'
loop_
 _atom_site_type_symbol
 _atom_site_label
 _atom_site_symmetry_multiplicity
 _atom_site_fract_x
 _atom_site_fract_y
 _atom_site_fract_z
 _atom_site_occupancy
  Ca  Ca0  1  0.151021  0.848979  0.500000  1
  Ca  Ca1  1  0.650212  0.349788  0.000000  1
  Ca  Ca2  1  0.848979  0.151021  0.500000  1
  Ca  Ca3  1  0.349788  0.650212  0.000000  1
  Cu  Cu4  1  0.000000  0.000000  0.000000  1
  H  H5  1  0.999825  0.500069  0.750850  1
  H  H6  1  0.499931  0.000175  0.249150  1
  H  H7  1  0.000175  0.499931  0.249150  1
  H  H8  1  0.500069  0.999825  0.750850  1
  H  H9  1  0.371680  0.628320  0.500000  1
  H  H10  1  0.878761  0.121239  0.000000  1
  H  H11  1  0.628320  0.371680  0.500000  1
  H  H12  1  0.121239  0.878761  0.000000  1
  H  H13  1  0.253848  0.253848  0.748362  1
  H  H14  1  0.746152  0.746152  0.251638  1
  H  H15  1  0.253178  0.253178  0.252033  1
  H  H16  1  0.746822  0.746822  0.747967  1
  Pd  Pd17  1  0.500000  0.500000  0.500000  1
