# generated using pymatgen
data_Ta2TcF15
_symmetry_space_group_name_H-M   'P 1'
_cell_length_a   9.45776961
_cell_length_b   9.42284210
_cell_length_c   8.62738200
_cell_angle_alpha   90.00000000
_cell_angle_beta   90.00000000
_cell_angle_gamma   119.95463796
_symmetry_Int_Tables_number   1
_chemical_formula_structural   Ta2TcF15
_chemical_formula_sum   'Ta4 Tc2 F30'
_cell_volume   666.16013163
_cell_formula_units_Z   2
loop_
 _symmetry_equiv_pos_site_id
 _symmetry_equiv_pos_as_xyz
  1  'x, y, z'
loop_
 _atom_site_type_symbol
 _atom_site_label
 _atom_site_symmetry_multiplicity
 _atom_site_fract_x
 _atom_site_fract_y
 _atom_site_fract_z
 _atom_site_occupancy
  Ta  Ta0  1  0.904796  0.595914  0.750000  1
  Ta  Ta1  1  0.302519  0.901529  0.250000  1
  Ta  Ta2  1  0.594902  0.688238  0.250000  1
  Ta  Ta3  1  0.401320  0.302470  0.750000  1
  Tc  Tc4  1  0.693034  0.102291  0.750000  1
  Tc  Tc5  1  0.103578  0.409056  0.250000  1
  F  F6  1  0.881549  0.325586  0.250000  1
  F  F7  1  0.126291  0.669470  0.750000  1
  F  F8  1  0.458124  0.122121  0.250000  1
  F  F9  1  0.670993  0.541747  0.250000  1
  F  F10  1  0.333566  0.456211  0.750000  1
  F  F11  1  0.554020  0.880025  0.750000  1
  F  F12  1  0.139952  0.447634  0.460719  1
  F  F13  1  0.874973  0.565014  0.966635  1
  F  F14  1  0.307232  0.875327  0.466968  1
  F  F15  1  0.565085  0.690079  0.466526  1
  F  F16  1  0.431708  0.307190  0.967038  1
  F  F17  1  0.693320  0.140854  0.960613  1
  F  F18  1  0.070310  0.198525  0.250000  1
  F  F19  1  0.870384  0.069692  0.750000  1
  F  F20  1  0.196062  0.116260  0.750000  1
  F  F21  1  0.794677  0.881290  0.250000  1
  F  F22  1  0.117272  0.922153  0.250000  1
  F  F23  1  0.914712  0.797560  0.750000  1
  F  F24  1  0.354706  0.501463  0.250000  1
  F  F25  1  0.853293  0.354526  0.750000  1
  F  F26  1  0.501053  0.148928  0.750000  1
  F  F27  1  0.480876  0.833347  0.250000  1
  F  F28  1  0.149664  0.648190  0.250000  1
  F  F29  1  0.647756  0.481210  0.750000  1
  F  F30  1  0.139952  0.447634  0.039281  1
  F  F31  1  0.693320  0.140854  0.539387  1
  F  F32  1  0.431708  0.307190  0.532962  1
  F  F33  1  0.565085  0.690079  0.033474  1
  F  F34  1  0.307232  0.875327  0.033032  1
  F  F35  1  0.874973  0.565014  0.533365  1
