# generated using pymatgen
data_Pa4Zn4Ir3Rh
_symmetry_space_group_name_H-M   'P 1'
_cell_length_a   3.85370100
_cell_length_b   7.32881152
_cell_length_c   16.36917936
_cell_angle_alpha   89.79129293
_cell_angle_beta   90.00000000
_cell_angle_gamma   90.00000000
_symmetry_Int_Tables_number   1
_chemical_formula_structural   Pa4Zn4Ir3Rh
_chemical_formula_sum   'Pa8 Zn8 Ir6 Rh2'
_cell_volume   462.31245573
_cell_formula_units_Z   2
loop_
 _symmetry_equiv_pos_site_id
 _symmetry_equiv_pos_as_xyz
  1  'x, y, z'
loop_
 _atom_site_type_symbol
 _atom_site_label
 _atom_site_symmetry_multiplicity
 _atom_site_fract_x
 _atom_site_fract_y
 _atom_site_fract_z
 _atom_site_occupancy
  Pa  Pa0  1  0.250000  0.169236  0.940123  1
  Pa  Pa1  1  0.250000  0.667872  0.559808  1
  Pa  Pa2  1  0.750000  0.332128  0.440192  1
  Pa  Pa3  1  0.750000  0.944257  0.284081  1
  Pa  Pa4  1  0.750000  0.830764  0.059877  1
  Pa  Pa5  1  0.750000  0.444279  0.215233  1
  Pa  Pa6  1  0.250000  0.055743  0.715919  1
  Pa  Pa7  1  0.250000  0.555721  0.784767  1
  Zn  Zn8  1  0.750000  0.003362  0.561359  1
  Zn  Zn9  1  0.250000  0.614585  0.344945  1
  Zn  Zn10  1  0.750000  0.385415  0.655055  1
  Zn  Zn11  1  0.250000  0.494200  0.060648  1
  Zn  Zn12  1  0.750000  0.505800  0.939352  1
  Zn  Zn13  1  0.250000  0.996638  0.438641  1
  Zn  Zn14  1  0.250000  0.115116  0.154052  1
  Zn  Zn15  1  0.750000  0.884884  0.845948  1
  Ir  Ir16  1  0.750000  0.738804  0.440359  1
  Ir  Ir17  1  0.250000  0.243767  0.312337  1
  Ir  Ir18  1  0.750000  0.257611  0.814616  1
  Ir  Ir19  1  0.750000  0.756233  0.687663  1
  Ir  Ir20  1  0.250000  0.261196  0.559641  1
  Ir  Ir21  1  0.250000  0.742389  0.185384  1
  Rh  Rh22  1  0.750000  0.237426  0.058285  1
  Rh  Rh23  1  0.250000  0.762574  0.941715  1
