# generated using pymatgen
data_SmEr4(In2Au)2
_symmetry_space_group_name_H-M   'P 1'
_cell_length_a   3.65411700
_cell_length_b   8.20271500
_cell_length_c   18.40054800
_cell_angle_alpha   90.00000000
_cell_angle_beta   90.00000000
_cell_angle_gamma   90.00000000
_symmetry_Int_Tables_number   1
_chemical_formula_structural   SmEr4(In2Au)2
_chemical_formula_sum   'Sm2 Er8 In8 Au4'
_cell_volume   551.53214361
_cell_formula_units_Z   2
loop_
 _symmetry_equiv_pos_site_id
 _symmetry_equiv_pos_as_xyz
  1  'x, y, z'
loop_
 _atom_site_type_symbol
 _atom_site_label
 _atom_site_symmetry_multiplicity
 _atom_site_fract_x
 _atom_site_fract_y
 _atom_site_fract_z
 _atom_site_occupancy
  Sm  Sm0  1  0.000000  0.500000  0.500000  1
  Sm  Sm1  1  0.000000  0.000000  0.000000  1
  Er  Er2  1  0.000000  0.737353  0.283330  1
  Er  Er3  1  0.000000  0.262647  0.716670  1
  Er  Er4  1  0.000000  0.762647  0.783330  1
  Er  Er5  1  0.000000  0.237353  0.216670  1
  Er  Er6  1  0.000000  0.622708  0.080545  1
  Er  Er7  1  0.000000  0.377292  0.919455  1
  Er  Er8  1  0.000000  0.877292  0.580545  1
  Er  Er9  1  0.000000  0.122708  0.419455  1
  In  In10  1  0.500000  0.703364  0.933460  1
  In  In11  1  0.500000  0.296636  0.066540  1
  In  In12  1  0.500000  0.796636  0.433460  1
  In  In13  1  0.500000  0.203364  0.566540  1
  In  In14  1  0.500000  0.581388  0.648831  1
  In  In15  1  0.500000  0.418612  0.351169  1
  In  In16  1  0.500000  0.918612  0.148831  1
  In  In17  1  0.500000  0.081388  0.851169  1
  Au  Au18  1  0.500000  0.527878  0.196568  1
  Au  Au19  1  0.500000  0.472122  0.803432  1
  Au  Au20  1  0.500000  0.972122  0.696568  1
  Au  Au21  1  0.500000  0.027878  0.303432  1
