# generated using pymatgen
data_Zr4InSnRh10
_symmetry_space_group_name_H-M   'P 1'
_cell_length_a   5.66408846
_cell_length_b   5.66408748
_cell_length_c   8.27940300
_cell_angle_alpha   90.00000000
_cell_angle_beta   90.00000000
_cell_angle_gamma   96.53348839
_symmetry_Int_Tables_number   1
_chemical_formula_structural   Zr4InSnRh10
_chemical_formula_sum   'Zr4 In1 Sn1 Rh10'
_cell_volume   263.89386100
_cell_formula_units_Z   1
loop_
 _symmetry_equiv_pos_site_id
 _symmetry_equiv_pos_as_xyz
  1  'x, y, z'
loop_
 _atom_site_type_symbol
 _atom_site_label
 _atom_site_symmetry_multiplicity
 _atom_site_fract_x
 _atom_site_fract_y
 _atom_site_fract_z
 _atom_site_occupancy
  Zr  Zr0  1  0.780025  0.219981  0.501806  1
  Zr  Zr1  1  0.219981  0.780025  0.998194  1
  Zr  Zr2  1  0.219981  0.780025  0.501806  1
  Zr  Zr3  1  0.780025  0.219981  0.998194  1
  In  In4  1  0.500967  0.500967  0.750000  1
  Sn  Sn5  1  0.499281  0.499281  0.250000  1
  Rh  Rh6  1  0.733181  0.733181  0.002130  1
  Rh  Rh7  1  0.733181  0.733181  0.497870  1
  Rh  Rh8  1  0.266717  0.266717  0.001572  1
  Rh  Rh9  1  0.266717  0.266717  0.498428  1
  Rh  Rh10  1  0.499879  0.000543  0.750000  1
  Rh  Rh11  1  0.500033  0.999637  0.250000  1
  Rh  Rh12  1  0.000179  0.000179  0.250000  1
  Rh  Rh13  1  0.999673  0.999673  0.750000  1
  Rh  Rh14  1  0.000543  0.499879  0.750000  1
  Rh  Rh15  1  0.999637  0.500033  0.250000  1
