# generated using pymatgen
data_DyNpMnN3
_symmetry_space_group_name_H-M   'P 1'
_cell_length_a   3.38678401
_cell_length_b   3.72532290
_cell_length_c   6.58258300
_cell_angle_alpha   106.43743770
_cell_angle_beta   104.90717352
_cell_angle_gamma   89.99999368
_symmetry_Int_Tables_number   1
_chemical_formula_structural   DyNpMnN3
_chemical_formula_sum   'Dy1 Np1 Mn1 N3'
_cell_volume   76.73844523
_cell_formula_units_Z   1
loop_
 _symmetry_equiv_pos_site_id
 _symmetry_equiv_pos_as_xyz
  1  'x, y, z'
loop_
 _atom_site_type_symbol
 _atom_site_label
 _atom_site_symmetry_multiplicity
 _atom_site_fract_x
 _atom_site_fract_y
 _atom_site_fract_z
 _atom_site_occupancy
  Dy  Dy0  1  0.644791  0.644788  0.289579  1
  Np  Np1  1  0.351530  0.351529  0.703059  1
  Mn  Mn2  1  0.000273  0.000273  0.000547  1
  N  N3  1  0.998222  0.498220  0.996445  1
  N  N4  1  0.169212  0.169212  0.338423  1
  N  N5  1  0.835973  0.835971  0.671947  1
