# generated using pymatgen
data_Pr4Al18OsPt5
_symmetry_space_group_name_H-M   'P 1'
_cell_length_a   7.68709575
_cell_length_b   7.68709779
_cell_length_c   9.62554665
_cell_angle_alpha   89.98045410
_cell_angle_beta   89.98044880
_cell_angle_gamma   119.48230979
_symmetry_Int_Tables_number   1
_chemical_formula_structural   Pr4Al18OsPt5
_chemical_formula_sum   'Pr4 Al18 Os1 Pt5'
_cell_volume   495.13384360
_cell_formula_units_Z   1
loop_
 _symmetry_equiv_pos_site_id
 _symmetry_equiv_pos_as_xyz
  1  'x, y, z'
loop_
 _atom_site_type_symbol
 _atom_site_label
 _atom_site_symmetry_multiplicity
 _atom_site_fract_x
 _atom_site_fract_y
 _atom_site_fract_z
 _atom_site_occupancy
  Pr  Pr0  1  0.993896  0.669216  0.749904  1
  Pr  Pr1  1  0.006104  0.330784  0.250096  1
  Pr  Pr2  1  0.669216  0.993896  0.749904  1
  Pr  Pr3  1  0.330784  0.006104  0.250096  1
  Al  Al4  1  0.131229  0.131229  0.746015  1
  Al  Al5  1  0.868771  0.868771  0.253985  1
  Al  Al6  1  0.000320  0.329403  0.572192  1
  Al  Al7  1  0.999680  0.670597  0.427808  1
  Al  Al8  1  0.997041  0.664931  0.076462  1
  Al  Al9  1  0.335069  0.002959  0.923538  1
  Al  Al10  1  0.002959  0.335069  0.923538  1
  Al  Al11  1  0.664931  0.997041  0.076462  1
  Al  Al12  1  0.670597  0.999680  0.427808  1
  Al  Al13  1  0.329403  0.000320  0.572192  1
  Al  Al14  1  0.334995  0.334995  0.052464  1
  Al  Al15  1  0.665005  0.665005  0.947536  1
  Al  Al16  1  0.670942  0.670942  0.546778  1
  Al  Al17  1  0.329058  0.329058  0.453222  1
  Al  Al18  1  0.341470  0.545708  0.749183  1
  Al  Al19  1  0.658530  0.454292  0.250817  1
  Al  Al20  1  0.545708  0.341470  0.749183  1
  Al  Al21  1  0.454292  0.658530  0.250817  1
  Os  Os22  1  0.000000  0.000000  0.500000  1
  Pt  Pt23  1  0.670609  0.329391  0.500000  1
  Pt  Pt24  1  0.329391  0.670609  0.500000  1
  Pt  Pt25  1  0.328810  0.671190  0.000000  1
  Pt  Pt26  1  0.671190  0.328810  0.000000  1
  Pt  Pt27  1  0.000000  0.000000  0.000000  1
