# generated using pymatgen
data_YbHo3P7Ir8
_symmetry_space_group_name_H-M   'P 1'
_cell_length_a   3.95150900
_cell_length_b   12.76335765
_cell_length_c   13.15956000
_cell_angle_alpha   80.88393290
_cell_angle_beta   90.00000000
_cell_angle_gamma   90.00000000
_symmetry_Int_Tables_number   1
_chemical_formula_structural   YbHo3P7Ir8
_chemical_formula_sum   'Yb2 Ho6 P14 Ir16'
_cell_volume   655.31325744
_cell_formula_units_Z   2
loop_
 _symmetry_equiv_pos_site_id
 _symmetry_equiv_pos_as_xyz
  1  'x, y, z'
loop_
 _atom_site_type_symbol
 _atom_site_label
 _atom_site_symmetry_multiplicity
 _atom_site_fract_x
 _atom_site_fract_y
 _atom_site_fract_z
 _atom_site_occupancy
  Yb  Yb0  1  0.750000  0.895795  0.212487  1
  Yb  Yb1  1  0.250000  0.281121  0.105125  1
  Ho  Ho2  1  0.750000  0.792653  0.559533  1
  Ho  Ho3  1  0.250000  0.209352  0.439623  1
  Ho  Ho4  1  0.750000  0.478434  0.707072  1
  Ho  Ho5  1  0.250000  0.520421  0.294944  1
  Ho  Ho6  1  0.750000  0.720761  0.897323  1
  Ho  Ho7  1  0.250000  0.103945  0.783899  1
  P  P8  1  0.250000  0.906127  0.410428  1
  P  P9  1  0.750000  0.473537  0.130117  1
  P  P10  1  0.250000  0.526963  0.871444  1
  P  P11  1  0.750000  0.092475  0.587117  1
  P  P12  1  0.250000  0.741856  0.078278  1
  P  P13  1  0.750000  0.256351  0.918437  1
  P  P14  1  0.750000  0.158774  0.281136  1
  P  P15  1  0.250000  0.841695  0.716623  1
  P  P16  1  0.250000  0.052812  0.098543  1
  P  P17  1  0.750000  0.948002  0.897556  1
  P  P18  1  0.250000  0.312656  0.689484  1
  P  P19  1  0.750000  0.686223  0.313310  1
  P  P20  1  0.250000  0.608111  0.568418  1
  P  P21  1  0.750000  0.391972  0.435357  1
  Ir  Ir22  1  0.250000  0.990843  0.576296  1
  Ir  Ir23  1  0.750000  0.010357  0.422920  1
  Ir  Ir24  1  0.250000  0.661656  0.732565  1
  Ir  Ir25  1  0.750000  0.340168  0.272250  1
  Ir  Ir26  1  0.250000  0.554411  0.046910  1
  Ir  Ir27  1  0.750000  0.450646  0.950705  1
  Ir  Ir28  1  0.250000  0.063297  0.271641  1
  Ir  Ir29  1  0.750000  0.937694  0.726597  1
  Ir  Ir30  1  0.250000  0.420688  0.525188  1
  Ir  Ir31  1  0.750000  0.576554  0.479924  1
  Ir  Ir32  1  0.250000  0.914942  0.994901  1
  Ir  Ir33  1  0.750000  0.082855  0.997551  1
  Ir  Ir34  1  0.250000  0.726619  0.399807  1
  Ir  Ir35  1  0.750000  0.268926  0.605200  1
  Ir  Ir36  1  0.250000  0.341332  0.858395  1
  Ir  Ir37  1  0.750000  0.658983  0.142896  1
