# generated using pymatgen
data_NdY2Co(P3Ir4)2
_symmetry_space_group_name_H-M   'P 1'
_cell_length_a   3.94795800
_cell_length_b   11.12794700
_cell_length_c   12.85054300
_cell_angle_alpha   90.00000000
_cell_angle_beta   90.00000000
_cell_angle_gamma   90.00000000
_symmetry_Int_Tables_number   1
_chemical_formula_structural   NdY2Co(P3Ir4)2
_chemical_formula_sum   'Nd2 Y4 Co2 P12 Ir16'
_cell_volume   564.55863130
_cell_formula_units_Z   2
loop_
 _symmetry_equiv_pos_site_id
 _symmetry_equiv_pos_as_xyz
  1  'x, y, z'
loop_
 _atom_site_type_symbol
 _atom_site_label
 _atom_site_symmetry_multiplicity
 _atom_site_fract_x
 _atom_site_fract_y
 _atom_site_fract_z
 _atom_site_occupancy
  Nd  Nd0  1  0.000000  0.500000  0.522953  1
  Nd  Nd1  1  0.500000  0.000000  0.477047  1
  Y  Y2  1  0.500000  0.815827  0.200087  1
  Y  Y3  1  0.500000  0.184173  0.200087  1
  Y  Y4  1  0.000000  0.684173  0.799913  1
  Y  Y5  1  0.000000  0.315827  0.799913  1
  Co  Co6  1  0.000000  0.500000  0.977872  1
  Co  Co7  1  0.500000  0.000000  0.022128  1
  P  P8  1  0.500000  0.500000  0.881712  1
  P  P9  1  0.000000  0.000000  0.118288  1
  P  P10  1  0.500000  0.500000  0.355135  1
  P  P11  1  0.000000  0.000000  0.644865  1
  P  P12  1  0.500000  0.314404  0.620327  1
  P  P13  1  0.500000  0.685596  0.620327  1
  P  P14  1  0.000000  0.185596  0.379673  1
  P  P15  1  0.000000  0.814404  0.379673  1
  P  P16  1  0.500000  0.852056  0.897289  1
  P  P17  1  0.500000  0.147944  0.897289  1
  P  P18  1  0.000000  0.647944  0.102711  1
  P  P19  1  0.000000  0.352056  0.102711  1
  Ir  Ir20  1  0.500000  0.500000  0.176745  1
  Ir  Ir21  1  0.000000  0.000000  0.823255  1
  Ir  Ir22  1  0.500000  0.500000  0.705625  1
  Ir  Ir23  1  0.000000  0.000000  0.294375  1
  Ir  Ir24  1  0.500000  0.338867  0.998008  1
  Ir  Ir25  1  0.500000  0.661133  0.998008  1
  Ir  Ir26  1  0.000000  0.161133  0.001992  1
  Ir  Ir27  1  0.000000  0.838867  0.001992  1
  Ir  Ir28  1  0.500000  0.291624  0.428146  1
  Ir  Ir29  1  0.500000  0.708376  0.428146  1
  Ir  Ir30  1  0.000000  0.208376  0.571854  1
  Ir  Ir31  1  0.000000  0.791624  0.571854  1
  Ir  Ir32  1  0.500000  0.870835  0.715891  1
  Ir  Ir33  1  0.500000  0.129165  0.715891  1
  Ir  Ir34  1  0.000000  0.629165  0.284109  1
  Ir  Ir35  1  0.000000  0.370835  0.284109  1
