# generated using pymatgen
data_PaI3Cl8
_symmetry_space_group_name_H-M   'P 1'
_cell_length_a   7.79098609
_cell_length_b   8.11594500
_cell_length_c   8.32954763
_cell_angle_alpha   95.01406603
_cell_angle_beta   93.38978135
_cell_angle_gamma   102.17916375
_symmetry_Int_Tables_number   1
_chemical_formula_structural   PaI3Cl8
_chemical_formula_sum   'Pa1 I3 Cl8'
_cell_volume   511.23321705
_cell_formula_units_Z   1
loop_
 _symmetry_equiv_pos_site_id
 _symmetry_equiv_pos_as_xyz
  1  'x, y, z'
loop_
 _atom_site_type_symbol
 _atom_site_label
 _atom_site_symmetry_multiplicity
 _atom_site_fract_x
 _atom_site_fract_y
 _atom_site_fract_z
 _atom_site_occupancy
  Pa  Pa0  1  0.000000  0.500000  0.500000  1
  I  I1  1  0.000000  0.000000  0.000000  1
  I  I2  1  0.681325  0.768809  0.841592  1
  I  I3  1  0.318675  0.231191  0.158408  1
  Cl  Cl4  1  0.720807  0.301141  0.561244  1
  Cl  Cl5  1  0.279193  0.698859  0.438756  1
  Cl  Cl6  1  0.515476  0.763793  0.072053  1
  Cl  Cl7  1  0.484524  0.236207  0.927947  1
  Cl  Cl8  1  0.846952  0.761590  0.546642  1
  Cl  Cl9  1  0.153048  0.238410  0.453358  1
  Cl  Cl10  1  0.892984  0.466272  0.205496  1
  Cl  Cl11  1  0.107016  0.533728  0.794504  1
