# generated using pymatgen
data_Dy2Ho5Lu3(In2Pt)4
_symmetry_space_group_name_H-M   'P 1'
_cell_length_a   3.60395700
_cell_length_b   8.12301184
_cell_length_c   18.12418065
_cell_angle_alpha   89.95963161
_cell_angle_beta   90.00000000
_cell_angle_gamma   90.00000000
_symmetry_Int_Tables_number   1
_chemical_formula_structural   Dy2Ho5Lu3(In2Pt)4
_chemical_formula_sum   'Dy2 Ho5 Lu3 In8 Pt4'
_cell_volume   530.58499202
_cell_formula_units_Z   1
loop_
 _symmetry_equiv_pos_site_id
 _symmetry_equiv_pos_as_xyz
  1  'x, y, z'
loop_
 _atom_site_type_symbol
 _atom_site_label
 _atom_site_symmetry_multiplicity
 _atom_site_fract_x
 _atom_site_fract_y
 _atom_site_fract_z
 _atom_site_occupancy
  Dy  Dy0  1  0.000000  0.999517  0.999554  1
  Dy  Dy1  1  0.000000  0.500212  0.500172  1
  Ho  Ho2  1  0.000000  0.617271  0.084802  1
  Ho  Ho3  1  0.000000  0.243227  0.220002  1
  Ho  Ho4  1  0.000000  0.757668  0.780270  1
  Ho  Ho5  1  0.000000  0.257417  0.719157  1
  Ho  Ho6  1  0.000000  0.742122  0.281092  1
  Lu  Lu7  1  0.000000  0.116905  0.414262  1
  Lu  Lu8  1  0.000000  0.883155  0.585964  1
  Lu  Lu9  1  0.000000  0.383156  0.913679  1
  In  In10  1  0.500000  0.420265  0.351671  1
  In  In11  1  0.500000  0.579405  0.648991  1
  In  In12  1  0.500000  0.079034  0.850727  1
  In  In13  1  0.500000  0.923521  0.149746  1
  In  In14  1  0.500000  0.293582  0.064981  1
  In  In15  1  0.500000  0.704386  0.933430  1
  In  In16  1  0.500000  0.203195  0.564732  1
  In  In17  1  0.500000  0.797010  0.435504  1
  Pt  Pt18  1  0.500000  0.026267  0.305195  1
  Pt  Pt19  1  0.500000  0.973890  0.695023  1
  Pt  Pt20  1  0.500000  0.473211  0.804416  1
  Pt  Pt21  1  0.500000  0.525586  0.196628  1
