# generated using pymatgen
data_PrThNb3Si4
_symmetry_space_group_name_H-M   'P 1'
_cell_length_a   7.19888912
_cell_length_b   7.20540109
_cell_length_c   13.39703229
_cell_angle_alpha   89.98462203
_cell_angle_beta   89.98185688
_cell_angle_gamma   89.98985566
_symmetry_Int_Tables_number   1
_chemical_formula_structural   PrThNb3Si4
_chemical_formula_sum   'Pr4 Th4 Nb12 Si16'
_cell_volume   694.91583064
_cell_formula_units_Z   4
loop_
 _symmetry_equiv_pos_site_id
 _symmetry_equiv_pos_as_xyz
  1  'x, y, z'
loop_
 _atom_site_type_symbol
 _atom_site_label
 _atom_site_symmetry_multiplicity
 _atom_site_fract_x
 _atom_site_fract_y
 _atom_site_fract_z
 _atom_site_occupancy
  Pr  Pr0  1  0.997192  0.338408  0.217612  1
  Pr  Pr1  1  0.002344  0.661740  0.717571  1
  Pr  Pr2  1  0.161691  0.496594  0.467568  1
  Pr  Pr3  1  0.502959  0.838074  0.032027  1
  Th  Th4  1  0.838289  0.501857  0.967359  1
  Th  Th5  1  0.498215  0.162000  0.532322  1
  Th  Th6  1  0.337791  0.997819  0.782426  1
  Th  Th7  1  0.661688  0.002865  0.282458  1
  Nb  Nb8  1  0.167549  0.171554  0.998355  1
  Nb  Nb9  1  0.827942  0.832890  0.499420  1
  Nb  Nb10  1  0.332186  0.671380  0.250780  1
  Nb  Nb11  1  0.667348  0.329373  0.750789  1
  Nb  Nb12  1  0.158679  0.991370  0.374482  1
  Nb  Nb13  1  0.843261  0.007628  0.874597  1
  Nb  Nb14  1  0.508319  0.658917  0.624677  1
  Nb  Nb15  1  0.342724  0.491429  0.875662  1
  Nb  Nb16  1  0.493765  0.342361  0.124609  1
  Nb  Nb17  1  0.655982  0.506529  0.375851  1
  Nb  Nb18  1  0.993877  0.156787  0.625698  1
  Nb  Nb19  1  0.007019  0.841145  0.125941  1
  Si  Si20  1  0.287530  0.042668  0.185227  1
  Si  Si21  1  0.712314  0.957495  0.686405  1
  Si  Si22  1  0.457187  0.788660  0.436645  1
  Si  Si23  1  0.211319  0.542146  0.064517  1
  Si  Si24  1  0.542007  0.209978  0.937048  1
  Si  Si25  1  0.789710  0.458909  0.563846  1
  Si  Si26  1  0.041245  0.290886  0.812631  1
  Si  Si27  1  0.958179  0.709661  0.313836  1
  Si  Si28  1  0.372869  0.298809  0.313610  1
  Si  Si29  1  0.626561  0.702418  0.813691  1
  Si  Si30  1  0.202299  0.872664  0.564095  1
  Si  Si31  1  0.126525  0.797067  0.936394  1
  Si  Si32  1  0.798775  0.125467  0.064558  1
  Si  Si33  1  0.875553  0.201502  0.436125  1
  Si  Si34  1  0.297500  0.375245  0.685460  1
  Si  Si35  1  0.701608  0.625706  0.185709  1
