# generated using pymatgen
data_La5Zr3(P3Rh4)4
_symmetry_space_group_name_H-M   'P 1'
_cell_length_a   13.06952000
_cell_length_b   13.06952108
_cell_length_c   4.01022000
_cell_angle_alpha   90.00000000
_cell_angle_beta   90.00000000
_cell_angle_gamma   120.00000234
_symmetry_Int_Tables_number   1
_chemical_formula_structural   La5Zr3(P3Rh4)4
_chemical_formula_sum   'La5 Zr3 P12 Rh16'
_cell_volume   593.22320535
_cell_formula_units_Z   1
loop_
 _symmetry_equiv_pos_site_id
 _symmetry_equiv_pos_as_xyz
  1  'x, y, z'
loop_
 _atom_site_type_symbol
 _atom_site_label
 _atom_site_symmetry_multiplicity
 _atom_site_fract_x
 _atom_site_fract_y
 _atom_site_fract_z
 _atom_site_occupancy
  La  La0  1  0.185993  0.185993  0.500000  1
  La  La1  1  0.814007  0.000000  0.500000  1
  La  La2  1  0.000000  0.814007  0.500000  1
  La  La3  1  0.333333  0.666667  0.000000  1
  La  La4  1  0.666667  0.333333  0.000000  1
  Zr  Zr5  1  0.555918  0.555918  0.000000  1
  Zr  Zr6  1  0.444082  0.000000  0.000000  1
  Zr  Zr7  1  0.000000  0.444082  0.000000  1
  P  P8  1  0.820286  0.820286  0.000000  1
  P  P9  1  0.179714  0.000000  0.000000  1
  P  P10  1  0.000000  0.179714  0.000000  1
  P  P11  1  0.166606  0.479885  0.500000  1
  P  P12  1  0.520115  0.686721  0.500000  1
  P  P13  1  0.313279  0.833394  0.500000  1
  P  P14  1  0.686721  0.520115  0.500000  1
  P  P15  1  0.833394  0.313279  0.500000  1
  P  P16  1  0.479885  0.166606  0.500000  1
  P  P17  1  0.357490  0.357490  0.000000  1
  P  P18  1  0.642510  0.000000  0.000000  1
  P  P19  1  0.000000  0.642510  0.000000  1
  Rh  Rh20  1  0.718648  0.718648  0.500000  1
  Rh  Rh21  1  0.281352  0.000000  0.500000  1
  Rh  Rh22  1  0.000000  0.281352  0.500000  1
  Rh  Rh23  1  0.177199  0.374936  0.000000  1
  Rh  Rh24  1  0.625064  0.802263  0.000000  1
  Rh  Rh25  1  0.197737  0.822801  0.000000  1
  Rh  Rh26  1  0.802263  0.625064  0.000000  1
  Rh  Rh27  1  0.822801  0.197737  0.000000  1
  Rh  Rh28  1  0.374936  0.177199  0.000000  1
  Rh  Rh29  1  0.355156  0.483783  0.500000  1
  Rh  Rh30  1  0.516217  0.871374  0.500000  1
  Rh  Rh31  1  0.128626  0.644844  0.500000  1
  Rh  Rh32  1  0.871374  0.516217  0.500000  1
  Rh  Rh33  1  0.644844  0.128626  0.500000  1
  Rh  Rh34  1  0.483783  0.355156  0.500000  1
  Rh  Rh35  1  0.000000  0.000000  0.000000  1
