# generated using pymatgen
data_YbY2Th(Ga3Rh)6
_symmetry_space_group_name_H-M   'P 1'
_cell_length_a   7.58791405
_cell_length_b   7.60450736
_cell_length_c   9.56150600
_cell_angle_alpha   90.00000000
_cell_angle_beta   90.00000000
_cell_angle_gamma   119.52585096
_symmetry_Int_Tables_number   1
_chemical_formula_structural   YbY2Th(Ga3Rh)6
_chemical_formula_sum   'Yb1 Y2 Th1 Ga18 Rh6'
_cell_volume   480.07119213
_cell_formula_units_Z   1
loop_
 _symmetry_equiv_pos_site_id
 _symmetry_equiv_pos_as_xyz
  1  'x, y, z'
loop_
 _atom_site_type_symbol
 _atom_site_label
 _atom_site_symmetry_multiplicity
 _atom_site_fract_x
 _atom_site_fract_y
 _atom_site_fract_z
 _atom_site_occupancy
  Yb  Yb0  1  0.329693  0.002438  0.750000  1
  Y  Y1  1  0.001443  0.330243  0.750000  1
  Y  Y2  1  0.670151  0.996729  0.250000  1
  Th  Th3  1  0.998098  0.670468  0.250000  1
  Ga  Ga4  1  0.342459  0.547155  0.250000  1
  Ga  Ga5  1  0.659238  0.449080  0.750000  1
  Ga  Ga6  1  0.543379  0.335632  0.250000  1
  Ga  Ga7  1  0.449163  0.662941  0.750000  1
  Ga  Ga8  1  0.002052  0.330148  0.076457  1
  Ga  Ga9  1  0.999773  0.666252  0.914422  1
  Ga  Ga10  1  0.999773  0.666252  0.585578  1
  Ga  Ga11  1  0.341407  0.006758  0.425513  1
  Ga  Ga12  1  0.002052  0.330148  0.423543  1
  Ga  Ga13  1  0.662297  0.999510  0.580250  1
  Ga  Ga14  1  0.662297  0.999510  0.919750  1
  Ga  Ga15  1  0.341407  0.006758  0.074487  1
  Ga  Ga16  1  0.331848  0.329869  0.566488  1
  Ga  Ga17  1  0.662847  0.667019  0.442173  1
  Ga  Ga18  1  0.662847  0.667019  0.057827  1
  Ga  Ga19  1  0.331848  0.329869  0.933512  1
  Ga  Ga20  1  0.130856  0.131647  0.250000  1
  Ga  Ga21  1  0.874158  0.876336  0.750000  1
  Rh  Rh22  1  0.674823  0.332137  0.000971  1
  Rh  Rh23  1  0.326078  0.669850  0.001106  1
  Rh  Rh24  1  0.326078  0.669850  0.498894  1
  Rh  Rh25  1  0.674823  0.332137  0.499029  1
  Rh  Rh26  1  0.999557  0.997123  0.001350  1
  Rh  Rh27  1  0.999557  0.997123  0.498650  1
