# generated using pymatgen
data_LiBi4Pd11
_symmetry_space_group_name_H-M   'P 1'
_cell_length_a   5.05265800
_cell_length_b   5.92090000
_cell_length_c   9.50860300
_cell_angle_alpha   90.00000000
_cell_angle_beta   90.00000000
_cell_angle_gamma   90.00000000
_symmetry_Int_Tables_number   1
_chemical_formula_structural   LiBi4Pd11
_chemical_formula_sum   'Li1 Bi4 Pd11'
_cell_volume   284.46205593
_cell_formula_units_Z   1
loop_
 _symmetry_equiv_pos_site_id
 _symmetry_equiv_pos_as_xyz
  1  'x, y, z'
loop_
 _atom_site_type_symbol
 _atom_site_label
 _atom_site_symmetry_multiplicity
 _atom_site_fract_x
 _atom_site_fract_y
 _atom_site_fract_z
 _atom_site_occupancy
  Li  Li0  1  0.882699  0.000000  0.250000  1
  Bi  Bi1  1  0.155490  0.500000  0.750000  1
  Bi  Bi2  1  0.853483  0.500000  0.250000  1
  Bi  Bi3  1  0.490273  0.000000  0.503272  1
  Bi  Bi4  1  0.490273  0.000000  0.996728  1
  Pd  Pd5  1  0.666551  0.252531  0.750000  1
  Pd  Pd6  1  0.666551  0.747469  0.750000  1
  Pd  Pd7  1  0.344442  0.248327  0.250000  1
  Pd  Pd8  1  0.344442  0.751673  0.250000  1
  Pd  Pd9  1  0.494636  0.500000  0.000504  1
  Pd  Pd10  1  0.494636  0.500000  0.499496  1
  Pd  Pd11  1  0.150089  0.000000  0.750000  1
  Pd  Pd12  1  0.991608  0.752175  0.005194  1
  Pd  Pd13  1  0.991608  0.247825  0.494806  1
  Pd  Pd14  1  0.991608  0.247825  0.005194  1
  Pd  Pd15  1  0.991608  0.752175  0.494806  1
