# generated using pymatgen
data_K2BaCaAs2
_symmetry_space_group_name_H-M   'P 1'
_cell_length_a   5.08405200
_cell_length_b   8.35101000
_cell_length_c   9.69329700
_cell_angle_alpha   90.00000000
_cell_angle_beta   90.00000000
_cell_angle_gamma   90.00000000
_symmetry_Int_Tables_number   1
_chemical_formula_structural   K2BaCaAs2
_chemical_formula_sum   'K4 Ba2 Ca2 As4'
_cell_volume   411.54801113
_cell_formula_units_Z   2
loop_
 _symmetry_equiv_pos_site_id
 _symmetry_equiv_pos_as_xyz
  1  'x, y, z'
loop_
 _atom_site_type_symbol
 _atom_site_label
 _atom_site_symmetry_multiplicity
 _atom_site_fract_x
 _atom_site_fract_y
 _atom_site_fract_z
 _atom_site_occupancy
  K  K0  1  0.500000  0.024988  0.415172  1
  K  K1  1  0.000000  0.344120  0.342505  1
  K  K2  1  0.500000  0.524988  0.584828  1
  K  K3  1  0.000000  0.844120  0.657495  1
  Ba  Ba4  1  0.000000  0.495681  0.940099  1
  Ba  Ba5  1  0.000000  0.995681  0.059901  1
  Ca  Ca6  1  0.500000  0.148715  0.816544  1
  Ca  Ca7  1  0.500000  0.648715  0.183456  1
  As  As8  1  0.000000  0.242413  0.681015  1
  As  As9  1  0.500000  0.289603  0.109357  1
  As  As10  1  0.000000  0.742413  0.318985  1
  As  As11  1  0.500000  0.789603  0.890643  1
