# generated using pymatgen
data_NaPuSe2O7
_symmetry_space_group_name_H-M   'P 1'
_cell_length_a   7.15702510
_cell_length_b   7.15702220
_cell_length_c   7.76960131
_cell_angle_alpha   90.31685375
_cell_angle_beta   90.31531047
_cell_angle_gamma   111.73110649
_symmetry_Int_Tables_number   1
_chemical_formula_structural   NaPuSe2O7
_chemical_formula_sum   'Na2 Pu2 Se4 O14'
_cell_volume   369.68040507
_cell_formula_units_Z   2
loop_
 _symmetry_equiv_pos_site_id
 _symmetry_equiv_pos_as_xyz
  1  'x, y, z'
loop_
 _atom_site_type_symbol
 _atom_site_label
 _atom_site_symmetry_multiplicity
 _atom_site_fract_x
 _atom_site_fract_y
 _atom_site_fract_z
 _atom_site_occupancy
  Na  Na0  1  0.992300  0.992299  0.374567  1
  Na  Na1  1  0.007359  0.007357  0.874862  1
  Pu  Pu2  1  0.500513  0.500514  0.878268  1
  Pu  Pu3  1  0.499374  0.499376  0.378144  1
  Se  Se4  1  0.584683  0.975430  0.629508  1
  Se  Se5  1  0.975424  0.584678  0.629498  1
  Se  Se6  1  0.415291  0.024404  0.126032  1
  Se  Se7  1  0.024410  0.415302  0.126036  1
  O  O8  1  0.560822  0.813694  0.806782  1
  O  O9  1  0.813689  0.560819  0.806780  1
  O  O10  1  0.442540  0.190527  0.304801  1
  O  O11  1  0.190528  0.442543  0.304802  1
  O  O12  1  0.558612  0.809212  0.450709  1
  O  O13  1  0.809209  0.558611  0.450705  1
  O  O14  1  0.438262  0.186415  0.948853  1
  O  O15  1  0.186420  0.438266  0.948853  1
  O  O16  1  0.833805  0.102618  0.628827  1
  O  O17  1  0.102613  0.833798  0.628825  1
  O  O18  1  0.166289  0.897356  0.126103  1
  O  O19  1  0.897359  0.166282  0.126102  1
  O  O20  1  0.414753  0.414752  0.645381  1
  O  O21  1  0.585744  0.585747  0.111438  1
