# generated using pymatgen
data_HoEr3(B6Rh)2
_symmetry_space_group_name_H-M   'P 1'
_cell_length_a   3.63859500
_cell_length_b   9.14246100
_cell_length_c   11.46997800
_cell_angle_alpha   90.00244091
_cell_angle_beta   90.00000000
_cell_angle_gamma   90.00000000
_symmetry_Int_Tables_number   1
_chemical_formula_structural   HoEr3(B6Rh)2
_chemical_formula_sum   'Ho2 Er6 B24 Rh4'
_cell_volume   381.55699474
_cell_formula_units_Z   2
loop_
 _symmetry_equiv_pos_site_id
 _symmetry_equiv_pos_as_xyz
  1  'x, y, z'
loop_
 _atom_site_type_symbol
 _atom_site_label
 _atom_site_symmetry_multiplicity
 _atom_site_fract_x
 _atom_site_fract_y
 _atom_site_fract_z
 _atom_site_occupancy
  Ho  Ho0  1  0.500000  0.322125  0.413616  1
  Ho  Ho1  1  0.500000  0.677875  0.586384  1
  Er  Er2  1  0.500000  0.177961  0.913642  1
  Er  Er3  1  0.500000  0.822039  0.086358  1
  Er  Er4  1  0.500000  0.444195  0.126710  1
  Er  Er5  1  0.500000  0.555805  0.873290  1
  Er  Er6  1  0.500000  0.055911  0.626906  1
  Er  Er7  1  0.500000  0.944089  0.373094  1
  B  B8  1  0.000000  0.109106  0.470411  1
  B  B9  1  0.000000  0.890894  0.529589  1
  B  B10  1  0.000000  0.390143  0.970226  1
  B  B11  1  0.000000  0.609857  0.029774  1
  B  B12  1  0.000000  0.132894  0.316142  1
  B  B13  1  0.000000  0.867106  0.683858  1
  B  B14  1  0.000000  0.366827  0.816426  1
  B  B15  1  0.000000  0.633173  0.183574  1
  B  B16  1  0.000000  0.053875  0.065176  1
  B  B17  1  0.000000  0.946125  0.934824  1
  B  B18  1  0.000000  0.446017  0.565460  1
  B  B19  1  0.000000  0.553983  0.434540  1
  B  B20  1  0.000000  0.482724  0.286615  1
  B  B21  1  0.000000  0.517276  0.713385  1
  B  B22  1  0.000000  0.017416  0.786964  1
  B  B23  1  0.000000  0.982584  0.213036  1
  B  B24  1  0.000000  0.249399  0.079149  1
  B  B25  1  0.000000  0.750601  0.920851  1
  B  B26  1  0.000000  0.250438  0.579547  1
  B  B27  1  0.000000  0.749562  0.420453  1
  B  B28  1  0.000000  0.294183  0.235789  1
  B  B29  1  0.000000  0.705817  0.764211  1
  B  B30  1  0.000000  0.205649  0.736250  1
  B  B31  1  0.000000  0.794351  0.263750  1
  Rh  Rh32  1  0.500000  0.139524  0.178670  1
  Rh  Rh33  1  0.500000  0.860476  0.821330  1
  Rh  Rh34  1  0.500000  0.360538  0.679351  1
  Rh  Rh35  1  0.500000  0.639462  0.320649  1
