# generated using pymatgen
data_Er8Zr12Si15Ge
_symmetry_space_group_name_H-M   'P 1'
_cell_length_a   7.12786924
_cell_length_b   7.28760662
_cell_length_c   13.92523873
_cell_angle_alpha   90.05563171
_cell_angle_beta   89.81446672
_cell_angle_gamma   90.01230526
_symmetry_Int_Tables_number   1
_chemical_formula_structural   Er8Zr12Si15Ge
_chemical_formula_sum   'Er8 Zr12 Si15 Ge1'
_cell_volume   723.34386701
_cell_formula_units_Z   1
loop_
 _symmetry_equiv_pos_site_id
 _symmetry_equiv_pos_as_xyz
  1  'x, y, z'
loop_
 _atom_site_type_symbol
 _atom_site_label
 _atom_site_symmetry_multiplicity
 _atom_site_fract_x
 _atom_site_fract_y
 _atom_site_fract_z
 _atom_site_occupancy
  Er  Er0  1  0.514904  0.322942  0.097040  1
  Er  Er1  1  0.013451  0.175903  0.402563  1
  Er  Er2  1  0.489070  0.678616  0.597492  1
  Er  Er3  1  0.984313  0.823029  0.903518  1
  Er  Er4  1  0.484620  0.676780  0.903491  1
  Er  Er5  1  0.985052  0.823752  0.597103  1
  Er  Er6  1  0.514370  0.322888  0.402689  1
  Er  Er7  1  0.015292  0.177433  0.096829  1
  Zr  Zr8  1  0.655496  0.000504  0.750343  1
  Zr  Zr9  1  0.155437  0.498444  0.751593  1
  Zr  Zr10  1  0.344368  0.999692  0.249809  1
  Zr  Zr11  1  0.844145  0.501431  0.249963  1
  Zr  Zr12  1  0.827281  0.322169  0.624860  1
  Zr  Zr13  1  0.328066  0.177316  0.875371  1
  Zr  Zr14  1  0.171775  0.677519  0.124761  1
  Zr  Zr15  1  0.671275  0.822877  0.374698  1
  Zr  Zr16  1  0.169542  0.679832  0.374002  1
  Zr  Zr17  1  0.671182  0.822684  0.124550  1
  Zr  Zr18  1  0.827877  0.322305  0.875422  1
  Zr  Zr19  1  0.331171  0.174099  0.626121  1
  Si  Si20  1  0.783154  0.628290  0.750100  1
  Si  Si21  1  0.281864  0.870179  0.750505  1
  Si  Si22  1  0.217367  0.371843  0.249945  1
  Si  Si23  1  0.717486  0.128927  0.249664  1
  Si  Si24  1  0.531816  0.384475  0.750287  1
  Si  Si25  1  0.031325  0.115178  0.750014  1
  Si  Si26  1  0.467663  0.615897  0.249796  1
  Si  Si27  1  0.967744  0.885563  0.249190  1
  Si  Si28  1  0.656352  0.032060  0.539655  1
  Si  Si29  1  0.154573  0.468850  0.959835  1
  Si  Si30  1  0.345026  0.968763  0.040346  1
  Si  Si31  1  0.839820  0.532151  0.459128  1
  Si  Si32  1  0.344286  0.968247  0.459807  1
  Si  Si33  1  0.844855  0.531181  0.040460  1
  Si  Si34  1  0.653995  0.031169  0.959618  1
  Ge  Ge35  1  0.163990  0.467014  0.539435  1
