# generated using pymatgen
data_Ca5Si12Pt19
_symmetry_space_group_name_H-M   'P 1'
_cell_length_a   13.11760300
_cell_length_b   13.11760151
_cell_length_c   4.10629700
_cell_angle_alpha   90.00000000
_cell_angle_beta   90.00000000
_cell_angle_gamma   120.00000124
_symmetry_Int_Tables_number   1
_chemical_formula_structural   Ca5Si12Pt19
_chemical_formula_sum   'Ca5 Si12 Pt19'
_cell_volume   611.91331109
_cell_formula_units_Z   1
loop_
 _symmetry_equiv_pos_site_id
 _symmetry_equiv_pos_as_xyz
  1  'x, y, z'
loop_
 _atom_site_type_symbol
 _atom_site_label
 _atom_site_symmetry_multiplicity
 _atom_site_fract_x
 _atom_site_fract_y
 _atom_site_fract_z
 _atom_site_occupancy
  Ca  Ca0  1  0.000000  0.184832  0.500000  1
  Ca  Ca1  1  0.815168  0.815168  0.500000  1
  Ca  Ca2  1  0.184832  0.000000  0.500000  1
  Ca  Ca3  1  0.666667  0.333333  0.000000  1
  Ca  Ca4  1  0.333333  0.666667  0.000000  1
  Si  Si5  1  0.480864  0.313006  0.500000  1
  Si  Si6  1  0.819399  0.000000  0.000000  1
  Si  Si7  1  0.180601  0.180601  0.000000  1
  Si  Si8  1  0.000000  0.819399  0.000000  1
  Si  Si9  1  0.369818  0.000000  0.000000  1
  Si  Si10  1  0.686994  0.167858  0.500000  1
  Si  Si11  1  0.832142  0.519136  0.500000  1
  Si  Si12  1  0.519136  0.832142  0.500000  1
  Si  Si13  1  0.167858  0.686994  0.500000  1
  Si  Si14  1  0.313006  0.480864  0.500000  1
  Si  Si15  1  0.000000  0.369818  0.000000  1
  Si  Si16  1  0.630182  0.630182  0.000000  1
  Pt  Pt17  1  0.810462  0.183659  0.000000  1
  Pt  Pt18  1  0.373197  0.189538  0.000000  1
  Pt  Pt19  1  0.640260  0.508368  0.500000  1
  Pt  Pt20  1  0.868108  0.359740  0.500000  1
  Pt  Pt21  1  0.359740  0.868108  0.500000  1
  Pt  Pt22  1  0.508368  0.640260  0.500000  1
  Pt  Pt23  1  0.131892  0.491632  0.500000  1
  Pt  Pt24  1  0.816341  0.626803  0.000000  1
  Pt  Pt25  1  0.626803  0.816341  0.000000  1
  Pt  Pt26  1  0.183659  0.810462  0.000000  1
  Pt  Pt27  1  0.189538  0.373197  0.000000  1
  Pt  Pt28  1  0.000000  0.717004  0.500000  1
  Pt  Pt29  1  0.282996  0.282996  0.500000  1
  Pt  Pt30  1  0.717004  0.000000  0.500000  1
  Pt  Pt31  1  0.000000  0.552378  0.000000  1
  Pt  Pt32  1  0.447622  0.447622  0.000000  1
  Pt  Pt33  1  0.552378  0.000000  0.000000  1
  Pt  Pt34  1  0.000000  0.000000  0.000000  1
  Pt  Pt35  1  0.491632  0.131892  0.500000  1
