# generated using pymatgen
data_ErPaTcB6
_symmetry_space_group_name_H-M   'P 1'
_cell_length_a   3.71301900
_cell_length_b   9.13862100
_cell_length_c   11.49439500
_cell_angle_alpha   90.00000000
_cell_angle_beta   90.00000000
_cell_angle_gamma   90.00000000
_symmetry_Int_Tables_number   1
_chemical_formula_structural   ErPaTcB6
_chemical_formula_sum   'Er4 Pa4 Tc4 B24'
_cell_volume   390.02635603
_cell_formula_units_Z   4
loop_
 _symmetry_equiv_pos_site_id
 _symmetry_equiv_pos_as_xyz
  1  'x, y, z'
loop_
 _atom_site_type_symbol
 _atom_site_label
 _atom_site_symmetry_multiplicity
 _atom_site_fract_x
 _atom_site_fract_y
 _atom_site_fract_z
 _atom_site_occupancy
  Er  Er0  1  0.000000  0.944563  0.373847  1
  Er  Er1  1  0.000000  0.055437  0.626153  1
  Er  Er2  1  0.000000  0.444563  0.126153  1
  Er  Er3  1  0.000000  0.555437  0.873847  1
  Pa  Pa4  1  0.000000  0.323087  0.413441  1
  Pa  Pa5  1  0.000000  0.676913  0.586559  1
  Pa  Pa6  1  0.000000  0.823087  0.086559  1
  Pa  Pa7  1  0.000000  0.176913  0.913441  1
  Tc  Tc8  1  0.000000  0.638776  0.321352  1
  Tc  Tc9  1  0.000000  0.361224  0.678648  1
  Tc  Tc10  1  0.000000  0.138776  0.178648  1
  Tc  Tc11  1  0.000000  0.861224  0.821352  1
  B  B12  1  0.500000  0.552872  0.433417  1
  B  B13  1  0.500000  0.447128  0.566583  1
  B  B14  1  0.500000  0.052872  0.066583  1
  B  B15  1  0.500000  0.947128  0.933417  1
  B  B16  1  0.500000  0.748825  0.419969  1
  B  B17  1  0.500000  0.251175  0.580031  1
  B  B18  1  0.500000  0.248825  0.080031  1
  B  B19  1  0.500000  0.751175  0.919969  1
  B  B20  1  0.500000  0.793130  0.265582  1
  B  B21  1  0.500000  0.206870  0.734418  1
  B  B22  1  0.500000  0.293130  0.234418  1
  B  B23  1  0.500000  0.706870  0.765582  1
  B  B24  1  0.500000  0.632632  0.184798  1
  B  B25  1  0.500000  0.367368  0.815202  1
  B  B26  1  0.500000  0.132632  0.315202  1
  B  B27  1  0.500000  0.867368  0.684798  1
  B  B28  1  0.500000  0.982469  0.213447  1
  B  B29  1  0.500000  0.017531  0.786553  1
  B  B30  1  0.500000  0.482469  0.286553  1
  B  B31  1  0.500000  0.517531  0.713447  1
  B  B32  1  0.500000  0.609461  0.030205  1
  B  B33  1  0.500000  0.390539  0.969795  1
  B  B34  1  0.500000  0.109461  0.469795  1
  B  B35  1  0.500000  0.890539  0.530205  1
