# generated using pymatgen
data_PrDy2(P2Rh3)3
_symmetry_space_group_name_H-M   'P 1'
_cell_length_a   3.93843400
_cell_length_b   11.24899000
_cell_length_c   12.86148400
_cell_angle_alpha   90.00000000
_cell_angle_beta   90.00000000
_cell_angle_gamma   90.00000000
_symmetry_Int_Tables_number   1
_chemical_formula_structural   PrDy2(P2Rh3)3
_chemical_formula_sum   'Pr2 Dy4 P12 Rh18'
_cell_volume   569.80753046
_cell_formula_units_Z   2
loop_
 _symmetry_equiv_pos_site_id
 _symmetry_equiv_pos_as_xyz
  1  'x, y, z'
loop_
 _atom_site_type_symbol
 _atom_site_label
 _atom_site_symmetry_multiplicity
 _atom_site_fract_x
 _atom_site_fract_y
 _atom_site_fract_z
 _atom_site_occupancy
  Pr  Pr0  1  0.000000  0.500000  0.520692  1
  Pr  Pr1  1  0.500000  0.000000  0.479308  1
  Dy  Dy2  1  0.500000  0.815287  0.203931  1
  Dy  Dy3  1  0.500000  0.184713  0.203931  1
  Dy  Dy4  1  0.000000  0.684713  0.796069  1
  Dy  Dy5  1  0.000000  0.315287  0.796069  1
  P  P6  1  0.500000  0.500000  0.879881  1
  P  P7  1  0.000000  0.000000  0.120119  1
  P  P8  1  0.500000  0.500000  0.346358  1
  P  P9  1  0.000000  0.000000  0.653642  1
  P  P10  1  0.500000  0.313314  0.619984  1
  P  P11  1  0.500000  0.686686  0.619984  1
  P  P12  1  0.000000  0.186686  0.380016  1
  P  P13  1  0.000000  0.813314  0.380016  1
  P  P14  1  0.500000  0.845890  0.893435  1
  P  P15  1  0.500000  0.154110  0.893435  1
  P  P16  1  0.000000  0.654110  0.106565  1
  P  P17  1  0.000000  0.345890  0.106565  1
  Rh  Rh18  1  0.500000  0.500000  0.167290  1
  Rh  Rh19  1  0.000000  0.000000  0.832710  1
  Rh  Rh20  1  0.500000  0.500000  0.704750  1
  Rh  Rh21  1  0.000000  0.000000  0.295250  1
  Rh  Rh22  1  0.000000  0.500000  0.979605  1
  Rh  Rh23  1  0.500000  0.000000  0.020395  1
  Rh  Rh24  1  0.500000  0.334184  0.993911  1
  Rh  Rh25  1  0.500000  0.665816  0.993911  1
  Rh  Rh26  1  0.000000  0.165816  0.006089  1
  Rh  Rh27  1  0.000000  0.834184  0.006089  1
  Rh  Rh28  1  0.500000  0.291565  0.428804  1
  Rh  Rh29  1  0.500000  0.708435  0.428804  1
  Rh  Rh30  1  0.000000  0.208435  0.571196  1
  Rh  Rh31  1  0.000000  0.791565  0.571196  1
  Rh  Rh32  1  0.500000  0.872775  0.713310  1
  Rh  Rh33  1  0.500000  0.127225  0.713310  1
  Rh  Rh34  1  0.000000  0.627225  0.286690  1
  Rh  Rh35  1  0.000000  0.372775  0.286690  1
