# generated using pymatgen
data_Pr3SmTe3N2
_symmetry_space_group_name_H-M   'P 1'
_cell_length_a   7.43682767
_cell_length_b   11.45454383
_cell_length_c   11.81457600
_cell_angle_alpha   90.00000000
_cell_angle_beta   90.00000000
_cell_angle_gamma   89.93550367
_symmetry_Int_Tables_number   1
_chemical_formula_structural   Pr3SmTe3N2
_chemical_formula_sum   'Pr12 Sm4 Te12 N8'
_cell_volume   1006.42955328
_cell_formula_units_Z   4
loop_
 _symmetry_equiv_pos_site_id
 _symmetry_equiv_pos_as_xyz
  1  'x, y, z'
loop_
 _atom_site_type_symbol
 _atom_site_label
 _atom_site_symmetry_multiplicity
 _atom_site_fract_x
 _atom_site_fract_y
 _atom_site_fract_z
 _atom_site_occupancy
  Pr  Pr0  1  0.146217  0.389375  0.950264  1
  Pr  Pr1  1  0.407464  0.159786  0.250000  1
  Pr  Pr2  1  0.352570  0.889350  0.048424  1
  Pr  Pr3  1  0.730082  0.468234  0.750000  1
  Pr  Pr4  1  0.853664  0.610953  0.450662  1
  Pr  Pr5  1  0.771308  0.969505  0.250000  1
  Pr  Pr6  1  0.271051  0.530433  0.250000  1
  Pr  Pr7  1  0.146217  0.389375  0.549736  1
  Pr  Pr8  1  0.352570  0.889350  0.451576  1
  Pr  Pr9  1  0.646948  0.109941  0.550706  1
  Pr  Pr10  1  0.853664  0.610953  0.049338  1
  Pr  Pr11  1  0.646948  0.109941  0.949294  1
  Sm  Sm12  1  0.088732  0.657634  0.750000  1
  Sm  Sm13  1  0.910164  0.343406  0.250000  1
  Sm  Sm14  1  0.236662  0.030649  0.750000  1
  Sm  Sm15  1  0.588074  0.842657  0.750000  1
  Te  Te16  1  0.061965  0.136544  0.080618  1
  Te  Te17  1  0.081954  0.773659  0.250000  1
  Te  Te18  1  0.568920  0.365378  0.079977  1
  Te  Te19  1  0.581630  0.726250  0.250000  1
  Te  Te20  1  0.933727  0.864232  0.916785  1
  Te  Te21  1  0.433517  0.636564  0.917573  1
  Te  Te22  1  0.922272  0.223603  0.750000  1
  Te  Te23  1  0.933727  0.864232  0.583215  1
  Te  Te24  1  0.061965  0.136544  0.419382  1
  Te  Te25  1  0.433517  0.636564  0.582427  1
  Te  Te26  1  0.568920  0.365378  0.420023  1
  Te  Te27  1  0.418708  0.271654  0.750000  1
  N  N28  1  0.446747  0.966583  0.624315  1
  N  N29  1  0.551272  0.032516  0.121165  1
  N  N30  1  0.949825  0.533978  0.622965  1
  N  N31  1  0.050575  0.465852  0.377320  1
  N  N32  1  0.949825  0.533978  0.877035  1
  N  N33  1  0.050575  0.465852  0.122680  1
  N  N34  1  0.551272  0.032516  0.378835  1
  N  N35  1  0.446747  0.966583  0.875685  1
