# generated using pymatgen
data_Pr5Sm3(Si3Ni)4
_symmetry_space_group_name_H-M   'P 1'
_cell_length_a   8.26722200
_cell_length_b   8.26722263
_cell_length_c   8.42160100
_cell_angle_alpha   90.00000000
_cell_angle_beta   90.00000000
_cell_angle_gamma   119.99999747
_symmetry_Int_Tables_number   1
_chemical_formula_structural   Pr5Sm3(Si3Ni)4
_chemical_formula_sum   'Pr5 Sm3 Si12 Ni4'
_cell_volume   498.47632593
_cell_formula_units_Z   1
loop_
 _symmetry_equiv_pos_site_id
 _symmetry_equiv_pos_as_xyz
  1  'x, y, z'
loop_
 _atom_site_type_symbol
 _atom_site_label
 _atom_site_symmetry_multiplicity
 _atom_site_fract_x
 _atom_site_fract_y
 _atom_site_fract_z
 _atom_site_occupancy
  Pr  Pr0  1  0.000000  0.000000  0.250000  1
  Pr  Pr1  1  0.000000  0.000000  0.750000  1
  Pr  Pr2  1  0.500399  0.499601  0.250000  1
  Pr  Pr3  1  0.500399  0.000797  0.250000  1
  Pr  Pr4  1  0.999203  0.499601  0.250000  1
  Sm  Sm5  1  0.499681  0.500319  0.750000  1
  Sm  Sm6  1  0.499681  0.999363  0.750000  1
  Sm  Sm7  1  0.000637  0.500319  0.750000  1
  Si  Si8  1  0.171461  0.828539  0.503043  1
  Si  Si9  1  0.171461  0.342924  0.503043  1
  Si  Si10  1  0.657076  0.828539  0.503043  1
  Si  Si11  1  0.828583  0.171417  0.503208  1
  Si  Si12  1  0.828583  0.657164  0.503208  1
  Si  Si13  1  0.342836  0.171417  0.503208  1
  Si  Si14  1  0.828583  0.171417  0.996792  1
  Si  Si15  1  0.828583  0.657164  0.996792  1
  Si  Si16  1  0.342836  0.171417  0.996792  1
  Si  Si17  1  0.171461  0.828539  0.996957  1
  Si  Si18  1  0.171461  0.342924  0.996957  1
  Si  Si19  1  0.657076  0.828539  0.996957  1
  Ni  Ni20  1  0.333333  0.666667  0.506465  1
  Ni  Ni21  1  0.666667  0.333333  0.508151  1
  Ni  Ni22  1  0.666667  0.333333  0.991849  1
  Ni  Ni23  1  0.333333  0.666667  0.993535  1
