# generated using pymatgen
data_Nd3Sm(Si3Ni5)4
_symmetry_space_group_name_H-M   'P 1'
_cell_length_a   3.84423200
_cell_length_b   18.94505528
_cell_length_c   6.61585961
_cell_angle_alpha   90.23575793
_cell_angle_beta   90.00000000
_cell_angle_gamma   90.00000000
_symmetry_Int_Tables_number   1
_chemical_formula_structural   Nd3Sm(Si3Ni5)4
_chemical_formula_sum   'Nd3 Sm1 Si12 Ni20'
_cell_volume   481.82360257
_cell_formula_units_Z   1
loop_
 _symmetry_equiv_pos_site_id
 _symmetry_equiv_pos_as_xyz
  1  'x, y, z'
loop_
 _atom_site_type_symbol
 _atom_site_label
 _atom_site_symmetry_multiplicity
 _atom_site_fract_x
 _atom_site_fract_y
 _atom_site_fract_z
 _atom_site_occupancy
  Nd  Nd0  1  0.750000  0.643401  0.123288  1
  Nd  Nd1  1  0.250000  0.356065  0.875060  1
  Nd  Nd2  1  0.250000  0.857393  0.624492  1
  Sm  Sm3  1  0.750000  0.143461  0.377516  1
  Si  Si4  1  0.750000  0.736146  0.618151  1
  Si  Si5  1  0.250000  0.262964  0.383527  1
  Si  Si6  1  0.250000  0.764903  0.117146  1
  Si  Si7  1  0.750000  0.234816  0.883216  1
  Si  Si8  1  0.750000  0.928318  0.339884  1
  Si  Si9  1  0.250000  0.072555  0.657627  1
  Si  Si10  1  0.250000  0.571053  0.839157  1
  Si  Si11  1  0.750000  0.427669  0.159812  1
  Si  Si12  1  0.750000  0.915276  0.928001  1
  Si  Si13  1  0.250000  0.087464  0.075687  1
  Si  Si14  1  0.250000  0.586605  0.429949  1
  Si  Si15  1  0.750000  0.412112  0.568318  1
  Ni  Ni16  1  0.750000  0.801664  0.310024  1
  Ni  Ni17  1  0.250000  0.197943  0.689661  1
  Ni  Ni18  1  0.250000  0.698811  0.809959  1
  Ni  Ni19  1  0.750000  0.300387  0.190587  1
  Ni  Ni20  1  0.750000  0.995243  0.636590  1
  Ni  Ni21  1  0.250000  0.006109  0.362247  1
  Ni  Ni22  1  0.250000  0.504777  0.138035  1
  Ni  Ni23  1  0.750000  0.493886  0.860665  1
  Ni  Ni24  1  0.750000  0.516317  0.390994  1
  Ni  Ni25  1  0.250000  0.482496  0.607399  1
  Ni  Ni26  1  0.250000  0.985388  0.890749  1
  Ni  Ni27  1  0.750000  0.017701  0.113603  1
  Ni  Ni28  1  0.750000  0.793753  0.928145  1
  Ni  Ni29  1  0.250000  0.207434  0.073228  1
  Ni  Ni30  1  0.250000  0.708036  0.427708  1
  Ni  Ni31  1  0.750000  0.290829  0.572627  1
  Ni  Ni32  1  0.750000  0.615528  0.646209  1
  Ni  Ni33  1  0.250000  0.383349  0.352614  1
  Ni  Ni34  1  0.250000  0.885562  0.144599  1
  Ni  Ni35  1  0.750000  0.114587  0.853530  1
