# generated using pymatgen
data_Ho12CuSi8Ni3
_symmetry_space_group_name_H-M   'P 1'
_cell_length_a   4.11137200
_cell_length_b   11.20509140
_cell_length_c   11.19885504
_cell_angle_alpha   89.97954369
_cell_angle_beta   90.00000000
_cell_angle_gamma   90.00000000
_symmetry_Int_Tables_number   1
_chemical_formula_structural   Ho12CuSi8Ni3
_chemical_formula_sum   'Ho12 Cu1 Si8 Ni3'
_cell_volume   515.91217035
_cell_formula_units_Z   1
loop_
 _symmetry_equiv_pos_site_id
 _symmetry_equiv_pos_as_xyz
  1  'x, y, z'
loop_
 _atom_site_type_symbol
 _atom_site_label
 _atom_site_symmetry_multiplicity
 _atom_site_fract_x
 _atom_site_fract_y
 _atom_site_fract_z
 _atom_site_occupancy
  Ho  Ho0  1  0.250000  0.060441  0.881931  1
  Ho  Ho1  1  0.250000  0.442333  0.378932  1
  Ho  Ho2  1  0.750000  0.940511  0.116830  1
  Ho  Ho3  1  0.750000  0.563489  0.617162  1
  Ho  Ho4  1  0.250000  0.119821  0.558455  1
  Ho  Ho5  1  0.250000  0.375748  0.059292  1
  Ho  Ho6  1  0.750000  0.874273  0.440650  1
  Ho  Ho7  1  0.750000  0.624980  0.940591  1
  Ho  Ho8  1  0.250000  0.805058  0.714141  1
  Ho  Ho9  1  0.250000  0.696434  0.213412  1
  Ho  Ho10  1  0.750000  0.194324  0.286730  1
  Ho  Ho11  1  0.750000  0.303802  0.790600  1
  Cu  Cu12  1  0.250000  0.364281  0.630579  1
  Si  Si13  1  0.250000  0.813506  0.974671  1
  Si  Si14  1  0.250000  0.686035  0.475433  1
  Si  Si15  1  0.750000  0.187434  0.026004  1
  Si  Si16  1  0.750000  0.311985  0.523840  1
  Si  Si17  1  0.250000  0.496275  0.804773  1
  Si  Si18  1  0.250000  0.005188  0.303617  1
  Si  Si19  1  0.750000  0.506710  0.195318  1
  Si  Si20  1  0.750000  0.993725  0.696999  1
  Ni  Ni21  1  0.250000  0.134037  0.129447  1
  Ni  Ni22  1  0.750000  0.633879  0.369962  1
  Ni  Ni23  1  0.750000  0.865734  0.870630  1
