# generated using pymatgen
data_Ca5Sc3(Cu4As3)4
_symmetry_space_group_name_H-M   'P 1'
_cell_length_a   13.11536500
_cell_length_b   13.11536502
_cell_length_c   4.03032900
_cell_angle_alpha   90.00000000
_cell_angle_beta   90.00000000
_cell_angle_gamma   120.00000248
_symmetry_Int_Tables_number   1
_chemical_formula_structural   Ca5Sc3(Cu4As3)4
_chemical_formula_sum   'Ca5 Sc3 Cu16 As12'
_cell_volume   600.38783477
_cell_formula_units_Z   1
loop_
 _symmetry_equiv_pos_site_id
 _symmetry_equiv_pos_as_xyz
  1  'x, y, z'
loop_
 _atom_site_type_symbol
 _atom_site_label
 _atom_site_symmetry_multiplicity
 _atom_site_fract_x
 _atom_site_fract_y
 _atom_site_fract_z
 _atom_site_occupancy
  Ca  Ca0  1  0.185928  0.185928  0.500000  1
  Ca  Ca1  1  0.814072  0.000000  0.500000  1
  Ca  Ca2  1  0.000000  0.814072  0.500000  1
  Ca  Ca3  1  0.333333  0.666667  0.000000  1
  Ca  Ca4  1  0.666667  0.333333  0.000000  1
  Sc  Sc5  1  0.566566  0.566566  0.000000  1
  Sc  Sc6  1  0.433434  0.000000  0.000000  1
  Sc  Sc7  1  0.000000  0.433434  0.000000  1
  Cu  Cu8  1  0.721580  0.721580  0.500000  1
  Cu  Cu9  1  0.278420  0.000000  0.500000  1
  Cu  Cu10  1  0.000000  0.278420  0.500000  1
  Cu  Cu11  1  0.182581  0.374413  0.000000  1
  Cu  Cu12  1  0.625587  0.808167  0.000000  1
  Cu  Cu13  1  0.191833  0.817419  0.000000  1
  Cu  Cu14  1  0.808167  0.625587  0.000000  1
  Cu  Cu15  1  0.817419  0.191833  0.000000  1
  Cu  Cu16  1  0.374413  0.182581  0.000000  1
  Cu  Cu17  1  0.356657  0.478494  0.500000  1
  Cu  Cu18  1  0.521506  0.878164  0.500000  1
  Cu  Cu19  1  0.121836  0.643343  0.500000  1
  Cu  Cu20  1  0.878164  0.521506  0.500000  1
  Cu  Cu21  1  0.643343  0.121836  0.500000  1
  Cu  Cu22  1  0.478494  0.356657  0.500000  1
  Cu  Cu23  1  0.000000  0.000000  0.000000  1
  As  As24  1  0.822861  0.822861  0.000000  1
  As  As25  1  0.177139  0.000000  0.000000  1
  As  As26  1  0.000000  0.177139  0.000000  1
  As  As27  1  0.169441  0.485506  0.500000  1
  As  As28  1  0.514494  0.683934  0.500000  1
  As  As29  1  0.316066  0.830559  0.500000  1
  As  As30  1  0.683934  0.514494  0.500000  1
  As  As31  1  0.830559  0.316066  0.500000  1
  As  As32  1  0.485506  0.169441  0.500000  1
  As  As33  1  0.363407  0.363407  0.000000  1
  As  As34  1  0.636593  0.000000  0.000000  1
  As  As35  1  0.000000  0.636593  0.000000  1
