# generated using pymatgen
data_K2ThCl6
_symmetry_space_group_name_H-M   'P 1'
_cell_length_a   8.28197293
_cell_length_b   8.28197384
_cell_length_c   8.75678465
_cell_angle_alpha   89.68380103
_cell_angle_beta   89.68379893
_cell_angle_gamma   118.85291131
_symmetry_Int_Tables_number   1
_chemical_formula_structural   K2ThCl6
_chemical_formula_sum   'K4 Th2 Cl12'
_cell_volume   526.04411050
_cell_formula_units_Z   2
loop_
 _symmetry_equiv_pos_site_id
 _symmetry_equiv_pos_as_xyz
  1  'x, y, z'
loop_
 _atom_site_type_symbol
 _atom_site_label
 _atom_site_symmetry_multiplicity
 _atom_site_fract_x
 _atom_site_fract_y
 _atom_site_fract_z
 _atom_site_occupancy
  K  K0  1  0.358303  0.667132  0.999677  1
  K  K1  1  0.667132  0.358303  0.499677  1
  K  K2  1  0.641697  0.332868  0.000323  1
  K  K3  1  0.332868  0.641697  0.500323  1
  Th  Th4  1  0.061523  0.938477  0.750000  1
  Th  Th5  1  0.938477  0.061523  0.250000  1
  Cl  Cl6  1  0.309293  0.300218  0.266625  1
  Cl  Cl7  1  0.690707  0.699782  0.733375  1
  Cl  Cl8  1  0.869838  0.090813  0.944748  1
  Cl  Cl9  1  0.130162  0.909187  0.055252  1
  Cl  Cl10  1  0.699782  0.690707  0.233375  1
  Cl  Cl11  1  0.909187  0.130162  0.555252  1
  Cl  Cl12  1  0.018623  0.579526  0.766470  1
  Cl  Cl13  1  0.579526  0.018623  0.266470  1
  Cl  Cl14  1  0.981377  0.420474  0.233530  1
  Cl  Cl15  1  0.090813  0.869838  0.444748  1
  Cl  Cl16  1  0.420474  0.981377  0.733530  1
  Cl  Cl17  1  0.300218  0.309293  0.766625  1
