# generated using pymatgen
data_Dy7Ho(PtAu)2
_symmetry_space_group_name_H-M   'P 1'
_cell_length_a   4.86987300
_cell_length_b   7.13667772
_cell_length_c   8.88379089
_cell_angle_alpha   89.94862904
_cell_angle_beta   90.00000000
_cell_angle_gamma   90.00000000
_symmetry_Int_Tables_number   1
_chemical_formula_structural   Dy7Ho(PtAu)2
_chemical_formula_sum   'Dy7 Ho1 Pt2 Au2'
_cell_volume   308.75348872
_cell_formula_units_Z   1
loop_
 _symmetry_equiv_pos_site_id
 _symmetry_equiv_pos_as_xyz
  1  'x, y, z'
loop_
 _atom_site_type_symbol
 _atom_site_label
 _atom_site_symmetry_multiplicity
 _atom_site_fract_x
 _atom_site_fract_y
 _atom_site_fract_z
 _atom_site_occupancy
  Dy  Dy0  1  0.250000  0.649379  0.574073  1
  Dy  Dy1  1  0.750000  0.855738  0.089396  1
  Dy  Dy2  1  0.750000  0.355594  0.410328  1
  Dy  Dy3  1  0.250000  0.005683  0.329941  1
  Dy  Dy4  1  0.250000  0.505531  0.169817  1
  Dy  Dy5  1  0.750000  0.984927  0.671319  1
  Dy  Dy6  1  0.750000  0.484553  0.828914  1
  Ho  Ho7  1  0.250000  0.149328  0.926167  1
  Pt  Pt8  1  0.750000  0.760601  0.408891  1
  Pt  Pt9  1  0.750000  0.260377  0.090846  1
  Au  Au10  1  0.250000  0.243896  0.600038  1
  Au  Au11  1  0.250000  0.744392  0.900272  1
