# generated using pymatgen
data_Pr2Al6Si4Pt
_symmetry_space_group_name_H-M   'P 1'
_cell_length_a   4.22793603
_cell_length_b   4.22786002
_cell_length_c   17.31455518
_cell_angle_alpha   97.01272531
_cell_angle_beta   90.07711786
_cell_angle_gamma   119.99938972
_symmetry_Int_Tables_number   1
_chemical_formula_structural   Pr2Al6Si4Pt
_chemical_formula_sum   'Pr2 Al6 Si4 Pt1'
_cell_volume   265.32944779
_cell_formula_units_Z   1
loop_
 _symmetry_equiv_pos_site_id
 _symmetry_equiv_pos_as_xyz
  1  'x, y, z'
loop_
 _atom_site_type_symbol
 _atom_site_label
 _atom_site_symmetry_multiplicity
 _atom_site_fract_x
 _atom_site_fract_y
 _atom_site_fract_z
 _atom_site_occupancy
  Pr  Pr0  1  0.434529  0.867596  0.300662  1
  Pr  Pr1  1  0.565472  0.132405  0.699338  1
  Al  Al2  1  0.681703  0.363937  0.046173  1
  Al  Al3  1  0.052327  0.101665  0.151003  1
  Al  Al4  1  0.814559  0.629403  0.444247  1
  Al  Al5  1  0.185441  0.370598  0.555753  1
  Al  Al6  1  0.947673  0.898336  0.848997  1
  Al  Al7  1  0.318298  0.636063  0.953827  1
  Si  Si8  1  0.734204  0.464477  0.194750  1
  Si  Si9  1  0.136064  0.272745  0.409425  1
  Si  Si10  1  0.863936  0.727256  0.590576  1
  Si  Si11  1  0.265796  0.535524  0.805250  1
  Pt  Pt12  1  0.000000  0.000000  0.000000  1
