# generated using pymatgen
data_Th4Re15Si8W
_symmetry_space_group_name_H-M   'P 1'
_cell_length_a   7.25354698
_cell_length_b   15.77525228
_cell_length_c   4.17752100
_cell_angle_alpha   90.00002822
_cell_angle_beta   90.00005112
_cell_angle_gamma   90.08454018
_symmetry_Int_Tables_number   1
_chemical_formula_structural   Th4Re15Si8W
_chemical_formula_sum   'Th4 Re15 Si8 W1'
_cell_volume   478.01872645
_cell_formula_units_Z   1
loop_
 _symmetry_equiv_pos_site_id
 _symmetry_equiv_pos_as_xyz
  1  'x, y, z'
loop_
 _atom_site_type_symbol
 _atom_site_label
 _atom_site_symmetry_multiplicity
 _atom_site_fract_x
 _atom_site_fract_y
 _atom_site_fract_z
 _atom_site_occupancy
  Th  Th0  1  0.585951  0.117353  0.000000  1
  Th  Th1  1  0.413820  0.882038  0.000004  1
  Th  Th2  1  0.085262  0.381660  0.499998  1
  Th  Th3  1  0.913996  0.618464  0.500008  1
  Re  Re4  1  0.261590  0.679343  0.000000  1
  Re  Re5  1  0.239891  0.178150  0.500001  1
  Re  Re6  1  0.759809  0.821534  0.499999  1
  Re  Re7  1  0.429562  0.421485  0.000000  1
  Re  Re8  1  0.570287  0.580972  0.000001  1
  Re  Re9  1  0.931182  0.078619  0.500000  1
  Re  Re10  1  0.070745  0.919158  0.500001  1
  Re  Re11  1  0.141405  0.050188  0.000000  1
  Re  Re12  1  0.857468  0.948315  0.000002  1
  Re  Re13  1  0.640584  0.451159  0.500001  1
  Re  Re14  1  0.356957  0.552044  0.500000  1
  Re  Re15  1  0.000389  0.205524  0.000000  1
  Re  Re16  1  0.001204  0.794124  0.000000  1
  Re  Re17  1  0.501718  0.293177  0.499999  1
  Re  Re18  1  0.500461  0.706006  0.499999  1
  Si  Si19  1  0.305365  0.274226  0.000000  1
  Si  Si20  1  0.696208  0.726991  0.000000  1
  Si  Si21  1  0.806367  0.224067  0.500000  1
  Si  Si22  1  0.196109  0.773426  0.500000  1
  Si  Si23  1  0.830356  0.475890  0.000001  1
  Si  Si24  1  0.170349  0.525877  0.000001  1
  Si  Si25  1  0.328997  0.025113  0.499999  1
  Si  Si26  1  0.670972  0.974647  0.500001  1
  W  W27  1  0.732995  0.320458  0.000000  1
