# generated using pymatgen
data_Tm2Th3(Ge5Ir2)2
_symmetry_space_group_name_H-M   'P 1'
_cell_length_a   13.10751000
_cell_length_b   13.10751000
_cell_length_c   4.39716800
_cell_angle_alpha   90.00000000
_cell_angle_beta   90.00000000
_cell_angle_gamma   90.00000000
_symmetry_Int_Tables_number   1
_chemical_formula_structural   Tm2Th3(Ge5Ir2)2
_chemical_formula_sum   'Tm4 Th6 Ge20 Ir8'
_cell_volume   755.46344405
_cell_formula_units_Z   2
loop_
 _symmetry_equiv_pos_site_id
 _symmetry_equiv_pos_as_xyz
  1  'x, y, z'
loop_
 _atom_site_type_symbol
 _atom_site_label
 _atom_site_symmetry_multiplicity
 _atom_site_fract_x
 _atom_site_fract_y
 _atom_site_fract_z
 _atom_site_occupancy
  Tm  Tm0  1  0.325665  0.825665  0.500000  1
  Tm  Tm1  1  0.825665  0.674335  0.500000  1
  Tm  Tm2  1  0.174335  0.325665  0.500000  1
  Tm  Tm3  1  0.674335  0.174335  0.500000  1
  Th  Th4  1  0.112815  0.612815  0.500000  1
  Th  Th5  1  0.612815  0.887185  0.500000  1
  Th  Th6  1  0.387185  0.112815  0.500000  1
  Th  Th7  1  0.887185  0.387185  0.500000  1
  Th  Th8  1  0.500000  0.500000  0.000000  1
  Th  Th9  1  0.000000  0.000000  0.000000  1
  Ge  Ge10  1  0.338580  0.495520  0.500000  1
  Ge  Ge11  1  0.661420  0.504480  0.500000  1
  Ge  Ge12  1  0.504480  0.338580  0.500000  1
  Ge  Ge13  1  0.495520  0.661420  0.500000  1
  Ge  Ge14  1  0.995520  0.838580  0.500000  1
  Ge  Ge15  1  0.838580  0.004480  0.500000  1
  Ge  Ge16  1  0.161420  0.995520  0.500000  1
  Ge  Ge17  1  0.004480  0.161420  0.500000  1
  Ge  Ge18  1  0.336300  0.300579  0.000000  1
  Ge  Ge19  1  0.663700  0.699421  0.000000  1
  Ge  Ge20  1  0.699421  0.336300  0.000000  1
  Ge  Ge21  1  0.300579  0.663700  0.000000  1
  Ge  Ge22  1  0.800579  0.836300  0.000000  1
  Ge  Ge23  1  0.836300  0.199421  0.000000  1
  Ge  Ge24  1  0.163700  0.800579  0.000000  1
  Ge  Ge25  1  0.199421  0.163700  0.000000  1
  Ge  Ge26  1  0.432651  0.932651  0.000000  1
  Ge  Ge27  1  0.932651  0.567349  0.000000  1
  Ge  Ge28  1  0.567349  0.067349  0.000000  1
  Ge  Ge29  1  0.067349  0.432651  0.000000  1
  Ir  Ir30  1  0.245039  0.977621  0.000000  1
  Ir  Ir31  1  0.754961  0.022379  0.000000  1
  Ir  Ir32  1  0.022379  0.245039  0.000000  1
  Ir  Ir33  1  0.977621  0.754961  0.000000  1
  Ir  Ir34  1  0.477621  0.745039  0.000000  1
  Ir  Ir35  1  0.745039  0.522379  0.000000  1
  Ir  Ir36  1  0.254961  0.477621  0.000000  1
  Ir  Ir37  1  0.522379  0.254961  0.000000  1
