# generated using pymatgen
data_Ba6Sn8PAu
_symmetry_space_group_name_H-M   'P 1'
_cell_length_a   9.17657518
_cell_length_b   9.17657465
_cell_length_c   9.26816802
_cell_angle_alpha   119.67363164
_cell_angle_beta   119.67363053
_cell_angle_gamma   89.99999806
_symmetry_Int_Tables_number   1
_chemical_formula_structural   Ba6Sn8PAu
_chemical_formula_sum   'Ba6 Sn8 P1 Au1'
_cell_volume   557.27467192
_cell_formula_units_Z   1
loop_
 _symmetry_equiv_pos_site_id
 _symmetry_equiv_pos_as_xyz
  1  'x, y, z'
loop_
 _atom_site_type_symbol
 _atom_site_label
 _atom_site_symmetry_multiplicity
 _atom_site_fract_x
 _atom_site_fract_y
 _atom_site_fract_z
 _atom_site_occupancy
  Ba  Ba0  1  0.237573  0.237573  0.475146  1
  Ba  Ba1  1  0.762427  0.762427  0.524854  1
  Ba  Ba2  1  0.679961  0.155691  0.000000  1
  Ba  Ba3  1  0.320039  0.844309  0.000000  1
  Ba  Ba4  1  0.844309  0.679961  0.000000  1
  Ba  Ba5  1  0.155691  0.320039  0.000000  1
  Sn  Sn6  1  0.336466  0.830627  0.386269  1
  Sn  Sn7  1  0.663534  0.169373  0.613731  1
  Sn  Sn8  1  0.049804  0.555643  0.386269  1
  Sn  Sn9  1  0.555643  0.336466  0.386269  1
  Sn  Sn10  1  0.169373  0.950196  0.613731  1
  Sn  Sn11  1  0.950196  0.444357  0.613731  1
  Sn  Sn12  1  0.444357  0.663534  0.613731  1
  Sn  Sn13  1  0.830627  0.049804  0.386269  1
  P  P14  1  0.000000  0.000000  0.000000  1
  Au  Au15  1  0.500000  0.500000  0.000000  1
