# generated using pymatgen
data_V3Ga2Mo2Os
_symmetry_space_group_name_H-M   'P 1'
_cell_length_a   4.83073866
_cell_length_b   4.88256364
_cell_length_c   4.83073836
_cell_angle_alpha   89.98819813
_cell_angle_beta   89.94933058
_cell_angle_gamma   90.01178128
_symmetry_Int_Tables_number   1
_chemical_formula_structural   V3Ga2Mo2Os
_chemical_formula_sum   'V3 Ga2 Mo2 Os1'
_cell_volume   113.93962442
_cell_formula_units_Z   1
loop_
 _symmetry_equiv_pos_site_id
 _symmetry_equiv_pos_as_xyz
  1  'x, y, z'
loop_
 _atom_site_type_symbol
 _atom_site_label
 _atom_site_symmetry_multiplicity
 _atom_site_fract_x
 _atom_site_fract_y
 _atom_site_fract_z
 _atom_site_occupancy
  V  V0  1  0.498166  0.250000  0.998166  1
  V  V1  1  0.750815  0.999491  0.502070  1
  V  V2  1  0.002070  0.500509  0.250815  1
  Ga  Ga3  1  0.505521  0.494633  0.493521  1
  Ga  Ga4  1  0.993521  0.005367  0.005521  1
  Mo  Mo5  1  0.250154  0.999711  0.500825  1
  Mo  Mo6  1  0.000825  0.500289  0.750154  1
  Os  Os7  1  0.498927  0.750000  0.998927  1
