# generated using pymatgen
data_Ti4MnIn5Ga
_symmetry_space_group_name_H-M   'P 1'
_cell_length_a   7.44365203
_cell_length_b   3.10776200
_cell_length_c   9.08394776
_cell_angle_alpha   90.00000000
_cell_angle_beta   94.78329566
_cell_angle_gamma   90.00000000
_symmetry_Int_Tables_number   1
_chemical_formula_structural   Ti4MnIn5Ga
_chemical_formula_sum   'Ti4 Mn1 In5 Ga1'
_cell_volume   209.40798961
_cell_formula_units_Z   1
loop_
 _symmetry_equiv_pos_site_id
 _symmetry_equiv_pos_as_xyz
  1  'x, y, z'
loop_
 _atom_site_type_symbol
 _atom_site_label
 _atom_site_symmetry_multiplicity
 _atom_site_fract_x
 _atom_site_fract_y
 _atom_site_fract_z
 _atom_site_occupancy
  Ti  Ti0  1  0.297396  0.500001  0.143335  1
  Ti  Ti1  1  0.711622  0.500001  0.451865  1
  Ti  Ti2  1  0.310810  0.500001  0.584110  1
  Ti  Ti3  1  0.689160  0.500001  0.830470  1
  Mn  Mn4  1  0.576012  0.000000  0.626119  1
  In  In5  1  0.995690  0.000000  0.997203  1
  In  In6  1  0.648050  0.000000  0.135227  1
  In  In7  1  0.033994  0.000000  0.335516  1
  In  In8  1  0.965149  0.000000  0.665188  1
  In  In9  1  0.352189  0.000000  0.863422  1
  Ga  Ga10  1  0.419925  0.000000  0.367546  1
