# generated using pymatgen
data_Al2Ag5Au3
_symmetry_space_group_name_H-M   'P 1'
_cell_length_a   7.00999000
_cell_length_b   7.01403367
_cell_length_c   7.11333579
_cell_angle_alpha   89.94800432
_cell_angle_beta   90.00000000
_cell_angle_gamma   90.00000000
_symmetry_Int_Tables_number   1
_chemical_formula_structural   Al2Ag5Au3
_chemical_formula_sum   'Al4 Ag10 Au6'
_cell_volume   349.75052584
_cell_formula_units_Z   2
loop_
 _symmetry_equiv_pos_site_id
 _symmetry_equiv_pos_as_xyz
  1  'x, y, z'
loop_
 _atom_site_type_symbol
 _atom_site_label
 _atom_site_symmetry_multiplicity
 _atom_site_fract_x
 _atom_site_fract_y
 _atom_site_fract_z
 _atom_site_occupancy
  Al  Al0  1  0.062586  0.069511  0.063796  1
  Al  Al1  1  0.434600  0.934717  0.566878  1
  Al  Al2  1  0.562586  0.430489  0.936204  1
  Al  Al3  1  0.934600  0.565283  0.433122  1
  Ag  Ag4  1  0.789484  0.951459  0.382017  1
  Ag  Ag5  1  0.380459  0.789729  0.952352  1
  Ag  Ag6  1  0.953599  0.384441  0.786427  1
  Ag  Ag7  1  0.546867  0.619074  0.291066  1
  Ag  Ag8  1  0.880459  0.710271  0.047648  1
  Ag  Ag9  1  0.046867  0.880926  0.708934  1
  Ag  Ag10  1  0.118961  0.211483  0.451226  1
  Ag  Ag11  1  0.618961  0.288517  0.548774  1
  Ag  Ag12  1  0.453599  0.115559  0.213573  1
  Ag  Ag13  1  0.289484  0.548541  0.617983  1
  Au  Au14  1  0.681794  0.681943  0.683842  1
  Au  Au15  1  0.814977  0.320484  0.185483  1
  Au  Au16  1  0.181794  0.818057  0.316158  1
  Au  Au17  1  0.314977  0.179516  0.814517  1
  Au  Au18  1  0.216673  0.448800  0.114912  1
  Au  Au19  1  0.716673  0.051200  0.885088  1
