# generated using pymatgen
data_SmYHo(SiRh2)3
_symmetry_space_group_name_H-M   'P 1'
_cell_length_a   5.60196500
_cell_length_b   5.60196475
_cell_length_c   15.01869600
_cell_angle_alpha   90.00000000
_cell_angle_beta   90.00000000
_cell_angle_gamma   119.99999558
_symmetry_Int_Tables_number   1
_chemical_formula_structural   SmYHo(SiRh2)3
_chemical_formula_sum   'Sm2 Y2 Ho2 Si6 Rh12'
_cell_volume   408.17240509
_cell_formula_units_Z   2
loop_
 _symmetry_equiv_pos_site_id
 _symmetry_equiv_pos_as_xyz
  1  'x, y, z'
loop_
 _atom_site_type_symbol
 _atom_site_label
 _atom_site_symmetry_multiplicity
 _atom_site_fract_x
 _atom_site_fract_y
 _atom_site_fract_z
 _atom_site_occupancy
  Sm  Sm0  1  0.666667  0.333333  0.750000  1
  Sm  Sm1  1  0.333333  0.666667  0.250000  1
  Y  Y2  1  0.333333  0.666667  0.036637  1
  Y  Y3  1  0.333333  0.666667  0.463363  1
  Ho  Ho4  1  0.666667  0.333333  0.963421  1
  Ho  Ho5  1  0.666667  0.333333  0.536579  1
  Si  Si6  1  0.666667  0.333333  0.250000  1
  Si  Si7  1  0.000000  0.000000  0.500020  1
  Si  Si8  1  0.000000  0.000000  0.250000  1
  Si  Si9  1  0.000000  0.000000  0.750000  1
  Si  Si10  1  0.333333  0.666667  0.750000  1
  Si  Si11  1  0.000000  0.000000  0.999980  1
  Rh  Rh12  1  0.166615  0.333229  0.869463  1
  Rh  Rh13  1  0.166615  0.333229  0.630537  1
  Rh  Rh14  1  0.666771  0.833385  0.869463  1
  Rh  Rh15  1  0.333505  0.166752  0.369562  1
  Rh  Rh16  1  0.833248  0.666495  0.369562  1
  Rh  Rh17  1  0.833248  0.166752  0.369562  1
  Rh  Rh18  1  0.833248  0.166752  0.130438  1
  Rh  Rh19  1  0.333505  0.166752  0.130438  1
  Rh  Rh20  1  0.666771  0.833385  0.630537  1
  Rh  Rh21  1  0.166615  0.833385  0.630537  1
  Rh  Rh22  1  0.833248  0.666495  0.130438  1
  Rh  Rh23  1  0.166615  0.833385  0.869463  1
