# generated using pymatgen
data_Eu2AlRh3
_symmetry_space_group_name_H-M   'P 1'
_cell_length_a   5.68751844
_cell_length_b   5.21026995
_cell_length_c   5.68751900
_cell_angle_alpha   56.92072025
_cell_angle_beta   59.99999091
_cell_angle_gamma   56.92073504
_symmetry_Int_Tables_number   1
_chemical_formula_structural   Eu2AlRh3
_chemical_formula_sum   'Eu2 Al1 Rh3'
_cell_volume   113.32477286
_cell_formula_units_Z   1
loop_
 _symmetry_equiv_pos_site_id
 _symmetry_equiv_pos_as_xyz
  1  'x, y, z'
loop_
 _atom_site_type_symbol
 _atom_site_label
 _atom_site_symmetry_multiplicity
 _atom_site_fract_x
 _atom_site_fract_y
 _atom_site_fract_z
 _atom_site_occupancy
  Eu  Eu0  1  0.252871  0.241385  0.252871  1
  Eu  Eu1  1  0.997129  0.008615  0.997129  1
  Al  Al2  1  0.625000  0.125000  0.625000  1
  Rh  Rh3  1  0.125000  0.625000  0.625000  1
  Rh  Rh4  1  0.625000  0.625000  0.125000  1
  Rh  Rh5  1  0.625000  0.625000  0.625000  1
