# generated using pymatgen
data_Ho20Ir3OsRh8
_symmetry_space_group_name_H-M   'P 1'
_cell_length_a   10.84619161
_cell_length_b   10.84236270
_cell_length_c   6.38508207
_cell_angle_alpha   89.98417643
_cell_angle_beta   90.00505537
_cell_angle_gamma   89.92071080
_symmetry_Int_Tables_number   1
_chemical_formula_structural   Ho20Ir3OsRh8
_chemical_formula_sum   'Ho20 Ir3 Os1 Rh8'
_cell_volume   750.87432239
_cell_formula_units_Z   1
loop_
 _symmetry_equiv_pos_site_id
 _symmetry_equiv_pos_as_xyz
  1  'x, y, z'
loop_
 _atom_site_type_symbol
 _atom_site_label
 _atom_site_symmetry_multiplicity
 _atom_site_fract_x
 _atom_site_fract_y
 _atom_site_fract_z
 _atom_site_occupancy
  Ho  Ho0  1  0.292758  0.088416  0.374633  1
  Ho  Ho1  1  0.293772  0.911470  0.880589  1
  Ho  Ho2  1  0.706506  0.087048  0.880669  1
  Ho  Ho3  1  0.707072  0.911437  0.374465  1
  Ho  Ho4  1  0.586232  0.792015  0.881684  1
  Ho  Ho5  1  0.586054  0.207874  0.374494  1
  Ho  Ho6  1  0.413581  0.791497  0.375360  1
  Ho  Ho7  1  0.412276  0.207327  0.881865  1
  Ho  Ho8  1  0.210575  0.412499  0.621201  1
  Ho  Ho9  1  0.210249  0.587003  0.121114  1
  Ho  Ho10  1  0.790370  0.413293  0.121730  1
  Ho  Ho11  1  0.790215  0.589114  0.620849  1
  Ho  Ho12  1  0.910629  0.708946  0.121598  1
  Ho  Ho13  1  0.911553  0.290915  0.622228  1
  Ho  Ho14  1  0.090004  0.708901  0.622321  1
  Ho  Ho15  1  0.089407  0.291137  0.121862  1
  Ho  Ho16  1  0.999879  0.999944  0.499212  1
  Ho  Ho17  1  0.000087  0.000144  0.999241  1
  Ho  Ho18  1  0.499701  0.500111  0.999028  1
  Ho  Ho19  1  0.499897  0.500213  0.499398  1
  Ir  Ir20  1  0.655207  0.652428  0.250559  1
  Ir  Ir21  1  0.345266  0.347093  0.250380  1
  Ir  Ir22  1  0.345213  0.653138  0.749886  1
  Os  Os23  1  0.500218  0.000453  0.125223  1
  Rh  Rh24  1  0.847646  0.154530  0.250664  1
  Rh  Rh25  1  0.848164  0.846586  0.750071  1
  Rh  Rh26  1  0.151659  0.153523  0.749854  1
  Rh  Rh27  1  0.151826  0.846128  0.250617  1
  Rh  Rh28  1  0.654825  0.346828  0.750032  1
  Rh  Rh29  1  0.500238  0.000516  0.623147  1
  Rh  Rh30  1  0.999381  0.499711  0.877616  1
  Rh  Rh31  1  0.999536  0.499762  0.378409  1
