# generated using pymatgen
data_NdDyErTaO7
_symmetry_space_group_name_H-M   'P 1'
_cell_length_a   6.49418323
_cell_length_b   6.48135632
_cell_length_c   7.59120300
_cell_angle_alpha   90.00000000
_cell_angle_beta   90.00000000
_cell_angle_gamma   109.32288302
_symmetry_Int_Tables_number   1
_chemical_formula_structural   NdDyErTaO7
_chemical_formula_sum   'Nd2 Dy2 Er2 Ta2 O14'
_cell_volume   301.52315713
_cell_formula_units_Z   2
loop_
 _symmetry_equiv_pos_site_id
 _symmetry_equiv_pos_as_xyz
  1  'x, y, z'
loop_
 _atom_site_type_symbol
 _atom_site_label
 _atom_site_symmetry_multiplicity
 _atom_site_fract_x
 _atom_site_fract_y
 _atom_site_fract_z
 _atom_site_occupancy
  Nd  Nd0  1  0.500000  0.500000  0.500000  1
  Nd  Nd1  1  0.500000  0.500000  0.000000  1
  Dy  Dy2  1  0.533333  0.000874  0.750000  1
  Dy  Dy3  1  0.466667  0.999126  0.250000  1
  Er  Er4  1  0.001117  0.533249  0.250000  1
  Er  Er5  1  0.998883  0.466751  0.750000  1
  Ta  Ta6  1  0.000000  0.000000  0.500000  1
  Ta  Ta7  1  0.000000  0.000000  0.000000  1
  O  O8  1  0.936909  0.067180  0.750000  1
  O  O9  1  0.063091  0.932820  0.250000  1
  O  O10  1  0.354995  0.641764  0.250000  1
  O  O11  1  0.645005  0.358236  0.750000  1
  O  O12  1  0.360301  0.633932  0.750000  1
  O  O13  1  0.639699  0.366068  0.250000  1
  O  O14  1  0.321000  0.072040  0.968144  1
  O  O15  1  0.679000  0.927960  0.468144  1
  O  O16  1  0.321000  0.072040  0.531856  1
  O  O17  1  0.679000  0.927960  0.031856  1
  O  O18  1  0.065934  0.319907  0.465753  1
  O  O19  1  0.934066  0.680093  0.965753  1
  O  O20  1  0.934066  0.680093  0.534247  1
  O  O21  1  0.065934  0.319907  0.034247  1
