# generated using pymatgen
data_Ho31Ni64
_symmetry_space_group_name_H-M   'P 1'
_cell_length_a   10.11902000
_cell_length_b   10.11901971
_cell_length_c   17.57307800
_cell_angle_alpha   73.26697399
_cell_angle_beta   90.00000000
_cell_angle_gamma   120.00000096
_symmetry_Int_Tables_number   1
_chemical_formula_structural   Ho31Ni64
_chemical_formula_sum   'Ho31 Ni64'
_cell_volume   1469.67824408
_cell_formula_units_Z   1
loop_
 _symmetry_equiv_pos_site_id
 _symmetry_equiv_pos_as_xyz
  1  'x, y, z'
loop_
 _atom_site_type_symbol
 _atom_site_label
 _atom_site_symmetry_multiplicity
 _atom_site_fract_x
 _atom_site_fract_y
 _atom_site_fract_z
 _atom_site_occupancy
  Ho  Ho0  1  0.499676  0.999351  0.000101  1
  Ho  Ho1  1  0.993051  0.986102  0.492944  1
  Ho  Ho2  1  0.750029  0.991172  0.258799  1
  Ho  Ho3  1  0.257836  0.993362  0.748801  1
  Ho  Ho4  1  0.000548  0.500223  0.000101  1
  Ho  Ho5  1  0.520953  0.514005  0.492944  1
  Ho  Ho6  1  0.750029  0.500057  0.258799  1
  Ho  Ho7  1  0.257836  0.515674  0.748801  1
  Ho  Ho8  1  0.499676  0.500223  0.000101  1
  Ho  Ho9  1  0.993051  0.514005  0.492944  1
  Ho  Ho10  1  0.241144  0.991172  0.258799  1
  Ho  Ho11  1  0.735526  0.993362  0.748801  1
  Ho  Ho12  1  0.438457  0.373669  0.187875  1
  Ho  Ho13  1  0.940223  0.373511  0.686266  1
  Ho  Ho14  1  0.438457  0.876913  0.187875  1
  Ho  Ho15  1  0.940223  0.880444  0.686266  1
  Ho  Ho16  1  0.186005  0.372011  0.441984  1
  Ho  Ho17  1  0.687809  0.375620  0.936571  1
  Ho  Ho18  1  0.935211  0.373669  0.187875  1
  Ho  Ho19  1  0.433289  0.373511  0.686266  1
  Ho  Ho20  1  0.646123  0.901947  0.451929  1
  Ho  Ho21  1  0.187305  0.876238  0.936457  1
  Ho  Ho22  1  0.646123  0.292248  0.451929  1
  Ho  Ho23  1  0.187305  0.374610  0.936457  1
  Ho  Ho24  1  0.937406  0.874812  0.187781  1
  Ho  Ho25  1  0.451847  0.903693  0.644460  1
  Ho  Ho26  1  0.255823  0.901947  0.451929  1
  Ho  Ho27  1  0.688933  0.876238  0.936457  1
  Ho  Ho28  1  0.249281  0.498561  0.252158  1
  Ho  Ho29  1  0.750614  0.501228  0.748158  1
  Ho  Ho30  1  0.999784  0.999569  0.000646  1
  Ni  Ni31  1  0.968885  0.187663  0.343790  1
  Ni  Ni32  1  0.468604  0.187504  0.843726  1
  Ni  Ni33  1  0.468548  0.687325  0.343790  1
  Ni  Ni34  1  0.968771  0.687672  0.843726  1
  Ni  Ni35  1  0.218648  0.687422  0.093929  1
  Ni  Ni36  1  0.718904  0.687452  0.593644  1
  Ni  Ni37  1  0.968885  0.437433  0.343790  1
  Ni  Ni38  1  0.468604  0.437374  0.843726  1
  Ni  Ni39  1  0.218648  0.437297  0.093929  1
  Ni  Ni40  1  0.718904  0.437808  0.593644  1
  Ni  Ni41  1  0.468548  0.437433  0.343790  1
  Ni  Ni42  1  0.968771  0.437374  0.843726  1
  Ni  Ni43  1  0.594155  0.687768  0.218620  1
  Ni  Ni44  1  0.093911  0.687698  0.718514  1
  Ni  Ni45  1  0.093612  0.187224  0.218620  1
  Ni  Ni46  1  0.593788  0.187575  0.718514  1
  Ni  Ni47  1  0.093612  0.687768  0.218620  1
  Ni  Ni48  1  0.593788  0.687698  0.718514  1
  Ni  Ni49  1  0.468774  0.687422  0.093929  1
  Ni  Ni50  1  0.968548  0.687452  0.593644  1
  Ni  Ni51  1  0.218778  0.687325  0.343790  1
  Ni  Ni52  1  0.718901  0.687672  0.843726  1
  Ni  Ni53  1  0.218778  0.187663  0.343790  1
  Ni  Ni54  1  0.718901  0.187504  0.843726  1
  Ni  Ni55  1  0.967701  0.687979  0.344320  1
  Ni  Ni56  1  0.468236  0.688753  0.843012  1
  Ni  Ni57  1  0.967701  0.935402  0.344320  1
  Ni  Ni58  1  0.468236  0.936471  0.843012  1
  Ni  Ni59  1  0.844282  0.688564  0.467154  1
  Ni  Ni60  1  0.343772  0.687544  0.968684  1
  Ni  Ni61  1  0.720278  0.687979  0.344320  1
  Ni  Ni62  1  0.220517  0.688753  0.843012  1
  Ni  Ni63  1  0.719300  0.187010  0.093691  1
  Ni  Ni64  1  0.216742  0.188424  0.594835  1
  Ni  Ni65  1  0.719300  0.438599  0.093691  1
  Ni  Ni66  1  0.216742  0.433484  0.594835  1
  Ni  Ni67  1  0.594678  0.189356  0.215966  1
  Ni  Ni68  1  0.093105  0.186210  0.720685  1
  Ni  Ni69  1  0.467710  0.187010  0.093691  1
  Ni  Ni70  1  0.971683  0.188424  0.594835  1
  Ni  Ni71  1  0.719356  0.687319  0.094201  1
  Ni  Ni72  1  0.209781  0.673734  0.595599  1
  Ni  Ni73  1  0.218480  0.186443  0.094201  1
  Ni  Ni74  1  0.730667  0.194619  0.595599  1
  Ni  Ni75  1  0.470207  0.192422  0.337370  1
  Ni  Ni76  1  0.968880  0.187547  0.843573  1
  Ni  Ni77  1  0.719356  0.937838  0.094201  1
  Ni  Ni78  1  0.209781  0.940449  0.595599  1
  Ni  Ni79  1  0.470207  0.940416  0.337370  1
  Ni  Ni80  1  0.968880  0.937760  0.843573  1
  Ni  Ni81  1  0.218480  0.937838  0.094201  1
  Ni  Ni82  1  0.730667  0.940449  0.595599  1
  Ni  Ni83  1  0.856596  0.193051  0.470493  1
  Ni  Ni84  1  0.343305  0.187263  0.968781  1
  Ni  Ni85  1  0.336456  0.672911  0.470493  1
  Ni  Ni86  1  0.843957  0.687914  0.968781  1
  Ni  Ni87  1  0.336456  0.193051  0.470493  1
  Ni  Ni88  1  0.843957  0.187263  0.968781  1
  Ni  Ni89  1  0.722215  0.192422  0.337370  1
  Ni  Ni90  1  0.218666  0.187547  0.843573  1
  Ni  Ni91  1  0.967962  0.186443  0.094201  1
  Ni  Ni92  1  0.463952  0.194619  0.595599  1
  Ni  Ni93  1  0.967962  0.687319  0.094201  1
  Ni  Ni94  1  0.463952  0.673734  0.595599  1
