# generated using pymatgen
data_TlRu3PtPb3O13
_symmetry_space_group_name_H-M   'P 1'
_cell_length_a   7.36957764
_cell_length_b   7.34421179
_cell_length_c   7.39277500
_cell_angle_alpha   59.78102439
_cell_angle_beta   59.89582406
_cell_angle_gamma   59.69653529
_symmetry_Int_Tables_number   1
_chemical_formula_structural   TlRu3PtPb3O13
_chemical_formula_sum   'Tl1 Ru3 Pt1 Pb3 O13'
_cell_volume   281.58749571
_cell_formula_units_Z   1
loop_
 _symmetry_equiv_pos_site_id
 _symmetry_equiv_pos_as_xyz
  1  'x, y, z'
loop_
 _atom_site_type_symbol
 _atom_site_label
 _atom_site_symmetry_multiplicity
 _atom_site_fract_x
 _atom_site_fract_y
 _atom_site_fract_z
 _atom_site_occupancy
  Tl  Tl0  1  0.884457  0.371990  0.371777  1
  Ru  Ru1  1  0.873916  0.876619  0.374038  1
  Ru  Ru2  1  0.873916  0.876619  0.875426  1
  Ru  Ru3  1  0.375148  0.875988  0.874431  1
  Pt  Pt4  1  0.874573  0.375442  0.874992  1
  Pb  Pb5  1  0.371077  0.375960  0.374427  1
  Pb  Pb6  1  0.371077  0.375960  0.878537  1
  Pb  Pb7  1  0.368438  0.880275  0.375644  1
  O  O8  1  0.198651  0.805702  0.798284  1
  O  O9  1  0.198651  0.805702  0.197362  1
  O  O10  1  0.557983  0.936041  0.947156  1
  O  O11  1  0.557983  0.936041  0.558820  1
  O  O12  1  0.949270  0.940582  0.555074  1
  O  O13  1  0.801913  0.809110  0.194488  1
  O  O14  1  0.543648  0.550838  0.952757  1
  O  O15  1  0.797946  0.198680  0.798499  1
  O  O16  1  0.797946  0.198680  0.204874  1
  O  O17  1  0.954206  0.553057  0.947444  1
  O  O18  1  0.954206  0.553057  0.545292  1
  O  O19  1  0.206881  0.199297  0.796911  1
  O  O20  1  0.488109  0.504359  0.503766  1
