# generated using pymatgen
data_Li3La2P12Ir16Ru3
_symmetry_space_group_name_H-M   'P 1'
_cell_length_a   12.63238303
_cell_length_b   12.60166726
_cell_length_c   3.98377400
_cell_angle_alpha   90.00000000
_cell_angle_beta   90.00000000
_cell_angle_gamma   119.91959749
_symmetry_Int_Tables_number   1
_chemical_formula_structural   Li3La2P12Ir16Ru3
_chemical_formula_sum   'Li3 La2 P12 Ir16 Ru3'
_cell_volume   549.65465373
_cell_formula_units_Z   1
loop_
 _symmetry_equiv_pos_site_id
 _symmetry_equiv_pos_as_xyz
  1  'x, y, z'
loop_
 _atom_site_type_symbol
 _atom_site_label
 _atom_site_symmetry_multiplicity
 _atom_site_fract_x
 _atom_site_fract_y
 _atom_site_fract_z
 _atom_site_occupancy
  Li  Li0  1  0.000000  0.815483  0.500000  1
  Li  Li1  1  0.334530  0.667245  0.000000  1
  Li  Li2  1  0.665470  0.332714  0.000000  1
  La  La3  1  0.180769  0.178618  0.500000  1
  La  La4  1  0.819231  0.997849  0.500000  1
  P  P5  1  0.000000  0.187252  0.000000  1
  P  P6  1  0.818960  0.810774  0.000000  1
  P  P7  1  0.181040  0.991815  0.000000  1
  P  P8  1  0.514265  0.690436  0.500000  1
  P  P9  1  0.309723  0.822265  0.500000  1
  P  P10  1  0.177768  0.489889  0.500000  1
  P  P11  1  0.485735  0.176170  0.500000  1
  P  P12  1  0.690277  0.512542  0.500000  1
  P  P13  1  0.822232  0.312122  0.500000  1
  P  P14  1  0.000000  0.639430  0.000000  1
  P  P15  1  0.365604  0.365681  0.000000  1
  P  P16  1  0.634396  0.000077  0.000000  1
  Ir  Ir17  1  0.619902  0.801112  0.000000  1
  Ir  Ir18  1  0.195883  0.814661  0.000000  1
  Ir  Ir19  1  0.182306  0.381611  0.000000  1
  Ir  Ir20  1  0.380098  0.181210  0.000000  1
  Ir  Ir21  1  0.804117  0.618778  0.000000  1
  Ir  Ir22  1  0.817694  0.199306  0.000000  1
  Ir  Ir23  1  0.507950  0.870803  0.500000  1
  Ir  Ir24  1  0.128827  0.638615  0.500000  1
  Ir  Ir25  1  0.361989  0.493992  0.500000  1
  Ir  Ir26  1  0.492050  0.362853  0.500000  1
  Ir  Ir27  1  0.871173  0.509788  0.500000  1
  Ir  Ir28  1  0.638011  0.132001  0.500000  1
  Ir  Ir29  1  0.000000  0.997887  0.000000  1
  Ir  Ir30  1  0.000000  0.457047  0.000000  1
  Ir  Ir31  1  0.544301  0.546492  0.000000  1
  Ir  Ir32  1  0.455699  0.002191  0.000000  1
  Ru  Ru33  1  0.000000  0.296968  0.500000  1
  Ru  Ru34  1  0.706178  0.705250  0.500000  1
  Ru  Ru35  1  0.293822  0.999072  0.500000  1
