# generated using pymatgen
data_Zr4Mn2Al2CrOs3
_symmetry_space_group_name_H-M   'P 1'
_cell_length_a   5.15082803
_cell_length_b   5.19939044
_cell_length_c   8.46451700
_cell_angle_alpha   90.00000000
_cell_angle_beta   90.00000000
_cell_angle_gamma   120.65626690
_symmetry_Int_Tables_number   1
_chemical_formula_structural   Zr4Mn2Al2CrOs3
_chemical_formula_sum   'Zr4 Mn2 Al2 Cr1 Os3'
_cell_volume   195.00787967
_cell_formula_units_Z   1
loop_
 _symmetry_equiv_pos_site_id
 _symmetry_equiv_pos_as_xyz
  1  'x, y, z'
loop_
 _atom_site_type_symbol
 _atom_site_label
 _atom_site_symmetry_multiplicity
 _atom_site_fract_x
 _atom_site_fract_y
 _atom_site_fract_z
 _atom_site_occupancy
  Zr  Zr0  1  0.333967  0.664757  0.188965  1
  Zr  Zr1  1  0.664329  0.327954  0.313789  1
  Zr  Zr2  1  0.664329  0.327954  0.686211  1
  Zr  Zr3  1  0.333967  0.664757  0.811035  1
  Mn  Mn4  1  0.670539  0.837751  0.500000  1
  Mn  Mn5  1  0.165911  0.841956  0.500000  1
  Al  Al6  1  0.826543  0.164397  0.000000  1
  Al  Al7  1  0.176964  0.358067  0.500000  1
  Cr  Cr8  1  0.334264  0.166004  0.000000  1
  Os  Os9  1  0.006303  0.998050  0.254267  1
  Os  Os10  1  0.006303  0.998050  0.745733  1
  Os  Os11  1  0.818631  0.648251  0.000000  1
