# generated using pymatgen
data_Dy3Ho(Si5Pt3)2
_symmetry_space_group_name_H-M   'P 1'
_cell_length_a   8.15156014
_cell_length_b   8.14913353
_cell_length_c   8.14913430
_cell_angle_alpha   136.29211416
_cell_angle_beta   104.67124827
_cell_angle_gamma   91.36221611
_symmetry_Int_Tables_number   1
_chemical_formula_structural   Dy3Ho(Si5Pt3)2
_chemical_formula_sum   'Dy3 Ho1 Si10 Pt6'
_cell_volume   344.09257100
_cell_formula_units_Z   1
loop_
 _symmetry_equiv_pos_site_id
 _symmetry_equiv_pos_as_xyz
  1  'x, y, z'
loop_
 _atom_site_type_symbol
 _atom_site_label
 _atom_site_symmetry_multiplicity
 _atom_site_fract_x
 _atom_site_fract_y
 _atom_site_fract_z
 _atom_site_occupancy
  Dy  Dy0  1  0.641282  0.370406  0.270876  1
  Dy  Dy1  1  0.358850  0.629655  0.729195  1
  Dy  Dy2  1  0.099586  0.870306  0.229280  1
  Ho  Ho3  1  0.900068  0.129580  0.770487  1
  Si  Si4  1  0.271965  0.521733  0.249691  1
  Si  Si5  1  0.728098  0.477840  0.749978  1
  Si  Si6  1  0.728098  0.978121  0.250258  1
  Si  Si7  1  0.271965  0.022274  0.750232  1
  Si  Si8  1  0.460626  0.111900  0.348727  1
  Si  Si9  1  0.539282  0.887935  0.651347  1
  Si  Si10  1  0.763491  0.611998  0.151493  1
  Si  Si11  1  0.236534  0.388031  0.848503  1
  Si  Si12  1  0.000015  0.249623  0.249453  1
  Si  Si13  1  0.000015  0.750562  0.750392  1
  Pt  Pt14  1  0.250002  0.137518  0.112483  1
  Pt  Pt15  1  0.750107  0.862511  0.887596  1
  Pt  Pt16  1  0.025199  0.637425  0.387774  1
  Pt  Pt17  1  0.974979  0.362653  0.612326  1
  Pt  Pt18  1  0.499919  0.250019  0.750008  1
  Pt  Pt19  1  0.499919  0.749910  0.249899  1
