# generated using pymatgen
data_ErTm2U2O10
_symmetry_space_group_name_H-M   'P 1'
_cell_length_a   6.40665010
_cell_length_b   6.40664915
_cell_length_c   8.29384354
_cell_angle_alpha   51.48122944
_cell_angle_beta   51.48123468
_cell_angle_gamma   48.96885628
_symmetry_Int_Tables_number   1
_chemical_formula_structural   ErTm2U2O10
_chemical_formula_sum   'Er1 Tm2 U2 O10'
_cell_volume   187.25560410
_cell_formula_units_Z   1
loop_
 _symmetry_equiv_pos_site_id
 _symmetry_equiv_pos_as_xyz
  1  'x, y, z'
loop_
 _atom_site_type_symbol
 _atom_site_label
 _atom_site_symmetry_multiplicity
 _atom_site_fract_x
 _atom_site_fract_y
 _atom_site_fract_z
 _atom_site_occupancy
  Er  Er0  1  0.500000  0.500000  0.000000  1
  Tm  Tm1  1  0.102835  0.102835  0.595911  1
  Tm  Tm2  1  0.897165  0.897165  0.404089  1
  U  U3  1  0.302203  0.302203  0.794384  1
  U  U4  1  0.697797  0.697797  0.205616  1
  O  O5  1  0.552463  0.040888  0.293254  1
  O  O6  1  0.959112  0.447537  0.706746  1
  O  O7  1  0.040888  0.552463  0.293254  1
  O  O8  1  0.353611  0.853407  0.106508  1
  O  O9  1  0.447537  0.959112  0.706746  1
  O  O10  1  0.738334  0.261666  0.500000  1
  O  O11  1  0.853407  0.353611  0.106508  1
  O  O12  1  0.146593  0.646389  0.893492  1
  O  O13  1  0.261666  0.738334  0.500000  1
  O  O14  1  0.646389  0.146593  0.893492  1
