# generated using pymatgen
data_Sc12Co4SnPt
_symmetry_space_group_name_H-M   'P 1'
_cell_length_a   7.73048580
_cell_length_b   7.73048641
_cell_length_c   7.73048565
_cell_angle_alpha   111.40914386
_cell_angle_beta   110.76552655
_cell_angle_gamma   106.28587197
_symmetry_Int_Tables_number   1
_chemical_formula_structural   Sc12Co4SnPt
_chemical_formula_sum   'Sc12 Co4 Sn1 Pt1'
_cell_volume   354.79971358
_cell_formula_units_Z   1
loop_
 _symmetry_equiv_pos_site_id
 _symmetry_equiv_pos_as_xyz
  1  'x, y, z'
loop_
 _atom_site_type_symbol
 _atom_site_label
 _atom_site_symmetry_multiplicity
 _atom_site_fract_x
 _atom_site_fract_y
 _atom_site_fract_z
 _atom_site_occupancy
  Sc  Sc0  1  0.426556  0.226315  0.200241  1
  Sc  Sc1  1  0.573444  0.773685  0.799759  1
  Sc  Sc2  1  0.026075  0.226315  0.799759  1
  Sc  Sc3  1  0.973925  0.773685  0.200241  1
  Sc  Sc4  1  0.185091  0.282083  0.467174  1
  Sc  Sc5  1  0.814909  0.717917  0.532826  1
  Sc  Sc6  1  0.185091  0.717917  0.903008  1
  Sc  Sc7  1  0.814909  0.282083  0.096992  1
  Sc  Sc8  1  0.322339  0.629896  0.307556  1
  Sc  Sc9  1  0.677661  0.370104  0.692444  1
  Sc  Sc10  1  0.322339  0.014782  0.692444  1
  Sc  Sc11  1  0.677661  0.985218  0.307556  1
  Co  Co12  1  0.348433  0.000000  0.348433  1
  Co  Co13  1  0.651567  0.000000  0.651567  1
  Co  Co14  1  0.119075  0.619075  0.500000  1
  Co  Co15  1  0.880925  0.380925  0.500000  1
  Sn  Sn16  1  0.500000  0.500000  0.000000  1
  Pt  Pt17  1  0.000000  0.000000  0.000000  1
