# generated using pymatgen
data_Dy2ZrScPt2
_symmetry_space_group_name_H-M   'P 1'
_cell_length_a   4.67785400
_cell_length_b   7.03640800
_cell_length_c   8.32523800
_cell_angle_alpha   90.00000000
_cell_angle_beta   90.00000000
_cell_angle_gamma   90.00000000
_symmetry_Int_Tables_number   1
_chemical_formula_structural   Dy2ZrScPt2
_chemical_formula_sum   'Dy4 Zr2 Sc2 Pt4'
_cell_volume   274.02761733
_cell_formula_units_Z   2
loop_
 _symmetry_equiv_pos_site_id
 _symmetry_equiv_pos_as_xyz
  1  'x, y, z'
loop_
 _atom_site_type_symbol
 _atom_site_label
 _atom_site_symmetry_multiplicity
 _atom_site_fract_x
 _atom_site_fract_y
 _atom_site_fract_z
 _atom_site_occupancy
  Dy  Dy0  1  0.250000  0.983135  0.323229  1
  Dy  Dy1  1  0.250000  0.483135  0.176771  1
  Dy  Dy2  1  0.750000  0.019178  0.676731  1
  Dy  Dy3  1  0.750000  0.519178  0.823269  1
  Zr  Zr4  1  0.750000  0.641268  0.425800  1
  Zr  Zr5  1  0.750000  0.141268  0.074200  1
  Sc  Sc6  1  0.250000  0.357009  0.577531  1
  Sc  Sc7  1  0.250000  0.857009  0.922469  1
  Pt  Pt8  1  0.250000  0.238127  0.905927  1
  Pt  Pt9  1  0.250000  0.738127  0.594073  1
  Pt  Pt10  1  0.750000  0.761283  0.098424  1
  Pt  Pt11  1  0.750000  0.261283  0.401576  1
