# generated using pymatgen
data_Tb5Co(P2Ru3)6
_symmetry_space_group_name_H-M   'P 1'
_cell_length_a   12.51540800
_cell_length_b   12.51540777
_cell_length_c   3.98151400
_cell_angle_alpha   90.00000000
_cell_angle_beta   90.00000000
_cell_angle_gamma   120.00000061
_symmetry_Int_Tables_number   1
_chemical_formula_structural   Tb5Co(P2Ru3)6
_chemical_formula_sum   'Tb5 Co1 P12 Ru18'
_cell_volume   540.09342756
_cell_formula_units_Z   1
loop_
 _symmetry_equiv_pos_site_id
 _symmetry_equiv_pos_as_xyz
  1  'x, y, z'
loop_
 _atom_site_type_symbol
 _atom_site_label
 _atom_site_symmetry_multiplicity
 _atom_site_fract_x
 _atom_site_fract_y
 _atom_site_fract_z
 _atom_site_occupancy
  Tb  Tb0  1  0.333333  0.666667  0.000000  1
  Tb  Tb1  1  0.666667  0.333333  0.000000  1
  Tb  Tb2  1  0.182460  0.000000  0.500000  1
  Tb  Tb3  1  0.000000  0.182460  0.500000  1
  Tb  Tb4  1  0.817540  0.817540  0.500000  1
  Co  Co5  1  0.000000  0.000000  0.000000  1
  P  P6  1  0.372479  0.000000  0.000000  1
  P  P7  1  0.000000  0.372479  0.000000  1
  P  P8  1  0.627521  0.627521  0.000000  1
  P  P9  1  0.307023  0.476346  0.500000  1
  P  P10  1  0.523654  0.830677  0.500000  1
  P  P11  1  0.169323  0.692977  0.500000  1
  P  P12  1  0.830677  0.523654  0.500000  1
  P  P13  1  0.692977  0.169323  0.500000  1
  P  P14  1  0.476346  0.307023  0.500000  1
  P  P15  1  0.822166  0.000000  0.000000  1
  P  P16  1  0.000000  0.822166  0.000000  1
  P  P17  1  0.177834  0.177834  0.000000  1
  Ru  Ru18  1  0.191612  0.375265  0.000000  1
  Ru  Ru19  1  0.624735  0.816346  0.000000  1
  Ru  Ru20  1  0.183654  0.808388  0.000000  1
  Ru  Ru21  1  0.816346  0.624735  0.000000  1
  Ru  Ru22  1  0.808388  0.183654  0.000000  1
  Ru  Ru23  1  0.375265  0.191612  0.000000  1
  Ru  Ru24  1  0.555467  0.000000  0.000000  1
  Ru  Ru25  1  0.000000  0.555467  0.000000  1
  Ru  Ru26  1  0.444533  0.444533  0.000000  1
  Ru  Ru27  1  0.125987  0.490840  0.500000  1
  Ru  Ru28  1  0.509160  0.635146  0.500000  1
  Ru  Ru29  1  0.364854  0.874013  0.500000  1
  Ru  Ru30  1  0.635146  0.509160  0.500000  1
  Ru  Ru31  1  0.874013  0.364854  0.500000  1
  Ru  Ru32  1  0.490840  0.125987  0.500000  1
  Ru  Ru33  1  0.719777  0.000000  0.500000  1
  Ru  Ru34  1  0.000000  0.719777  0.500000  1
  Ru  Ru35  1  0.280223  0.280223  0.500000  1
