# generated using pymatgen
data_Yb5DyPa2(Pt2Pb)4
_symmetry_space_group_name_H-M   'P 1'
_cell_length_a   7.91567946
_cell_length_b   7.91567961
_cell_length_c   7.30829800
_cell_angle_alpha   90.00000000
_cell_angle_beta   90.00000000
_cell_angle_gamma   92.57260332
_symmetry_Int_Tables_number   1
_chemical_formula_structural   Yb5DyPa2(Pt2Pb)4
_chemical_formula_sum   'Yb5 Dy1 Pa2 Pt8 Pb4'
_cell_volume   457.46168869
_cell_formula_units_Z   1
loop_
 _symmetry_equiv_pos_site_id
 _symmetry_equiv_pos_as_xyz
  1  'x, y, z'
loop_
 _atom_site_type_symbol
 _atom_site_label
 _atom_site_symmetry_multiplicity
 _atom_site_fract_x
 _atom_site_fract_y
 _atom_site_fract_z
 _atom_site_occupancy
  Yb  Yb0  1  0.663632  0.664182  0.000000  1
  Yb  Yb1  1  0.335818  0.336368  0.000000  1
  Yb  Yb2  1  0.166865  0.833135  0.500000  1
  Yb  Yb3  1  0.830994  0.169006  0.000000  1
  Yb  Yb4  1  0.169766  0.830234  0.000000  1
  Dy  Dy5  1  0.833642  0.166358  0.500000  1
  Pa  Pa6  1  0.326246  0.328170  0.500000  1
  Pa  Pa7  1  0.671830  0.673754  0.500000  1
  Pt  Pt8  1  0.866291  0.867669  0.739036  1
  Pt  Pt9  1  0.132331  0.133709  0.739036  1
  Pt  Pt10  1  0.627244  0.372756  0.727496  1
  Pt  Pt11  1  0.627244  0.372756  0.272504  1
  Pt  Pt12  1  0.377363  0.622637  0.271435  1
  Pt  Pt13  1  0.132331  0.133709  0.260964  1
  Pt  Pt14  1  0.866291  0.867669  0.260964  1
  Pt  Pt15  1  0.377363  0.622637  0.728565  1
  Pb  Pb16  1  0.496846  0.999471  0.757419  1
  Pb  Pb17  1  0.496846  0.999471  0.242581  1
  Pb  Pb18  1  0.000529  0.503154  0.757419  1
  Pb  Pb19  1  0.000529  0.503154  0.242581  1
