# generated using pymatgen
data_Ti3Mn3SiGeP
_symmetry_space_group_name_H-M   'P 1'
_cell_length_a   6.47621900
_cell_length_b   6.47621910
_cell_length_c   3.24314600
_cell_angle_alpha   90.00000000
_cell_angle_beta   90.00000000
_cell_angle_gamma   120.00000460
_symmetry_Int_Tables_number   1
_chemical_formula_structural   Ti3Mn3SiGeP
_chemical_formula_sum   'Ti3 Mn3 Si1 Ge1 P1'
_cell_volume   117.79861146
_cell_formula_units_Z   1
loop_
 _symmetry_equiv_pos_site_id
 _symmetry_equiv_pos_as_xyz
  1  'x, y, z'
loop_
 _atom_site_type_symbol
 _atom_site_label
 _atom_site_symmetry_multiplicity
 _atom_site_fract_x
 _atom_site_fract_y
 _atom_site_fract_z
 _atom_site_occupancy
  Ti  Ti0  1  0.601942  0.014062  0.000000  1
  Ti  Ti1  1  0.985938  0.587881  0.000000  1
  Ti  Ti2  1  0.412119  0.398058  0.000000  1
  Mn  Mn3  1  0.259919  0.010578  0.500000  1
  Mn  Mn4  1  0.989422  0.249341  0.500000  1
  Mn  Mn5  1  0.750659  0.740081  0.500000  1
  Si  Si6  1  0.000000  0.000000  0.000000  1
  Ge  Ge7  1  0.333333  0.666667  0.500000  1
  P  P8  1  0.666667  0.333333  0.500000  1
