# generated using pymatgen
data_Dy3Tm6ScCd3Ru
_symmetry_space_group_name_H-M   'P 1'
_cell_length_a   9.44439900
_cell_length_b   9.44439835
_cell_length_c   9.67523000
_cell_angle_alpha   90.00000000
_cell_angle_beta   90.00000000
_cell_angle_gamma   119.99999876
_symmetry_Int_Tables_number   1
_chemical_formula_structural   Dy3Tm6ScCd3Ru
_chemical_formula_sum   'Dy6 Tm12 Sc2 Cd6 Ru2'
_cell_volume   747.37842795
_cell_formula_units_Z   2
loop_
 _symmetry_equiv_pos_site_id
 _symmetry_equiv_pos_as_xyz
  1  'x, y, z'
loop_
 _atom_site_type_symbol
 _atom_site_label
 _atom_site_symmetry_multiplicity
 _atom_site_fract_x
 _atom_site_fract_y
 _atom_site_fract_z
 _atom_site_occupancy
  Dy  Dy0  1  0.540145  0.459855  0.250000  1
  Dy  Dy1  1  0.540145  0.080292  0.250000  1
  Dy  Dy2  1  0.919708  0.459855  0.250000  1
  Dy  Dy3  1  0.459855  0.540145  0.750000  1
  Dy  Dy4  1  0.459855  0.919708  0.750000  1
  Dy  Dy5  1  0.080292  0.540145  0.750000  1
  Tm  Tm6  1  0.209141  0.790859  0.441018  1
  Tm  Tm7  1  0.209141  0.418285  0.441018  1
  Tm  Tm8  1  0.581715  0.790859  0.441018  1
  Tm  Tm9  1  0.790859  0.209141  0.558982  1
  Tm  Tm10  1  0.790859  0.581715  0.558982  1
  Tm  Tm11  1  0.418285  0.209141  0.558982  1
  Tm  Tm12  1  0.790859  0.209141  0.941018  1
  Tm  Tm13  1  0.790859  0.581715  0.941018  1
  Tm  Tm14  1  0.418285  0.209141  0.941018  1
  Tm  Tm15  1  0.209141  0.790859  0.058982  1
  Tm  Tm16  1  0.209141  0.418285  0.058982  1
  Tm  Tm17  1  0.581715  0.790859  0.058982  1
  Sc  Sc18  1  0.000000  0.000000  0.500000  1
  Sc  Sc19  1  0.000000  0.000000  0.000000  1
  Cd  Cd20  1  0.889036  0.110964  0.250000  1
  Cd  Cd21  1  0.889036  0.778072  0.250000  1
  Cd  Cd22  1  0.221928  0.110964  0.250000  1
  Cd  Cd23  1  0.110964  0.889036  0.750000  1
  Cd  Cd24  1  0.110964  0.221928  0.750000  1
  Cd  Cd25  1  0.778072  0.889036  0.750000  1
  Ru  Ru26  1  0.333333  0.666667  0.250000  1
  Ru  Ru27  1  0.666667  0.333333  0.750000  1
