# generated using pymatgen
data_CuAg(PtO3)2
_symmetry_space_group_name_H-M   'P 1'
_cell_length_a   6.29181449
_cell_length_b   6.29181446
_cell_length_c   3.18957100
_cell_angle_alpha   90.00000000
_cell_angle_beta   90.00000000
_cell_angle_gamma   110.16917041
_symmetry_Int_Tables_number   1
_chemical_formula_structural   CuAg(PtO3)2
_chemical_formula_sum   'Cu1 Ag1 Pt2 O6'
_cell_volume   118.52256643
_cell_formula_units_Z   1
loop_
 _symmetry_equiv_pos_site_id
 _symmetry_equiv_pos_as_xyz
  1  'x, y, z'
loop_
 _atom_site_type_symbol
 _atom_site_label
 _atom_site_symmetry_multiplicity
 _atom_site_fract_x
 _atom_site_fract_y
 _atom_site_fract_z
 _atom_site_occupancy
  Cu  Cu0  1  0.000000  0.000000  0.000000  1
  Ag  Ag1  1  0.500000  0.500000  0.000000  1
  Pt  Pt2  1  0.500000  0.000000  0.500000  1
  Pt  Pt3  1  0.000000  0.500000  0.500000  1
  O  O4  1  0.065045  0.325964  0.000000  1
  O  O5  1  0.934955  0.674036  0.000000  1
  O  O6  1  0.325964  0.065045  0.000000  1
  O  O7  1  0.674036  0.934955  0.000000  1
  O  O8  1  0.658844  0.341156  0.500000  1
  O  O9  1  0.341156  0.658844  0.500000  1
