# generated using pymatgen
data_Li8Dy7YSn3Bi5
_symmetry_space_group_name_H-M   'P 1'
_cell_length_a   9.57953198
_cell_length_b   9.57953154
_cell_length_c   7.17668808
_cell_angle_alpha   90.11443632
_cell_angle_beta   89.88555953
_cell_angle_gamma   119.95270110
_symmetry_Int_Tables_number   1
_chemical_formula_structural   Li8Dy7YSn3Bi5
_chemical_formula_sum   'Li8 Dy7 Y1 Sn3 Bi5'
_cell_volume   570.62251580
_cell_formula_units_Z   1
loop_
 _symmetry_equiv_pos_site_id
 _symmetry_equiv_pos_as_xyz
  1  'x, y, z'
loop_
 _atom_site_type_symbol
 _atom_site_label
 _atom_site_symmetry_multiplicity
 _atom_site_fract_x
 _atom_site_fract_y
 _atom_site_fract_z
 _atom_site_occupancy
  Li  Li0  1  0.169653  0.830347  0.201012  1
  Li  Li1  1  0.337573  0.168076  0.705307  1
  Li  Li2  1  0.831924  0.662427  0.705307  1
  Li  Li3  1  0.165370  0.336163  0.209425  1
  Li  Li4  1  0.663837  0.834630  0.209425  1
  Li  Li5  1  0.830587  0.169413  0.699997  1
  Li  Li6  1  0.332575  0.667425  0.809808  1
  Li  Li7  1  0.668676  0.331324  0.306808  1
  Dy  Dy8  1  0.510259  0.489741  0.991224  1
  Dy  Dy9  1  0.019782  0.506837  0.487287  1
  Dy  Dy10  1  0.493163  0.980218  0.487287  1
  Dy  Dy11  1  0.517514  0.025178  0.992354  1
  Dy  Dy12  1  0.974822  0.482486  0.992354  1
  Dy  Dy13  1  0.489873  0.510127  0.490234  1
  Dy  Dy14  1  0.996892  0.003108  0.984363  1
  Y  Y15  1  0.997547  0.002453  0.479265  1
  Sn  Sn16  1  0.833656  0.166344  0.248760  1
  Sn  Sn17  1  0.333985  0.666015  0.225844  1
  Sn  Sn18  1  0.665942  0.334058  0.725503  1
  Bi  Bi19  1  0.166278  0.833722  0.748705  1
  Bi  Bi20  1  0.333016  0.166627  0.247314  1
  Bi  Bi21  1  0.833373  0.666984  0.247314  1
  Bi  Bi22  1  0.166899  0.333196  0.747554  1
  Bi  Bi23  1  0.666804  0.833101  0.747554  1
