# generated using pymatgen
data_Ce4CdIr3PtPb
_symmetry_space_group_name_H-M   'P 1'
_cell_length_a   7.82736166
_cell_length_b   7.83115855
_cell_length_c   3.69324500
_cell_angle_alpha   90.00000000
_cell_angle_beta   90.00000000
_cell_angle_gamma   90.37755378
_symmetry_Int_Tables_number   1
_chemical_formula_structural   Ce4CdIr3PtPb
_chemical_formula_sum   'Ce4 Cd1 Ir3 Pt1 Pb1'
_cell_volume   226.38106916
_cell_formula_units_Z   1
loop_
 _symmetry_equiv_pos_site_id
 _symmetry_equiv_pos_as_xyz
  1  'x, y, z'
loop_
 _atom_site_type_symbol
 _atom_site_label
 _atom_site_symmetry_multiplicity
 _atom_site_fract_x
 _atom_site_fract_y
 _atom_site_fract_z
 _atom_site_occupancy
  Ce  Ce0  1  0.159368  0.338898  0.500000  1
  Ce  Ce1  1  0.333125  0.825604  0.500000  1
  Ce  Ce2  1  0.831487  0.671860  0.500000  1
  Ce  Ce3  1  0.677140  0.164501  0.500000  1
  Cd  Cd4  1  0.001786  0.999702  0.000000  1
  Ir  Ir5  1  0.634757  0.871191  0.000000  1
  Ir  Ir6  1  0.129415  0.637039  0.000000  1
  Ir  Ir7  1  0.868162  0.363687  0.000000  1
  Pt  Pt8  1  0.363510  0.128579  0.000000  1
  Pb  Pb9  1  0.501252  0.498938  0.000000  1
