# generated using pymatgen
data_LaRe3Si2Mo
_symmetry_space_group_name_H-M   'P 1'
_cell_length_a   8.00785745
_cell_length_b   7.09160742
_cell_length_c   4.23512500
_cell_angle_alpha   90.00000000
_cell_angle_beta   90.00000000
_cell_angle_gamma   89.65541679
_symmetry_Int_Tables_number   1
_chemical_formula_structural   LaRe3Si2Mo
_chemical_formula_sum   'La2 Re6 Si4 Mo2'
_cell_volume   240.50239090
_cell_formula_units_Z   2
loop_
 _symmetry_equiv_pos_site_id
 _symmetry_equiv_pos_as_xyz
  1  'x, y, z'
loop_
 _atom_site_type_symbol
 _atom_site_label
 _atom_site_symmetry_multiplicity
 _atom_site_fract_x
 _atom_site_fract_y
 _atom_site_fract_z
 _atom_site_occupancy
  La  La0  1  0.500000  0.500000  0.000000  1
  La  La1  1  0.000000  0.000000  0.500000  1
  Re  Re2  1  0.110693  0.344055  0.000000  1
  Re  Re3  1  0.889307  0.655945  0.000000  1
  Re  Re4  1  0.156050  0.569716  0.500000  1
  Re  Re5  1  0.843950  0.430284  0.500000  1
  Re  Re6  1  0.334901  0.072339  0.000000  1
  Re  Re7  1  0.665099  0.927661  0.000000  1
  Si  Si8  1  0.688218  0.732756  0.500000  1
  Si  Si9  1  0.311782  0.267244  0.500000  1
  Si  Si10  1  0.187019  0.764183  0.000000  1
  Si  Si11  1  0.812981  0.235817  0.000000  1
  Mo  Mo12  1  0.613384  0.152943  0.500000  1
  Mo  Mo13  1  0.386616  0.847057  0.500000  1
