# generated using pymatgen
data_Ce2FeNi3As4
_symmetry_space_group_name_H-M   'P 1'
_cell_length_a   4.20101400
_cell_length_b   4.20101400
_cell_length_c   9.36564600
_cell_angle_alpha   90.00000000
_cell_angle_beta   90.00000000
_cell_angle_gamma   90.00000000
_symmetry_Int_Tables_number   1
_chemical_formula_structural   Ce2FeNi3As4
_chemical_formula_sum   'Ce2 Fe1 Ni3 As4'
_cell_volume   165.28977790
_cell_formula_units_Z   1
loop_
 _symmetry_equiv_pos_site_id
 _symmetry_equiv_pos_as_xyz
  1  'x, y, z'
loop_
 _atom_site_type_symbol
 _atom_site_label
 _atom_site_symmetry_multiplicity
 _atom_site_fract_x
 _atom_site_fract_y
 _atom_site_fract_z
 _atom_site_occupancy
  Ce  Ce0  1  0.500000  0.000000  0.247688  1
  Ce  Ce1  1  0.000000  0.500000  0.745269  1
  Fe  Fe2  1  0.500000  0.000000  0.886414  1
  Ni  Ni3  1  0.500000  0.500000  0.499382  1
  Ni  Ni4  1  0.000000  0.500000  0.119637  1
  Ni  Ni5  1  0.000000  0.000000  0.499382  1
  As  As6  1  0.000000  0.500000  0.369780  1
  As  As7  1  0.500000  0.500000  0.997772  1
  As  As8  1  0.000000  0.000000  0.997772  1
  As  As9  1  0.500000  0.000000  0.636905  1
