# generated using pymatgen
data_YbGd2DyB16
_symmetry_space_group_name_H-M   'P 1'
_cell_length_a   7.12627629
_cell_length_b   7.12396863
_cell_length_c   4.03983300
_cell_angle_alpha   90.00000000
_cell_angle_beta   90.00000000
_cell_angle_gamma   89.91842034
_symmetry_Int_Tables_number   1
_chemical_formula_structural   YbGd2DyB16
_chemical_formula_sum   'Yb1 Gd2 Dy1 B16'
_cell_volume   205.09148352
_cell_formula_units_Z   1
loop_
 _symmetry_equiv_pos_site_id
 _symmetry_equiv_pos_as_xyz
  1  'x, y, z'
loop_
 _atom_site_type_symbol
 _atom_site_label
 _atom_site_symmetry_multiplicity
 _atom_site_fract_x
 _atom_site_fract_y
 _atom_site_fract_z
 _atom_site_occupancy
  Yb  Yb0  1  0.682475  0.817588  0.000000  1
  Gd  Gd1  1  0.817070  0.317288  0.000000  1
  Gd  Gd2  1  0.318485  0.181543  0.000000  1
  Dy  Dy3  1  0.182487  0.682595  0.000000  1
  B  B4  1  0.500545  0.502505  0.796792  1
  B  B5  1  0.998519  0.998429  0.796766  1
  B  B6  1  0.500545  0.502505  0.203208  1
  B  B7  1  0.998519  0.998429  0.203234  1
  B  B8  1  0.913647  0.586706  0.500000  1
  B  B9  1  0.087470  0.412935  0.500000  1
  B  B10  1  0.413123  0.913479  0.500000  1
  B  B11  1  0.586706  0.087056  0.500000  1
  B  B12  1  0.675639  0.539125  0.500000  1
  B  B13  1  0.324749  0.462289  0.500000  1
  B  B14  1  0.176198  0.960985  0.500000  1
  B  B15  1  0.823793  0.037259  0.500000  1
  B  B16  1  0.461693  0.676903  0.500000  1
  B  B17  1  0.537915  0.324424  0.500000  1
  B  B18  1  0.038626  0.174467  0.500000  1
  B  B19  1  0.961798  0.823490  0.500000  1
