# generated using pymatgen
data_Cs4ReP4W
_symmetry_space_group_name_H-M   'P 1'
_cell_length_a   8.80448494
_cell_length_b   8.80448480
_cell_length_c   8.80448544
_cell_angle_alpha   139.52702919
_cell_angle_beta   124.80029897
_cell_angle_gamma   70.64440045
_symmetry_Int_Tables_number   1
_chemical_formula_structural   Cs4ReP4W
_chemical_formula_sum   'Cs4 Re1 P4 W1'
_cell_volume   356.95848188
_cell_formula_units_Z   1
loop_
 _symmetry_equiv_pos_site_id
 _symmetry_equiv_pos_as_xyz
  1  'x, y, z'
loop_
 _atom_site_type_symbol
 _atom_site_label
 _atom_site_symmetry_multiplicity
 _atom_site_fract_x
 _atom_site_fract_y
 _atom_site_fract_z
 _atom_site_occupancy
  Cs  Cs0  1  0.985432  0.150689  0.834053  1
  Cs  Cs1  1  0.014568  0.848624  0.165259  1
  Cs  Cs2  1  0.683365  0.349311  0.334741  1
  Cs  Cs3  1  0.316635  0.651376  0.665947  1
  Re  Re4  1  0.500000  0.250000  0.750000  1
  P  P5  1  0.742996  0.584170  0.151551  1
  P  P6  1  0.567380  0.915830  0.658825  1
  P  P7  1  0.432620  0.091445  0.348449  1
  P  P8  1  0.257004  0.408555  0.841175  1
  W  W9  1  0.500000  0.750000  0.250000  1
