# generated using pymatgen
data_Ta8W3
_symmetry_space_group_name_H-M   'P 1'
_cell_length_a   5.44222824
_cell_length_b   5.44222834
_cell_length_c   11.84510400
_cell_angle_alpha   104.97435718
_cell_angle_beta   104.97435584
_cell_angle_gamma   34.99063437
_symmetry_Int_Tables_number   1
_chemical_formula_structural   Ta8W3
_chemical_formula_sum   'Ta8 W3'
_cell_volume   193.65517835
_cell_formula_units_Z   1
loop_
 _symmetry_equiv_pos_site_id
 _symmetry_equiv_pos_as_xyz
  1  'x, y, z'
loop_
 _atom_site_type_symbol
 _atom_site_label
 _atom_site_symmetry_multiplicity
 _atom_site_fract_x
 _atom_site_fract_y
 _atom_site_fract_z
 _atom_site_occupancy
  Ta  Ta0  1  0.721179  0.721179  0.087920  1
  Ta  Ta1  1  0.456673  0.456673  0.182963  1
  Ta  Ta2  1  0.191288  0.191288  0.276444  1
  Ta  Ta3  1  0.631321  0.631321  0.456049  1
  Ta  Ta4  1  0.368679  0.368679  0.543951  1
  Ta  Ta5  1  0.808712  0.808712  0.723556  1
  Ta  Ta6  1  0.543327  0.543327  0.817037  1
  Ta  Ta7  1  0.278821  0.278821  0.912081  1
  W  W8  1  0.000000  0.000000  0.000000  1
  W  W9  1  0.910656  0.910656  0.362566  1
  W  W10  1  0.089344  0.089344  0.637435  1
