# generated using pymatgen
data_Tm8CrRu3C8
_symmetry_space_group_name_H-M   'P 1'
_cell_length_a   4.98459400
_cell_length_b   6.42211309
_cell_length_c   9.64791204
_cell_angle_alpha   90.16632777
_cell_angle_beta   90.00000000
_cell_angle_gamma   90.00000000
_symmetry_Int_Tables_number   1
_chemical_formula_structural   Tm8CrRu3C8
_chemical_formula_sum   'Tm8 Cr1 Ru3 C8'
_cell_volume   308.84405407
_cell_formula_units_Z   1
loop_
 _symmetry_equiv_pos_site_id
 _symmetry_equiv_pos_as_xyz
  1  'x, y, z'
loop_
 _atom_site_type_symbol
 _atom_site_label
 _atom_site_symmetry_multiplicity
 _atom_site_fract_x
 _atom_site_fract_y
 _atom_site_fract_z
 _atom_site_occupancy
  Tm  Tm0  1  0.250000  0.827603  0.943684  1
  Tm  Tm1  1  0.250000  0.323226  0.554688  1
  Tm  Tm2  1  0.750000  0.176463  0.059946  1
  Tm  Tm3  1  0.750000  0.674123  0.441483  1
  Tm  Tm4  1  0.250000  0.471941  0.215615  1
  Tm  Tm5  1  0.250000  0.969923  0.282389  1
  Tm  Tm6  1  0.750000  0.531173  0.786678  1
  Tm  Tm7  1  0.750000  0.030342  0.713352  1
  Cr  Cr8  1  0.750000  0.220343  0.365515  1
  Ru  Ru9  1  0.250000  0.284712  0.866704  1
  Ru  Ru10  1  0.250000  0.782202  0.632472  1
  Ru  Ru11  1  0.750000  0.720045  0.134625  1
  C  C12  1  0.250000  0.049216  0.740787  1
  C  C13  1  0.250000  0.548182  0.757609  1
  C  C14  1  0.750000  0.959817  0.265654  1
  C  C15  1  0.750000  0.446056  0.245347  1
  C  C16  1  0.250000  0.672095  0.445160  1
  C  C17  1  0.250000  0.172381  0.055617  1
  C  C18  1  0.750000  0.315343  0.546519  1
  C  C19  1  0.750000  0.824814  0.946156  1
