# generated using pymatgen
data_La3Pr5(NdRu2)2
_symmetry_space_group_name_H-M   'P 1'
_cell_length_a   9.04469295
_cell_length_b   9.04118184
_cell_length_c   7.36750931
_cell_angle_alpha   84.47875035
_cell_angle_beta   84.15569492
_cell_angle_gamma   43.49129147
_symmetry_Int_Tables_number   1
_chemical_formula_structural   La3Pr5(NdRu2)2
_chemical_formula_sum   'La3 Pr5 Nd2 Ru4'
_cell_volume   412.27572360
_cell_formula_units_Z   1
loop_
 _symmetry_equiv_pos_site_id
 _symmetry_equiv_pos_as_xyz
  1  'x, y, z'
loop_
 _atom_site_type_symbol
 _atom_site_label
 _atom_site_symmetry_multiplicity
 _atom_site_fract_x
 _atom_site_fract_y
 _atom_site_fract_z
 _atom_site_occupancy
  La  La0  1  0.015173  0.798176  0.907126  1
  La  La1  1  0.203634  0.982790  0.593904  1
  La  La2  1  0.983272  0.202306  0.095213  1
  Pr  Pr3  1  0.796467  0.019040  0.414526  1
  Pr  Pr4  1  0.362615  0.207849  0.814110  1
  Pr  Pr5  1  0.790989  0.639844  0.684296  1
  Pr  Pr6  1  0.639847  0.791974  0.185875  1
  Pr  Pr7  1  0.211456  0.359142  0.314799  1
  Nd  Nd8  1  0.573638  0.426887  0.749864  1
  Nd  Nd9  1  0.424941  0.573624  0.250574  1
  Ru  Ru10  1  0.172802  0.606109  0.585317  1
  Ru  Ru11  1  0.387355  0.833202  0.915422  1
  Ru  Ru12  1  0.833532  0.385217  0.415427  1
  Ru  Ru13  1  0.604280  0.173839  0.073547  1
