# generated using pymatgen
data_Ho4Ga20Pd11
_symmetry_space_group_name_H-M   'P 1'
_cell_length_a   4.27579089
_cell_length_b   10.89385495
_cell_length_c   13.60737457
_cell_angle_alpha   81.19192654
_cell_angle_beta   80.66534693
_cell_angle_gamma   78.41808656
_symmetry_Int_Tables_number   1
_chemical_formula_structural   Ho4Ga20Pd11
_chemical_formula_sum   'Ho4 Ga20 Pd11'
_cell_volume   607.91760204
_cell_formula_units_Z   1
loop_
 _symmetry_equiv_pos_site_id
 _symmetry_equiv_pos_as_xyz
  1  'x, y, z'
loop_
 _atom_site_type_symbol
 _atom_site_label
 _atom_site_symmetry_multiplicity
 _atom_site_fract_x
 _atom_site_fract_y
 _atom_site_fract_z
 _atom_site_occupancy
  Ho  Ho0  1  0.877529  0.908555  0.334810  1
  Ho  Ho1  1  0.122471  0.091445  0.665190  1
  Ho  Ho2  1  0.229772  0.367104  0.178535  1
  Ho  Ho3  1  0.770228  0.632896  0.821465  1
  Ga  Ga4  1  0.989735  0.923767  0.087672  1
  Ga  Ga5  1  0.010265  0.076233  0.912328  1
  Ga  Ga6  1  0.938649  0.324399  0.805374  1
  Ga  Ga7  1  0.061351  0.675601  0.194626  1
  Ga  Ga8  1  0.889917  0.661944  0.543619  1
  Ga  Ga9  1  0.110083  0.338056  0.456381  1
  Ga  Ga10  1  0.801653  0.397117  0.007114  1
  Ga  Ga11  1  0.198347  0.602883  0.992886  1
  Ga  Ga12  1  0.748578  0.212495  0.299390  1
  Ga  Ga13  1  0.251422  0.787505  0.700610  1
  Ga  Ga14  1  0.699125  0.101328  0.502625  1
  Ga  Ga15  1  0.300875  0.898672  0.497375  1
  Ga  Ga16  1  0.618454  0.467696  0.301972  1
  Ga  Ga17  1  0.381546  0.532304  0.698028  1
  Ga  Ga18  1  0.606791  0.796490  0.997941  1
  Ga  Ga19  1  0.393209  0.203510  0.002059  1
  Ga  Ga20  1  0.457420  0.712221  0.372188  1
  Ga  Ga21  1  0.542580  0.287779  0.627812  1
  Ga  Ga22  1  0.357878  0.066799  0.206234  1
  Ga  Ga23  1  0.642122  0.933201  0.793766  1
  Pd  Pd24  1  0.500000  0.500000  0.500000  1
  Pd  Pd25  1  0.967366  0.430266  0.628131  1
  Pd  Pd26  1  0.032634  0.569734  0.371869  1
  Pd  Pd27  1  0.855247  0.164115  0.111041  1
  Pd  Pd28  1  0.144753  0.835885  0.888959  1
  Pd  Pd29  1  0.755176  0.874646  0.607323  1
  Pd  Pd30  1  0.244824  0.125354  0.392677  1
  Pd  Pd31  1  0.650691  0.580469  0.112215  1
  Pd  Pd32  1  0.349309  0.419531  0.887785  1
  Pd  Pd33  1  0.490131  0.828774  0.184843  1
  Pd  Pd34  1  0.509869  0.171226  0.815157  1
