# generated using pymatgen
data_Sr2Mg(SiNi)4
_symmetry_space_group_name_H-M   'P 1'
_cell_length_a   6.17873543
_cell_length_b   6.17873587
_cell_length_c   10.84244300
_cell_angle_alpha   90.00000000
_cell_angle_beta   90.00000000
_cell_angle_gamma   113.12305648
_symmetry_Int_Tables_number   1
_chemical_formula_structural   Sr2Mg(SiNi)4
_chemical_formula_sum   'Sr4 Mg2 Si8 Ni8'
_cell_volume   380.67586827
_cell_formula_units_Z   2
loop_
 _symmetry_equiv_pos_site_id
 _symmetry_equiv_pos_as_xyz
  1  'x, y, z'
loop_
 _atom_site_type_symbol
 _atom_site_label
 _atom_site_symmetry_multiplicity
 _atom_site_fract_x
 _atom_site_fract_y
 _atom_site_fract_z
 _atom_site_occupancy
  Sr  Sr0  1  0.205498  0.794502  0.500000  1
  Sr  Sr1  1  0.205498  0.794502  0.000000  1
  Sr  Sr2  1  0.794502  0.205498  0.500000  1
  Sr  Sr3  1  0.794502  0.205498  0.000000  1
  Mg  Mg4  1  0.029046  0.029046  0.250000  1
  Mg  Mg5  1  0.970954  0.970954  0.750000  1
  Si  Si6  1  0.521688  0.894599  0.250000  1
  Si  Si7  1  0.105401  0.478312  0.750000  1
  Si  Si8  1  0.478312  0.105401  0.750000  1
  Si  Si9  1  0.894599  0.521688  0.250000  1
  Si  Si10  1  0.346670  0.346670  0.425765  1
  Si  Si11  1  0.653330  0.653330  0.574235  1
  Si  Si12  1  0.346670  0.346670  0.074235  1
  Si  Si13  1  0.653330  0.653330  0.925765  1
  Ni  Ni14  1  0.501210  0.244903  0.250000  1
  Ni  Ni15  1  0.755097  0.498790  0.750000  1
  Ni  Ni16  1  0.498790  0.755097  0.750000  1
  Ni  Ni17  1  0.244903  0.501210  0.250000  1
  Ni  Ni18  1  0.678106  0.678106  0.367701  1
  Ni  Ni19  1  0.321894  0.321894  0.632299  1
  Ni  Ni20  1  0.678106  0.678106  0.132299  1
  Ni  Ni21  1  0.321894  0.321894  0.867701  1
