# generated using pymatgen
data_Yb2CuNiPt2
_symmetry_space_group_name_H-M   'P 1'
_cell_length_a   5.06337858
_cell_length_b   5.20360870
_cell_length_c   5.20360944
_cell_angle_alpha   63.34871466
_cell_angle_beta   61.04194218
_cell_angle_gamma   61.04193528
_symmetry_Int_Tables_number   1
_chemical_formula_structural   Yb2CuNiPt2
_chemical_formula_sum   'Yb2 Cu1 Ni1 Pt2'
_cell_volume   100.77435134
_cell_formula_units_Z   1
loop_
 _symmetry_equiv_pos_site_id
 _symmetry_equiv_pos_as_xyz
  1  'x, y, z'
loop_
 _atom_site_type_symbol
 _atom_site_label
 _atom_site_symmetry_multiplicity
 _atom_site_fract_x
 _atom_site_fract_y
 _atom_site_fract_z
 _atom_site_occupancy
  Yb  Yb0  1  0.621986  0.626704  0.626704  1
  Yb  Yb1  1  0.378014  0.373296  0.373296  1
  Cu  Cu2  1  0.000000  0.000000  0.000000  1
  Ni  Ni3  1  0.500000  0.000000  0.000000  1
  Pt  Pt4  1  0.000000  0.500000  0.000000  1
  Pt  Pt5  1  0.000000  0.000000  0.500000  1
