# generated using pymatgen
data_ZnTe24
_symmetry_space_group_name_H-M   'P 1'
_cell_length_a   8.66280900
_cell_length_b   8.66280854
_cell_length_c   13.41581800
_cell_angle_alpha   90.00000000
_cell_angle_beta   90.00000000
_cell_angle_gamma   119.99999029
_symmetry_Int_Tables_number   1
_chemical_formula_structural   ZnTe24
_chemical_formula_sum   'Zn1 Te24'
_cell_volume   871.89720876
_cell_formula_units_Z   1
loop_
 _symmetry_equiv_pos_site_id
 _symmetry_equiv_pos_as_xyz
  1  'x, y, z'
loop_
 _atom_site_type_symbol
 _atom_site_label
 _atom_site_symmetry_multiplicity
 _atom_site_fract_x
 _atom_site_fract_y
 _atom_site_fract_z
 _atom_site_occupancy
  Zn  Zn0  1  0.000000  0.000000  0.000000  1
  Te  Te1  1  0.501863  0.498137  0.733755  1
  Te  Te2  1  0.498137  0.501863  0.266245  1
  Te  Te3  1  0.501863  0.003726  0.733755  1
  Te  Te4  1  0.498137  0.996274  0.266245  1
  Te  Te5  1  0.996274  0.498137  0.733755  1
  Te  Te6  1  0.003726  0.501863  0.266245  1
  Te  Te7  1  0.000000  0.000000  0.725157  1
  Te  Te8  1  0.000000  0.000000  0.274843  1
  Te  Te9  1  0.839997  0.679995  0.128391  1
  Te  Te10  1  0.832070  0.664141  0.595900  1
  Te  Te11  1  0.839997  0.160003  0.128391  1
  Te  Te12  1  0.832070  0.167930  0.595900  1
  Te  Te13  1  0.333333  0.666667  0.133159  1
  Te  Te14  1  0.333333  0.666667  0.597801  1
  Te  Te15  1  0.320005  0.160003  0.128391  1
  Te  Te16  1  0.335859  0.167930  0.595900  1
  Te  Te17  1  0.679995  0.839997  0.871609  1
  Te  Te18  1  0.664141  0.832070  0.404100  1
  Te  Te19  1  0.666667  0.333333  0.866841  1
  Te  Te20  1  0.666667  0.333333  0.402199  1
  Te  Te21  1  0.160003  0.839997  0.871609  1
  Te  Te22  1  0.167930  0.832070  0.404100  1
  Te  Te23  1  0.160003  0.320005  0.871609  1
  Te  Te24  1  0.167930  0.335859  0.404100  1
