# generated using pymatgen
data_U8Ta3Nb7(Si8W)2
_symmetry_space_group_name_H-M   'P 1'
_cell_length_a   7.00831919
_cell_length_b   7.00994139
_cell_length_c   12.94528687
_cell_angle_alpha   89.96424034
_cell_angle_beta   89.92265287
_cell_angle_gamma   90.06840881
_symmetry_Int_Tables_number   1
_chemical_formula_structural   U8Ta3Nb7(Si8W)2
_chemical_formula_sum   'U8 Ta3 Nb7 Si16 W2'
_cell_volume   635.97368851
_cell_formula_units_Z   1
loop_
 _symmetry_equiv_pos_site_id
 _symmetry_equiv_pos_as_xyz
  1  'x, y, z'
loop_
 _atom_site_type_symbol
 _atom_site_label
 _atom_site_symmetry_multiplicity
 _atom_site_fract_x
 _atom_site_fract_y
 _atom_site_fract_z
 _atom_site_occupancy
  U  U0  1  0.994963  0.330846  0.220700  1
  U  U1  1  0.006769  0.669537  0.718841  1
  U  U2  1  0.167927  0.493933  0.470209  1
  U  U3  1  0.506269  0.830697  0.031040  1
  U  U4  1  0.829404  0.505458  0.967683  1
  U  U5  1  0.495006  0.168216  0.530776  1
  U  U6  1  0.331081  0.994007  0.779784  1
  U  U7  1  0.669407  0.005794  0.280629  1
  Ta  Ta8  1  0.168194  0.168831  0.999604  1
  Ta  Ta9  1  0.832335  0.832721  0.500005  1
  Ta  Ta10  1  0.330323  0.668400  0.250891  1
  Nb  Nb11  1  0.843631  0.999965  0.873823  1
  Nb  Nb12  1  0.498074  0.659653  0.623895  1
  Nb  Nb13  1  0.342095  0.500029  0.875602  1
  Nb  Nb14  1  0.498613  0.341610  0.124302  1
  Nb  Nb15  1  0.657857  0.499371  0.376417  1
  Nb  Nb16  1  0.001008  0.157411  0.625861  1
  Nb  Nb17  1  0.999648  0.844331  0.125444  1
  Si  Si18  1  0.295664  0.038570  0.186425  1
  Si  Si19  1  0.704130  0.963164  0.685045  1
  Si  Si20  1  0.458910  0.797604  0.433853  1
  Si  Si21  1  0.201961  0.539065  0.065567  1
  Si  Si22  1  0.540647  0.203552  0.932592  1
  Si  Si23  1  0.794658  0.459113  0.567642  1
  Si  Si24  1  0.037389  0.297068  0.814491  1
  Si  Si25  1  0.962505  0.706574  0.315860  1
  Si  Si26  1  0.369759  0.290984  0.317068  1
  Si  Si27  1  0.629004  0.703717  0.814391  1
  Si  Si28  1  0.204831  0.871694  0.563260  1
  Si  Si29  1  0.129313  0.793802  0.934776  1
  Si  Si30  1  0.794138  0.130684  0.065640  1
  Si  Si31  1  0.874078  0.203354  0.433977  1
  Si  Si32  1  0.297642  0.370545  0.684863  1
  Si  Si33  1  0.706067  0.627948  0.184501  1
  W  W34  1  0.668159  0.331949  0.749736  1
  W  W35  1  0.158538  0.999807  0.374809  1
