# generated using pymatgen
data_La4Sn8Ir2PdRh
_symmetry_space_group_name_H-M   'P 1'
_cell_length_a   8.98422700
_cell_length_b   8.98422588
_cell_length_c   9.71117055
_cell_angle_alpha   89.43491038
_cell_angle_beta   90.56508987
_cell_angle_gamma   149.57546409
_symmetry_Int_Tables_number   1
_chemical_formula_structural   La4Sn8Ir2PdRh
_chemical_formula_sum   'La4 Sn8 Ir2 Pd1 Rh1'
_cell_volume   396.92331402
_cell_formula_units_Z   1
loop_
 _symmetry_equiv_pos_site_id
 _symmetry_equiv_pos_as_xyz
  1  'x, y, z'
loop_
 _atom_site_type_symbol
 _atom_site_label
 _atom_site_symmetry_multiplicity
 _atom_site_fract_x
 _atom_site_fract_y
 _atom_site_fract_z
 _atom_site_occupancy
  La  La0  1  0.497523  0.502477  0.499493  1
  La  La1  1  0.499542  0.500458  0.998882  1
  La  La2  1  0.297387  0.702613  0.249368  1
  La  La3  1  0.704106  0.295894  0.749758  1
  Sn  Sn4  1  0.908747  0.091253  0.749839  1
  Sn  Sn5  1  0.925896  0.074104  0.250625  1
  Sn  Sn6  1  0.090335  0.909665  0.247484  1
  Sn  Sn7  1  0.072725  0.927275  0.753857  1
  Sn  Sn8  1  0.698250  0.301750  0.406296  1
  Sn  Sn9  1  0.305441  0.694559  0.592653  1
  Sn  Sn10  1  0.302261  0.697739  0.911260  1
  Sn  Sn11  1  0.698287  0.301713  0.087982  1
  Ir  Ir12  1  0.852300  0.147700  0.005374  1
  Ir  Ir13  1  0.148579  0.851421  0.995509  1
  Pd  Pd14  1  0.146041  0.853959  0.507611  1
  Rh  Rh15  1  0.852578  0.147422  0.494011  1
