# generated using pymatgen
data_CsAlSnSe4
_symmetry_space_group_name_H-M   'P 1'
_cell_length_a   7.63335556
_cell_length_b   9.10582973
_cell_length_c   16.19734304
_cell_angle_alpha   85.55794354
_cell_angle_beta   85.73853119
_cell_angle_gamma   65.17979649
_symmetry_Int_Tables_number   1
_chemical_formula_structural   CsAlSnSe4
_chemical_formula_sum   'Cs4 Al4 Sn4 Se16'
_cell_volume   1017.69382597
_cell_formula_units_Z   4
loop_
 _symmetry_equiv_pos_site_id
 _symmetry_equiv_pos_as_xyz
  1  'x, y, z'
loop_
 _atom_site_type_symbol
 _atom_site_label
 _atom_site_symmetry_multiplicity
 _atom_site_fract_x
 _atom_site_fract_y
 _atom_site_fract_z
 _atom_site_occupancy
  Cs  Cs0  1  0.089351  0.775554  0.139424  1
  Cs  Cs1  1  0.354650  0.812860  0.479071  1
  Cs  Cs2  1  0.645371  0.187124  0.520926  1
  Cs  Cs3  1  0.910655  0.224427  0.860574  1
  Al  Al4  1  0.004221  0.237717  0.242637  1
  Al  Al5  1  0.510132  0.251835  0.261442  1
  Al  Al6  1  0.489862  0.748156  0.738560  1
  Al  Al7  1  0.995768  0.762279  0.757364  1
  Sn  Sn8  1  0.367521  0.157310  0.065368  1
  Sn  Sn9  1  0.068768  0.486683  0.392196  1
  Sn  Sn10  1  0.931250  0.513328  0.607803  1
  Sn  Sn11  1  0.632474  0.842700  0.934635  1
  Se  Se12  1  0.007075  0.233772  0.092311  1
  Se  Se13  1  0.568696  0.848532  0.095777  1
  Se  Se14  1  0.494308  0.350035  0.117874  1
  Se  Se15  1  0.847977  0.522057  0.275534  1
  Se  Se16  1  0.322994  0.097399  0.295405  1
  Se  Se17  1  0.832866  0.082473  0.302426  1
  Se  Se18  1  0.391512  0.493885  0.343991  1
  Se  Se19  1  0.897329  0.732001  0.489302  1
  Se  Se20  1  0.102670  0.268014  0.510693  1
  Se  Se21  1  0.608494  0.506119  0.656001  1
  Se  Se22  1  0.167122  0.917516  0.697567  1
  Se  Se23  1  0.676990  0.902603  0.704594  1
  Se  Se24  1  0.152023  0.477942  0.724472  1
  Se  Se25  1  0.505697  0.649976  0.882129  1
  Se  Se26  1  0.431294  0.151472  0.904233  1
  Se  Se27  1  0.992930  0.766229  0.907691  1
