# generated using pymatgen
data_Lu6ZrAl15Os7
_symmetry_space_group_name_H-M   'P 1'
_cell_length_a   8.94430587
_cell_length_b   8.94430538
_cell_length_c   8.93649785
_cell_angle_alpha   59.97109403
_cell_angle_beta   59.97109267
_cell_angle_gamma   60.00000074
_symmetry_Int_Tables_number   1
_chemical_formula_structural   Lu6ZrAl15Os7
_chemical_formula_sum   'Lu6 Zr1 Al15 Os7'
_cell_volume   505.30748224
_cell_formula_units_Z   1
loop_
 _symmetry_equiv_pos_site_id
 _symmetry_equiv_pos_as_xyz
  1  'x, y, z'
loop_
 _atom_site_type_symbol
 _atom_site_label
 _atom_site_symmetry_multiplicity
 _atom_site_fract_x
 _atom_site_fract_y
 _atom_site_fract_z
 _atom_site_occupancy
  Lu  Lu0  1  0.707000  0.707000  0.286147  1
  Lu  Lu1  1  0.299854  0.707000  0.286147  1
  Lu  Lu2  1  0.707000  0.299854  0.286147  1
  Lu  Lu3  1  0.286649  0.286649  0.715288  1
  Lu  Lu4  1  0.711414  0.286649  0.715288  1
  Lu  Lu5  1  0.286649  0.711414  0.715288  1
  Zr  Zr6  1  0.880647  0.880647  0.358056  1
  Al  Al7  1  0.877742  0.365396  0.879120  1
  Al  Al8  1  0.365396  0.877742  0.879120  1
  Al  Al9  1  0.877742  0.877742  0.879120  1
  Al  Al10  1  0.124537  0.124537  0.626391  1
  Al  Al11  1  0.121157  0.635379  0.122308  1
  Al  Al12  1  0.635379  0.121157  0.122308  1
  Al  Al13  1  0.121157  0.121157  0.122308  1
  Al  Al14  1  0.668261  0.668261  0.995217  1
  Al  Al15  1  0.663091  0.004251  0.669569  1
  Al  Al16  1  0.004251  0.663091  0.669569  1
  Al  Al17  1  0.663091  0.663091  0.669569  1
  Al  Al18  1  0.332956  0.332956  0.001131  1
  Al  Al19  1  0.334188  0.997541  0.334084  1
  Al  Al20  1  0.997541  0.334188  0.334084  1
  Al  Al21  1  0.334188  0.334188  0.334084  1
  Os  Os22  1  0.004178  0.004178  0.987465  1
  Os  Os23  1  0.000360  0.000360  0.503012  1
  Os  Os24  1  0.496267  0.000360  0.503012  1
  Os  Os25  1  0.000360  0.496267  0.503012  1
  Os  Os26  1  0.499267  0.499267  0.001052  1
  Os  Os27  1  0.000416  0.499267  0.001052  1
  Os  Os28  1  0.499267  0.000416  0.001052  1
