# generated using pymatgen
data_Gd3Ho(HgO4)2
_symmetry_space_group_name_H-M   'P 1'
_cell_length_a   7.14306989
_cell_length_b   7.14307036
_cell_length_c   10.17144590
_cell_angle_alpha   59.05439457
_cell_angle_beta   59.05439079
_cell_angle_gamma   29.97541502
_symmetry_Int_Tables_number   1
_chemical_formula_structural   Gd3Ho(HgO4)2
_chemical_formula_sum   'Gd3 Ho1 Hg2 O8'
_cell_volume   219.50499844
_cell_formula_units_Z   1
loop_
 _symmetry_equiv_pos_site_id
 _symmetry_equiv_pos_as_xyz
  1  'x, y, z'
loop_
 _atom_site_type_symbol
 _atom_site_label
 _atom_site_symmetry_multiplicity
 _atom_site_fract_x
 _atom_site_fract_y
 _atom_site_fract_z
 _atom_site_occupancy
  Gd  Gd0  1  0.880329  0.880329  0.462412  1
  Gd  Gd1  1  0.118253  0.118253  0.540198  1
  Gd  Gd2  1  0.660098  0.660098  0.198626  1
  Ho  Ho3  1  0.341382  0.341382  0.799092  1
  Hg  Hg4  1  0.613770  0.613770  0.838334  1
  Hg  Hg5  1  0.386422  0.386422  0.159932  1
  O  O6  1  0.081823  0.081823  0.347161  1
  O  O7  1  0.916772  0.916772  0.656455  1
  O  O8  1  0.268466  0.268466  0.615298  1
  O  O9  1  0.731453  0.731453  0.388171  1
  O  O10  1  0.705804  0.705804  0.940957  1
  O  O11  1  0.298270  0.298270  0.051429  1
  O  O12  1  0.532328  0.532328  0.720982  1
  O  O13  1  0.464830  0.464830  0.280952  1
