# generated using pymatgen
data_Ba4Sr2Sm2Mn(CoO5)3
_symmetry_space_group_name_H-M   'P 1'
_cell_length_a   6.88461877
_cell_length_b   11.74823916
_cell_length_c   11.75829200
_cell_angle_alpha   119.81247777
_cell_angle_beta   90.29584200
_cell_angle_gamma   89.98004031
_symmetry_Int_Tables_number   1
_chemical_formula_structural   Ba4Sr2Sm2Mn(CoO5)3
_chemical_formula_sum   'Ba8 Sr4 Sm4 Mn2 Co6 O30'
_cell_volume   825.15946184
_cell_formula_units_Z   2
loop_
 _symmetry_equiv_pos_site_id
 _symmetry_equiv_pos_as_xyz
  1  'x, y, z'
loop_
 _atom_site_type_symbol
 _atom_site_label
 _atom_site_symmetry_multiplicity
 _atom_site_fract_x
 _atom_site_fract_y
 _atom_site_fract_z
 _atom_site_occupancy
  Ba  Ba0  1  0.668921  0.823429  0.172901  1
  Ba  Ba1  1  0.673586  0.828720  0.656985  1
  Ba  Ba2  1  0.667284  0.344002  0.171585  1
  Ba  Ba3  1  0.168444  0.175744  0.830243  1
  Ba  Ba4  1  0.166558  0.174054  0.341700  1
  Ba  Ba5  1  0.172005  0.654407  0.825518  1
  Ba  Ba6  1  0.987706  0.660000  0.331336  1
  Ba  Ba7  1  0.485065  0.334687  0.664569  1
  Sr  Sr8  1  0.484456  0.999648  0.000650  1
  Sr  Sr9  1  0.987985  0.001232  0.000435  1
  Sr  Sr10  1  0.325866  0.520373  0.046962  1
  Sr  Sr11  1  0.831807  0.046213  0.524002  1
  Sm  Sm12  1  0.333714  0.521349  0.475536  1
  Sm  Sm13  1  0.328345  0.956770  0.479143  1
  Sm  Sm14  1  0.838392  0.477719  0.521318  1
  Sm  Sm15  1  0.830915  0.470811  0.951118  1
  Mn  Mn16  1  0.512469  0.665906  0.334064  1
  Mn  Mn17  1  0.017584  0.331693  0.662361  1
  Co  Co18  1  0.159930  0.818495  0.172742  1
  Co  Co19  1  0.167892  0.824434  0.648730  1
  Co  Co20  1  0.158341  0.349444  0.173779  1
  Co  Co21  1  0.656760  0.172937  0.824045  1
  Co  Co22  1  0.660385  0.173361  0.352111  1
  Co  Co23  1  0.666057  0.648747  0.823783  1
  O  O24  1  0.335368  0.753517  0.259813  1
  O  O25  1  0.341714  0.747690  0.498780  1
  O  O26  1  0.340540  0.509291  0.262375  1
  O  O27  1  0.827747  0.251861  0.757999  1
  O  O28  1  0.841107  0.259129  0.501436  1
  O  O29  1  0.839990  0.500846  0.746083  1
  O  O30  1  0.663538  0.588553  0.416086  1
  O  O31  1  0.663889  0.590389  0.177936  1
  O  O32  1  0.654954  0.827042  0.413617  1
  O  O33  1  0.176060  0.424267  0.578160  1
  O  O34  1  0.156284  0.412484  0.824546  1
  O  O35  1  0.176652  0.168351  0.583538  1
  O  O36  1  0.742666  0.083772  0.904846  1
  O  O37  1  0.751146  0.096444  0.186528  1
  O  O38  1  0.747894  0.817781  0.904030  1
  O  O39  1  0.248737  0.902200  0.088851  1
  O  O40  1  0.244297  0.899327  0.817887  1
  O  O41  1  0.250947  0.174885  0.087720  1
  O  O42  1  0.518101  0.058490  0.670440  1
  O  O43  1  0.540812  0.338289  0.399062  1
  O  O44  1  0.546727  0.603531  0.934956  1
  O  O45  1  0.521750  0.066988  0.393823  1
  O  O46  1  0.542307  0.332166  0.940429  1
  O  O47  1  0.541693  0.605805  0.662707  1
  O  O48  1  0.047606  0.938018  0.332112  1
  O  O49  1  0.035382  0.666678  0.601776  1
  O  O50  1  0.010591  0.397425  0.061934  1
  O  O51  1  0.050439  0.935635  0.603849  1
  O  O52  1  0.017807  0.669883  0.063200  1
  O  O53  1  0.026794  0.405089  0.339871  1
