# generated using pymatgen
data_Mg4Co3As6Ir3Ru
_symmetry_space_group_name_H-M   'P 1'
_cell_length_a   6.92839868
_cell_length_b   6.92355414
_cell_length_c   6.92355321
_cell_angle_alpha   109.45703405
_cell_angle_beta   109.48539456
_cell_angle_gamma   109.48539886
_symmetry_Int_Tables_number   1
_chemical_formula_structural   Mg4Co3As6Ir3Ru
_chemical_formula_sum   'Mg4 Co3 As6 Ir3 Ru1'
_cell_volume   255.61900044
_cell_formula_units_Z   1
loop_
 _symmetry_equiv_pos_site_id
 _symmetry_equiv_pos_as_xyz
  1  'x, y, z'
loop_
 _atom_site_type_symbol
 _atom_site_label
 _atom_site_symmetry_multiplicity
 _atom_site_fract_x
 _atom_site_fract_y
 _atom_site_fract_z
 _atom_site_occupancy
  Mg  Mg0  1  0.996933  0.993866  0.496933  1
  Mg  Mg1  1  0.500000  0.000000  0.000000  1
  Mg  Mg2  1  0.003067  0.503067  0.006134  1
  Mg  Mg3  1  0.500000  0.503067  0.496933  1
  Co  Co4  1  0.246161  0.492321  0.746161  1
  Co  Co5  1  0.753839  0.253839  0.507679  1
  Co  Co6  1  0.500000  0.253839  0.746161  1
  As  As7  1  0.676880  0.675957  0.982261  1
  As  As8  1  0.305382  0.306305  0.982261  1
  As  As9  1  0.999077  0.675957  0.693695  1
  As  As10  1  0.000923  0.306305  0.324043  1
  As  As11  1  0.694618  0.017739  0.693695  1
  As  As12  1  0.323120  0.017739  0.324043  1
  Ir  Ir13  1  0.500000  0.754984  0.245016  1
  Ir  Ir14  1  0.745016  0.490032  0.245016  1
  Ir  Ir15  1  0.254984  0.754984  0.509968  1
  Ru  Ru16  1  0.000000  0.000000  0.000000  1
