# generated using pymatgen
data_LaDy3(OsO4)4
_symmetry_space_group_name_H-M   'P 1'
_cell_length_a   5.37188116
_cell_length_b   7.44471480
_cell_length_c   7.68925500
_cell_angle_alpha   79.69878361
_cell_angle_beta   86.26985775
_cell_angle_gamma   89.03328356
_symmetry_Int_Tables_number   1
_chemical_formula_structural   LaDy3(OsO4)4
_chemical_formula_sum   'La1 Dy3 Os4 O16'
_cell_volume   301.90771413
_cell_formula_units_Z   1
loop_
 _symmetry_equiv_pos_site_id
 _symmetry_equiv_pos_as_xyz
  1  'x, y, z'
loop_
 _atom_site_type_symbol
 _atom_site_label
 _atom_site_symmetry_multiplicity
 _atom_site_fract_x
 _atom_site_fract_y
 _atom_site_fract_z
 _atom_site_occupancy
  La  La0  1  0.257750  0.394931  0.368249  1
  Dy  Dy1  1  0.188471  0.897947  0.332449  1
  Dy  Dy2  1  0.804085  0.102485  0.675694  1
  Dy  Dy3  1  0.736634  0.613572  0.623407  1
  Os  Os4  1  0.758324  0.204123  0.160731  1
  Os  Os5  1  0.713842  0.705058  0.164538  1
  Os  Os6  1  0.287084  0.300198  0.834990  1
  Os  Os7  1  0.243734  0.794614  0.838191  1
  O  O8  1  0.064423  0.287031  0.036844  1
  O  O9  1  0.396739  0.793308  0.064885  1
  O  O10  1  0.642902  0.449712  0.168684  1
  O  O11  1  0.847456  0.947435  0.163469  1
  O  O12  1  0.454744  0.122160  0.290601  1
  O  O13  1  0.938968  0.163537  0.389228  1
  O  O14  1  0.965336  0.630551  0.344478  1
  O  O15  1  0.494065  0.687162  0.392196  1
  O  O16  1  0.510236  0.322681  0.610666  1
  O  O17  1  0.016176  0.381725  0.671654  1
  O  O18  1  0.052460  0.824611  0.615388  1
  O  O19  1  0.551267  0.870080  0.705185  1
  O  O20  1  0.157362  0.053385  0.824180  1
  O  O21  1  0.380468  0.551983  0.825272  1
  O  O22  1  0.597298  0.199822  0.936858  1
  O  O23  1  0.940176  0.701889  0.962164  1
