# generated using pymatgen
data_RbThPPt8
_symmetry_space_group_name_H-M   'P 1'
_cell_length_a   9.40978613
_cell_length_b   9.40637461
_cell_length_c   4.26894000
_cell_angle_alpha   90.00000000
_cell_angle_beta   90.00000000
_cell_angle_gamma   145.55569024
_symmetry_Int_Tables_number   1
_chemical_formula_structural   RbThPPt8
_chemical_formula_sum   'Rb1 Th1 P1 Pt8'
_cell_volume   213.71512811
_cell_formula_units_Z   1
loop_
 _symmetry_equiv_pos_site_id
 _symmetry_equiv_pos_as_xyz
  1  'x, y, z'
loop_
 _atom_site_type_symbol
 _atom_site_label
 _atom_site_symmetry_multiplicity
 _atom_site_fract_x
 _atom_site_fract_y
 _atom_site_fract_z
 _atom_site_occupancy
  Rb  Rb0  1  0.618749  0.383344  0.500000  1
  Th  Th1  1  0.365302  0.626494  0.500000  1
  P  P2  1  0.212421  0.206219  0.000000  1
  Pt  Pt3  1  0.114871  0.890158  0.000000  1
  Pt  Pt4  1  0.896156  0.110333  0.000000  1
  Pt  Pt5  1  0.497001  0.976887  0.000000  1
  Pt  Pt6  1  0.009746  0.493102  0.000000  1
  Pt  Pt7  1  0.199773  0.791091  0.500000  1
  Pt  Pt8  1  0.797368  0.193797  0.500000  1
  Pt  Pt9  1  0.007995  0.012268  0.500000  1
  Pt  Pt10  1  0.594216  0.629909  0.000000  1
