# generated using pymatgen
data_Lu8Re3RuC8
_symmetry_space_group_name_H-M   'P 1'
_cell_length_a   4.97536900
_cell_length_b   6.46168398
_cell_length_c   9.66807615
_cell_angle_alpha   89.90928322
_cell_angle_beta   90.00000000
_cell_angle_gamma   90.00000000
_symmetry_Int_Tables_number   1
_chemical_formula_structural   Lu8Re3RuC8
_chemical_formula_sum   'Lu8 Re3 Ru1 C8'
_cell_volume   310.82112526
_cell_formula_units_Z   1
loop_
 _symmetry_equiv_pos_site_id
 _symmetry_equiv_pos_as_xyz
  1  'x, y, z'
loop_
 _atom_site_type_symbol
 _atom_site_label
 _atom_site_symmetry_multiplicity
 _atom_site_fract_x
 _atom_site_fract_y
 _atom_site_fract_z
 _atom_site_occupancy
  Lu  Lu0  1  0.750000  0.533424  0.783965  1
  Lu  Lu1  1  0.250000  0.965780  0.281772  1
  Lu  Lu2  1  0.750000  0.676207  0.441658  1
  Lu  Lu3  1  0.250000  0.827423  0.942669  1
  Lu  Lu4  1  0.750000  0.176391  0.059508  1
  Lu  Lu5  1  0.250000  0.323052  0.558291  1
  Lu  Lu6  1  0.250000  0.465541  0.217864  1
  Lu  Lu7  1  0.750000  0.035619  0.718327  1
  Re  Re8  1  0.250000  0.784266  0.630845  1
  Re  Re9  1  0.750000  0.216523  0.370802  1
  Re  Re10  1  0.750000  0.716834  0.130085  1
  Ru  Ru11  1  0.250000  0.283916  0.869126  1
  C  C12  1  0.250000  0.672706  0.444310  1
  C  C13  1  0.250000  0.551881  0.757058  1
  C  C14  1  0.750000  0.449562  0.240388  1
  C  C15  1  0.750000  0.825983  0.942950  1
  C  C16  1  0.250000  0.049350  0.739530  1
  C  C17  1  0.250000  0.170581  0.053635  1
  C  C18  1  0.750000  0.326067  0.557207  1
  C  C19  1  0.750000  0.948892  0.260007  1
