# generated using pymatgen
data_TbDyHf3Si4
_symmetry_space_group_name_H-M   'P 1'
_cell_length_a   7.29231003
_cell_length_b   7.29163403
_cell_length_c   13.39944710
_cell_angle_alpha   89.98954508
_cell_angle_beta   89.99047521
_cell_angle_gamma   90.00009385
_symmetry_Int_Tables_number   1
_chemical_formula_structural   TbDyHf3Si4
_chemical_formula_sum   'Tb4 Dy4 Hf12 Si16'
_cell_volume   712.48684872
_cell_formula_units_Z   4
loop_
 _symmetry_equiv_pos_site_id
 _symmetry_equiv_pos_as_xyz
  1  'x, y, z'
loop_
 _atom_site_type_symbol
 _atom_site_label
 _atom_site_symmetry_multiplicity
 _atom_site_fract_x
 _atom_site_fract_y
 _atom_site_fract_z
 _atom_site_occupancy
  Tb  Tb0  1  0.843648  0.503752  0.965177  1
  Tb  Tb1  1  0.496243  0.156434  0.534809  1
  Tb  Tb2  1  0.343594  0.996205  0.784852  1
  Tb  Tb3  1  0.656434  0.003716  0.284789  1
  Dy  Dy4  1  0.996574  0.343787  0.215175  1
  Dy  Dy5  1  0.003496  0.656188  0.715056  1
  Dy  Dy6  1  0.156176  0.496543  0.465108  1
  Dy  Dy7  1  0.503471  0.843714  0.034890  1
  Hf  Hf8  1  0.174412  0.174343  0.000012  1
  Hf  Hf9  1  0.825782  0.825468  0.500045  1
  Hf  Hf10  1  0.325506  0.674281  0.250009  1
  Hf  Hf11  1  0.674475  0.325747  0.749992  1
  Hf  Hf12  1  0.149697  0.995665  0.374293  1
  Hf  Hf13  1  0.850309  0.004239  0.874330  1
  Hf  Hf14  1  0.504298  0.649691  0.624306  1
  Hf  Hf15  1  0.350229  0.495791  0.875697  1
  Hf  Hf16  1  0.495649  0.350400  0.124352  1
  Hf  Hf17  1  0.649695  0.504285  0.375674  1
  Hf  Hf18  1  0.995758  0.149683  0.625639  1
  Hf  Hf19  1  0.004328  0.850306  0.125701  1
  Si  Si20  1  0.363093  0.295255  0.317177  1
  Si  Si21  1  0.636679  0.705025  0.817039  1
  Si  Si22  1  0.204733  0.863082  0.567154  1
  Si  Si23  1  0.136659  0.794982  0.932945  1
  Si  Si24  1  0.794999  0.136476  0.067240  1
  Si  Si25  1  0.863790  0.205258  0.432872  1
  Si  Si26  1  0.294737  0.363770  0.682868  1
  Si  Si27  1  0.704971  0.636446  0.182768  1
  Si  Si28  1  0.295139  0.048390  0.185404  1
  Si  Si29  1  0.705002  0.951427  0.685525  1
  Si  Si30  1  0.451427  0.794966  0.435521  1
  Si  Si31  1  0.204827  0.548373  0.064593  1
  Si  Si32  1  0.548379  0.204604  0.935609  1
  Si  Si33  1  0.795606  0.451850  0.564496  1
  Si  Si34  1  0.048344  0.295433  0.814361  1
  Si  Si35  1  0.951842  0.704426  0.314524  1
