# generated using pymatgen
data_Al4Re
_symmetry_space_group_name_H-M   'P 1'
_cell_length_a   9.17934266
_cell_length_b   9.17934237
_cell_length_c   5.17031182
_cell_angle_alpha   86.87914592
_cell_angle_beta   86.87913521
_cell_angle_gamma   146.92553653
_symmetry_Int_Tables_number   1
_chemical_formula_structural   Al4Re
_chemical_formula_sum   'Al12 Re3'
_cell_volume   233.35846656
_cell_formula_units_Z   3
loop_
 _symmetry_equiv_pos_site_id
 _symmetry_equiv_pos_as_xyz
  1  'x, y, z'
loop_
 _atom_site_type_symbol
 _atom_site_label
 _atom_site_symmetry_multiplicity
 _atom_site_fract_x
 _atom_site_fract_y
 _atom_site_fract_z
 _atom_site_occupancy
  Al  Al0  1  0.147213  0.147213  0.490571  1
  Al  Al1  1  0.497832  0.497832  0.849229  1
  Al  Al2  1  0.581973  0.736496  0.315504  1
  Al  Al3  1  0.736496  0.581973  0.315504  1
  Al  Al4  1  0.696267  0.937169  0.785706  1
  Al  Al5  1  0.937169  0.696267  0.785706  1
  Al  Al6  1  0.055560  0.305867  0.191794  1
  Al  Al7  1  0.305867  0.055560  0.191794  1
  Al  Al8  1  0.451132  0.920141  0.409872  1
  Al  Al9  1  0.920141  0.451132  0.409872  1
  Al  Al10  1  0.770973  0.271956  0.931933  1
  Al  Al11  1  0.271956  0.770973  0.931933  1
  Re  Re12  1  0.988412  0.988412  0.007767  1
  Re  Re13  1  0.193889  0.468120  0.668408  1
  Re  Re14  1  0.468120  0.193889  0.668408  1
