# generated using pymatgen
data_Tm3MgIn2Sn2Ir
_symmetry_space_group_name_H-M   'P 1'
_cell_length_a   7.45841497
_cell_length_b   7.45841418
_cell_length_c   4.46115200
_cell_angle_alpha   90.00000000
_cell_angle_beta   90.00000000
_cell_angle_gamma   120.78268963
_symmetry_Int_Tables_number   1
_chemical_formula_structural   Tm3MgIn2Sn2Ir
_chemical_formula_sum   'Tm3 Mg1 In2 Sn2 Ir1'
_cell_volume   213.20193346
_cell_formula_units_Z   1
loop_
 _symmetry_equiv_pos_site_id
 _symmetry_equiv_pos_as_xyz
  1  'x, y, z'
loop_
 _atom_site_type_symbol
 _atom_site_label
 _atom_site_symmetry_multiplicity
 _atom_site_fract_x
 _atom_site_fract_y
 _atom_site_fract_z
 _atom_site_occupancy
  Tm  Tm0  1  0.609266  0.999124  0.000000  1
  Tm  Tm1  1  0.999124  0.609266  0.000000  1
  Tm  Tm2  1  0.392800  0.392800  0.000000  1
  Mg  Mg3  1  0.770851  0.770851  0.500000  1
  In  In4  1  0.229649  0.993236  0.500000  1
  In  In5  1  0.993236  0.229649  0.500000  1
  Sn  Sn6  1  0.339702  0.666693  0.500000  1
  Sn  Sn7  1  0.666693  0.339702  0.500000  1
  Ir  Ir8  1  0.998680  0.998680  0.000000  1
