# generated using pymatgen
data_Y4ReTcOs6
_symmetry_space_group_name_H-M   'P 1'
_cell_length_a   5.28438035
_cell_length_b   5.28437969
_cell_length_c   8.91273100
_cell_angle_alpha   90.00000000
_cell_angle_beta   90.00000000
_cell_angle_gamma   117.82656748
_symmetry_Int_Tables_number   1
_chemical_formula_structural   Y4ReTcOs6
_chemical_formula_sum   'Y4 Re1 Tc1 Os6'
_cell_volume   220.10516950
_cell_formula_units_Z   1
loop_
 _symmetry_equiv_pos_site_id
 _symmetry_equiv_pos_as_xyz
  1  'x, y, z'
loop_
 _atom_site_type_symbol
 _atom_site_label
 _atom_site_symmetry_multiplicity
 _atom_site_fract_x
 _atom_site_fract_y
 _atom_site_fract_z
 _atom_site_occupancy
  Y  Y0  1  0.332854  0.667146  0.435734  1
  Y  Y1  1  0.668582  0.331418  0.564383  1
  Y  Y2  1  0.668582  0.331418  0.935617  1
  Y  Y3  1  0.332854  0.667146  0.064266  1
  Re  Re4  1  0.170642  0.829358  0.750000  1
  Tc  Tc5  1  0.824411  0.175589  0.250000  1
  Os  Os6  1  0.003571  0.996429  0.499899  1
  Os  Os7  1  0.003571  0.996429  0.000101  1
  Os  Os8  1  0.828814  0.659167  0.250000  1
  Os  Os9  1  0.340833  0.171186  0.250000  1
  Os  Os10  1  0.170490  0.345204  0.750000  1
  Os  Os11  1  0.654796  0.829510  0.750000  1
