# generated using pymatgen
data_Tb2Tm3Mo2C7
_symmetry_space_group_name_H-M   'P 1'
_cell_length_a   8.39810927
_cell_length_b   8.33682768
_cell_length_c   3.41711800
_cell_angle_alpha   90.00000000
_cell_angle_beta   90.00000000
_cell_angle_gamma   122.52434596
_symmetry_Int_Tables_number   1
_chemical_formula_structural   Tb2Tm3Mo2C7
_chemical_formula_sum   'Tb2 Tm3 Mo2 C7'
_cell_volume   201.72229217
_cell_formula_units_Z   1
loop_
 _symmetry_equiv_pos_site_id
 _symmetry_equiv_pos_as_xyz
  1  'x, y, z'
loop_
 _atom_site_type_symbol
 _atom_site_label
 _atom_site_symmetry_multiplicity
 _atom_site_fract_x
 _atom_site_fract_y
 _atom_site_fract_z
 _atom_site_occupancy
  Tb  Tb0  1  0.073816  0.327706  0.500000  1
  Tb  Tb1  1  0.926184  0.672294  0.500000  1
  Tm  Tm2  1  0.500000  0.500000  0.000000  1
  Tm  Tm3  1  0.662201  0.924087  0.500000  1
  Tm  Tm4  1  0.337799  0.075913  0.500000  1
  Mo  Mo5  1  0.711800  0.289186  0.000000  1
  Mo  Mo6  1  0.288200  0.710814  0.000000  1
  C  C7  1  0.622191  0.377717  0.500000  1
  C  C8  1  0.377809  0.622283  0.500000  1
  C  C9  1  0.000000  0.000000  0.000000  1
  C  C10  1  0.173231  0.162926  0.000000  1
  C  C11  1  0.826769  0.837074  0.000000  1
  C  C12  1  0.000000  0.500000  0.000000  1
  C  C13  1  0.500000  0.000000  0.000000  1
