# generated using pymatgen
data_Cs3RhO5
_symmetry_space_group_name_H-M   'P 1'
_cell_length_a   8.87476900
_cell_length_b   9.19711400
_cell_length_c   9.95586200
_cell_angle_alpha   90.00000000
_cell_angle_beta   90.00000000
_cell_angle_gamma   90.00000000
_symmetry_Int_Tables_number   1
_chemical_formula_structural   Cs3RhO5
_chemical_formula_sum   'Cs12 Rh4 O20'
_cell_volume   812.61997876
_cell_formula_units_Z   4
loop_
 _symmetry_equiv_pos_site_id
 _symmetry_equiv_pos_as_xyz
  1  'x, y, z'
loop_
 _atom_site_type_symbol
 _atom_site_label
 _atom_site_symmetry_multiplicity
 _atom_site_fract_x
 _atom_site_fract_y
 _atom_site_fract_z
 _atom_site_occupancy
  Cs  Cs0  1  0.250000  0.000000  0.475526  1
  Cs  Cs1  1  0.750000  0.000000  0.524474  1
  Cs  Cs2  1  0.250000  0.500000  0.024474  1
  Cs  Cs3  1  0.750000  0.500000  0.975526  1
  Cs  Cs4  1  0.250000  0.000000  0.019836  1
  Cs  Cs5  1  0.750000  0.000000  0.980164  1
  Cs  Cs6  1  0.250000  0.500000  0.480164  1
  Cs  Cs7  1  0.750000  0.500000  0.519836  1
  Cs  Cs8  1  0.554665  0.250000  0.250000  1
  Cs  Cs9  1  0.445335  0.750000  0.750000  1
  Cs  Cs10  1  0.945335  0.750000  0.250000  1
  Cs  Cs11  1  0.054665  0.250000  0.750000  1
  Rh  Rh12  1  0.014015  0.250000  0.250000  1
  Rh  Rh13  1  0.985985  0.750000  0.750000  1
  Rh  Rh14  1  0.485985  0.750000  0.250000  1
  Rh  Rh15  1  0.514015  0.250000  0.750000  1
  O  O16  1  0.221568  0.250000  0.250000  1
  O  O17  1  0.778432  0.750000  0.750000  1
  O  O18  1  0.278432  0.750000  0.250000  1
  O  O19  1  0.721568  0.250000  0.750000  1
  O  O20  1  0.585789  0.575494  0.246783  1
  O  O21  1  0.414211  0.424506  0.753217  1
  O  O22  1  0.914211  0.424506  0.246783  1
  O  O23  1  0.914211  0.075494  0.253217  1
  O  O24  1  0.085789  0.575494  0.753217  1
  O  O25  1  0.085789  0.924506  0.746783  1
  O  O26  1  0.585789  0.924506  0.253217  1
  O  O27  1  0.414211  0.075494  0.746783  1
  O  O28  1  0.512686  0.253601  0.556497  1
  O  O29  1  0.487314  0.746399  0.443503  1
  O  O30  1  0.987314  0.746399  0.556497  1
  O  O31  1  0.987314  0.753601  0.943503  1
  O  O32  1  0.012686  0.253601  0.443503  1
  O  O33  1  0.012686  0.246399  0.056497  1
  O  O34  1  0.512686  0.246399  0.943503  1
  O  O35  1  0.487314  0.753601  0.056497  1
