# generated using pymatgen
data_Pr6Dy2Sc12Si15Ag
_symmetry_space_group_name_H-M   'P 1'
_cell_length_a   7.24490324
_cell_length_b   7.47906513
_cell_length_c   14.27821475
_cell_angle_alpha   89.92931568
_cell_angle_beta   89.76043742
_cell_angle_gamma   90.20940095
_symmetry_Int_Tables_number   1
_chemical_formula_structural   Pr6Dy2Sc12Si15Ag
_chemical_formula_sum   'Pr6 Dy2 Sc12 Si15 Ag1'
_cell_volume   773.65400617
_cell_formula_units_Z   1
loop_
 _symmetry_equiv_pos_site_id
 _symmetry_equiv_pos_as_xyz
  1  'x, y, z'
loop_
 _atom_site_type_symbol
 _atom_site_label
 _atom_site_symmetry_multiplicity
 _atom_site_fract_x
 _atom_site_fract_y
 _atom_site_fract_z
 _atom_site_occupancy
  Pr  Pr0  1  0.488108  0.672803  0.903337  1
  Pr  Pr1  1  0.491568  0.675238  0.598542  1
  Pr  Pr2  1  0.988885  0.833224  0.595396  1
  Pr  Pr3  1  0.988175  0.829420  0.903385  1
  Pr  Pr4  1  0.512176  0.327918  0.098035  1
  Pr  Pr5  1  0.012287  0.172321  0.099158  1
  Dy  Dy6  1  0.008720  0.173692  0.396162  1
  Dy  Dy7  1  0.513027  0.322826  0.397673  1
  Sc  Sc8  1  0.343764  0.172998  0.626412  1
  Sc  Sc9  1  0.665876  0.823721  0.374325  1
  Sc  Sc10  1  0.665138  0.000348  0.751942  1
  Sc  Sc11  1  0.167039  0.675039  0.372533  1
  Sc  Sc12  1  0.830728  0.323094  0.876388  1
  Sc  Sc13  1  0.823527  0.325196  0.623777  1
  Sc  Sc14  1  0.837952  0.500548  0.252420  1
  Sc  Sc15  1  0.338894  0.998149  0.250259  1
  Sc  Sc16  1  0.328301  0.174016  0.876346  1
  Sc  Sc17  1  0.169575  0.675838  0.126734  1
  Sc  Sc18  1  0.670953  0.825099  0.126341  1
  Sc  Sc19  1  0.162274  0.497464  0.753457  1
  Si  Si20  1  0.286959  0.883116  0.750394  1
  Si  Si21  1  0.465705  0.621296  0.250332  1
  Si  Si22  1  0.037224  0.129664  0.749233  1
  Si  Si23  1  0.536372  0.376709  0.752138  1
  Si  Si24  1  0.964920  0.878075  0.251215  1
  Si  Si25  1  0.711181  0.122129  0.252005  1
  Si  Si26  1  0.849058  0.537877  0.040052  1
  Si  Si27  1  0.347844  0.962094  0.040750  1
  Si  Si28  1  0.150461  0.463062  0.961860  1
  Si  Si29  1  0.653936  0.042322  0.534524  1
  Si  Si30  1  0.341075  0.967743  0.458064  1
  Si  Si31  1  0.835993  0.533162  0.455571  1
  Si  Si32  1  0.790599  0.617825  0.751251  1
  Si  Si33  1  0.213355  0.377357  0.252346  1
  Si  Si34  1  0.651515  0.037176  0.960910  1
  Ag  Ag35  1  0.156835  0.451444  0.536731  1
