# generated using pymatgen
data_Nb4Ga2FeB4Ru9
_symmetry_space_group_name_H-M   'P 1'
_cell_length_a   9.28369049
_cell_length_b   9.28369049
_cell_length_c   2.97983400
_cell_angle_alpha   90.00000000
_cell_angle_beta   90.00000000
_cell_angle_gamma   89.83615472
_symmetry_Int_Tables_number   1
_chemical_formula_structural   Nb4Ga2FeB4Ru9
_chemical_formula_sum   'Nb4 Ga2 Fe1 B4 Ru9'
_cell_volume   256.82163203
_cell_formula_units_Z   1
loop_
 _symmetry_equiv_pos_site_id
 _symmetry_equiv_pos_as_xyz
  1  'x, y, z'
loop_
 _atom_site_type_symbol
 _atom_site_label
 _atom_site_symmetry_multiplicity
 _atom_site_fract_x
 _atom_site_fract_y
 _atom_site_fract_z
 _atom_site_occupancy
  Nb  Nb0  1  0.821719  0.678281  0.000000  1
  Nb  Nb1  1  0.178281  0.321719  0.000000  1
  Nb  Nb2  1  0.328099  0.828099  0.000000  1
  Nb  Nb3  1  0.671901  0.171901  0.000000  1
  Ga  Ga4  1  0.500000  0.500000  0.000000  1
  Ga  Ga5  1  0.000000  0.000000  0.000000  1
  Fe  Fe6  1  0.500000  0.000000  0.500000  1
  B  B7  1  0.616675  0.883325  0.000000  1
  B  B8  1  0.383325  0.116675  0.000000  1
  B  B9  1  0.125236  0.625236  0.000000  1
  B  B10  1  0.874764  0.374764  0.000000  1
  Ru  Ru11  1  0.564609  0.720308  0.500000  1
  Ru  Ru12  1  0.435391  0.279692  0.500000  1
  Ru  Ru13  1  0.067695  0.785800  0.500000  1
  Ru  Ru14  1  0.932305  0.214200  0.500000  1
  Ru  Ru15  1  0.285800  0.567695  0.500000  1
  Ru  Ru16  1  0.714200  0.432305  0.500000  1
  Ru  Ru17  1  0.220308  0.064609  0.500000  1
  Ru  Ru18  1  0.779692  0.935391  0.500000  1
  Ru  Ru19  1  0.000000  0.500000  0.500000  1
