# generated using pymatgen
data_Tb2Al9NiIr2
_symmetry_space_group_name_H-M   'P 1'
_cell_length_a   7.53481644
_cell_length_b   7.53481599
_cell_length_c   9.43112316
_cell_angle_alpha   90.03894388
_cell_angle_beta   90.03894183
_cell_angle_gamma   119.68279410
_symmetry_Int_Tables_number   1
_chemical_formula_structural   Tb2Al9NiIr2
_chemical_formula_sum   'Tb4 Al18 Ni2 Ir4'
_cell_volume   465.17706246
_cell_formula_units_Z   2
loop_
 _symmetry_equiv_pos_site_id
 _symmetry_equiv_pos_as_xyz
  1  'x, y, z'
loop_
 _atom_site_type_symbol
 _atom_site_label
 _atom_site_symmetry_multiplicity
 _atom_site_fract_x
 _atom_site_fract_y
 _atom_site_fract_z
 _atom_site_occupancy
  Tb  Tb0  1  0.996095  0.670470  0.249774  1
  Tb  Tb1  1  0.005689  0.331390  0.750250  1
  Tb  Tb2  1  0.668610  0.994311  0.249750  1
  Tb  Tb3  1  0.329530  0.003905  0.750226  1
  Al  Al4  1  0.125972  0.125670  0.246221  1
  Al  Al5  1  0.874330  0.874028  0.753779  1
  Al  Al6  1  0.996538  0.332560  0.073863  1
  Al  Al7  1  0.997406  0.665793  0.926261  1
  Al  Al8  1  0.998456  0.665323  0.573987  1
  Al  Al9  1  0.334677  0.001544  0.426013  1
  Al  Al10  1  0.000540  0.333511  0.425592  1
  Al  Al11  1  0.666489  0.999460  0.574408  1
  Al  Al12  1  0.667440  0.003462  0.926137  1
  Al  Al13  1  0.334207  0.002594  0.073739  1
  Al  Al14  1  0.333968  0.333407  0.551632  1
  Al  Al15  1  0.666593  0.666032  0.448368  1
  Al  Al16  1  0.668301  0.667355  0.051861  1
  Al  Al17  1  0.332645  0.331699  0.948139  1
  Al  Al18  1  0.339486  0.546442  0.249049  1
  Al  Al19  1  0.660997  0.450179  0.753270  1
  Al  Al20  1  0.549821  0.339003  0.246730  1
  Al  Al21  1  0.453558  0.660514  0.750951  1
  Ni  Ni22  1  0.671144  0.328856  0.000000  1
  Ni  Ni23  1  0.999900  0.000100  0.000000  1
  Ir  Ir24  1  0.327482  0.672518  0.000000  1
  Ir  Ir25  1  0.328338  0.671662  0.500000  1
  Ir  Ir26  1  0.671645  0.328355  0.500000  1
  Ir  Ir27  1  0.000142  0.999858  0.500000  1
