# generated using pymatgen
data_Y4Ho8In2FeTc2
_symmetry_space_group_name_H-M   'P 1'
_cell_length_a   8.40874458
_cell_length_b   8.40885982
_cell_length_c   8.40874613
_cell_angle_alpha   108.68720605
_cell_angle_beta   108.74588275
_cell_angle_gamma   110.99078478
_symmetry_Int_Tables_number   1
_chemical_formula_structural   Y4Ho8In2FeTc2
_chemical_formula_sum   'Y4 Ho8 In2 Fe1 Tc2'
_cell_volume   457.45737736
_cell_formula_units_Z   1
loop_
 _symmetry_equiv_pos_site_id
 _symmetry_equiv_pos_as_xyz
  1  'x, y, z'
loop_
 _atom_site_type_symbol
 _atom_site_label
 _atom_site_symmetry_multiplicity
 _atom_site_fract_x
 _atom_site_fract_y
 _atom_site_fract_z
 _atom_site_occupancy
  Y  Y0  1  0.302857  0.302720  0.608733  1
  Y  Y1  1  0.694002  0.694160  0.391268  1
  Y  Y2  1  0.693987  0.302720  0.999863  1
  Y  Y3  1  0.302893  0.694160  0.000158  1
  Ho  Ho4  1  0.190305  0.430100  0.239795  1
  Ho  Ho5  1  0.806993  0.569782  0.762789  1
  Ho  Ho6  1  0.190293  0.950527  0.760235  1
  Ho  Ho7  1  0.950163  0.190108  0.760053  1
  Ho  Ho8  1  0.807000  0.044200  0.237200  1
  Ho  Ho9  1  0.044458  0.807153  0.237317  1
  Ho  Ho10  1  0.430055  0.190108  0.239944  1
  Ho  Ho11  1  0.569836  0.807153  0.762695  1
  In  In12  1  0.998189  0.498182  0.499993  1
  In  In13  1  0.498154  0.998134  0.499980  1
  Fe  Fe14  1  0.630367  0.630348  0.999982  1
  Tc  Tc15  1  0.389918  0.389931  0.000012  1
  Tc  Tc16  1  0.000530  0.000513  0.999983  1
