# generated using pymatgen
data_Nd2U(AlIr)3
_symmetry_space_group_name_H-M   'P 1'
_cell_length_a   7.16278331
_cell_length_b   7.26530040
_cell_length_c   4.03179700
_cell_angle_alpha   90.00000000
_cell_angle_beta   90.00000000
_cell_angle_gamma   120.48148891
_symmetry_Int_Tables_number   1
_chemical_formula_structural   Nd2U(AlIr)3
_chemical_formula_sum   'Nd2 U1 Al3 Ir3'
_cell_volume   180.81608177
_cell_formula_units_Z   1
loop_
 _symmetry_equiv_pos_site_id
 _symmetry_equiv_pos_as_xyz
  1  'x, y, z'
loop_
 _atom_site_type_symbol
 _atom_site_label
 _atom_site_symmetry_multiplicity
 _atom_site_fract_x
 _atom_site_fract_y
 _atom_site_fract_z
 _atom_site_occupancy
  Nd  Nd0  1  0.415730  0.419093  0.500000  1
  Nd  Nd1  1  0.584263  0.003378  0.500000  1
  U  U2  1  0.000014  0.581526  0.500000  1
  Al  Al3  1  0.764274  0.762079  0.000000  1
  Al  Al4  1  0.235743  0.997837  0.000000  1
  Al  Al5  1  0.999990  0.226884  0.000000  1
  Ir  Ir6  1  0.712232  0.370765  0.000000  1
  Ir  Ir7  1  0.287758  0.658575  0.000000  1
  Ir  Ir8  1  0.999997  0.979863  0.500000  1
