# generated using pymatgen
data_Tm3Lu3(Al3Ru)8
_symmetry_space_group_name_H-M   'P 1'
_cell_length_a   8.74924512
_cell_length_b   8.74680725
_cell_length_c   9.57396800
_cell_angle_alpha   90.00000000
_cell_angle_beta   90.00000000
_cell_angle_gamma   120.02823479
_symmetry_Int_Tables_number   1
_chemical_formula_structural   Tm3Lu3(Al3Ru)8
_chemical_formula_sum   'Tm3 Lu3 Al24 Ru8'
_cell_volume   634.33563698
_cell_formula_units_Z   1
loop_
 _symmetry_equiv_pos_site_id
 _symmetry_equiv_pos_as_xyz
  1  'x, y, z'
loop_
 _atom_site_type_symbol
 _atom_site_label
 _atom_site_symmetry_multiplicity
 _atom_site_fract_x
 _atom_site_fract_y
 _atom_site_fract_z
 _atom_site_occupancy
  Tm  Tm0  1  0.610411  0.805058  0.250000  1
  Tm  Tm1  1  0.805153  0.610875  0.750000  1
  Tm  Tm2  1  0.194434  0.389052  0.250000  1
  Lu  Lu3  1  0.804211  0.195681  0.750000  1
  Lu  Lu4  1  0.195488  0.804023  0.250000  1
  Lu  Lu5  1  0.390917  0.195617  0.750000  1
  Al  Al6  1  0.666685  0.333358  0.980442  1
  Al  Al7  1  0.333346  0.666680  0.019100  1
  Al  Al8  1  0.333346  0.666680  0.480900  1
  Al  Al9  1  0.666685  0.333358  0.519558  1
  Al  Al10  1  0.837053  0.162785  0.422579  1
  Al  Al11  1  0.162921  0.837417  0.577738  1
  Al  Al12  1  0.325563  0.162522  0.422543  1
  Al  Al13  1  0.162921  0.837417  0.922262  1
  Al  Al14  1  0.674371  0.837478  0.578013  1
  Al  Al15  1  0.837053  0.162785  0.077421  1
  Al  Al16  1  0.837352  0.674298  0.422263  1
  Al  Al17  1  0.674371  0.837478  0.921987  1
  Al  Al18  1  0.162655  0.325455  0.578027  1
  Al  Al19  1  0.325563  0.162522  0.077457  1
  Al  Al20  1  0.162655  0.325455  0.921973  1
  Al  Al21  1  0.837352  0.674298  0.077737  1
  Al  Al22  1  0.438012  0.561438  0.750000  1
  Al  Al23  1  0.561532  0.437950  0.250000  1
  Al  Al24  1  0.122987  0.561478  0.750000  1
  Al  Al25  1  0.876767  0.438373  0.250000  1
  Al  Al26  1  0.438364  0.877295  0.750000  1
  Al  Al27  1  0.561175  0.122915  0.250000  1
  Al  Al28  1  0.000465  0.001482  0.750000  1
  Al  Al29  1  0.000519  0.998926  0.250000  1
  Ru  Ru30  1  0.499928  0.499684  0.999671  1
  Ru  Ru31  1  0.000059  0.500051  0.000035  1
  Ru  Ru32  1  0.499928  0.499684  0.500329  1
  Ru  Ru33  1  0.499859  0.000180  0.999789  1
  Ru  Ru34  1  0.000059  0.500051  0.499965  1
  Ru  Ru35  1  0.499859  0.000180  0.500211  1
  Ru  Ru36  1  0.999992  0.000008  0.000089  1
  Ru  Ru37  1  0.999992  0.000008  0.499911  1
