# generated using pymatgen
data_TbTm(Si2Ni9)2
_symmetry_space_group_name_H-M   'P 1'
_cell_length_a   7.54794752
_cell_length_b   7.54769499
_cell_length_c   7.54794821
_cell_angle_alpha   99.61171585
_cell_angle_beta   99.56177738
_cell_angle_gamma   131.83185185
_symmetry_Int_Tables_number   1
_chemical_formula_structural   TbTm(Si2Ni9)2
_chemical_formula_sum   'Tb1 Tm1 Si4 Ni18'
_cell_volume   292.50163511
_cell_formula_units_Z   1
loop_
 _symmetry_equiv_pos_site_id
 _symmetry_equiv_pos_as_xyz
  1  'x, y, z'
loop_
 _atom_site_type_symbol
 _atom_site_label
 _atom_site_symmetry_multiplicity
 _atom_site_fract_x
 _atom_site_fract_y
 _atom_site_fract_z
 _atom_site_occupancy
  Tb  Tb0  1  0.499967  0.499985  0.000018  1
  Tm  Tm1  1  0.750042  0.250048  0.500006  1
  Si  Si2  1  0.625104  0.874429  0.750630  1
  Si  Si3  1  0.125622  0.374981  0.249359  1
  Si  Si4  1  0.125458  0.876117  0.750659  1
  Si  Si5  1  0.123800  0.874429  0.249325  1
  Ni  Ni6  1  0.249987  0.749985  0.499998  1
  Ni  Ni7  1  0.000011  0.000011  0.000000  1
  Ni  Ni8  1  0.686565  0.013477  0.079383  1
  Ni  Ni9  1  0.686584  0.607170  0.673112  1
  Ni  Ni10  1  0.262311  0.436335  0.578746  1
  Ni  Ni11  1  0.262259  0.683528  0.825970  1
  Ni  Ni12  1  0.934094  0.013477  0.326912  1
  Ni  Ni13  1  0.934058  0.607170  0.920586  1
  Ni  Ni14  1  0.857590  0.436335  0.174025  1
  Ni  Ni15  1  0.857558  0.683528  0.421269  1
  Ni  Ni16  1  0.563676  0.737712  0.421247  1
  Ni  Ni17  1  0.563708  0.142431  0.825991  1
  Ni  Ni18  1  0.986562  0.313450  0.920615  1
  Ni  Ni19  1  0.986502  0.065904  0.673100  1
  Ni  Ni20  1  0.316465  0.737712  0.174035  1
  Ni  Ni21  1  0.316440  0.142431  0.578723  1
  Ni  Ni22  1  0.392835  0.313450  0.326888  1
  Ni  Ni23  1  0.392804  0.065904  0.079402  1
