# generated using pymatgen
data_LiB2PdRh2
_symmetry_space_group_name_H-M   'P 1'
_cell_length_a   6.79990665
_cell_length_b   6.01299233
_cell_length_c   5.46003428
_cell_angle_alpha   72.51437788
_cell_angle_beta   57.50254266
_cell_angle_gamma   52.23293964
_symmetry_Int_Tables_number   1
_chemical_formula_structural   LiB2PdRh2
_chemical_formula_sum   'Li2 B4 Pd2 Rh4'
_cell_volume   148.70887322
_cell_formula_units_Z   2
loop_
 _symmetry_equiv_pos_site_id
 _symmetry_equiv_pos_as_xyz
  1  'x, y, z'
loop_
 _atom_site_type_symbol
 _atom_site_label
 _atom_site_symmetry_multiplicity
 _atom_site_fract_x
 _atom_site_fract_y
 _atom_site_fract_z
 _atom_site_occupancy
  Li  Li0  1  0.939710  0.756291  0.410276  1
  Li  Li1  1  0.493709  0.310290  0.356278  1
  B  B2  1  0.043554  0.995743  0.583574  1
  B  B3  1  0.681383  0.805662  0.164308  1
  B  B4  1  0.444338  0.568617  0.901354  1
  B  B5  1  0.254257  0.206446  0.872872  1
  Pd  Pd6  1  0.866221  0.377030  0.340589  1
  Pd  Pd7  1  0.872970  0.383779  0.833838  1
  Rh  Rh8  1  0.104638  0.640717  0.864417  1
  Rh  Rh9  1  0.354712  0.859573  0.146619  1
  Rh  Rh10  1  0.609283  0.145362  0.859772  1
  Rh  Rh11  1  0.390427  0.895288  0.610904  1
