# generated using pymatgen
data_BaNd2(CoH6)2
_symmetry_space_group_name_H-M   'P 1'
_cell_length_a   4.94214800
_cell_length_b   4.94214911
_cell_length_c   8.53414200
_cell_angle_alpha   90.00000000
_cell_angle_beta   90.00000000
_cell_angle_gamma   119.99999256
_symmetry_Int_Tables_number   1
_chemical_formula_structural   BaNd2(CoH6)2
_chemical_formula_sum   'Ba1 Nd2 Co2 H12'
_cell_volume   180.51866804
_cell_formula_units_Z   1
loop_
 _symmetry_equiv_pos_site_id
 _symmetry_equiv_pos_as_xyz
  1  'x, y, z'
loop_
 _atom_site_type_symbol
 _atom_site_label
 _atom_site_symmetry_multiplicity
 _atom_site_fract_x
 _atom_site_fract_y
 _atom_site_fract_z
 _atom_site_occupancy
  Ba  Ba0  1  0.000000  0.000000  0.000000  1
  Nd  Nd1  1  0.666667  0.333333  0.362513  1
  Nd  Nd2  1  0.333333  0.666667  0.637487  1
  Co  Co3  1  0.666667  0.333333  0.733985  1
  Co  Co4  1  0.333333  0.666667  0.266015  1
  H  H5  1  0.180616  0.819384  0.372731  1
  H  H6  1  0.638767  0.819384  0.372731  1
  H  H7  1  0.180616  0.361233  0.372731  1
  H  H8  1  0.819384  0.180616  0.627269  1
  H  H9  1  0.361233  0.180616  0.627269  1
  H  H10  1  0.819384  0.638767  0.627269  1
  H  H11  1  0.516859  0.033717  0.844270  1
  H  H12  1  0.516859  0.483141  0.844270  1
  H  H13  1  0.966283  0.483141  0.844270  1
  H  H14  1  0.483141  0.966283  0.155730  1
  H  H15  1  0.483141  0.516859  0.155730  1
  H  H16  1  0.033717  0.516859  0.155730  1
