# generated using pymatgen
data_Zr4AlFeRe6
_symmetry_space_group_name_H-M   'P 1'
_cell_length_a   5.24997800
_cell_length_b   5.24997809
_cell_length_c   8.63159500
_cell_angle_alpha   90.00000000
_cell_angle_beta   90.00000000
_cell_angle_gamma   119.99998682
_symmetry_Int_Tables_number   1
_chemical_formula_structural   Zr4AlFeRe6
_chemical_formula_sum   'Zr4 Al1 Fe1 Re6'
_cell_volume   206.03296795
_cell_formula_units_Z   1
loop_
 _symmetry_equiv_pos_site_id
 _symmetry_equiv_pos_as_xyz
  1  'x, y, z'
loop_
 _atom_site_type_symbol
 _atom_site_label
 _atom_site_symmetry_multiplicity
 _atom_site_fract_x
 _atom_site_fract_y
 _atom_site_fract_z
 _atom_site_occupancy
  Zr  Zr0  1  0.333333  0.666667  0.432254  1
  Zr  Zr1  1  0.666667  0.333333  0.936514  1
  Zr  Zr2  1  0.666667  0.333333  0.567746  1
  Zr  Zr3  1  0.333333  0.666667  0.063486  1
  Al  Al4  1  0.000000  0.000000  0.500000  1
  Fe  Fe5  1  0.000000  0.000000  0.000000  1
  Re  Re6  1  0.169300  0.338599  0.753620  1
  Re  Re7  1  0.830700  0.169300  0.246380  1
  Re  Re8  1  0.338599  0.169300  0.246380  1
  Re  Re9  1  0.661401  0.830700  0.753620  1
  Re  Re10  1  0.830700  0.661401  0.246380  1
  Re  Re11  1  0.169300  0.830700  0.753620  1
