# generated using pymatgen
data_Nd3Y3IrBr10
_symmetry_space_group_name_H-M   'P 1'
_cell_length_a   7.48959269
_cell_length_b   9.47738283
_cell_length_c   9.48231540
_cell_angle_alpha   107.71911912
_cell_angle_beta   94.87642381
_cell_angle_gamma   105.60432518
_symmetry_Int_Tables_number   1
_chemical_formula_structural   Nd3Y3IrBr10
_chemical_formula_sum   'Nd3 Y3 Ir1 Br10'
_cell_volume   607.20896499
_cell_formula_units_Z   1
loop_
 _symmetry_equiv_pos_site_id
 _symmetry_equiv_pos_as_xyz
  1  'x, y, z'
loop_
 _atom_site_type_symbol
 _atom_site_label
 _atom_site_symmetry_multiplicity
 _atom_site_fract_x
 _atom_site_fract_y
 _atom_site_fract_z
 _atom_site_occupancy
  Nd  Nd0  1  0.869508  0.950586  0.244134  1
  Nd  Nd1  1  0.132714  0.048750  0.756508  1
  Nd  Nd2  1  0.028047  0.693952  0.901047  1
  Y  Y3  1  0.970558  0.296957  0.094930  1
  Y  Y4  1  0.642873  0.870396  0.826962  1
  Y  Y5  1  0.356981  0.134596  0.174293  1
  Ir  Ir6  1  0.000325  0.999595  0.000112  1
  Br  Br7  1  0.642213  0.557547  0.733338  1
  Br  Br8  1  0.340116  0.443309  0.265007  1
  Br  Br9  1  0.753237  0.922933  0.556315  1
  Br  Br10  1  0.250230  0.079671  0.444131  1
  Br  Br11  1  0.912548  0.622490  0.172315  1
  Br  Br12  1  0.087213  0.367495  0.833112  1
  Br  Br13  1  0.553931  0.177905  0.919812  1
  Br  Br14  1  0.451354  0.828646  0.084096  1
  Br  Br15  1  0.239627  0.751029  0.657484  1
  Br  Br16  1  0.768524  0.254142  0.336407  1
