# generated using pymatgen
data_Y(Ge2Rh3)2
_symmetry_space_group_name_H-M   'P 1'
_cell_length_a   7.24675600
_cell_length_b   7.24675755
_cell_length_c   3.84331000
_cell_angle_alpha   90.00000000
_cell_angle_beta   90.00000000
_cell_angle_gamma   120.00000207
_symmetry_Int_Tables_number   1
_chemical_formula_structural   Y(Ge2Rh3)2
_chemical_formula_sum   'Y1 Ge4 Rh6'
_cell_volume   174.79274745
_cell_formula_units_Z   1
loop_
 _symmetry_equiv_pos_site_id
 _symmetry_equiv_pos_as_xyz
  1  'x, y, z'
loop_
 _atom_site_type_symbol
 _atom_site_label
 _atom_site_symmetry_multiplicity
 _atom_site_fract_x
 _atom_site_fract_y
 _atom_site_fract_z
 _atom_site_occupancy
  Y  Y0  1  0.000000  0.000000  0.000000  1
  Ge  Ge1  1  0.333334  0.666667  0.000000  1
  Ge  Ge2  1  0.393068  0.196534  0.499999  1
  Ge  Ge3  1  0.803467  0.196534  0.499999  1
  Ge  Ge4  1  0.803467  0.606932  0.499999  1
  Rh  Rh5  1  0.533650  0.067300  0.000000  1
  Rh  Rh6  1  0.533651  0.466350  0.000000  1
  Rh  Rh7  1  0.932699  0.466350  0.000000  1
  Rh  Rh8  1  0.198410  0.396820  0.499999  1
  Rh  Rh9  1  0.198410  0.801590  0.499999  1
  Rh  Rh10  1  0.603180  0.801590  0.499999  1
