# generated using pymatgen
data_CeU9Se20
_symmetry_space_group_name_H-M   'P 1'
_cell_length_a   10.70650614
_cell_length_b   10.70080992
_cell_length_c   6.62574989
_cell_angle_alpha   89.90800452
_cell_angle_beta   89.87325779
_cell_angle_gamma   89.83725415
_symmetry_Int_Tables_number   1
_chemical_formula_structural   CeU9Se20
_chemical_formula_sum   'Ce1 U9 Se20'
_cell_volume   759.09492526
_cell_formula_units_Z   1
loop_
 _symmetry_equiv_pos_site_id
 _symmetry_equiv_pos_as_xyz
  1  'x, y, z'
loop_
 _atom_site_type_symbol
 _atom_site_label
 _atom_site_symmetry_multiplicity
 _atom_site_fract_x
 _atom_site_fract_y
 _atom_site_fract_z
 _atom_site_occupancy
  Ce  Ce0  1  0.840221  0.152947  0.246953  1
  U  U1  1  0.654542  0.658379  0.249722  1
  U  U2  1  0.346416  0.340137  0.247773  1
  U  U3  1  0.158955  0.845065  0.248976  1
  U  U4  1  0.498597  0.999251  0.854753  1
  U  U5  1  0.340860  0.654674  0.752127  1
  U  U6  1  0.155161  0.160090  0.750367  1
  U  U7  1  0.846028  0.840131  0.752094  1
  U  U8  1  0.659148  0.346304  0.750757  1
  U  U9  1  0.000029  0.500024  0.145593  1
  Se  Se10  1  0.708695  0.088065  0.628882  1
  Se  Se11  1  0.589194  0.789343  0.618243  1
  Se  Se12  1  0.410644  0.208376  0.617389  1
  Se  Se13  1  0.291954  0.910409  0.617309  1
  Se  Se14  1  0.705311  0.908361  0.106518  1
  Se  Se15  1  0.583452  0.208782  0.107866  1
  Se  Se16  1  0.411428  0.791945  0.110481  1
  Se  Se17  1  0.290624  0.088088  0.109721  1
  Se  Se18  1  0.500033  0.501210  0.999956  1
  Se  Se19  1  0.002628  0.998177  0.997033  1
  Se  Se20  1  0.209434  0.412450  0.891030  1
  Se  Se21  1  0.087964  0.707162  0.889967  1
  Se  Se22  1  0.913774  0.294852  0.884083  1
  Se  Se23  1  0.792109  0.588166  0.891544  1
  Se  Se24  1  0.498880  0.498816  0.499292  1
  Se  Se25  1  0.001978  0.997955  0.503203  1
  Se  Se26  1  0.209087  0.590163  0.382152  1
  Se  Se27  1  0.091224  0.293526  0.383968  1
  Se  Se28  1  0.910979  0.710755  0.380058  1
  Se  Se29  1  0.790651  0.416394  0.382188  1
