# generated using pymatgen
data_Ce3NdSe4
_symmetry_space_group_name_H-M   'P 1'
_cell_length_a   7.33329089
_cell_length_b   7.33329102
_cell_length_c   7.33329000
_cell_angle_alpha   131.91353762
_cell_angle_beta   132.00046913
_cell_angle_gamma   70.29696224
_symmetry_Int_Tables_number   1
_chemical_formula_structural   Ce3NdSe4
_chemical_formula_sum   'Ce3 Nd1 Se4'
_cell_volume   213.74148533
_cell_formula_units_Z   1
loop_
 _symmetry_equiv_pos_site_id
 _symmetry_equiv_pos_as_xyz
  1  'x, y, z'
loop_
 _atom_site_type_symbol
 _atom_site_label
 _atom_site_symmetry_multiplicity
 _atom_site_fract_x
 _atom_site_fract_y
 _atom_site_fract_z
 _atom_site_occupancy
  Ce  Ce0  1  0.249380  0.249380  0.000000  1
  Ce  Ce1  1  0.750621  0.750621  0.000000  1
  Ce  Ce2  1  0.000000  0.500000  0.500000  1
  Nd  Nd3  1  0.500000  0.000000  0.500000  1
  Se  Se4  1  0.000000  0.000000  0.000000  1
  Se  Se5  1  0.500000  0.500000  0.000000  1
  Se  Se6  1  0.751181  0.251181  0.500000  1
  Se  Se7  1  0.248819  0.748819  0.500000  1
