# generated using pymatgen
data_Y3Al2(SiAg)2
_symmetry_space_group_name_H-M   'P 1'
_cell_length_a   4.29823800
_cell_length_b   7.07545325
_cell_length_c   6.90530000
_cell_angle_alpha   120.81852345
_cell_angle_beta   90.00000000
_cell_angle_gamma   90.00000000
_symmetry_Int_Tables_number   1
_chemical_formula_structural   Y3Al2(SiAg)2
_chemical_formula_sum   'Y3 Al2 Si2 Ag2'
_cell_volume   180.35011985
_cell_formula_units_Z   1
loop_
 _symmetry_equiv_pos_site_id
 _symmetry_equiv_pos_as_xyz
  1  'x, y, z'
loop_
 _atom_site_type_symbol
 _atom_site_label
 _atom_site_symmetry_multiplicity
 _atom_site_fract_x
 _atom_site_fract_y
 _atom_site_fract_z
 _atom_site_occupancy
  Y  Y0  1  0.000000  0.428442  0.000000  1
  Y  Y1  1  0.000000  0.574981  0.578708  1
  Y  Y2  1  0.000000  0.996274  0.421292  1
  Al  Al3  1  0.500000  0.244494  0.240984  1
  Al  Al4  1  0.500000  0.003511  0.759016  1
  Si  Si5  1  0.500000  0.665731  0.342746  1
  Si  Si6  1  0.500000  0.322984  0.657254  1
  Ag  Ag7  1  0.000000  0.018445  0.000000  1
  Ag  Ag8  1  0.500000  0.745236  0.000000  1
