# generated using pymatgen
data_Ca4TaTi2VO12
_symmetry_space_group_name_H-M   'P 1'
_cell_length_a   5.44612420
_cell_length_b   5.56474675
_cell_length_c   7.78786461
_cell_angle_alpha   89.82425081
_cell_angle_beta   89.83831409
_cell_angle_gamma   90.11631677
_symmetry_Int_Tables_number   1
_chemical_formula_structural   Ca4TaTi2VO12
_chemical_formula_sum   'Ca4 Ta1 Ti2 V1 O12'
_cell_volume   236.01883557
_cell_formula_units_Z   1
loop_
 _symmetry_equiv_pos_site_id
 _symmetry_equiv_pos_as_xyz
  1  'x, y, z'
loop_
 _atom_site_type_symbol
 _atom_site_label
 _atom_site_symmetry_multiplicity
 _atom_site_fract_x
 _atom_site_fract_y
 _atom_site_fract_z
 _atom_site_occupancy
  Ca  Ca0  1  0.993388  0.041308  0.741476  1
  Ca  Ca1  1  0.488354  0.447991  0.256223  1
  Ca  Ca2  1  0.511646  0.552009  0.743777  1
  Ca  Ca3  1  0.006612  0.958692  0.258524  1
  Ta  Ta4  1  0.000000  0.500000  0.000000  1
  Ti  Ti5  1  0.500000  0.000000  0.500000  1
  Ti  Ti6  1  0.000000  0.500000  0.500000  1
  V  V7  1  0.500000  0.000000  0.000000  1
  O  O8  1  0.916237  0.522996  0.251567  1
  O  O9  1  0.419643  0.977229  0.742482  1
  O  O10  1  0.580357  0.022771  0.257518  1
  O  O11  1  0.083763  0.477004  0.748433  1
  O  O12  1  0.702705  0.300413  0.957267  1
  O  O13  1  0.195595  0.206648  0.045815  1
  O  O14  1  0.793119  0.787149  0.540971  1
  O  O15  1  0.287688  0.708151  0.458141  1
  O  O16  1  0.712312  0.291849  0.541859  1
  O  O17  1  0.206881  0.212851  0.459029  1
  O  O18  1  0.297295  0.699587  0.042733  1
  O  O19  1  0.804405  0.793352  0.954185  1
