# generated using pymatgen
data_NdTh3(Si4Tc3)2
_symmetry_space_group_name_H-M   'P 1'
_cell_length_a   8.23175887
_cell_length_b   5.74726006
_cell_length_c   6.97933230
_cell_angle_alpha   76.63061925
_cell_angle_beta   90.03928236
_cell_angle_gamma   89.94399373
_symmetry_Int_Tables_number   1
_chemical_formula_structural   NdTh3(Si4Tc3)2
_chemical_formula_sum   'Nd1 Th3 Si8 Tc6'
_cell_volume   321.24397174
_cell_formula_units_Z   1
loop_
 _symmetry_equiv_pos_site_id
 _symmetry_equiv_pos_as_xyz
  1  'x, y, z'
loop_
 _atom_site_type_symbol
 _atom_site_label
 _atom_site_symmetry_multiplicity
 _atom_site_fract_x
 _atom_site_fract_y
 _atom_site_fract_z
 _atom_site_occupancy
  Nd  Nd0  1  0.568337  0.063632  0.252913  1
  Th  Th1  1  0.934628  0.566443  0.252072  1
  Th  Th2  1  0.435183  0.933598  0.749578  1
  Th  Th3  1  0.066559  0.433899  0.747214  1
  Si  Si4  1  0.587568  0.608699  0.116532  1
  Si  Si5  1  0.087714  0.888484  0.885150  1
  Si  Si6  1  0.413635  0.385848  0.889234  1
  Si  Si7  1  0.909744  0.113022  0.112095  1
  Si  Si8  1  0.750352  0.717921  0.590836  1
  Si  Si9  1  0.252057  0.785969  0.406349  1
  Si  Si10  1  0.251088  0.278779  0.407255  1
  Si  Si11  1  0.748616  0.219663  0.591709  1
  Tc  Tc12  1  0.290904  0.614062  0.116158  1
  Tc  Tc13  1  0.791606  0.885610  0.884564  1
  Tc  Tc14  1  0.709418  0.389390  0.882465  1
  Tc  Tc15  1  0.204760  0.115862  0.112576  1
  Tc  Tc16  1  0.497746  0.498458  0.502546  1
  Tc  Tc17  1  0.000084  0.000663  0.500753  1
