# generated using pymatgen
data_Tm7ThTl3InAu8
_symmetry_space_group_name_H-M   'P 1'
_cell_length_a   8.03666938
_cell_length_b   8.03924009
_cell_length_c   7.29596402
_cell_angle_alpha   90.00791807
_cell_angle_beta   90.00437025
_cell_angle_gamma   90.28442914
_symmetry_Int_Tables_number   1
_chemical_formula_structural   Tm7ThTl3InAu8
_chemical_formula_sum   'Tm7 Th1 Tl3 In1 Au8'
_cell_volume   471.37704362
_cell_formula_units_Z   1
loop_
 _symmetry_equiv_pos_site_id
 _symmetry_equiv_pos_as_xyz
  1  'x, y, z'
loop_
 _atom_site_type_symbol
 _atom_site_label
 _atom_site_symmetry_multiplicity
 _atom_site_fract_x
 _atom_site_fract_y
 _atom_site_fract_z
 _atom_site_occupancy
  Tm  Tm0  1  0.159580  0.839535  0.499725  1
  Tm  Tm1  1  0.339766  0.344510  0.000320  1
  Tm  Tm2  1  0.656410  0.659265  0.000390  1
  Tm  Tm3  1  0.680123  0.680334  0.499790  1
  Tm  Tm4  1  0.318911  0.320588  0.499706  1
  Tm  Tm5  1  0.182528  0.816887  0.000120  1
  Tm  Tm6  1  0.820533  0.180204  0.000199  1
  Th  Th7  1  0.841288  0.159615  0.499761  1
  Tl  Tl8  1  0.497554  0.997789  0.250779  1
  Tl  Tl9  1  0.002145  0.502374  0.749181  1
  Tl  Tl10  1  0.497652  0.997901  0.749198  1
  In  In11  1  0.002297  0.503036  0.250592  1
  Au  Au12  1  0.627067  0.377066  0.265865  1
  Au  Au13  1  0.368500  0.626840  0.273561  1
  Au  Au14  1  0.131199  0.125885  0.777492  1
  Au  Au15  1  0.873530  0.869238  0.777497  1
  Au  Au16  1  0.371750  0.628806  0.726091  1
  Au  Au17  1  0.624160  0.375345  0.734003  1
  Au  Au18  1  0.875416  0.866085  0.223057  1
  Au  Au19  1  0.129590  0.128697  0.222673  1
