# generated using pymatgen
data_Tb6Tm7Lu3(CdIr)4
_symmetry_space_group_name_H-M   'P 1'
_cell_length_a   9.55361755
_cell_length_b   9.55779331
_cell_length_c   9.54971785
_cell_angle_alpha   59.99902616
_cell_angle_beta   59.96731717
_cell_angle_gamma   59.95853690
_symmetry_Int_Tables_number   1
_chemical_formula_structural   Tb6Tm7Lu3(CdIr)4
_chemical_formula_sum   'Tb6 Tm7 Lu3 Cd4 Ir4'
_cell_volume   616.24618432
_cell_formula_units_Z   1
loop_
 _symmetry_equiv_pos_site_id
 _symmetry_equiv_pos_as_xyz
  1  'x, y, z'
loop_
 _atom_site_type_symbol
 _atom_site_label
 _atom_site_symmetry_multiplicity
 _atom_site_fract_x
 _atom_site_fract_y
 _atom_site_fract_z
 _atom_site_occupancy
  Tb  Tb0  1  0.189572  0.810255  0.810757  1
  Tb  Tb1  1  0.810757  0.189417  0.189572  1
  Tb  Tb2  1  0.810487  0.189513  0.810487  1
  Tb  Tb3  1  0.189478  0.810522  0.189478  1
  Tb  Tb4  1  0.810838  0.810316  0.189522  1
  Tb  Tb5  1  0.189522  0.189324  0.810838  1
  Tm  Tm6  1  0.598669  0.598085  0.598875  1
  Tm  Tm7  1  0.599204  0.598364  0.203912  1
  Tm  Tm8  1  0.598875  0.204374  0.598669  1
  Tm  Tm9  1  0.203912  0.598523  0.599204  1
  Tm  Tm10  1  0.061759  0.438114  0.437222  1
  Tm  Tm11  1  0.437222  0.062905  0.061759  1
  Tm  Tm12  1  0.437811  0.062189  0.437811  1
  Lu  Lu13  1  0.062477  0.437523  0.062477  1
  Lu  Lu14  1  0.437288  0.438171  0.061690  1
  Lu  Lu15  1  0.061690  0.062851  0.437288  1
  Cd  Cd16  1  0.830244  0.830339  0.830144  1
  Cd  Cd17  1  0.830294  0.830473  0.508865  1
  Cd  Cd18  1  0.830144  0.509275  0.830244  1
  Cd  Cd19  1  0.508865  0.830370  0.830294  1
  Ir  Ir20  1  0.392188  0.391625  0.391607  1
  Ir  Ir21  1  0.391816  0.391743  0.825288  1
  Ir  Ir22  1  0.391607  0.824581  0.392188  1
  Ir  Ir23  1  0.825288  0.391153  0.391816  1
