# generated using pymatgen
data_Lu12Th4Cd4IrOs3
_symmetry_space_group_name_H-M   'P 1'
_cell_length_a   9.57258415
_cell_length_b   9.62113483
_cell_length_c   9.62113600
_cell_angle_alpha   59.99999597
_cell_angle_beta   59.83207832
_cell_angle_gamma   59.83207668
_symmetry_Int_Tables_number   1
_chemical_formula_structural   Lu12Th4Cd4IrOs3
_chemical_formula_sum   'Lu12 Th4 Cd4 Ir1 Os3'
_cell_volume   624.97098785
_cell_formula_units_Z   1
loop_
 _symmetry_equiv_pos_site_id
 _symmetry_equiv_pos_as_xyz
  1  'x, y, z'
loop_
 _atom_site_type_symbol
 _atom_site_label
 _atom_site_symmetry_multiplicity
 _atom_site_fract_x
 _atom_site_fract_y
 _atom_site_fract_z
 _atom_site_occupancy
  Lu  Lu0  1  0.814790  0.187246  0.187246  1
  Lu  Lu1  1  0.184370  0.813478  0.813478  1
  Lu  Lu2  1  0.184370  0.813478  0.188674  1
  Lu  Lu3  1  0.814790  0.187246  0.810717  1
  Lu  Lu4  1  0.184370  0.188674  0.813478  1
  Lu  Lu5  1  0.814790  0.810717  0.187246  1
  Lu  Lu6  1  0.932675  0.565433  0.565433  1
  Lu  Lu7  1  0.558763  0.936419  0.936419  1
  Lu  Lu8  1  0.558763  0.936419  0.568398  1
  Lu  Lu9  1  0.932675  0.565433  0.936459  1
  Lu  Lu10  1  0.558763  0.568398  0.936419  1
  Lu  Lu11  1  0.932675  0.936459  0.565433  1
  Th  Th12  1  0.350217  0.351037  0.351037  1
  Th  Th13  1  0.350217  0.351037  0.947708  1
  Th  Th14  1  0.350217  0.947708  0.351037  1
  Th  Th15  1  0.955260  0.348247  0.348247  1
  Cd  Cd16  1  0.583679  0.582878  0.582878  1
  Cd  Cd17  1  0.583679  0.582878  0.250564  1
  Cd  Cd18  1  0.583679  0.250564  0.582878  1
  Cd  Cd19  1  0.248424  0.583858  0.583858  1
  Ir  Ir20  1  0.579521  0.140159  0.140159  1
  Os  Os21  1  0.147769  0.139628  0.139628  1
  Os  Os22  1  0.147769  0.139628  0.572971  1
  Os  Os23  1  0.147769  0.572971  0.139628  1
