# generated using pymatgen
data_Tb3DyCd2Si3Ge
_symmetry_space_group_name_H-M   'P 1'
_cell_length_a   7.22112541
_cell_length_b   7.22112525
_cell_length_c   4.23141000
_cell_angle_alpha   90.00000000
_cell_angle_beta   90.00000000
_cell_angle_gamma   90.05875478
_symmetry_Int_Tables_number   1
_chemical_formula_structural   Tb3DyCd2Si3Ge
_chemical_formula_sum   'Tb3 Dy1 Cd2 Si3 Ge1'
_cell_volume   220.64528155
_cell_formula_units_Z   1
loop_
 _symmetry_equiv_pos_site_id
 _symmetry_equiv_pos_as_xyz
  1  'x, y, z'
loop_
 _atom_site_type_symbol
 _atom_site_label
 _atom_site_symmetry_multiplicity
 _atom_site_fract_x
 _atom_site_fract_y
 _atom_site_fract_z
 _atom_site_occupancy
  Tb  Tb0  1  0.680122  0.177747  0.500000  1
  Tb  Tb1  1  0.322253  0.819878  0.500000  1
  Tb  Tb2  1  0.176038  0.323962  0.500000  1
  Dy  Dy3  1  0.822570  0.677430  0.500000  1
  Cd  Cd4  1  0.501295  0.502849  0.000000  1
  Cd  Cd5  1  0.997151  0.998705  0.000000  1
  Si  Si6  1  0.116653  0.617185  0.000000  1
  Si  Si7  1  0.882815  0.383347  0.000000  1
  Si  Si8  1  0.620256  0.879744  0.000000  1
  Ge  Ge9  1  0.380848  0.119152  0.000000  1
