# generated using pymatgen
data_Ba10TcPN10
_symmetry_space_group_name_H-M   'P 1'
_cell_length_a   8.02928702
_cell_length_b   8.02928718
_cell_length_c   9.47650927
_cell_angle_alpha   76.10636747
_cell_angle_beta   76.10637328
_cell_angle_gamma   95.93891421
_symmetry_Int_Tables_number   1
_chemical_formula_structural   Ba10TcPN10
_chemical_formula_sum   'Ba10 Tc1 P1 N10'
_cell_volume   567.24147654
_cell_formula_units_Z   1
loop_
 _symmetry_equiv_pos_site_id
 _symmetry_equiv_pos_as_xyz
  1  'x, y, z'
loop_
 _atom_site_type_symbol
 _atom_site_label
 _atom_site_symmetry_multiplicity
 _atom_site_fract_x
 _atom_site_fract_y
 _atom_site_fract_z
 _atom_site_occupancy
  Ba  Ba0  1  0.383445  0.399815  0.379405  1
  Ba  Ba1  1  0.600185  0.616555  0.620595  1
  Ba  Ba2  1  0.669737  0.669565  0.006562  1
  Ba  Ba3  1  0.330435  0.330263  0.993438  1
  Ba  Ba4  1  0.932491  0.914116  0.206392  1
  Ba  Ba5  1  0.085884  0.067509  0.793608  1
  Ba  Ba6  1  0.554381  0.085087  0.754387  1
  Ba  Ba7  1  0.914913  0.445619  0.245613  1
  Ba  Ba8  1  0.426051  0.898032  0.243225  1
  Ba  Ba9  1  0.101968  0.573949  0.756775  1
  Tc  Tc10  1  0.757319  0.242681  0.000000  1
  P  P11  1  0.242712  0.757288  0.000000  1
  N  N12  1  0.653530  0.650918  0.310524  1
  N  N13  1  0.349082  0.346470  0.689476  1
  N  N14  1  0.716120  0.018230  0.988918  1
  N  N15  1  0.981770  0.283880  0.011082  1
  N  N16  1  0.279986  0.967827  0.004584  1
  N  N17  1  0.032173  0.720014  0.995416  1
  N  N18  1  0.379345  0.728268  0.845223  1
  N  N19  1  0.271732  0.620655  0.154776  1
  N  N20  1  0.605702  0.268962  0.168299  1
  N  N21  1  0.731038  0.394298  0.831700  1
