# generated using pymatgen
data_AcTm2Rh9
_symmetry_space_group_name_H-M   'P 1'
_cell_length_a   5.31835509
_cell_length_b   5.31905071
_cell_length_c   17.55801600
_cell_angle_alpha   90.00000000
_cell_angle_beta   90.00000000
_cell_angle_gamma   120.02009042
_symmetry_Int_Tables_number   1
_chemical_formula_structural   AcTm2Rh9
_chemical_formula_sum   'Ac2 Tm4 Rh18'
_cell_volume   430.06052218
_cell_formula_units_Z   2
loop_
 _symmetry_equiv_pos_site_id
 _symmetry_equiv_pos_as_xyz
  1  'x, y, z'
loop_
 _atom_site_type_symbol
 _atom_site_label
 _atom_site_symmetry_multiplicity
 _atom_site_fract_x
 _atom_site_fract_y
 _atom_site_fract_z
 _atom_site_occupancy
  Ac  Ac0  1  0.333335  0.666694  0.750000  1
  Ac  Ac1  1  0.666665  0.333306  0.250000  1
  Tm  Tm2  1  0.333340  0.666670  0.539957  1
  Tm  Tm3  1  0.666660  0.333330  0.039957  1
  Tm  Tm4  1  0.666660  0.333330  0.460043  1
  Tm  Tm5  1  0.333340  0.666670  0.960043  1
  Rh  Rh6  1  0.167933  0.335823  0.122115  1
  Rh  Rh7  1  0.832067  0.664177  0.622115  1
  Rh  Rh8  1  0.664168  0.832050  0.122092  1
  Rh  Rh9  1  0.167933  0.832053  0.122148  1
  Rh  Rh10  1  0.832067  0.167947  0.622148  1
  Rh  Rh11  1  0.335832  0.167950  0.622092  1
  Rh  Rh12  1  0.832067  0.664177  0.877885  1
  Rh  Rh13  1  0.832067  0.167947  0.877852  1
  Rh  Rh14  1  0.335832  0.167950  0.877908  1
  Rh  Rh15  1  0.664168  0.832050  0.377908  1
  Rh  Rh16  1  0.167933  0.832053  0.377852  1
  Rh  Rh17  1  0.167933  0.335823  0.377885  1
  Rh  Rh18  1  0.999671  0.000002  0.250000  1
  Rh  Rh19  1  0.000329  0.999998  0.750000  1
  Rh  Rh20  1  0.333645  0.666620  0.250000  1
  Rh  Rh21  1  0.666355  0.333380  0.750000  1
  Rh  Rh22  1  0.000000  0.000000  0.000000  1
  Rh  Rh23  1  0.000000  0.000000  0.500000  1
