# generated using pymatgen
data_Th3Zn2CdCo3
_symmetry_space_group_name_H-M   'P 1'
_cell_length_a   7.17335700
_cell_length_b   7.33355832
_cell_length_c   3.85843800
_cell_angle_alpha   90.00000000
_cell_angle_beta   90.00000000
_cell_angle_gamma   119.27997199
_symmetry_Int_Tables_number   1
_chemical_formula_structural   Th3Zn2CdCo3
_chemical_formula_sum   'Th3 Zn2 Cd1 Co3'
_cell_volume   177.04548762
_cell_formula_units_Z   1
loop_
 _symmetry_equiv_pos_site_id
 _symmetry_equiv_pos_as_xyz
  1  'x, y, z'
loop_
 _atom_site_type_symbol
 _atom_site_label
 _atom_site_symmetry_multiplicity
 _atom_site_fract_x
 _atom_site_fract_y
 _atom_site_fract_z
 _atom_site_occupancy
  Th  Th0  1  0.996118  0.571028  0.500000  1
  Th  Th1  1  0.425090  0.428972  0.500000  1
  Th  Th2  1  0.603660  0.000000  0.500000  1
  Zn  Zn3  1  0.765500  0.757112  0.000000  1
  Zn  Zn4  1  0.008388  0.242888  0.000000  1
  Cd  Cd5  1  0.232298  0.000000  0.000000  1
  Co  Co6  1  0.328593  0.651498  0.000000  1
  Co  Co7  1  0.963256  0.000000  0.500000  1
  Co  Co8  1  0.677096  0.348502  0.000000  1
