# generated using pymatgen
data_MnCd(MoO4)2
_symmetry_space_group_name_H-M   'P 1'
_cell_length_a   7.31093591
_cell_length_b   8.95189411
_cell_length_c   10.07835530
_cell_angle_alpha   97.20066768
_cell_angle_beta   105.91981046
_cell_angle_gamma   102.21925248
_symmetry_Int_Tables_number   1
_chemical_formula_structural   MnCd(MoO4)2
_chemical_formula_sum   'Mn3 Cd3 Mo6 O24'
_cell_volume   608.01022029
_cell_formula_units_Z   3
loop_
 _symmetry_equiv_pos_site_id
 _symmetry_equiv_pos_as_xyz
  1  'x, y, z'
loop_
 _atom_site_type_symbol
 _atom_site_label
 _atom_site_symmetry_multiplicity
 _atom_site_fract_x
 _atom_site_fract_y
 _atom_site_fract_z
 _atom_site_occupancy
  Mn  Mn0  1  0.257439  0.691906  0.910526  1
  Mn  Mn1  1  0.742489  0.307701  0.087136  1
  Mn  Mn2  1  0.527576  0.698228  0.485190  1
  Cd  Cd3  1  0.471107  0.309368  0.514866  1
  Cd  Cd4  1  0.973528  0.898006  0.716915  1
  Cd  Cd5  1  0.023323  0.096668  0.277329  1
  Mo  Mo6  1  0.506612  0.991372  0.758958  1
  Mo  Mo7  1  0.492169  0.003205  0.242084  1
  Mo  Mo8  1  0.703817  0.606259  0.843899  1
  Mo  Mo9  1  0.296409  0.399952  0.156529  1
  Mo  Mo10  1  0.975571  0.693103  0.372375  1
  Mo  Mo11  1  0.029704  0.302964  0.631387  1
  O  O12  1  0.780029  0.295683  0.546949  1
  O  O13  1  0.226480  0.701726  0.459542  1
  O  O14  1  0.642613  0.873942  0.679890  1
  O  O15  1  0.352484  0.125050  0.310801  1
  O  O16  1  0.969436  0.846794  0.274157  1
  O  O17  1  0.037942  0.149716  0.730090  1
  O  O18  1  0.732286  0.443454  0.923277  1
  O  O19  1  0.258151  0.555632  0.069747  1
  O  O20  1  0.849289  0.725046  0.504509  1
  O  O21  1  0.140469  0.268383  0.491113  1
  O  O22  1  0.950311  0.727529  0.865939  1
  O  O23  1  0.052118  0.274749  0.136366  1
  O  O24  1  0.552447  0.873175  0.355896  1
  O  O25  1  0.437595  0.121407  0.649069  1
  O  O26  1  0.281258  0.868595  0.774410  1
  O  O27  1  0.716990  0.125465  0.226200  1
  O  O28  1  0.857742  0.510759  0.254290  1
  O  O29  1  0.152373  0.486512  0.746819  1
  O  O30  1  0.660082  0.102116  0.924672  1
  O  O31  1  0.342034  0.893302  0.076035  1
  O  O32  1  0.571320  0.543761  0.655692  1
  O  O33  1  0.430166  0.479348  0.342636  1
  O  O34  1  0.565735  0.709390  0.923613  1
  O  O35  1  0.440909  0.299737  0.081098  1
