# generated using pymatgen
data_Ba10YbNb4O20
_symmetry_space_group_name_H-M   'P 1'
_cell_length_a   9.43133299
_cell_length_b   9.43133151
_cell_length_c   9.43128100
_cell_angle_alpha   120.72646636
_cell_angle_beta   120.72537267
_cell_angle_gamma   88.74755415
_symmetry_Int_Tables_number   1
_chemical_formula_structural   Ba10YbNb4O20
_chemical_formula_sum   'Ba10 Yb1 Nb4 O20'
_cell_volume   586.53824778
_cell_formula_units_Z   1
loop_
 _symmetry_equiv_pos_site_id
 _symmetry_equiv_pos_as_xyz
  1  'x, y, z'
loop_
 _atom_site_type_symbol
 _atom_site_label
 _atom_site_symmetry_multiplicity
 _atom_site_fract_x
 _atom_site_fract_y
 _atom_site_fract_z
 _atom_site_occupancy
  Ba  Ba0  1  0.759980  0.146886  0.195378  1
  Ba  Ba1  1  0.357924  0.357924  0.000001  1
  Ba  Ba2  1  0.951506  0.564601  0.804621  1
  Ba  Ba3  1  0.564606  0.759975  0.613092  1
  Ba  Ba4  1  0.146884  0.951514  0.386911  1
  Ba  Ba5  1  0.642076  0.642076  0.999999  1
  Ba  Ba6  1  0.240020  0.853114  0.804622  1
  Ba  Ba7  1  0.853116  0.048486  0.613089  1
  Ba  Ba8  1  0.435394  0.240025  0.386908  1
  Ba  Ba9  1  0.048494  0.435399  0.195379  1
  Yb  Yb10  1  0.000000  0.000000  0.000000  1
  Nb  Nb11  1  0.596554  0.200484  0.797036  1
  Nb  Nb12  1  0.200490  0.403444  0.603935  1
  Nb  Nb13  1  0.799510  0.596556  0.396065  1
  Nb  Nb14  1  0.403446  0.799516  0.202964  1
  O  O15  1  0.557247  0.951337  0.205805  1
  O  O16  1  0.171568  0.171569  0.000000  1
  O  O17  1  0.745533  0.351443  0.794195  1
  O  O18  1  0.351446  0.557244  0.605906  1
  O  O19  1  0.951337  0.745540  0.394094  1
  O  O20  1  0.828432  0.828431  0.000000  1
  O  O21  1  0.442753  0.048663  0.794195  1
  O  O22  1  0.048663  0.254460  0.605906  1
  O  O23  1  0.648554  0.442756  0.394094  1
  O  O24  1  0.254467  0.648557  0.205805  1
  O  O25  1  0.699052  0.394750  0.093802  1
  O  O26  1  0.300948  0.605250  0.906198  1
  O  O27  1  0.895773  0.786831  0.682604  1
  O  O28  1  0.500000  0.000000  0.500000  1
  O  O29  1  0.104227  0.213169  0.317396  1
  O  O30  1  0.000000  0.500000  0.500000  1
  O  O31  1  0.605249  0.699050  0.304301  1
  O  O32  1  0.213170  0.895779  0.108949  1
  O  O33  1  0.786830  0.104221  0.891051  1
  O  O34  1  0.394751  0.300950  0.695699  1
