# generated using pymatgen
data_Ti2Ir2PbS8
_symmetry_space_group_name_H-M   'P 1'
_cell_length_a   6.75990162
_cell_length_b   6.75990055
_cell_length_c   9.08755042
_cell_angle_alpha   57.91145097
_cell_angle_beta   57.91145564
_cell_angle_gamma   62.93768753
_symmetry_Int_Tables_number   1
_chemical_formula_structural   Ti2Ir2PbS8
_chemical_formula_sum   'Ti2 Ir2 Pb1 S8'
_cell_volume   289.31517862
_cell_formula_units_Z   1
loop_
 _symmetry_equiv_pos_site_id
 _symmetry_equiv_pos_as_xyz
  1  'x, y, z'
loop_
 _atom_site_type_symbol
 _atom_site_label
 _atom_site_symmetry_multiplicity
 _atom_site_fract_x
 _atom_site_fract_y
 _atom_site_fract_z
 _atom_site_occupancy
  Ti  Ti0  1  0.212835  0.212835  0.998045  1
  Ti  Ti1  1  0.787165  0.787165  0.001955  1
  Ir  Ir2  1  0.758372  0.241628  0.000000  1
  Ir  Ir3  1  0.241628  0.758372  0.000000  1
  Pb  Pb4  1  0.500000  0.500000  0.500000  1
  S  S5  1  0.998098  0.470934  0.198445  1
  S  S6  1  0.470934  0.998098  0.198445  1
  S  S7  1  0.507373  0.507373  0.165535  1
  S  S8  1  0.959969  0.959969  0.214849  1
  S  S9  1  0.040031  0.040031  0.785151  1
  S  S10  1  0.492627  0.492627  0.834465  1
  S  S11  1  0.529066  0.001902  0.801555  1
  S  S12  1  0.001902  0.529066  0.801555  1
