# generated using pymatgen
data_Y12Lu3Mg5Sn16
_symmetry_space_group_name_H-M   'P 1'
_cell_length_a   7.63543587
_cell_length_b   8.22365798
_cell_length_c   15.24488155
_cell_angle_alpha   90.00157641
_cell_angle_beta   89.95740404
_cell_angle_gamma   89.94111318
_symmetry_Int_Tables_number   1
_chemical_formula_structural   Y12Lu3Mg5Sn16
_chemical_formula_sum   'Y12 Lu3 Mg5 Sn16'
_cell_volume   957.24383564
_cell_formula_units_Z   1
loop_
 _symmetry_equiv_pos_site_id
 _symmetry_equiv_pos_as_xyz
  1  'x, y, z'
loop_
 _atom_site_type_symbol
 _atom_site_label
 _atom_site_symmetry_multiplicity
 _atom_site_fract_x
 _atom_site_fract_y
 _atom_site_fract_z
 _atom_site_occupancy
  Y  Y0  1  0.657141  0.169271  0.128025  1
  Y  Y1  1  0.160218  0.327413  0.370626  1
  Y  Y2  1  0.342661  0.827384  0.629588  1
  Y  Y3  1  0.836506  0.670392  0.872039  1
  Y  Y4  1  0.502118  0.317226  0.908040  1
  Y  Y5  1  0.005838  0.182266  0.593311  1
  Y  Y6  1  0.500732  0.681863  0.409176  1
  Y  Y7  1  0.995725  0.815499  0.090828  1
  Y  Y8  1  0.494519  0.683306  0.088964  1
  Y  Y9  1  0.999884  0.819310  0.407773  1
  Y  Y10  1  0.500227  0.315841  0.592643  1
  Y  Y11  1  0.003737  0.186625  0.905573  1
  Lu  Lu12  1  0.836634  0.672286  0.628261  1
  Lu  Lu13  1  0.662741  0.171168  0.372010  1
  Lu  Lu14  1  0.162196  0.330333  0.125663  1
  Mg  Mg15  1  0.340524  0.834131  0.874718  1
  Mg  Mg16  1  0.162209  0.496364  0.749843  1
  Mg  Mg17  1  0.668491  0.005044  0.752201  1
  Mg  Mg18  1  0.834798  0.504224  0.249952  1
  Mg  Mg19  1  0.335041  0.993652  0.250606  1
  Sn  Sn20  1  0.316689  0.035279  0.036622  1
  Sn  Sn21  1  0.818191  0.461427  0.463739  1
  Sn  Sn22  1  0.686437  0.963631  0.538282  1
  Sn  Sn23  1  0.182612  0.540636  0.958952  1
  Sn  Sn24  1  0.679326  0.964663  0.960724  1
  Sn  Sn25  1  0.181234  0.537980  0.537442  1
  Sn  Sn26  1  0.318929  0.038563  0.463392  1
  Sn  Sn27  1  0.816450  0.461025  0.038050  1
  Sn  Sn28  1  0.524625  0.594682  0.753349  1
  Sn  Sn29  1  0.035330  0.898439  0.752707  1
  Sn  Sn30  1  0.472056  0.406289  0.249396  1
  Sn  Sn31  1  0.972371  0.093850  0.248187  1
  Sn  Sn32  1  0.306046  0.150157  0.751751  1
  Sn  Sn33  1  0.802681  0.351587  0.748895  1
  Sn  Sn34  1  0.692616  0.848392  0.249636  1
  Sn  Sn35  1  0.192469  0.649803  0.249034  1
