# generated using pymatgen
data_Zr10CuSiHgBi5
_symmetry_space_group_name_H-M   'P 1'
_cell_length_a   8.79776308
_cell_length_b   8.82369155
_cell_length_c   5.94822655
_cell_angle_alpha   90.15815936
_cell_angle_beta   89.68275434
_cell_angle_gamma   119.90284630
_symmetry_Int_Tables_number   1
_chemical_formula_structural   Zr10CuSiHgBi5
_chemical_formula_sum   'Zr10 Cu1 Si1 Hg1 Bi5'
_cell_volume   400.27493132
_cell_formula_units_Z   1
loop_
 _symmetry_equiv_pos_site_id
 _symmetry_equiv_pos_as_xyz
  1  'x, y, z'
loop_
 _atom_site_type_symbol
 _atom_site_label
 _atom_site_symmetry_multiplicity
 _atom_site_fract_x
 _atom_site_fract_y
 _atom_site_fract_z
 _atom_site_occupancy
  Zr  Zr0  1  0.735410  0.000000  0.253588  1
  Zr  Zr1  1  0.006072  0.744246  0.253014  1
  Zr  Zr2  1  0.261826  0.255754  0.253014  1
  Zr  Zr3  1  0.256646  0.000000  0.746609  1
  Zr  Zr4  1  0.999185  0.257010  0.746180  1
  Zr  Zr5  1  0.742175  0.742990  0.746180  1
  Zr  Zr6  1  0.334223  0.668058  0.497817  1
  Zr  Zr7  1  0.666166  0.331942  0.497817  1
  Zr  Zr8  1  0.665407  0.331767  0.002196  1
  Zr  Zr9  1  0.333639  0.668233  0.002196  1
  Cu  Cu10  1  0.001226  0.000000  0.007172  1
  Si  Si11  1  0.998941  0.000000  0.494562  1
  Hg  Hg12  1  0.388179  0.000000  0.248147  1
  Bi  Bi13  1  0.001338  0.388412  0.246521  1
  Bi  Bi14  1  0.612926  0.611588  0.246521  1
  Bi  Bi15  1  0.605898  0.000000  0.753910  1
  Bi  Bi16  1  0.000865  0.610989  0.752279  1
  Bi  Bi17  1  0.389876  0.389011  0.752279  1
