# generated using pymatgen
data_HfZr7Se12
_symmetry_space_group_name_H-M   'P 1'
_cell_length_a   6.51775854
_cell_length_b   6.51798593
_cell_length_c   13.29981011
_cell_angle_alpha   75.76775448
_cell_angle_beta   75.81320910
_cell_angle_gamma   59.86788712
_symmetry_Int_Tables_number   1
_chemical_formula_structural   HfZr7Se12
_chemical_formula_sum   'Hf1 Zr7 Se12'
_cell_volume   468.64808956
_cell_formula_units_Z   1
loop_
 _symmetry_equiv_pos_site_id
 _symmetry_equiv_pos_as_xyz
  1  'x, y, z'
loop_
 _atom_site_type_symbol
 _atom_site_label
 _atom_site_symmetry_multiplicity
 _atom_site_fract_x
 _atom_site_fract_y
 _atom_site_fract_z
 _atom_site_occupancy
  Hf  Hf0  1  0.668637  0.832777  0.997994  1
  Zr  Zr1  1  0.253827  0.090144  0.231470  1
  Zr  Zr2  1  0.087798  0.256355  0.730924  1
  Zr  Zr3  1  0.166745  0.999777  0.498614  1
  Zr  Zr4  1  0.832632  0.668020  0.498886  1
  Zr  Zr5  1  0.502996  0.334266  0.498538  1
  Zr  Zr6  1  0.333815  0.502008  0.998866  1
  Zr  Zr7  1  0.000751  0.166768  0.998874  1
  Se  Se8  1  0.382669  0.207033  0.870101  1
  Se  Se9  1  0.708873  0.551097  0.867661  1
  Se  Se10  1  0.040387  0.875099  0.867578  1
  Se  Se11  1  0.546647  0.709778  0.366269  1
  Se  Se12  1  0.875547  0.045251  0.366043  1
  Se  Se13  1  0.211375  0.379122  0.368635  1
  Se  Se14  1  0.296547  0.774423  0.127555  1
  Se  Se15  1  0.638403  0.119985  0.126940  1
  Se  Se16  1  0.940260  0.476379  0.127550  1
  Se  Se17  1  0.124743  0.636945  0.628473  1
  Se  Se18  1  0.472302  0.943295  0.628889  1
  Se  Se19  1  0.774594  0.291025  0.629107  1
