# generated using pymatgen
data_Tm12Th8Sn9Sb7
_symmetry_space_group_name_H-M   'P 1'
_cell_length_a   8.13345328
_cell_length_b   8.08594017
_cell_length_c   15.29855070
_cell_angle_alpha   90.02047780
_cell_angle_beta   89.97216355
_cell_angle_gamma   89.98870542
_symmetry_Int_Tables_number   1
_chemical_formula_structural   Tm12Th8Sn9Sb7
_chemical_formula_sum   'Tm12 Th8 Sn9 Sb7'
_cell_volume   1006.13371527
_cell_formula_units_Z   1
loop_
 _symmetry_equiv_pos_site_id
 _symmetry_equiv_pos_as_xyz
  1  'x, y, z'
loop_
 _atom_site_type_symbol
 _atom_site_label
 _atom_site_symmetry_multiplicity
 _atom_site_fract_x
 _atom_site_fract_y
 _atom_site_fract_z
 _atom_site_occupancy
  Tm  Tm0  1  0.360164  0.839344  0.876310  1
  Tm  Tm1  1  0.861209  0.660123  0.623564  1
  Tm  Tm2  1  0.638966  0.159939  0.376519  1
  Tm  Tm3  1  0.137832  0.339616  0.124189  1
  Tm  Tm4  1  0.640206  0.161144  0.123605  1
  Tm  Tm5  1  0.138513  0.339513  0.376489  1
  Tm  Tm6  1  0.360960  0.839883  0.623654  1
  Tm  Tm7  1  0.860948  0.660522  0.876095  1
  Tm  Tm8  1  0.189339  0.494864  0.749844  1
  Tm  Tm9  1  0.689177  0.004906  0.750007  1
  Tm  Tm10  1  0.810488  0.504643  0.249095  1
  Tm  Tm11  1  0.310663  0.995330  0.249825  1
  Th  Th12  1  0.518602  0.321900  0.906020  1
  Th  Th13  1  0.018684  0.178692  0.593638  1
  Th  Th14  1  0.481244  0.678643  0.406019  1
  Th  Th15  1  0.981785  0.821590  0.094300  1
  Th  Th16  1  0.483250  0.678168  0.093880  1
  Th  Th17  1  0.981639  0.821234  0.406437  1
  Th  Th18  1  0.518601  0.320987  0.594008  1
  Th  Th19  1  0.017749  0.179074  0.906120  1
  Sn  Sn20  1  0.800120  0.459020  0.043080  1
  Sn  Sn21  1  0.555517  0.621726  0.749712  1
  Sn  Sn22  1  0.055608  0.878584  0.749776  1
  Sn  Sn23  1  0.444026  0.378422  0.250408  1
  Sn  Sn24  1  0.944488  0.121148  0.250680  1
  Sn  Sn25  1  0.324124  0.143418  0.750078  1
  Sn  Sn26  1  0.824227  0.356347  0.749846  1
  Sn  Sn27  1  0.676032  0.856548  0.250209  1
  Sn  Sn28  1  0.176128  0.643481  0.250164  1
  Sb  Sb29  1  0.298980  0.041201  0.043699  1
  Sb  Sb30  1  0.798874  0.459085  0.456100  1
  Sb  Sb31  1  0.701007  0.959228  0.544051  1
  Sb  Sb32  1  0.199781  0.540895  0.956559  1
  Sb  Sb33  1  0.700837  0.959506  0.956024  1
  Sb  Sb34  1  0.201338  0.540684  0.543917  1
  Sb  Sb35  1  0.298898  0.040589  0.456081  1
