# generated using pymatgen
data_Y2HoTm3MnCo17P12
_symmetry_space_group_name_H-M   'P 1'
_cell_length_a   3.67862300
_cell_length_b   10.48465010
_cell_length_c   12.13891300
_cell_angle_alpha   89.99209800
_cell_angle_beta   90.00000000
_cell_angle_gamma   90.00000000
_symmetry_Int_Tables_number   1
_chemical_formula_structural   Y2HoTm3MnCo17P12
_chemical_formula_sum   'Y2 Ho1 Tm3 Mn1 Co17 P12'
_cell_volume   468.18664151
_cell_formula_units_Z   1
loop_
 _symmetry_equiv_pos_site_id
 _symmetry_equiv_pos_as_xyz
  1  'x, y, z'
loop_
 _atom_site_type_symbol
 _atom_site_label
 _atom_site_symmetry_multiplicity
 _atom_site_fract_x
 _atom_site_fract_y
 _atom_site_fract_z
 _atom_site_occupancy
  Y  Y0  1  0.000000  0.499824  0.522650  1
  Y  Y1  1  0.500000  0.000190  0.477158  1
  Ho  Ho2  1  0.500000  0.818090  0.204941  1
  Tm  Tm3  1  0.500000  0.182020  0.204966  1
  Tm  Tm4  1  0.000000  0.681341  0.794113  1
  Tm  Tm5  1  0.000000  0.318637  0.793922  1
  Mn  Mn6  1  0.000000  0.000156  0.840970  1
  Co  Co7  1  0.500000  0.499939  0.159396  1
  Co  Co8  1  0.500000  0.499886  0.704715  1
  Co  Co9  1  0.000000  0.000625  0.296068  1
  Co  Co10  1  0.000000  0.499664  0.985890  1
  Co  Co11  1  0.500000  0.000350  0.013427  1
  Co  Co12  1  0.500000  0.333082  0.994190  1
  Co  Co13  1  0.500000  0.666574  0.993848  1
  Co  Co14  1  0.000000  0.167225  0.005693  1
  Co  Co15  1  0.000000  0.833111  0.005420  1
  Co  Co16  1  0.500000  0.296823  0.430473  1
  Co  Co17  1  0.500000  0.703111  0.430979  1
  Co  Co18  1  0.000000  0.203235  0.570192  1
  Co  Co19  1  0.000000  0.796838  0.570530  1
  Co  Co20  1  0.500000  0.878906  0.710327  1
  Co  Co21  1  0.500000  0.121135  0.710165  1
  Co  Co22  1  0.000000  0.620758  0.290472  1
  Co  Co23  1  0.000000  0.378561  0.290012  1
  P  P24  1  0.500000  0.499805  0.882740  1
  P  P25  1  0.000000  0.000629  0.117363  1
  P  P26  1  0.500000  0.500022  0.343199  1
  P  P27  1  0.000000  0.999985  0.654891  1
  P  P28  1  0.500000  0.311267  0.617038  1
  P  P29  1  0.500000  0.688629  0.617292  1
  P  P30  1  0.000000  0.189205  0.382770  1
  P  P31  1  0.000000  0.810932  0.383542  1
  P  P32  1  0.500000  0.846074  0.892899  1
  P  P33  1  0.500000  0.154096  0.892700  1
  P  P34  1  0.000000  0.652071  0.107321  1
  P  P35  1  0.000000  0.347203  0.107729  1
