# generated using pymatgen
data_Pr2Y6Co3Si12Pd
_symmetry_space_group_name_H-M   'P 1'
_cell_length_a   8.07039400
_cell_length_b   8.07039517
_cell_length_c   8.24620000
_cell_angle_alpha   90.00000000
_cell_angle_beta   90.00000000
_cell_angle_gamma   120.00000339
_symmetry_Int_Tables_number   1
_chemical_formula_structural   Pr2Y6Co3Si12Pd
_chemical_formula_sum   'Pr2 Y6 Co3 Si12 Pd1'
_cell_volume   465.12964397
_cell_formula_units_Z   1
loop_
 _symmetry_equiv_pos_site_id
 _symmetry_equiv_pos_as_xyz
  1  'x, y, z'
loop_
 _atom_site_type_symbol
 _atom_site_label
 _atom_site_symmetry_multiplicity
 _atom_site_fract_x
 _atom_site_fract_y
 _atom_site_fract_z
 _atom_site_occupancy
  Pr  Pr0  1  0.000000  0.000000  0.751048  1
  Pr  Pr1  1  0.000000  0.000000  0.248240  1
  Y  Y2  1  0.496211  0.503789  0.753729  1
  Y  Y3  1  0.498435  0.501565  0.247236  1
  Y  Y4  1  0.007577  0.503789  0.753729  1
  Y  Y5  1  0.003131  0.501565  0.247236  1
  Y  Y6  1  0.496211  0.992423  0.753729  1
  Y  Y7  1  0.498435  0.996869  0.247236  1
  Co  Co8  1  0.666667  0.333333  0.991926  1
  Co  Co9  1  0.333333  0.666667  0.008875  1
  Co  Co10  1  0.333333  0.666667  0.490204  1
  Si  Si11  1  0.826069  0.173931  0.001141  1
  Si  Si12  1  0.172794  0.827206  0.998873  1
  Si  Si13  1  0.347861  0.173931  0.001141  1
  Si  Si14  1  0.174053  0.825947  0.502257  1
  Si  Si15  1  0.654410  0.827206  0.998873  1
  Si  Si16  1  0.834529  0.165471  0.497302  1
  Si  Si17  1  0.826069  0.652139  0.001141  1
  Si  Si18  1  0.651894  0.825947  0.502257  1
  Si  Si19  1  0.172794  0.345590  0.998873  1
  Si  Si20  1  0.330942  0.165471  0.497302  1
  Si  Si21  1  0.174053  0.348106  0.502257  1
  Si  Si22  1  0.834529  0.669058  0.497302  1
  Pd  Pd23  1  0.666667  0.333333  0.508097  1
