# generated using pymatgen
data_Y2Tm8GaBi5
_symmetry_space_group_name_H-M   'P 1'
_cell_length_a   8.10897100
_cell_length_b   9.35478600
_cell_length_c   11.89723300
_cell_angle_alpha   90.00000000
_cell_angle_beta   90.00000000
_cell_angle_gamma   90.00000000
_symmetry_Int_Tables_number   1
_chemical_formula_structural   Y2Tm8GaBi5
_chemical_formula_sum   'Y4 Tm16 Ga2 Bi10'
_cell_volume   902.49659356
_cell_formula_units_Z   2
loop_
 _symmetry_equiv_pos_site_id
 _symmetry_equiv_pos_as_xyz
  1  'x, y, z'
loop_
 _atom_site_type_symbol
 _atom_site_label
 _atom_site_symmetry_multiplicity
 _atom_site_fract_x
 _atom_site_fract_y
 _atom_site_fract_z
 _atom_site_occupancy
  Y  Y0  1  0.312334  0.250000  0.218827  1
  Y  Y1  1  0.812334  0.250000  0.281173  1
  Y  Y2  1  0.677868  0.750000  0.786116  1
  Y  Y3  1  0.177868  0.750000  0.713884  1
  Tm  Tm4  1  0.353174  0.750000  0.206436  1
  Tm  Tm5  1  0.853174  0.750000  0.293564  1
  Tm  Tm6  1  0.652479  0.250000  0.782744  1
  Tm  Tm7  1  0.152479  0.250000  0.717256  1
  Tm  Tm8  1  0.684107  0.571732  0.056109  1
  Tm  Tm9  1  0.184107  0.928268  0.443891  1
  Tm  Tm10  1  0.309366  0.049467  0.940443  1
  Tm  Tm11  1  0.809366  0.450533  0.559557  1
  Tm  Tm12  1  0.309366  0.450533  0.940443  1
  Tm  Tm13  1  0.809366  0.049467  0.559557  1
  Tm  Tm14  1  0.684107  0.928268  0.056109  1
  Tm  Tm15  1  0.184107  0.571732  0.443891  1
  Tm  Tm16  1  0.480128  0.250000  0.490413  1
  Tm  Tm17  1  0.980128  0.250000  0.009587  1
  Tm  Tm18  1  0.536316  0.750000  0.509817  1
  Tm  Tm19  1  0.036316  0.750000  0.990183  1
  Ga  Ga20  1  0.409074  0.750000  0.961202  1
  Ga  Ga21  1  0.909074  0.750000  0.538798  1
  Bi  Bi22  1  0.594641  0.250000  0.040312  1
  Bi  Bi23  1  0.094641  0.250000  0.459688  1
  Bi  Bi24  1  0.560925  0.995430  0.324576  1
  Bi  Bi25  1  0.060925  0.504570  0.175424  1
  Bi  Bi26  1  0.437594  0.497040  0.675600  1
  Bi  Bi27  1  0.937594  0.002960  0.824400  1
  Bi  Bi28  1  0.437594  0.002960  0.675600  1
  Bi  Bi29  1  0.937594  0.497040  0.824400  1
  Bi  Bi30  1  0.560925  0.504570  0.324576  1
  Bi  Bi31  1  0.060925  0.995430  0.175424  1
