# generated using pymatgen
data_Dy2Tc7Ge4Mo
_symmetry_space_group_name_H-M   'P 1'
_cell_length_a   7.69329300
_cell_length_b   7.14286453
_cell_length_c   4.26575900
_cell_angle_alpha   90.00000000
_cell_angle_beta   90.00000000
_cell_angle_gamma   89.82976958
_symmetry_Int_Tables_number   1
_chemical_formula_structural   Dy2Tc7Ge4Mo
_chemical_formula_sum   'Dy2 Tc7 Ge4 Mo1'
_cell_volume   234.41159236
_cell_formula_units_Z   1
loop_
 _symmetry_equiv_pos_site_id
 _symmetry_equiv_pos_as_xyz
  1  'x, y, z'
loop_
 _atom_site_type_symbol
 _atom_site_label
 _atom_site_symmetry_multiplicity
 _atom_site_fract_x
 _atom_site_fract_y
 _atom_site_fract_z
 _atom_site_occupancy
  Dy  Dy0  1  0.003616  0.001465  0.000000  1
  Dy  Dy1  1  0.501523  0.499801  0.500000  1
  Tc  Tc2  1  0.389977  0.848559  0.000000  1
  Tc  Tc3  1  0.652660  0.913674  0.500000  1
  Tc  Tc4  1  0.108352  0.352577  0.500000  1
  Tc  Tc5  1  0.342244  0.088247  0.500000  1
  Tc  Tc6  1  0.892527  0.649113  0.500000  1
  Tc  Tc7  1  0.150765  0.589568  0.000000  1
  Tc  Tc8  1  0.846772  0.411185  0.000000  1
  Ge  Ge9  1  0.305471  0.284553  0.000000  1
  Ge  Ge10  1  0.695361  0.720256  0.000000  1
  Ge  Ge11  1  0.808610  0.220427  0.500000  1
  Ge  Ge12  1  0.194501  0.779683  0.500000  1
  Mo  Mo13  1  0.607622  0.140891  0.000000  1
