# generated using pymatgen
data_Ho12Co4SnIr
_symmetry_space_group_name_H-M   'P 1'
_cell_length_a   8.26710420
_cell_length_b   8.26695514
_cell_length_c   8.26710444
_cell_angle_alpha   111.13946898
_cell_angle_beta   110.45482908
_cell_angle_gamma   106.85217087
_symmetry_Int_Tables_number   1
_chemical_formula_structural   Ho12Co4SnIr
_chemical_formula_sum   'Ho12 Co4 Sn1 Ir1'
_cell_volume   434.24330876
_cell_formula_units_Z   1
loop_
 _symmetry_equiv_pos_site_id
 _symmetry_equiv_pos_as_xyz
  1  'x, y, z'
loop_
 _atom_site_type_symbol
 _atom_site_label
 _atom_site_symmetry_multiplicity
 _atom_site_fract_x
 _atom_site_fract_y
 _atom_site_fract_z
 _atom_site_occupancy
  Ho  Ho0  1  0.314823  0.620919  0.306096  1
  Ho  Ho1  1  0.685177  0.379081  0.693904  1
  Ho  Ho2  1  0.314810  0.008736  0.693927  1
  Ho  Ho3  1  0.685190  0.991264  0.306073  1
  Ho  Ho4  1  0.183027  0.285878  0.468908  1
  Ho  Ho5  1  0.816973  0.714122  0.531092  1
  Ho  Ho6  1  0.183030  0.714122  0.897149  1
  Ho  Ho7  1  0.816970  0.285878  0.102851  1
  Ho  Ho8  1  0.411950  0.216052  0.195874  1
  Ho  Ho9  1  0.588050  0.783948  0.804126  1
  Ho  Ho10  1  0.020179  0.216052  0.804102  1
  Ho  Ho11  1  0.979821  0.783948  0.195898  1
  Co  Co12  1  0.111695  0.611701  0.500006  1
  Co  Co13  1  0.888305  0.388299  0.499994  1
  Co  Co14  1  0.376260  0.000000  0.376260  1
  Co  Co15  1  0.623740  0.000000  0.623740  1
  Sn  Sn16  1  0.500000  0.500000  0.000000  1
  Ir  Ir17  1  0.000000  0.000000  0.000000  1
