# generated using pymatgen
data_Lu2Co3P7Ru9
_symmetry_space_group_name_H-M   'P 1'
_cell_length_a   9.30393900
_cell_length_b   9.30393916
_cell_length_c   3.81710600
_cell_angle_alpha   90.00000000
_cell_angle_beta   90.00000000
_cell_angle_gamma   120.00000204
_symmetry_Int_Tables_number   1
_chemical_formula_structural   Lu2Co3P7Ru9
_chemical_formula_sum   'Lu2 Co3 P7 Ru9'
_cell_volume   286.15316853
_cell_formula_units_Z   1
loop_
 _symmetry_equiv_pos_site_id
 _symmetry_equiv_pos_as_xyz
  1  'x, y, z'
loop_
 _atom_site_type_symbol
 _atom_site_label
 _atom_site_symmetry_multiplicity
 _atom_site_fract_x
 _atom_site_fract_y
 _atom_site_fract_z
 _atom_site_occupancy
  Lu  Lu0  1  0.333333  0.666667  0.000000  1
  Lu  Lu1  1  0.000000  0.000000  0.500000  1
  Co  Co2  1  0.937123  0.445126  0.000000  1
  Co  Co3  1  0.508003  0.062877  0.000000  1
  Co  Co4  1  0.554874  0.491997  0.000000  1
  P  P5  1  0.967846  0.222224  0.000000  1
  P  P6  1  0.254378  0.032154  0.000000  1
  P  P7  1  0.777776  0.745622  0.000000  1
  P  P8  1  0.068551  0.618228  0.500000  1
  P  P9  1  0.549676  0.931449  0.500000  1
  P  P10  1  0.381772  0.450324  0.500000  1
  P  P11  1  0.666667  0.333333  0.000000  1
  Ru  Ru12  1  0.729752  0.969336  0.000000  1
  Ru  Ru13  1  0.239584  0.270248  0.000000  1
  Ru  Ru14  1  0.030664  0.760416  0.000000  1
  Ru  Ru15  1  0.103988  0.387400  0.500000  1
  Ru  Ru16  1  0.283412  0.896012  0.500000  1
  Ru  Ru17  1  0.612600  0.716588  0.500000  1
  Ru  Ru18  1  0.752190  0.212568  0.500000  1
  Ru  Ru19  1  0.460379  0.247810  0.500000  1
  Ru  Ru20  1  0.787432  0.539621  0.500000  1
