# generated using pymatgen
data_La5Nd7(GeBr3)4
_symmetry_space_group_name_H-M   'P 1'
_cell_length_a   10.61035606
_cell_length_b   10.63996813
_cell_length_c   10.53959647
_cell_angle_alpha   109.85812216
_cell_angle_beta   109.17984961
_cell_angle_gamma   109.68482952
_symmetry_Int_Tables_number   1
_chemical_formula_structural   La5Nd7(GeBr3)4
_chemical_formula_sum   'La5 Nd7 Ge4 Br12'
_cell_volume   912.41420522
_cell_formula_units_Z   1
loop_
 _symmetry_equiv_pos_site_id
 _symmetry_equiv_pos_as_xyz
  1  'x, y, z'
loop_
 _atom_site_type_symbol
 _atom_site_label
 _atom_site_symmetry_multiplicity
 _atom_site_fract_x
 _atom_site_fract_y
 _atom_site_fract_z
 _atom_site_occupancy
  La  La0  1  0.256855  0.005362  0.015411  1
  La  La1  1  0.752155  0.242007  0.259856  1
  La  La2  1  0.750810  0.009358  0.492316  1
  La  La3  1  0.482705  0.493272  0.241649  1
  La  La4  1  0.016763  0.259770  0.008784  1
  Nd  Nd5  1  0.261819  0.749203  0.236500  1
  Nd  Nd6  1  0.485442  0.746592  0.009499  1
  Nd  Nd7  1  0.238639  0.476257  0.491788  1
  Nd  Nd8  1  0.013651  0.025742  0.264773  1
  Nd  Nd9  1  0.239288  0.264149  0.748716  1
  Nd  Nd10  1  0.014855  0.489732  0.752425  1
  Nd  Nd11  1  0.485568  0.237268  0.476047  1
  Ge  Ge12  1  0.499300  0.000259  0.249899  1
  Ge  Ge13  1  0.250020  0.499139  0.000827  1
  Ge  Ge14  1  0.998927  0.249766  0.500108  1
  Ge  Ge15  1  0.250171  0.249489  0.249483  1
  Br  Br16  1  0.250023  0.999069  0.501685  1
  Br  Br17  1  0.504156  0.502178  0.751809  1
  Br  Br18  1  0.251111  0.748673  0.745521  1
  Br  Br19  1  0.994565  0.745168  0.000949  1
  Br  Br20  1  0.004115  0.510512  0.257465  1
  Br  Br21  1  0.746551  0.989961  0.993703  1
  Br  Br22  1  0.753937  0.747718  0.243916  1
  Br  Br23  1  0.496818  0.753522  0.507342  1
  Br  Br24  1  0.501518  0.249179  0.992038  1
  Br  Br25  1  0.754142  0.506444  0.510705  1
  Br  Br26  1  0.746043  0.256407  0.752867  1
  Br  Br27  1  0.000054  0.993801  0.743916  1
