# generated using pymatgen
data_Ti4Nb5ReN12
_symmetry_space_group_name_H-M   'P 1'
_cell_length_a   5.17695400
_cell_length_b   5.15786724
_cell_length_c   10.23558800
_cell_angle_alpha   90.00000000
_cell_angle_beta   90.00000000
_cell_angle_gamma   120.12250052
_symmetry_Int_Tables_number   1
_chemical_formula_structural   Ti4Nb5ReN12
_chemical_formula_sum   'Ti4 Nb5 Re1 N12'
_cell_volume   236.40163605
_cell_formula_units_Z   1
loop_
 _symmetry_equiv_pos_site_id
 _symmetry_equiv_pos_as_xyz
  1  'x, y, z'
loop_
 _atom_site_type_symbol
 _atom_site_label
 _atom_site_symmetry_multiplicity
 _atom_site_fract_x
 _atom_site_fract_y
 _atom_site_fract_z
 _atom_site_occupancy
  Ti  Ti0  1  0.333023  0.665674  0.495154  1
  Ti  Ti1  1  0.667351  0.334326  0.004846  1
  Ti  Ti2  1  0.667351  0.334326  0.495154  1
  Ti  Ti3  1  0.333023  0.665674  0.004846  1
  Nb  Nb4  1  0.677134  0.676964  0.250000  1
  Nb  Nb5  1  0.000171  0.323036  0.250000  1
  Nb  Nb6  1  0.998165  0.673817  0.750000  1
  Nb  Nb7  1  0.324348  0.326183  0.750000  1
  Nb  Nb8  1  0.323235  0.000000  0.250000  1
  Re  Re9  1  0.676011  0.000000  0.750000  1
  N  N10  1  0.344836  0.344523  0.381718  1
  N  N11  1  0.654183  0.000000  0.382502  1
  N  N12  1  0.000314  0.655477  0.381718  1
  N  N13  1  0.993699  0.339497  0.877959  1
  N  N14  1  0.654183  0.000000  0.117498  1
  N  N15  1  0.654201  0.660503  0.877959  1
  N  N16  1  0.352860  0.000000  0.877641  1
  N  N17  1  0.654201  0.660503  0.622041  1
  N  N18  1  0.993699  0.339497  0.622041  1
  N  N19  1  0.000314  0.655477  0.118282  1
  N  N20  1  0.352860  0.000000  0.622359  1
  N  N21  1  0.344836  0.344523  0.118282  1
