# generated using pymatgen
data_LiHf6Zr(Si4Mo3)4
_symmetry_space_group_name_H-M   'P 1'
_cell_length_a   6.55401462
_cell_length_b   6.76234567
_cell_length_c   12.66045195
_cell_angle_alpha   90.05708576
_cell_angle_beta   89.86983067
_cell_angle_gamma   90.09116148
_symmetry_Int_Tables_number   1
_chemical_formula_structural   LiHf6Zr(Si4Mo3)4
_chemical_formula_sum   'Li1 Hf6 Zr1 Si16 Mo12'
_cell_volume   561.11528227
_cell_formula_units_Z   1
loop_
 _symmetry_equiv_pos_site_id
 _symmetry_equiv_pos_as_xyz
  1  'x, y, z'
loop_
 _atom_site_type_symbol
 _atom_site_label
 _atom_site_symmetry_multiplicity
 _atom_site_fract_x
 _atom_site_fract_y
 _atom_site_fract_z
 _atom_site_occupancy
  Li  Li0  1  0.977376  0.163993  0.086527  1
  Hf  Hf1  1  0.504233  0.671128  0.909665  1
  Hf  Hf2  1  0.005452  0.831097  0.593287  1
  Hf  Hf3  1  0.499197  0.329464  0.094727  1
  Hf  Hf4  1  0.997613  0.170660  0.408150  1
  Hf  Hf5  1  0.493889  0.329282  0.405412  1
  Hf  Hf6  1  0.507393  0.669846  0.591596  1
  Zr  Zr7  1  0.006714  0.826719  0.908323  1
  Si  Si8  1  0.033439  0.126460  0.751826  1
  Si  Si9  1  0.969906  0.881053  0.246778  1
  Si  Si10  1  0.465067  0.622660  0.250418  1
  Si  Si11  1  0.532783  0.378133  0.749949  1
  Si  Si12  1  0.303043  0.861962  0.749833  1
  Si  Si13  1  0.708264  0.138822  0.246016  1
  Si  Si14  1  0.188723  0.353775  0.242995  1
  Si  Si15  1  0.800648  0.638905  0.751632  1
  Si  Si16  1  0.168363  0.459499  0.542942  1
  Si  Si17  1  0.833342  0.540886  0.457520  1
  Si  Si18  1  0.333601  0.958736  0.456879  1
  Si  Si19  1  0.838179  0.531812  0.046925  1
  Si  Si20  1  0.669077  0.041856  0.542385  1
  Si  Si21  1  0.165891  0.454310  0.958457  1
  Si  Si22  1  0.665722  0.039982  0.958665  1
  Si  Si23  1  0.323151  0.970369  0.046018  1
  Mo  Mo24  1  0.169469  0.514993  0.752129  1
  Mo  Mo25  1  0.831342  0.492783  0.251772  1
  Mo  Mo26  1  0.336860  0.011886  0.251100  1
  Mo  Mo27  1  0.669357  0.988903  0.750089  1
  Mo  Mo28  1  0.333000  0.163173  0.622311  1
  Mo  Mo29  1  0.669557  0.836475  0.376474  1
  Mo  Mo30  1  0.168487  0.663086  0.376084  1
  Mo  Mo31  1  0.663963  0.831352  0.123095  1
  Mo  Mo32  1  0.831656  0.338525  0.623839  1
  Mo  Mo33  1  0.336041  0.163276  0.875167  1
  Mo  Mo34  1  0.827350  0.337561  0.876927  1
  Mo  Mo35  1  0.171853  0.666578  0.124087  1
