# generated using pymatgen
data_SmYMnFe11P7
_symmetry_space_group_name_H-M   'P 1'
_cell_length_a   9.01869019
_cell_length_b   9.01753944
_cell_length_c   3.64867900
_cell_angle_alpha   90.00000000
_cell_angle_beta   90.00000000
_cell_angle_gamma   120.04038670
_symmetry_Int_Tables_number   1
_chemical_formula_structural   SmYMnFe11P7
_chemical_formula_sum   'Sm1 Y1 Mn1 Fe11 P7'
_cell_volume   256.87445745
_cell_formula_units_Z   1
loop_
 _symmetry_equiv_pos_site_id
 _symmetry_equiv_pos_as_xyz
  1  'x, y, z'
loop_
 _atom_site_type_symbol
 _atom_site_label
 _atom_site_symmetry_multiplicity
 _atom_site_fract_x
 _atom_site_fract_y
 _atom_site_fract_z
 _atom_site_occupancy
  Sm  Sm0  1  0.332229  0.666977  0.500000  1
  Y  Y1  1  0.665263  0.332274  0.000000  1
  Mn  Mn2  1  0.887014  0.785264  0.000000  1
  Fe  Fe3  1  0.425252  0.057188  0.500000  1
  Fe  Fe4  1  0.942524  0.366883  0.500000  1
  Fe  Fe5  1  0.631754  0.574442  0.500000  1
  Fe  Fe6  1  0.154150  0.274199  0.500000  1
  Fe  Fe7  1  0.730039  0.881917  0.500000  1
  Fe  Fe8  1  0.118681  0.848184  0.500000  1
  Fe  Fe9  1  0.383407  0.432653  0.000000  1
  Fe  Fe10  1  0.567270  0.951586  0.000000  1
  Fe  Fe11  1  0.046786  0.614362  0.000000  1
  Fe  Fe12  1  0.217724  0.099310  0.000000  1
  Fe  Fe13  1  0.901996  0.115221  0.000000  1
  P  P14  1  0.108256  0.397169  0.000000  1
  P  P15  1  0.596370  0.709551  0.000000  1
  P  P16  1  0.288771  0.891809  0.000000  1
  P  P17  1  0.003522  0.004941  0.500000  1
  P  P18  1  0.410323  0.300218  0.500000  1
  P  P19  1  0.698790  0.108686  0.500000  1
  P  P20  1  0.889879  0.587165  0.500000  1
