# generated using pymatgen
data_YInGa3Pt2
_symmetry_space_group_name_H-M   'P 1'
_cell_length_a   4.29427100
_cell_length_b   6.77344900
_cell_length_c   17.60233100
_cell_angle_alpha   90.00000000
_cell_angle_beta   90.00000000
_cell_angle_gamma   90.00000000
_symmetry_Int_Tables_number   1
_chemical_formula_structural   YInGa3Pt2
_chemical_formula_sum   'Y4 In4 Ga12 Pt8'
_cell_volume   511.99945260
_cell_formula_units_Z   4
loop_
 _symmetry_equiv_pos_site_id
 _symmetry_equiv_pos_as_xyz
  1  'x, y, z'
loop_
 _atom_site_type_symbol
 _atom_site_label
 _atom_site_symmetry_multiplicity
 _atom_site_fract_x
 _atom_site_fract_y
 _atom_site_fract_z
 _atom_site_occupancy
  Y  Y0  1  0.750000  0.993515  0.640787  1
  Y  Y1  1  0.250000  0.006485  0.359213  1
  Y  Y2  1  0.250000  0.493515  0.859213  1
  Y  Y3  1  0.750000  0.506485  0.140787  1
  In  In4  1  0.250000  0.496335  0.429177  1
  In  In5  1  0.750000  0.503665  0.570823  1
  In  In6  1  0.750000  0.996335  0.070823  1
  In  In7  1  0.250000  0.003665  0.929177  1
  Ga  Ga8  1  0.250000  0.275965  0.690900  1
  Ga  Ga9  1  0.750000  0.724035  0.309100  1
  Ga  Ga10  1  0.750000  0.775965  0.809100  1
  Ga  Ga11  1  0.250000  0.224035  0.190900  1
  Ga  Ga12  1  0.250000  0.681634  0.684928  1
  Ga  Ga13  1  0.750000  0.318366  0.315072  1
  Ga  Ga14  1  0.750000  0.181634  0.815072  1
  Ga  Ga15  1  0.250000  0.818366  0.184928  1
  Ga  Ga16  1  0.250000  0.154108  0.536463  1
  Ga  Ga17  1  0.750000  0.845892  0.463537  1
  Ga  Ga18  1  0.750000  0.654108  0.963537  1
  Ga  Ga19  1  0.250000  0.345892  0.036463  1
  Pt  Pt20  1  0.250000  0.772416  0.541190  1
  Pt  Pt21  1  0.750000  0.227584  0.458810  1
  Pt  Pt22  1  0.750000  0.272416  0.958810  1
  Pt  Pt23  1  0.250000  0.727584  0.041190  1
  Pt  Pt24  1  0.250000  0.972914  0.777635  1
  Pt  Pt25  1  0.750000  0.027086  0.222365  1
  Pt  Pt26  1  0.750000  0.472914  0.722365  1
  Pt  Pt27  1  0.250000  0.527086  0.277635  1
