# generated using pymatgen
data_NdGd11(CCl3)4
_symmetry_space_group_name_H-M   'P 1'
_cell_length_a   9.42839547
_cell_length_b   9.41874248
_cell_length_c   9.39058213
_cell_angle_alpha   109.39295477
_cell_angle_beta   109.41163413
_cell_angle_gamma   109.49017006
_symmetry_Int_Tables_number   1
_chemical_formula_structural   NdGd11(CCl3)4
_chemical_formula_sum   'Nd1 Gd11 C4 Cl12'
_cell_volume   642.89009438
_cell_formula_units_Z   1
loop_
 _symmetry_equiv_pos_site_id
 _symmetry_equiv_pos_as_xyz
  1  'x, y, z'
loop_
 _atom_site_type_symbol
 _atom_site_label
 _atom_site_symmetry_multiplicity
 _atom_site_fract_x
 _atom_site_fract_y
 _atom_site_fract_z
 _atom_site_occupancy
  Nd  Nd0  1  0.530586  0.765469  0.015121  1
  Gd  Gd1  1  0.982443  0.250824  0.018116  1
  Gd  Gd2  1  0.767523  0.519187  0.035808  1
  Gd  Gd3  1  0.962470  0.981450  0.230934  1
  Gd  Gd4  1  0.768015  0.248933  0.231820  1
  Gd  Gd5  1  0.518860  0.537075  0.268590  1
  Gd  Gd6  1  0.250696  0.731846  0.267713  1
  Gd  Gd7  1  0.982591  0.731429  0.464413  1
  Gd  Gd8  1  0.731159  0.963281  0.480612  1
  Gd  Gd9  1  0.251619  0.519143  0.483423  1
  Gd  Gd10  1  0.518473  0.981723  0.749943  1
  Gd  Gd11  1  0.731615  0.767898  0.751140  1
  C  C12  1  0.755010  0.006247  0.000037  1
  C  C13  1  0.754453  0.748686  0.254877  1
  C  C14  1  0.000632  0.499824  0.250136  1
  C  C15  1  0.500087  0.749796  0.499873  1
  Cl  Cl16  1  0.493985  0.011870  0.255373  1
  Cl  Cl17  1  0.255840  0.243686  0.249898  1
  Cl  Cl18  1  0.750329  0.494108  0.507093  1
  Cl  Cl19  1  0.255911  0.012274  0.506018  1
  Cl  Cl20  1  0.006815  0.256789  0.513232  1
  Cl  Cl21  1  0.750422  0.256439  0.743697  1
  Cl  Cl22  1  0.494066  0.482067  0.738811  1
  Cl  Cl23  1  0.011963  0.005884  0.756019  1
  Cl  Cl24  1  0.239481  0.750328  0.752986  1
  Cl  Cl25  1  0.239934  0.489582  0.986854  1
  Cl  Cl26  1  0.488150  0.244049  0.994051  1
  Cl  Cl27  1  0.006863  0.750100  0.993401  1
