# generated using pymatgen
data_U4ReSi2Ni5
_symmetry_space_group_name_H-M   'P 1'
_cell_length_a   5.16567300
_cell_length_b   5.31112453
_cell_length_c   7.72000700
_cell_angle_alpha   90.00000000
_cell_angle_beta   90.00000000
_cell_angle_gamma   119.09813858
_symmetry_Int_Tables_number   1
_chemical_formula_structural   U4ReSi2Ni5
_chemical_formula_sum   'U4 Re1 Si2 Ni5'
_cell_volume   185.07049077
_cell_formula_units_Z   1
loop_
 _symmetry_equiv_pos_site_id
 _symmetry_equiv_pos_as_xyz
  1  'x, y, z'
loop_
 _atom_site_type_symbol
 _atom_site_label
 _atom_site_symmetry_multiplicity
 _atom_site_fract_x
 _atom_site_fract_y
 _atom_site_fract_z
 _atom_site_occupancy
  U  U0  1  0.331347  0.662695  0.078100  1
  U  U1  1  0.331347  0.662695  0.421900  1
  U  U2  1  0.668808  0.337614  0.578191  1
  U  U3  1  0.668808  0.337614  0.921809  1
  Re  Re4  1  0.169606  0.339210  0.750000  1
  Si  Si5  1  0.997172  0.994343  0.004402  1
  Si  Si6  1  0.997172  0.994343  0.495598  1
  Ni  Ni7  1  0.169752  0.836337  0.750000  1
  Ni  Ni8  1  0.338854  0.168535  0.250000  1
  Ni  Ni9  1  0.830869  0.661740  0.250000  1
  Ni  Ni10  1  0.666586  0.836337  0.750000  1
  Ni  Ni11  1  0.829680  0.168535  0.250000  1
