# generated using pymatgen
data_Y7Er13Cd6RuRh
_symmetry_space_group_name_H-M   'P 1'
_cell_length_a   9.59798950
_cell_length_b   9.61059352
_cell_length_c   9.75522371
_cell_angle_alpha   90.00000178
_cell_angle_beta   90.08656470
_cell_angle_gamma   120.04345657
_symmetry_Int_Tables_number   1
_chemical_formula_structural   Y7Er13Cd6RuRh
_chemical_formula_sum   'Y7 Er13 Cd6 Ru1 Rh1'
_cell_volume   778.94598037
_cell_formula_units_Z   1
loop_
 _symmetry_equiv_pos_site_id
 _symmetry_equiv_pos_as_xyz
  1  'x, y, z'
loop_
 _atom_site_type_symbol
 _atom_site_label
 _atom_site_symmetry_multiplicity
 _atom_site_fract_x
 _atom_site_fract_y
 _atom_site_fract_z
 _atom_site_occupancy
  Y  Y0  1  0.583712  0.791856  0.059668  1
  Y  Y1  1  0.541664  0.457312  0.250664  1
  Y  Y2  1  0.541664  0.084354  0.250664  1
  Y  Y3  1  0.916637  0.458319  0.250198  1
  Y  Y4  1  0.459682  0.539808  0.749094  1
  Y  Y5  1  0.459682  0.919876  0.749094  1
  Y  Y6  1  0.081494  0.540747  0.750019  1
  Er  Er7  1  0.999941  0.999970  0.499584  1
  Er  Er8  1  0.001423  0.000712  0.999965  1
  Er  Er9  1  0.208784  0.791046  0.439927  1
  Er  Er10  1  0.208784  0.417738  0.439927  1
  Er  Er11  1  0.581445  0.790722  0.440252  1
  Er  Er12  1  0.790507  0.209986  0.560274  1
  Er  Er13  1  0.790507  0.580518  0.560274  1
  Er  Er14  1  0.419173  0.209586  0.560290  1
  Er  Er15  1  0.790916  0.210379  0.939524  1
  Er  Er16  1  0.790916  0.580535  0.939524  1
  Er  Er17  1  0.419799  0.209898  0.939749  1
  Er  Er18  1  0.208564  0.790936  0.060444  1
  Er  Er19  1  0.208564  0.417628  0.060444  1
  Cd  Cd20  1  0.885784  0.115310  0.249867  1
  Cd  Cd21  1  0.885784  0.770476  0.249867  1
  Cd  Cd22  1  0.229239  0.114621  0.250197  1
  Cd  Cd23  1  0.114063  0.884825  0.749947  1
  Cd  Cd24  1  0.114063  0.229236  0.749947  1
  Cd  Cd25  1  0.771073  0.885536  0.749751  1
  Ru  Ru26  1  0.666600  0.333300  0.749892  1
  Rh  Rh27  1  0.329537  0.664769  0.250951  1
