# generated using pymatgen
data_La12Pr8Si15Pd
_symmetry_space_group_name_H-M   'P 1'
_cell_length_a   7.99132204
_cell_length_b   8.00063007
_cell_length_c   15.41423100
_cell_angle_alpha   89.97069552
_cell_angle_beta   89.70622539
_cell_angle_gamma   89.99517341
_symmetry_Int_Tables_number   1
_chemical_formula_structural   La12Pr8Si15Pd
_chemical_formula_sum   'La12 Pr8 Si15 Pd1'
_cell_volume   985.50519773
_cell_formula_units_Z   1
loop_
 _symmetry_equiv_pos_site_id
 _symmetry_equiv_pos_as_xyz
  1  'x, y, z'
loop_
 _atom_site_type_symbol
 _atom_site_label
 _atom_site_symmetry_multiplicity
 _atom_site_fract_x
 _atom_site_fract_y
 _atom_site_fract_z
 _atom_site_occupancy
  La  La0  1  0.306294  0.305699  0.998776  1
  La  La1  1  0.191253  0.808455  0.249502  1
  La  La2  1  0.811791  0.185747  0.751590  1
  La  La3  1  0.694027  0.687760  0.499176  1
  La  La4  1  0.373608  0.011004  0.447889  1
  La  La5  1  0.490147  0.872896  0.699046  1
  La  La6  1  0.509935  0.123844  0.197519  1
  La  La7  1  0.875911  0.488781  0.300196  1
  La  La8  1  0.124228  0.513783  0.800980  1
  La  La9  1  0.627181  0.987902  0.949133  1
  La  La10  1  0.003019  0.378611  0.550370  1
  La  La11  1  0.988348  0.626127  0.051386  1
  Pr  Pr12  1  0.133759  0.987287  0.876859  1
  Pr  Pr13  1  0.514936  0.630219  0.125812  1
  Pr  Pr14  1  0.481475  0.366820  0.627321  1
  Pr  Pr15  1  0.628654  0.516109  0.874327  1
  Pr  Pr16  1  0.372012  0.484792  0.373109  1
  Pr  Pr17  1  0.871915  0.017841  0.376010  1
  Pr  Pr18  1  0.984254  0.127003  0.124309  1
  Pr  Pr19  1  0.017697  0.872281  0.623356  1
  Si  Si20  1  0.333762  0.697109  0.949820  1
  Si  Si21  1  0.662962  0.301478  0.451089  1
  Si  Si22  1  0.699783  0.336085  0.050702  1
  Si  Si23  1  0.303286  0.667285  0.549314  1
  Si  Si24  1  0.802415  0.833654  0.201486  1
  Si  Si25  1  0.166517  0.199021  0.299139  1
  Si  Si26  1  0.836300  0.801529  0.799365  1
  Si  Si27  1  0.288124  0.920085  0.058459  1
  Si  Si28  1  0.580106  0.787415  0.308902  1
  Si  Si29  1  0.428862  0.210226  0.811920  1
  Si  Si30  1  0.786804  0.580439  0.691345  1
  Si  Si31  1  0.212273  0.420679  0.191088  1
  Si  Si32  1  0.705253  0.076434  0.558275  1
  Si  Si33  1  0.919499  0.289529  0.942332  1
  Si  Si34  1  0.080980  0.714154  0.441617  1
  Pd  Pd35  1  0.192632  0.171914  0.698484  1
