# generated using pymatgen
data_Ce2Sm2Tl2ZnRh3
_symmetry_space_group_name_H-M   'P 1'
_cell_length_a   7.90245096
_cell_length_b   7.90244931
_cell_length_c   3.73630500
_cell_angle_alpha   90.00000000
_cell_angle_beta   90.00000000
_cell_angle_gamma   85.78198053
_symmetry_Int_Tables_number   1
_chemical_formula_structural   Ce2Sm2Tl2ZnRh3
_chemical_formula_sum   'Ce2 Sm2 Tl2 Zn1 Rh3'
_cell_volume   232.69546576
_cell_formula_units_Z   1
loop_
 _symmetry_equiv_pos_site_id
 _symmetry_equiv_pos_as_xyz
  1  'x, y, z'
loop_
 _atom_site_type_symbol
 _atom_site_label
 _atom_site_symmetry_multiplicity
 _atom_site_fract_x
 _atom_site_fract_y
 _atom_site_fract_z
 _atom_site_occupancy
  Ce  Ce0  1  0.164954  0.302523  0.500000  1
  Ce  Ce1  1  0.802523  0.664954  0.500000  1
  Sm  Sm2  1  0.674278  0.174278  0.500000  1
  Sm  Sm3  1  0.341503  0.841503  0.500000  1
  Tl  Tl4  1  0.993717  0.991247  0.000000  1
  Tl  Tl5  1  0.491247  0.493717  0.000000  1
  Zn  Zn6  1  0.125288  0.625288  0.000000  1
  Rh  Rh7  1  0.901321  0.401321  0.000000  1
  Rh  Rh8  1  0.640500  0.864671  0.000000  1
  Rh  Rh9  1  0.364671  0.140500  0.000000  1
