# generated using pymatgen
data_Dy6Tm10MgAg3Ir4
_symmetry_space_group_name_H-M   'P 1'
_cell_length_a   9.50838998
_cell_length_b   9.51577562
_cell_length_c   9.51577500
_cell_angle_alpha   59.99999868
_cell_angle_beta   59.97430067
_cell_angle_gamma   59.97430511
_symmetry_Int_Tables_number   1
_chemical_formula_structural   Dy6Tm10MgAg3Ir4
_chemical_formula_sum   'Dy6 Tm10 Mg1 Ag3 Ir4'
_cell_volume   608.57141143
_cell_formula_units_Z   1
loop_
 _symmetry_equiv_pos_site_id
 _symmetry_equiv_pos_as_xyz
  1  'x, y, z'
loop_
 _atom_site_type_symbol
 _atom_site_label
 _atom_site_symmetry_multiplicity
 _atom_site_fract_x
 _atom_site_fract_y
 _atom_site_fract_z
 _atom_site_occupancy
  Dy  Dy0  1  0.935061  0.562712  0.562712  1
  Dy  Dy1  1  0.561861  0.937034  0.937034  1
  Dy  Dy2  1  0.561861  0.937034  0.564071  1
  Dy  Dy3  1  0.935061  0.562712  0.939517  1
  Dy  Dy4  1  0.561861  0.564071  0.937034  1
  Dy  Dy5  1  0.935061  0.939517  0.562712  1
  Tm  Tm6  1  0.350594  0.349557  0.349557  1
  Tm  Tm7  1  0.350594  0.349557  0.950290  1
  Tm  Tm8  1  0.350594  0.950290  0.349557  1
  Tm  Tm9  1  0.939783  0.353405  0.353405  1
  Tm  Tm10  1  0.811329  0.188110  0.188110  1
  Tm  Tm11  1  0.186303  0.813466  0.813466  1
  Tm  Tm12  1  0.186303  0.813466  0.186765  1
  Tm  Tm13  1  0.811329  0.188110  0.812452  1
  Tm  Tm14  1  0.186303  0.186765  0.813466  1
  Tm  Tm15  1  0.811329  0.812452  0.188110  1
  Mg  Mg16  1  0.284295  0.571902  0.571902  1
  Ag  Ag17  1  0.582141  0.583297  0.583297  1
  Ag  Ag18  1  0.582141  0.583297  0.251266  1
  Ag  Ag19  1  0.582141  0.251266  0.583297  1
  Ir  Ir20  1  0.140478  0.143647  0.143647  1
  Ir  Ir21  1  0.140478  0.143647  0.572228  1
  Ir  Ir22  1  0.140478  0.572228  0.143647  1
  Ir  Ir23  1  0.572621  0.142460  0.142460  1
