# generated using pymatgen
data_Nd2Nb2Co10As7
_symmetry_space_group_name_H-M   'P 1'
_cell_length_a   9.60569700
_cell_length_b   9.48673952
_cell_length_c   3.85516800
_cell_angle_alpha   90.00000000
_cell_angle_beta   90.00000000
_cell_angle_gamma   120.02347857
_symmetry_Int_Tables_number   1
_chemical_formula_structural   Nd2Nb2Co10As7
_chemical_formula_sum   'Nd2 Nb2 Co10 As7'
_cell_volume   304.17043783
_cell_formula_units_Z   1
loop_
 _symmetry_equiv_pos_site_id
 _symmetry_equiv_pos_as_xyz
  1  'x, y, z'
loop_
 _atom_site_type_symbol
 _atom_site_label
 _atom_site_symmetry_multiplicity
 _atom_site_fract_x
 _atom_site_fract_y
 _atom_site_fract_z
 _atom_site_occupancy
  Nd  Nd0  1  0.340307  0.665899  0.000000  1
  Nd  Nd1  1  0.666797  0.337406  0.500001  1
  Nb  Nb2  1  0.216506  0.101178  0.500001  1
  Nb  Nb3  1  0.893270  0.111197  0.500001  1
  Co  Co4  1  0.427829  0.059974  0.000000  1
  Co  Co5  1  0.155120  0.278563  0.000000  1
  Co  Co6  1  0.939979  0.370273  0.000000  1
  Co  Co7  1  0.632985  0.574775  0.000000  1
  Co  Co8  1  0.126021  0.841822  0.000000  1
  Co  Co9  1  0.719986  0.876707  0.000000  1
  Co  Co10  1  0.381787  0.434361  0.500001  1
  Co  Co11  1  0.046912  0.617369  0.500001  1
  Co  Co12  1  0.880652  0.783874  0.500001  1
  Co  Co13  1  0.566885  0.946408  0.500001  1
  As  As14  1  0.994722  0.987768  0.000000  1
  As  As15  1  0.692017  0.110306  0.000000  1
  As  As16  1  0.413592  0.306762  0.000000  1
  As  As17  1  0.891594  0.593683  0.000000  1
  As  As18  1  0.117258  0.412832  0.500001  1
  As  As19  1  0.601662  0.709929  0.500001  1
  As  As20  1  0.294114  0.878912  0.500001  1
