# generated using pymatgen
data_LiDy2(PRh2)6
_symmetry_space_group_name_H-M   'P 1'
_cell_length_a   9.62637000
_cell_length_b   9.62636966
_cell_length_c   3.91615300
_cell_angle_alpha   90.00000000
_cell_angle_beta   90.00000000
_cell_angle_gamma   120.00000803
_symmetry_Int_Tables_number   1
_chemical_formula_structural   LiDy2(PRh2)6
_chemical_formula_sum   'Li1 Dy2 P6 Rh12'
_cell_volume   314.27897839
_cell_formula_units_Z   1
loop_
 _symmetry_equiv_pos_site_id
 _symmetry_equiv_pos_as_xyz
  1  'x, y, z'
loop_
 _atom_site_type_symbol
 _atom_site_label
 _atom_site_symmetry_multiplicity
 _atom_site_fract_x
 _atom_site_fract_y
 _atom_site_fract_z
 _atom_site_occupancy
  Li  Li0  1  0.000000  0.000000  0.500000  1
  Dy  Dy1  1  0.333333  0.666667  0.750576  1
  Dy  Dy2  1  0.666667  0.333333  0.249424  1
  P  P3  1  0.399465  0.283178  0.748411  1
  P  P4  1  0.716822  0.116286  0.748411  1
  P  P5  1  0.883714  0.600535  0.748411  1
  P  P6  1  0.600535  0.716822  0.251589  1
  P  P7  1  0.283178  0.883714  0.251589  1
  P  P8  1  0.116286  0.399465  0.251589  1
  Rh  Rh9  1  0.453417  0.065952  0.749512  1
  Rh  Rh10  1  0.934048  0.387465  0.749512  1
  Rh  Rh11  1  0.612535  0.546583  0.749512  1
  Rh  Rh12  1  0.546583  0.934048  0.250488  1
  Rh  Rh13  1  0.065952  0.612535  0.250488  1
  Rh  Rh14  1  0.387465  0.453417  0.250488  1
  Rh  Rh15  1  0.158637  0.286670  0.751431  1
  Rh  Rh16  1  0.713330  0.871968  0.751431  1
  Rh  Rh17  1  0.128032  0.841363  0.751431  1
  Rh  Rh18  1  0.841363  0.713330  0.248569  1
  Rh  Rh19  1  0.286670  0.128032  0.248569  1
  Rh  Rh20  1  0.871968  0.158637  0.248569  1
