# generated using pymatgen
data_Tb6Dy8Er2TlCd3Pt4
_symmetry_space_group_name_H-M   'P 1'
_cell_length_a   9.69899113
_cell_length_b   9.69899114
_cell_length_c   9.69554800
_cell_angle_alpha   60.01174944
_cell_angle_beta   60.01174940
_cell_angle_gamma   59.97650454
_symmetry_Int_Tables_number   1
_chemical_formula_structural   Tb6Dy8Er2TlCd3Pt4
_chemical_formula_sum   'Tb6 Dy8 Er2 Tl1 Cd3 Pt4'
_cell_volume   644.92674818
_cell_formula_units_Z   1
loop_
 _symmetry_equiv_pos_site_id
 _symmetry_equiv_pos_as_xyz
  1  'x, y, z'
loop_
 _atom_site_type_symbol
 _atom_site_label
 _atom_site_symmetry_multiplicity
 _atom_site_fract_x
 _atom_site_fract_y
 _atom_site_fract_z
 _atom_site_occupancy
  Tb  Tb0  1  0.937937  0.564978  0.564657  1
  Tb  Tb1  1  0.563143  0.936985  0.936969  1
  Tb  Tb2  1  0.564971  0.937937  0.564664  1
  Tb  Tb3  1  0.936986  0.563145  0.936966  1
  Tb  Tb4  1  0.564978  0.564962  0.937899  1
  Tb  Tb5  1  0.936676  0.936685  0.563449  1
  Dy  Dy6  1  0.349941  0.349946  0.350384  1
  Dy  Dy7  1  0.353515  0.353519  0.942269  1
  Dy  Dy8  1  0.353813  0.942243  0.353431  1
  Dy  Dy9  1  0.942239  0.353810  0.353436  1
  Dy  Dy10  1  0.811765  0.188945  0.188848  1
  Dy  Dy11  1  0.188380  0.810539  0.810751  1
  Dy  Dy12  1  0.188942  0.811766  0.188850  1
  Dy  Dy13  1  0.810535  0.188374  0.810757  1
  Er  Er14  1  0.189710  0.189715  0.810808  1
  Er  Er15  1  0.810036  0.810009  0.189256  1
  Tl  Tl16  1  0.583004  0.583006  0.582881  1
  Cd  Cd17  1  0.580517  0.580518  0.253708  1
  Cd  Cd18  1  0.580471  0.253526  0.580619  1
  Cd  Cd19  1  0.253520  0.580469  0.580622  1
  Pt  Pt20  1  0.144585  0.144592  0.142366  1
  Pt  Pt21  1  0.142334  0.142345  0.571356  1
  Pt  Pt22  1  0.140511  0.571482  0.142528  1
  Pt  Pt23  1  0.571492  0.140506  0.142526  1
