# generated using pymatgen
data_La4ZnSi2Pd27
_symmetry_space_group_name_H-M   'P 1'
_cell_length_a   9.01862450
_cell_length_b   9.01862450
_cell_length_c   7.16045684
_cell_angle_alpha   90.38385055
_cell_angle_beta   90.38385055
_cell_angle_gamma   88.73103431
_symmetry_Int_Tables_number   1
_chemical_formula_structural   La4ZnSi2Pd27
_chemical_formula_sum   'La4 Zn1 Si2 Pd27'
_cell_volume   582.23156709
_cell_formula_units_Z   1
loop_
 _symmetry_equiv_pos_site_id
 _symmetry_equiv_pos_as_xyz
  1  'x, y, z'
loop_
 _atom_site_type_symbol
 _atom_site_label
 _atom_site_symmetry_multiplicity
 _atom_site_fract_x
 _atom_site_fract_y
 _atom_site_fract_z
 _atom_site_occupancy
  La  La0  1  0.507891  0.007891  0.935530  1
  La  La1  1  0.992109  0.492109  0.064470  1
  La  La2  1  0.001786  0.998214  0.500000  1
  La  La3  1  0.498214  0.501786  0.500000  1
  Zn  Zn4  1  0.250000  0.750000  0.000000  1
  Si  Si5  1  0.501245  0.001245  0.446540  1
  Si  Si6  1  0.998755  0.498755  0.553460  1
  Pd  Pd7  1  0.337192  0.837192  0.607842  1
  Pd  Pd8  1  0.333700  0.165536  0.617303  1
  Pd  Pd9  1  0.665536  0.833700  0.617303  1
  Pd  Pd10  1  0.665362  0.165362  0.612145  1
  Pd  Pd11  1  0.162808  0.662808  0.392158  1
  Pd  Pd12  1  0.166300  0.334464  0.382697  1
  Pd  Pd13  1  0.834464  0.666300  0.382697  1
  Pd  Pd14  1  0.834638  0.334638  0.387855  1
  Pd  Pd15  1  0.500080  0.771395  0.254628  1
  Pd  Pd16  1  0.497423  0.231168  0.257514  1
  Pd  Pd17  1  0.271395  0.000080  0.254628  1
  Pd  Pd18  1  0.731168  0.997423  0.257514  1
  Pd  Pd19  1  0.999920  0.728605  0.745372  1
  Pd  Pd20  1  0.002577  0.268832  0.742486  1
  Pd  Pd21  1  0.228605  0.499920  0.745372  1
  Pd  Pd22  1  0.768832  0.502577  0.742486  1
  Pd  Pd23  1  0.498361  0.353266  0.854029  1
  Pd  Pd24  1  0.492602  0.659483  0.862294  1
  Pd  Pd25  1  0.853266  0.998361  0.854029  1
  Pd  Pd26  1  0.159483  0.992602  0.862294  1
  Pd  Pd27  1  0.001639  0.146734  0.145971  1
  Pd  Pd28  1  0.007398  0.840517  0.137706  1
  Pd  Pd29  1  0.646734  0.501639  0.145971  1
  Pd  Pd30  1  0.340517  0.507398  0.137706  1
  Pd  Pd31  1  0.250000  0.250000  0.000000  1
  Pd  Pd32  1  0.750000  0.750000  0.000000  1
  Pd  Pd33  1  0.750000  0.250000  0.000000  1
