# generated using pymatgen
data_Dy3Ho5In3Ir
_symmetry_space_group_name_H-M   'P 1'
_cell_length_a   10.40550100
_cell_length_b   10.40550057
_cell_length_c   7.04581400
_cell_angle_alpha   90.00000000
_cell_angle_beta   90.00000000
_cell_angle_gamma   119.99999818
_symmetry_Int_Tables_number   1
_chemical_formula_structural   Dy3Ho5In3Ir
_chemical_formula_sum   'Dy6 Ho10 In6 Ir2'
_cell_volume   660.67486799
_cell_formula_units_Z   2
loop_
 _symmetry_equiv_pos_site_id
 _symmetry_equiv_pos_as_xyz
  1  'x, y, z'
loop_
 _atom_site_type_symbol
 _atom_site_label
 _atom_site_symmetry_multiplicity
 _atom_site_fract_x
 _atom_site_fract_y
 _atom_site_fract_z
 _atom_site_occupancy
  Dy  Dy0  1  0.533264  0.066529  0.506557  1
  Dy  Dy1  1  0.933471  0.466736  0.506557  1
  Dy  Dy2  1  0.533264  0.466736  0.506557  1
  Dy  Dy3  1  0.466736  0.933471  0.006557  1
  Dy  Dy4  1  0.066529  0.533264  0.006557  1
  Dy  Dy5  1  0.466736  0.533264  0.006557  1
  Ho  Ho6  1  0.176545  0.353088  0.713246  1
  Ho  Ho7  1  0.646912  0.823455  0.713246  1
  Ho  Ho8  1  0.176545  0.823455  0.713246  1
  Ho  Ho9  1  0.823455  0.646912  0.213246  1
  Ho  Ho10  1  0.353088  0.176545  0.213246  1
  Ho  Ho11  1  0.823455  0.176545  0.213246  1
  Ho  Ho12  1  0.666667  0.333333  0.887771  1
  Ho  Ho13  1  0.333333  0.666667  0.387771  1
  Ho  Ho14  1  0.000000  0.000000  0.493430  1
  Ho  Ho15  1  0.000000  0.000000  0.993430  1
  In  In16  1  0.837348  0.674696  0.751846  1
  In  In17  1  0.325304  0.162652  0.751846  1
  In  In18  1  0.837348  0.162652  0.751846  1
  In  In19  1  0.162652  0.325304  0.251846  1
  In  In20  1  0.674696  0.837348  0.251846  1
  In  In21  1  0.162652  0.837348  0.251846  1
  Ir  Ir22  1  0.666667  0.333333  0.282872  1
  Ir  Ir23  1  0.333333  0.666667  0.782872  1
