# generated using pymatgen
data_Zr3ScSe6
_symmetry_space_group_name_H-M   'P 1'
_cell_length_a   6.51356721
_cell_length_b   6.51356722
_cell_length_c   6.83530450
_cell_angle_alpha   80.90854252
_cell_angle_beta   80.90855169
_cell_angle_gamma   120.04570536
_symmetry_Int_Tables_number   1
_chemical_formula_structural   Zr3ScSe6
_chemical_formula_sum   'Zr3 Sc1 Se6'
_cell_volume   238.14719845
_cell_formula_units_Z   1
loop_
 _symmetry_equiv_pos_site_id
 _symmetry_equiv_pos_as_xyz
  1  'x, y, z'
loop_
 _atom_site_type_symbol
 _atom_site_label
 _atom_site_symmetry_multiplicity
 _atom_site_fract_x
 _atom_site_fract_y
 _atom_site_fract_z
 _atom_site_occupancy
  Zr  Zr0  1  0.169428  0.830572  0.500000  1
  Zr  Zr1  1  0.500000  0.500000  0.500000  1
  Zr  Zr2  1  0.830572  0.169428  0.500000  1
  Sc  Sc3  1  0.000000  0.000000  0.000000  1
  Se  Se4  1  0.255365  0.255365  0.245276  1
  Se  Se5  1  0.582405  0.920232  0.241161  1
  Se  Se6  1  0.920232  0.582405  0.241161  1
  Se  Se7  1  0.079768  0.417595  0.758839  1
  Se  Se8  1  0.417595  0.079768  0.758839  1
  Se  Se9  1  0.744635  0.744635  0.754724  1
