# generated using pymatgen
data_Ag2PdF6
_symmetry_space_group_name_H-M   'P 1'
_cell_length_a   9.79344700
_cell_length_b   9.79344684
_cell_length_c   5.26916900
_cell_angle_alpha   90.00000000
_cell_angle_beta   90.00000000
_cell_angle_gamma   119.99999715
_symmetry_Int_Tables_number   1
_chemical_formula_structural   Ag2PdF6
_chemical_formula_sum   'Ag6 Pd3 F18'
_cell_volume   437.66711878
_cell_formula_units_Z   3
loop_
 _symmetry_equiv_pos_site_id
 _symmetry_equiv_pos_as_xyz
  1  'x, y, z'
loop_
 _atom_site_type_symbol
 _atom_site_label
 _atom_site_symmetry_multiplicity
 _atom_site_fract_x
 _atom_site_fract_y
 _atom_site_fract_z
 _atom_site_occupancy
  Ag  Ag0  1  0.293734  0.000000  0.500000  1
  Ag  Ag1  1  0.000000  0.293734  0.500000  1
  Ag  Ag2  1  0.706266  0.706266  0.500000  1
  Ag  Ag3  1  0.627300  0.000000  0.000000  1
  Ag  Ag4  1  0.000000  0.627300  0.000000  1
  Ag  Ag5  1  0.372700  0.372700  0.000000  1
  Pd  Pd6  1  0.333333  0.666667  0.495303  1
  Pd  Pd7  1  0.666667  0.333333  0.504697  1
  Pd  Pd8  1  0.000000  0.000000  0.000000  1
  F  F9  1  0.473913  0.258060  0.293542  1
  F  F10  1  0.741940  0.215854  0.293542  1
  F  F11  1  0.258060  0.473913  0.706458  1
  F  F12  1  0.784146  0.526087  0.293542  1
  F  F13  1  0.215854  0.741940  0.706458  1
  F  F14  1  0.526087  0.784146  0.706458  1
  F  F15  1  0.104317  0.196258  0.206386  1
  F  F16  1  0.803742  0.908060  0.206386  1
  F  F17  1  0.196258  0.104317  0.793614  1
  F  F18  1  0.091940  0.895683  0.206386  1
  F  F19  1  0.908060  0.803742  0.793614  1
  F  F20  1  0.895683  0.091940  0.793614  1
  F  F21  1  0.140537  0.547299  0.284010  1
  F  F22  1  0.452701  0.593238  0.284010  1
  F  F23  1  0.547299  0.140537  0.715990  1
  F  F24  1  0.406762  0.859463  0.284010  1
  F  F25  1  0.593238  0.452701  0.715990  1
  F  F26  1  0.859463  0.406762  0.715990  1
