# generated using pymatgen
data_Nb12Cr3Fe5(SiN)4
_symmetry_space_group_name_H-M   'P 1'
_cell_length_a   8.05727900
_cell_length_b   8.05717869
_cell_length_c   8.05701024
_cell_angle_alpha   59.81054646
_cell_angle_beta   59.81089365
_cell_angle_gamma   59.81070738
_symmetry_Int_Tables_number   1
_chemical_formula_structural   Nb12Cr3Fe5(SiN)4
_chemical_formula_sum   'Nb12 Cr3 Fe5 Si4 N4'
_cell_volume   368.26487155
_cell_formula_units_Z   1
loop_
 _symmetry_equiv_pos_site_id
 _symmetry_equiv_pos_as_xyz
  1  'x, y, z'
loop_
 _atom_site_type_symbol
 _atom_site_label
 _atom_site_symmetry_multiplicity
 _atom_site_fract_x
 _atom_site_fract_y
 _atom_site_fract_z
 _atom_site_occupancy
  Nb  Nb0  1  0.802124  0.802116  0.197130  1
  Nb  Nb1  1  0.199160  0.199088  0.801429  1
  Nb  Nb2  1  0.802139  0.197133  0.802122  1
  Nb  Nb3  1  0.199185  0.801417  0.199087  1
  Nb  Nb4  1  0.197179  0.802128  0.802119  1
  Nb  Nb5  1  0.801423  0.199144  0.199118  1
  Nb  Nb6  1  0.450381  0.450382  0.047066  1
  Nb  Nb7  1  0.050919  0.050931  0.449553  1
  Nb  Nb8  1  0.450356  0.047085  0.450374  1
  Nb  Nb9  1  0.050895  0.449558  0.050917  1
  Nb  Nb10  1  0.047110  0.450332  0.450348  1
  Nb  Nb11  1  0.449580  0.050871  0.050878  1
  Cr  Cr12  1  0.731036  0.423463  0.423480  1
  Cr  Cr13  1  0.423458  0.731069  0.423453  1
  Cr  Cr14  1  0.423500  0.423491  0.730969  1
  Fe  Fe15  1  0.419760  0.419754  0.419743  1
  Fe  Fe16  1  0.511351  0.830260  0.830296  1
  Fe  Fe17  1  0.830239  0.511339  0.830310  1
  Fe  Fe18  1  0.830241  0.830277  0.511356  1
  Fe  Fe19  1  0.829476  0.829512  0.829561  1
  Si  Si20  1  0.115970  0.627294  0.627295  1
  Si  Si21  1  0.627264  0.115856  0.627371  1
  Si  Si22  1  0.627262  0.627367  0.115857  1
  Si  Si23  1  0.629316  0.629428  0.629429  1
  N  N24  1  0.619828  0.127558  0.127564  1
  N  N25  1  0.127549  0.619857  0.127554  1
  N  N26  1  0.127546  0.127545  0.619872  1
  N  N27  1  0.125756  0.125746  0.125748  1
