# generated using pymatgen
data_Sc2Al3Ag
_symmetry_space_group_name_H-M   'P 1'
_cell_length_a   5.45379900
_cell_length_b   5.45379883
_cell_length_c   8.58819100
_cell_angle_alpha   90.00000000
_cell_angle_beta   90.00000000
_cell_angle_gamma   120.00000708
_symmetry_Int_Tables_number   1
_chemical_formula_structural   Sc2Al3Ag
_chemical_formula_sum   'Sc4 Al6 Ag2'
_cell_volume   221.22313264
_cell_formula_units_Z   2
loop_
 _symmetry_equiv_pos_site_id
 _symmetry_equiv_pos_as_xyz
  1  'x, y, z'
loop_
 _atom_site_type_symbol
 _atom_site_label
 _atom_site_symmetry_multiplicity
 _atom_site_fract_x
 _atom_site_fract_y
 _atom_site_fract_z
 _atom_site_occupancy
  Sc  Sc0  1  0.666666  0.333334  0.068932  1
  Sc  Sc1  1  0.666666  0.333334  0.431068  1
  Sc  Sc2  1  0.333334  0.666667  0.568932  1
  Sc  Sc3  1  0.333334  0.666667  0.931068  1
  Al  Al4  1  0.171635  0.343271  0.250000  1
  Al  Al5  1  0.171636  0.828365  0.250000  1
  Al  Al6  1  0.656728  0.828365  0.250000  1
  Al  Al7  1  0.343272  0.171636  0.750000  1
  Al  Al8  1  0.828366  0.171636  0.750000  1
  Al  Al9  1  0.828364  0.656728  0.750000  1
  Ag  Ag10  1  0.000000  0.000000  0.000000  1
  Ag  Ag11  1  0.000000  0.000000  0.500000  1
