# generated using pymatgen
data_Ce2VB8Mo
_symmetry_space_group_name_H-M   'P 1'
_cell_length_a   6.02929566
_cell_length_b   6.02929504
_cell_length_c   3.66077200
_cell_angle_alpha   90.00000000
_cell_angle_beta   90.00000000
_cell_angle_gamma   104.11220204
_symmetry_Int_Tables_number   1
_chemical_formula_structural   Ce2VB8Mo
_chemical_formula_sum   'Ce2 V1 B8 Mo1'
_cell_volume   129.06158204
_cell_formula_units_Z   1
loop_
 _symmetry_equiv_pos_site_id
 _symmetry_equiv_pos_as_xyz
  1  'x, y, z'
loop_
 _atom_site_type_symbol
 _atom_site_label
 _atom_site_symmetry_multiplicity
 _atom_site_fract_x
 _atom_site_fract_y
 _atom_site_fract_z
 _atom_site_occupancy
  Ce  Ce0  1  0.302984  0.698973  0.000000  1
  Ce  Ce1  1  0.698973  0.302984  0.000000  1
  V  V2  1  0.833229  0.833229  0.000000  1
  B  B3  1  0.089593  0.906895  0.500000  1
  B  B4  1  0.906895  0.089593  0.500000  1
  B  B5  1  0.628790  0.628790  0.500000  1
  B  B6  1  0.373611  0.373611  0.500000  1
  B  B7  1  0.065563  0.380115  0.500000  1
  B  B8  1  0.932682  0.620724  0.500000  1
  B  B9  1  0.380115  0.065563  0.500000  1
  B  B10  1  0.620724  0.932682  0.500000  1
  Mo  Mo11  1  0.166840  0.166840  0.000000  1
