# generated using pymatgen
data_Pr8DyErIr4
_symmetry_space_group_name_H-M   'P 1'
_cell_length_a   6.69907314
_cell_length_b   7.30568706
_cell_length_c   8.97538803
_cell_angle_alpha   96.36364463
_cell_angle_beta   111.91257155
_cell_angle_gamma   89.99999608
_symmetry_Int_Tables_number   1
_chemical_formula_structural   Pr8DyErIr4
_chemical_formula_sum   'Pr8 Dy1 Er1 Ir4'
_cell_volume   404.61350444
_cell_formula_units_Z   1
loop_
 _symmetry_equiv_pos_site_id
 _symmetry_equiv_pos_as_xyz
  1  'x, y, z'
loop_
 _atom_site_type_symbol
 _atom_site_label
 _atom_site_symmetry_multiplicity
 _atom_site_fract_x
 _atom_site_fract_y
 _atom_site_fract_z
 _atom_site_occupancy
  Pr  Pr0  1  0.794686  0.077808  0.818459  1
  Pr  Pr1  1  0.976227  0.422192  0.181541  1
  Pr  Pr2  1  0.205658  0.922650  0.181759  1
  Pr  Pr3  1  0.023899  0.577350  0.818241  1
  Pr  Pr4  1  0.214475  0.187976  0.568975  1
  Pr  Pr5  1  0.645500  0.312024  0.431025  1
  Pr  Pr6  1  0.785474  0.812153  0.431431  1
  Pr  Pr7  1  0.354043  0.687847  0.568569  1
  Dy  Dy8  1  0.563089  0.750000  0.000000  1
  Er  Er9  1  0.437309  0.250000  0.000000  1
  Ir  Ir10  1  0.597959  0.429423  0.790366  1
  Ir  Ir11  1  0.807594  0.070577  0.209634  1
  Ir  Ir12  1  0.401824  0.569592  0.209561  1
  Ir  Ir13  1  0.192263  0.930408  0.790439  1
