# generated using pymatgen
data_Zr10Be2(SnBi)3
_symmetry_space_group_name_H-M   'P 1'
_cell_length_a   8.71578000
_cell_length_b   8.71575777
_cell_length_c   5.84409500
_cell_angle_alpha   90.00000000
_cell_angle_beta   90.00000000
_cell_angle_gamma   119.99992957
_symmetry_Int_Tables_number   1
_chemical_formula_structural   Zr10Be2(SnBi)3
_chemical_formula_sum   'Zr10 Be2 Sn3 Bi3'
_cell_volume   384.46748633
_cell_formula_units_Z   1
loop_
 _symmetry_equiv_pos_site_id
 _symmetry_equiv_pos_as_xyz
  1  'x, y, z'
loop_
 _atom_site_type_symbol
 _atom_site_label
 _atom_site_symmetry_multiplicity
 _atom_site_fract_x
 _atom_site_fract_y
 _atom_site_fract_z
 _atom_site_occupancy
  Zr  Zr0  1  0.666667  0.333333  0.004992  1
  Zr  Zr1  1  0.333333  0.666667  0.004992  1
  Zr  Zr2  1  0.333333  0.666667  0.495008  1
  Zr  Zr3  1  0.666667  0.333333  0.495008  1
  Zr  Zr4  1  0.751795  0.751795  0.750000  1
  Zr  Zr5  1  0.248206  0.999999  0.750000  1
  Zr  Zr6  1  0.000000  0.248206  0.750000  1
  Zr  Zr7  1  0.253599  0.253599  0.250000  1
  Zr  Zr8  1  0.746400  0.999999  0.250000  1
  Zr  Zr9  1  0.000000  0.746401  0.250000  1
  Be  Be10  1  0.000000  0.000000  0.008704  1
  Be  Be11  1  0.000000  0.000000  0.491296  1
  Sn  Sn12  1  0.612912  0.612911  0.250000  1
  Sn  Sn13  1  0.387089  0.000000  0.250000  1
  Sn  Sn14  1  0.000000  0.387089  0.250000  1
  Bi  Bi15  1  0.392706  0.392706  0.750000  1
  Bi  Bi16  1  0.607295  0.000001  0.750000  1
  Bi  Bi17  1  0.999999  0.607293  0.750000  1
