# generated using pymatgen
data_Lu3BeBRh5
_symmetry_space_group_name_H-M   'P 1'
_cell_length_a   9.73349047
_cell_length_b   9.73349047
_cell_length_c   3.24917900
_cell_angle_alpha   90.00000000
_cell_angle_beta   90.00000000
_cell_angle_gamma   89.78287199
_symmetry_Int_Tables_number   1
_chemical_formula_structural   Lu3BeBRh5
_chemical_formula_sum   'Lu6 Be2 B2 Rh10'
_cell_volume   307.82772695
_cell_formula_units_Z   2
loop_
 _symmetry_equiv_pos_site_id
 _symmetry_equiv_pos_as_xyz
  1  'x, y, z'
loop_
 _atom_site_type_symbol
 _atom_site_label
 _atom_site_symmetry_multiplicity
 _atom_site_fract_x
 _atom_site_fract_y
 _atom_site_fract_z
 _atom_site_occupancy
  Lu  Lu0  1  0.673667  0.173667  0.000000  1
  Lu  Lu1  1  0.326333  0.826333  0.000000  1
  Lu  Lu2  1  0.175310  0.324690  0.000000  1
  Lu  Lu3  1  0.824690  0.675310  0.000000  1
  Lu  Lu4  1  0.000000  0.000000  0.000000  1
  Lu  Lu5  1  0.500000  0.500000  0.000000  1
  Be  Be6  1  0.120939  0.620939  0.000000  1
  Be  Be7  1  0.879061  0.379061  0.000000  1
  B  B8  1  0.619679  0.880321  0.000000  1
  B  B9  1  0.380321  0.119679  0.000000  1
  Rh  Rh10  1  0.500000  0.000000  0.500000  1
  Rh  Rh11  1  0.000000  0.500000  0.500000  1
  Rh  Rh12  1  0.228834  0.072146  0.500000  1
  Rh  Rh13  1  0.771166  0.927854  0.500000  1
  Rh  Rh14  1  0.070742  0.780657  0.500000  1
  Rh  Rh15  1  0.719343  0.429258  0.500000  1
  Rh  Rh16  1  0.929258  0.219343  0.500000  1
  Rh  Rh17  1  0.280657  0.570742  0.500000  1
  Rh  Rh18  1  0.572146  0.728834  0.500000  1
  Rh  Rh19  1  0.427854  0.271166  0.500000  1
