# generated using pymatgen
data_TbDy7SnHg3Au8
_symmetry_space_group_name_H-M   'P 1'
_cell_length_a   8.01541467
_cell_length_b   8.01570367
_cell_length_c   7.36886300
_cell_angle_alpha   90.00073808
_cell_angle_beta   89.99705769
_cell_angle_gamma   90.07398254
_symmetry_Int_Tables_number   1
_chemical_formula_structural   TbDy7SnHg3Au8
_chemical_formula_sum   'Tb1 Dy7 Sn1 Hg3 Au8'
_cell_volume   473.44307508
_cell_formula_units_Z   1
loop_
 _symmetry_equiv_pos_site_id
 _symmetry_equiv_pos_as_xyz
  1  'x, y, z'
loop_
 _atom_site_type_symbol
 _atom_site_label
 _atom_site_symmetry_multiplicity
 _atom_site_fract_x
 _atom_site_fract_y
 _atom_site_fract_z
 _atom_site_occupancy
  Tb  Tb0  1  0.839516  0.160726  0.500865  1
  Dy  Dy1  1  0.160699  0.839187  0.500929  1
  Dy  Dy2  1  0.339348  0.339638  0.999065  1
  Dy  Dy3  1  0.660482  0.660529  0.999077  1
  Dy  Dy4  1  0.683490  0.684696  0.500123  1
  Dy  Dy5  1  0.316533  0.315335  0.500129  1
  Dy  Dy6  1  0.184775  0.816257  0.999874  1
  Dy  Dy7  1  0.815258  0.183561  0.999844  1
  Sn  Sn8  1  0.000107  0.500114  0.249911  1
  Hg  Hg9  1  0.499991  0.999907  0.249936  1
  Hg  Hg10  1  0.000016  0.500019  0.750120  1
  Hg  Hg11  1  0.499958  0.999972  0.750051  1
  Au  Au12  1  0.625372  0.372960  0.273906  1
  Au  Au13  1  0.373923  0.627681  0.274802  1
  Au  Au14  1  0.128083  0.125972  0.774691  1
  Au  Au15  1  0.872550  0.873408  0.774734  1
  Au  Au16  1  0.373733  0.627693  0.725683  1
  Au  Au17  1  0.625637  0.372925  0.726555  1
  Au  Au18  1  0.872528  0.873634  0.224805  1
  Au  Au19  1  0.128003  0.125786  0.224900  1
