# generated using pymatgen
data_YTm4Lu3In3Pt
_symmetry_space_group_name_H-M   'P 1'
_cell_length_a   10.33607000
_cell_length_b   10.33004866
_cell_length_c   6.94926930
_cell_angle_alpha   90.02187438
_cell_angle_beta   90.00000000
_cell_angle_gamma   120.01929031
_symmetry_Int_Tables_number   1
_chemical_formula_structural   YTm4Lu3In3Pt
_chemical_formula_sum   'Y2 Tm8 Lu6 In6 Pt2'
_cell_volume   642.45555504
_cell_formula_units_Z   2
loop_
 _symmetry_equiv_pos_site_id
 _symmetry_equiv_pos_as_xyz
  1  'x, y, z'
loop_
 _atom_site_type_symbol
 _atom_site_label
 _atom_site_symmetry_multiplicity
 _atom_site_fract_x
 _atom_site_fract_y
 _atom_site_fract_z
 _atom_site_occupancy
  Y  Y0  1  0.999873  0.999746  0.499090  1
  Y  Y1  1  0.999389  0.998778  0.997867  1
  Tm  Tm2  1  0.469068  0.531751  0.479242  1
  Tm  Tm3  1  0.062685  0.531751  0.479242  1
  Tm  Tm4  1  0.468426  0.936850  0.478495  1
  Tm  Tm5  1  0.531600  0.469397  0.978964  1
  Tm  Tm6  1  0.937797  0.469397  0.978964  1
  Tm  Tm7  1  0.531477  0.062954  0.977888  1
  Tm  Tm8  1  0.823980  0.175924  0.273626  1
  Tm  Tm9  1  0.351944  0.175924  0.273626  1
  Lu  Lu10  1  0.823598  0.647198  0.274387  1
  Lu  Lu11  1  0.176612  0.823828  0.773501  1
  Lu  Lu12  1  0.647215  0.823828  0.773501  1
  Lu  Lu13  1  0.176249  0.352499  0.773374  1
  Lu  Lu14  1  0.333433  0.666868  0.102643  1
  Lu  Lu15  1  0.666848  0.333694  0.602827  1
  In  In16  1  0.162297  0.835477  0.234685  1
  In  In17  1  0.673180  0.835477  0.234685  1
  In  In18  1  0.163759  0.327519  0.234343  1
  In  In19  1  0.837055  0.163292  0.735647  1
  In  In20  1  0.326239  0.163292  0.735647  1
  In  In21  1  0.836869  0.673737  0.735571  1
  Pt  Pt22  1  0.333224  0.666449  0.708699  1
  Pt  Pt23  1  0.667183  0.334364  0.208039  1
