# generated using pymatgen
data_La16Cd4Tc3Pt
_symmetry_space_group_name_H-M   'P 1'
_cell_length_a   10.05330703
_cell_length_b   10.17697059
_cell_length_c   10.17697100
_cell_angle_alpha   60.00000193
_cell_angle_beta   59.59225417
_cell_angle_gamma   59.59225398
_symmetry_Int_Tables_number   1
_chemical_formula_structural   La16Cd4Tc3Pt
_chemical_formula_sum   'La16 Cd4 Tc3 Pt1'
_cell_volume   731.68936781
_cell_formula_units_Z   1
loop_
 _symmetry_equiv_pos_site_id
 _symmetry_equiv_pos_as_xyz
  1  'x, y, z'
loop_
 _atom_site_type_symbol
 _atom_site_label
 _atom_site_symmetry_multiplicity
 _atom_site_fract_x
 _atom_site_fract_y
 _atom_site_fract_z
 _atom_site_occupancy
  La  La0  1  0.592754  0.599339  0.599339  1
  La  La1  1  0.592754  0.599339  0.208569  1
  La  La2  1  0.592754  0.208569  0.599339  1
  La  La3  1  0.214128  0.595291  0.595291  1
  La  La4  1  0.069899  0.438841  0.438841  1
  La  La5  1  0.439540  0.062336  0.062336  1
  La  La6  1  0.439540  0.062336  0.435788  1
  La  La7  1  0.069899  0.438841  0.052419  1
  La  La8  1  0.439540  0.435788  0.062336  1
  La  La9  1  0.069899  0.052419  0.438841  1
  La  La10  1  0.192350  0.807163  0.807163  1
  La  La11  1  0.805571  0.191291  0.191291  1
  La  La12  1  0.805571  0.191291  0.811846  1
  La  La13  1  0.192350  0.807163  0.193324  1
  La  La14  1  0.805571  0.811846  0.191291  1
  La  La15  1  0.192350  0.193324  0.807163  1
  Cd  Cd16  1  0.828888  0.829136  0.829136  1
  Cd  Cd17  1  0.828888  0.829136  0.512840  1
  Cd  Cd18  1  0.828888  0.512840  0.829136  1
  Cd  Cd19  1  0.512742  0.829086  0.829086  1
  Tc  Tc20  1  0.385198  0.384430  0.384430  1
  Tc  Tc21  1  0.385198  0.384430  0.845942  1
  Tc  Tc22  1  0.385198  0.845942  0.384430  1
  Pt  Pt23  1  0.830533  0.389822  0.389822  1
