# generated using pymatgen
data_Dy8Nb11Si16Mo
_symmetry_space_group_name_H-M   'P 1'
_cell_length_a   7.04937620
_cell_length_b   7.04937670
_cell_length_c   13.04391332
_cell_angle_alpha   90.00813749
_cell_angle_beta   89.99186288
_cell_angle_gamma   89.92330823
_symmetry_Int_Tables_number   1
_chemical_formula_structural   Dy8Nb11Si16Mo
_chemical_formula_sum   'Dy8 Nb11 Si16 Mo1'
_cell_volume   648.19982981
_cell_formula_units_Z   1
loop_
 _symmetry_equiv_pos_site_id
 _symmetry_equiv_pos_as_xyz
  1  'x, y, z'
loop_
 _atom_site_type_symbol
 _atom_site_label
 _atom_site_symmetry_multiplicity
 _atom_site_fract_x
 _atom_site_fract_y
 _atom_site_fract_z
 _atom_site_occupancy
  Dy  Dy0  1  0.997874  0.657142  0.032216  1
  Dy  Dy1  1  0.002392  0.341876  0.532305  1
  Dy  Dy2  1  0.657142  0.997874  0.967784  1
  Dy  Dy3  1  0.158531  0.501878  0.783133  1
  Dy  Dy4  1  0.842353  0.497252  0.281953  1
  Dy  Dy5  1  0.501878  0.158531  0.216867  1
  Dy  Dy6  1  0.497252  0.842353  0.718047  1
  Dy  Dy7  1  0.341876  0.002392  0.467695  1
  Nb  Nb8  1  0.347132  0.506353  0.375529  1
  Nb  Nb9  1  0.847334  0.993025  0.374285  1
  Nb  Nb10  1  0.006309  0.152111  0.125543  1
  Nb  Nb11  1  0.993025  0.847334  0.625715  1
  Nb  Nb12  1  0.506353  0.347132  0.624471  1
  Nb  Nb13  1  0.152111  0.006309  0.874457  1
  Nb  Nb14  1  0.671915  0.671915  0.500000  1
  Nb  Nb15  1  0.828479  0.172663  0.750839  1
  Nb  Nb16  1  0.172663  0.828479  0.249161  1
  Nb  Nb17  1  0.493159  0.653073  0.123782  1
  Nb  Nb18  1  0.653073  0.493159  0.876218  1
  Si  Si19  1  0.046440  0.706664  0.436475  1
  Si  Si20  1  0.955586  0.293201  0.937043  1
  Si  Si21  1  0.706664  0.046440  0.563525  1
  Si  Si22  1  0.208231  0.451916  0.184825  1
  Si  Si23  1  0.793444  0.546422  0.686641  1
  Si  Si24  1  0.451916  0.208231  0.815175  1
  Si  Si25  1  0.546422  0.793444  0.313359  1
  Si  Si26  1  0.293201  0.955586  0.062957  1
  Si  Si27  1  0.795806  0.866816  0.182427  1
  Si  Si28  1  0.296205  0.633952  0.567383  1
  Si  Si29  1  0.701603  0.366167  0.066993  1
  Si  Si30  1  0.633952  0.296205  0.432617  1
  Si  Si31  1  0.366167  0.701603  0.933007  1
  Si  Si32  1  0.134047  0.204136  0.317129  1
  Si  Si33  1  0.204136  0.134047  0.682871  1
  Si  Si34  1  0.866816  0.795806  0.817573  1
  Mo  Mo35  1  0.328512  0.328512  0.000000  1
