# generated using pymatgen
data_Te12PIrI6
_symmetry_space_group_name_H-M   'P 1'
_cell_length_a   10.10645999
_cell_length_b   10.10646033
_cell_length_c   10.10645917
_cell_angle_alpha   109.75229108
_cell_angle_beta   109.75229148
_cell_angle_gamma   109.75228559
_symmetry_Int_Tables_number   1
_chemical_formula_structural   Te12PIrI6
_chemical_formula_sum   'Te12 P1 Ir1 I6'
_cell_volume   786.27084237
_cell_formula_units_Z   1
loop_
 _symmetry_equiv_pos_site_id
 _symmetry_equiv_pos_as_xyz
  1  'x, y, z'
loop_
 _atom_site_type_symbol
 _atom_site_label
 _atom_site_symmetry_multiplicity
 _atom_site_fract_x
 _atom_site_fract_y
 _atom_site_fract_z
 _atom_site_occupancy
  Te  Te0  1  0.925455  0.160697  0.186365  1
  Te  Te1  1  0.186365  0.925455  0.160697  1
  Te  Te2  1  0.160697  0.186365  0.925455  1
  Te  Te3  1  0.677287  0.662303  0.439200  1
  Te  Te4  1  0.439200  0.677287  0.662303  1
  Te  Te5  1  0.662303  0.439200  0.677287  1
  Te  Te6  1  0.060800  0.837697  0.822713  1
  Te  Te7  1  0.822713  0.060800  0.837697  1
  Te  Te8  1  0.837697  0.822713  0.060800  1
  Te  Te9  1  0.313635  0.339303  0.574545  1
  Te  Te10  1  0.574545  0.313635  0.339303  1
  Te  Te11  1  0.339303  0.574545  0.313635  1
  P  P12  1  0.250000  0.250000  0.250000  1
  Ir  Ir13  1  0.750000  0.750000  0.750000  1
  I  I14  1  0.989487  0.510513  0.250000  1
  I  I15  1  0.250000  0.989487  0.510513  1
  I  I16  1  0.510513  0.250000  0.989487  1
  I  I17  1  0.750000  0.009597  0.490403  1
  I  I18  1  0.490403  0.750000  0.009597  1
  I  I19  1  0.009597  0.490403  0.750000  1
