# generated using pymatgen
data_Tb2Ho6Hf11Si16Hg
_symmetry_space_group_name_H-M   'P 1'
_cell_length_a   7.29801235
_cell_length_b   7.29676321
_cell_length_c   13.27914506
_cell_angle_alpha   89.78897695
_cell_angle_beta   90.21080243
_cell_angle_gamma   89.88676591
_symmetry_Int_Tables_number   1
_chemical_formula_structural   Tb2Ho6Hf11Si16Hg
_chemical_formula_sum   'Tb2 Ho6 Hf11 Si16 Hg1'
_cell_volume   707.12829863
_cell_formula_units_Z   1
loop_
 _symmetry_equiv_pos_site_id
 _symmetry_equiv_pos_as_xyz
  1  'x, y, z'
loop_
 _atom_site_type_symbol
 _atom_site_label
 _atom_site_symmetry_multiplicity
 _atom_site_fract_x
 _atom_site_fract_y
 _atom_site_fract_z
 _atom_site_occupancy
  Tb  Tb0  1  0.346121  0.997227  0.788410  1
  Tb  Tb1  1  0.656612  0.004890  0.283985  1
  Ho  Ho2  1  0.997673  0.346781  0.211754  1
  Ho  Ho3  1  0.004165  0.656086  0.715941  1
  Ho  Ho4  1  0.155030  0.496286  0.465055  1
  Ho  Ho5  1  0.499210  0.846814  0.033017  1
  Ho  Ho6  1  0.847013  0.499154  0.967079  1
  Ho  Ho7  1  0.496257  0.155182  0.534907  1
  Hf  Hf8  1  0.824826  0.824449  0.500132  1
  Hf  Hf9  1  0.322804  0.676337  0.249902  1
  Hf  Hf10  1  0.676883  0.323373  0.750019  1
  Hf  Hf11  1  0.144965  0.997512  0.375281  1
  Hf  Hf12  1  0.855837  0.001811  0.878070  1
  Hf  Hf13  1  0.504351  0.646755  0.626161  1
  Hf  Hf14  1  0.356161  0.491824  0.877488  1
  Hf  Hf15  1  0.491670  0.356291  0.122411  1
  Hf  Hf16  1  0.646929  0.504280  0.373837  1
  Hf  Hf17  1  0.997635  0.144975  0.624741  1
  Hf  Hf18  1  0.001889  0.855806  0.121801  1
  Si  Si19  1  0.359071  0.296365  0.317310  1
  Si  Si20  1  0.641003  0.703338  0.819601  1
  Si  Si21  1  0.206869  0.860014  0.568855  1
  Si  Si22  1  0.130774  0.772129  0.926275  1
  Si  Si23  1  0.773137  0.131446  0.073690  1
  Si  Si24  1  0.860562  0.207497  0.431470  1
  Si  Si25  1  0.295823  0.360144  0.682490  1
  Si  Si26  1  0.703947  0.639868  0.180228  1
  Si  Si27  1  0.297874  0.048767  0.192264  1
  Si  Si28  1  0.705237  0.950629  0.686235  1
  Si  Si29  1  0.449775  0.795229  0.436400  1
  Si  Si30  1  0.210496  0.569316  0.065038  1
  Si  Si31  1  0.569962  0.210988  0.935172  1
  Si  Si32  1  0.795691  0.450309  0.563815  1
  Si  Si33  1  0.048188  0.299178  0.807439  1
  Si  Si34  1  0.951179  0.704236  0.313566  1
  Hg  Hg35  1  0.174380  0.174711  0.000164  1
