# generated using pymatgen
data_Zr6Ta3TiAl12Os7
_symmetry_space_group_name_H-M   'P 1'
_cell_length_a   8.84242122
_cell_length_b   8.84242107
_cell_length_c   8.84242215
_cell_angle_alpha   60.05240085
_cell_angle_beta   60.05239870
_cell_angle_gamma   60.05240328
_symmetry_Int_Tables_number   1
_chemical_formula_structural   Zr6Ta3TiAl12Os7
_chemical_formula_sum   'Zr6 Ta3 Ti1 Al12 Os7'
_cell_volume   489.45653297
_cell_formula_units_Z   1
loop_
 _symmetry_equiv_pos_site_id
 _symmetry_equiv_pos_as_xyz
  1  'x, y, z'
loop_
 _atom_site_type_symbol
 _atom_site_label
 _atom_site_symmetry_multiplicity
 _atom_site_fract_x
 _atom_site_fract_y
 _atom_site_fract_z
 _atom_site_occupancy
  Zr  Zr0  1  0.705666  0.296364  0.296364  1
  Zr  Zr1  1  0.702385  0.298186  0.702385  1
  Zr  Zr2  1  0.702385  0.702385  0.298186  1
  Zr  Zr3  1  0.298186  0.702385  0.702385  1
  Zr  Zr4  1  0.296364  0.705666  0.296364  1
  Zr  Zr5  1  0.296364  0.296364  0.705666  1
  Ta  Ta6  1  0.637364  0.121171  0.121171  1
  Ta  Ta7  1  0.121171  0.637364  0.121171  1
  Ta  Ta8  1  0.121171  0.121171  0.637364  1
  Ti  Ti9  1  0.120350  0.120350  0.120350  1
  Al  Al10  1  0.361699  0.880583  0.880583  1
  Al  Al11  1  0.880583  0.361699  0.880583  1
  Al  Al12  1  0.880583  0.880583  0.361699  1
  Al  Al13  1  0.879379  0.879379  0.879379  1
  Al  Al14  1  0.986943  0.336015  0.336015  1
  Al  Al15  1  0.336015  0.986943  0.336015  1
  Al  Al16  1  0.336015  0.336015  0.986943  1
  Al  Al17  1  0.339475  0.339475  0.339475  1
  Al  Al18  1  0.003243  0.665205  0.665205  1
  Al  Al19  1  0.665205  0.003243  0.665205  1
  Al  Al20  1  0.665205  0.665205  0.003243  1
  Al  Al21  1  0.665763  0.665763  0.665763  1
  Os  Os22  1  0.000061  0.000061  0.000061  1
  Os  Os23  1  0.499541  0.001219  0.001219  1
  Os  Os24  1  0.497548  0.001348  0.497548  1
  Os  Os25  1  0.497548  0.497548  0.001348  1
  Os  Os26  1  0.001348  0.497548  0.497548  1
  Os  Os27  1  0.001219  0.499541  0.001219  1
  Os  Os28  1  0.001219  0.001219  0.499541  1
