# generated using pymatgen
data_MgZn2CrN4
_symmetry_space_group_name_H-M   'P 1'
_cell_length_a   6.49084000
_cell_length_b   5.56641300
_cell_length_c   5.27028700
_cell_angle_alpha   90.00000000
_cell_angle_beta   90.00000000
_cell_angle_gamma   90.00000000
_symmetry_Int_Tables_number   1
_chemical_formula_structural   MgZn2CrN4
_chemical_formula_sum   'Mg2 Zn4 Cr2 N8'
_cell_volume   190.41913826
_cell_formula_units_Z   2
loop_
 _symmetry_equiv_pos_site_id
 _symmetry_equiv_pos_as_xyz
  1  'x, y, z'
loop_
 _atom_site_type_symbol
 _atom_site_label
 _atom_site_symmetry_multiplicity
 _atom_site_fract_x
 _atom_site_fract_y
 _atom_site_fract_z
 _atom_site_occupancy
  Mg  Mg0  1  0.000000  0.342558  0.724715  1
  Mg  Mg1  1  0.500000  0.657442  0.224715  1
  Zn  Zn2  1  0.252445  0.829841  0.731957  1
  Zn  Zn3  1  0.247555  0.170159  0.231957  1
  Zn  Zn4  1  0.747555  0.829841  0.731957  1
  Zn  Zn5  1  0.752445  0.170159  0.231957  1
  Cr  Cr6  1  0.000000  0.676285  0.229640  1
  Cr  Cr7  1  0.500000  0.323715  0.729640  1
  N  N8  1  0.776957  0.823114  0.117249  1
  N  N9  1  0.723043  0.176886  0.617249  1
  N  N10  1  0.223043  0.823114  0.117249  1
  N  N11  1  0.276957  0.176886  0.617249  1
  N  N12  1  0.000000  0.374841  0.125956  1
  N  N13  1  0.500000  0.625159  0.625956  1
  N  N14  1  0.000000  0.684435  0.560536  1
  N  N15  1  0.500000  0.315565  0.060536  1
