# generated using pymatgen
data_Tb3PrSc2(AlPt2)2
_symmetry_space_group_name_H-M   'P 1'
_cell_length_a   4.46604000
_cell_length_b   7.30340198
_cell_length_c   8.02835369
_cell_angle_alpha   90.15850676
_cell_angle_beta   90.00000000
_cell_angle_gamma   90.00000000
_symmetry_Int_Tables_number   1
_chemical_formula_structural   Tb3PrSc2(AlPt2)2
_chemical_formula_sum   'Tb3 Pr1 Sc2 Al2 Pt4'
_cell_volume   261.86210130
_cell_formula_units_Z   1
loop_
 _symmetry_equiv_pos_site_id
 _symmetry_equiv_pos_as_xyz
  1  'x, y, z'
loop_
 _atom_site_type_symbol
 _atom_site_label
 _atom_site_symmetry_multiplicity
 _atom_site_fract_x
 _atom_site_fract_y
 _atom_site_fract_z
 _atom_site_occupancy
  Tb  Tb0  1  0.250000  0.556792  0.820532  1
  Tb  Tb1  1  0.250000  0.022429  0.672125  1
  Tb  Tb2  1  0.750000  0.947180  0.324459  1
  Pr  Pr3  1  0.750000  0.477578  0.171253  1
  Sc  Sc4  1  0.250000  0.125061  0.064317  1
  Sc  Sc5  1  0.750000  0.372918  0.567420  1
  Al  Al6  1  0.250000  0.643519  0.437350  1
  Al  Al7  1  0.750000  0.859430  0.933858  1
  Pt  Pt8  1  0.250000  0.768497  0.120438  1
  Pt  Pt9  1  0.250000  0.273385  0.387861  1
  Pt  Pt10  1  0.750000  0.736558  0.621837  1
  Pt  Pt11  1  0.750000  0.216655  0.878551  1
