# generated using pymatgen
data_Y3CdIn3CuIr
_symmetry_space_group_name_H-M   'P 1'
_cell_length_a   7.76888500
_cell_length_b   7.76888582
_cell_length_c   3.90848600
_cell_angle_alpha   90.00000000
_cell_angle_beta   90.00000000
_cell_angle_gamma   119.99999227
_symmetry_Int_Tables_number   1
_chemical_formula_structural   Y3CdIn3CuIr
_chemical_formula_sum   'Y3 Cd1 In3 Cu1 Ir1'
_cell_volume   204.29449184
_cell_formula_units_Z   1
loop_
 _symmetry_equiv_pos_site_id
 _symmetry_equiv_pos_as_xyz
  1  'x, y, z'
loop_
 _atom_site_type_symbol
 _atom_site_label
 _atom_site_symmetry_multiplicity
 _atom_site_fract_x
 _atom_site_fract_y
 _atom_site_fract_z
 _atom_site_occupancy
  Y  Y0  1  0.392595  0.969591  0.500000  1
  Y  Y1  1  0.030409  0.423004  0.500000  1
  Y  Y2  1  0.576996  0.607405  0.500000  1
  Cd  Cd3  1  0.666667  0.333333  0.000000  1
  In  In4  1  0.751068  0.999185  0.000000  1
  In  In5  1  0.000815  0.751882  0.000000  1
  In  In6  1  0.248118  0.248932  0.000000  1
  Cu  Cu7  1  0.000000  0.000000  0.500000  1
  Ir  Ir8  1  0.333333  0.666667  0.000000  1
