# generated using pymatgen
data_Er3Tm2Re2C7
_symmetry_space_group_name_H-M   'P 1'
_cell_length_a   8.23915046
_cell_length_b   8.24130083
_cell_length_c   3.38601300
_cell_angle_alpha   90.00000000
_cell_angle_beta   90.00000000
_cell_angle_gamma   122.18178522
_symmetry_Int_Tables_number   1
_chemical_formula_structural   Er3Tm2Re2C7
_chemical_formula_sum   'Er3 Tm2 Re2 C7'
_cell_volume   194.59122400
_cell_formula_units_Z   1
loop_
 _symmetry_equiv_pos_site_id
 _symmetry_equiv_pos_as_xyz
  1  'x, y, z'
loop_
 _atom_site_type_symbol
 _atom_site_label
 _atom_site_symmetry_multiplicity
 _atom_site_fract_x
 _atom_site_fract_y
 _atom_site_fract_z
 _atom_site_occupancy
  Er  Er0  1  0.500000  0.500000  0.000000  1
  Er  Er1  1  0.664901  0.923246  0.500000  1
  Er  Er2  1  0.335099  0.076754  0.500000  1
  Tm  Tm3  1  0.077079  0.336452  0.500000  1
  Tm  Tm4  1  0.922921  0.663548  0.500000  1
  Re  Re5  1  0.715071  0.285176  0.000000  1
  Re  Re6  1  0.284929  0.714824  0.000000  1
  C  C7  1  0.625492  0.375126  0.500000  1
  C  C8  1  0.374508  0.624874  0.500000  1
  C  C9  1  0.000000  0.000000  0.000000  1
  C  C10  1  0.169843  0.171284  0.000000  1
  C  C11  1  0.830157  0.828716  0.000000  1
  C  C12  1  0.000000  0.500000  0.000000  1
  C  C13  1  0.500000  0.000000  0.000000  1
