# generated using pymatgen
data_Dy2Ho3Ti2Co16MoP12
_symmetry_space_group_name_H-M   'P 1'
_cell_length_a   12.05999800
_cell_length_b   12.05999881
_cell_length_c   3.70160600
_cell_angle_alpha   90.00000000
_cell_angle_beta   90.00000000
_cell_angle_gamma   120.00000325
_symmetry_Int_Tables_number   1
_chemical_formula_structural   Dy2Ho3Ti2Co16MoP12
_chemical_formula_sum   'Dy2 Ho3 Ti2 Co16 Mo1 P12'
_cell_volume   466.24620379
_cell_formula_units_Z   1
loop_
 _symmetry_equiv_pos_site_id
 _symmetry_equiv_pos_as_xyz
  1  'x, y, z'
loop_
 _atom_site_type_symbol
 _atom_site_label
 _atom_site_symmetry_multiplicity
 _atom_site_fract_x
 _atom_site_fract_y
 _atom_site_fract_z
 _atom_site_occupancy
  Dy  Dy0  1  0.667163  0.333462  0.000000  1
  Dy  Dy1  1  0.332837  0.666299  0.000000  1
  Ho  Ho2  1  0.814881  0.815598  0.500000  1
  Ho  Ho3  1  0.185119  0.000718  0.500000  1
  Ho  Ho4  1  0.000000  0.185469  0.500000  1
  Ti  Ti5  1  0.440039  0.440008  0.000000  1
  Ti  Ti6  1  0.559961  0.999969  0.000000  1
  Co  Co7  1  0.873969  0.355466  0.500000  1
  Co  Co8  1  0.645788  0.519392  0.500000  1
  Co  Co9  1  0.479909  0.124906  0.500000  1
  Co  Co10  1  0.354212  0.873603  0.500000  1
  Co  Co11  1  0.520091  0.644997  0.500000  1
  Co  Co12  1  0.126031  0.481497  0.500000  1
  Co  Co13  1  0.801922  0.177952  0.000000  1
  Co  Co14  1  0.823497  0.625448  0.000000  1
  Co  Co15  1  0.375459  0.198011  0.000000  1
  Co  Co16  1  0.176503  0.801953  0.000000  1
  Co  Co17  1  0.624541  0.822553  0.000000  1
  Co  Co18  1  0.198078  0.376031  0.000000  1
  Co  Co19  1  0.280668  0.280922  0.500000  1
  Co  Co20  1  0.719332  0.000254  0.500000  1
  Co  Co21  1  0.000000  0.720002  0.500000  1
  Co  Co22  1  0.000000  0.000242  0.000000  1
  Mo  Mo23  1  0.000000  0.553655  0.000000  1
  P  P24  1  0.686521  0.167088  0.500000  1
  P  P25  1  0.834586  0.520519  0.500000  1
  P  P26  1  0.479959  0.312716  0.500000  1
  P  P27  1  0.165414  0.685932  0.500000  1
  P  P28  1  0.520041  0.832756  0.500000  1
  P  P29  1  0.313479  0.480566  0.500000  1
  P  P30  1  0.178862  0.179296  0.000000  1
  P  P31  1  0.821138  0.000434  0.000000  1
  P  P32  1  0.000000  0.821528  0.000000  1
  P  P33  1  0.641831  0.641065  0.000000  1
  P  P34  1  0.358169  0.999235  0.000000  1
  P  P35  1  0.000000  0.360456  0.000000  1
