# generated using pymatgen
data_Ta4VGa3B
_symmetry_space_group_name_H-M   'P 1'
_cell_length_a   7.72256100
_cell_length_b   7.72256124
_cell_length_c   5.23283300
_cell_angle_alpha   90.00000000
_cell_angle_beta   90.00000000
_cell_angle_gamma   120.00000324
_symmetry_Int_Tables_number   1
_chemical_formula_structural   Ta4VGa3B
_chemical_formula_sum   'Ta8 V2 Ga6 B2'
_cell_volume   270.26524512
_cell_formula_units_Z   2
loop_
 _symmetry_equiv_pos_site_id
 _symmetry_equiv_pos_as_xyz
  1  'x, y, z'
loop_
 _atom_site_type_symbol
 _atom_site_label
 _atom_site_symmetry_multiplicity
 _atom_site_fract_x
 _atom_site_fract_y
 _atom_site_fract_z
 _atom_site_occupancy
  Ta  Ta0  1  0.243509  0.000000  0.254226  1
  Ta  Ta1  1  0.756491  0.000000  0.745774  1
  Ta  Ta2  1  0.000000  0.243509  0.254226  1
  Ta  Ta3  1  0.000000  0.756491  0.745774  1
  Ta  Ta4  1  0.756491  0.756491  0.254226  1
  Ta  Ta5  1  0.243509  0.243509  0.745774  1
  Ta  Ta6  1  0.666667  0.333333  0.500000  1
  Ta  Ta7  1  0.333333  0.666667  0.500000  1
  V  V8  1  0.333333  0.666667  0.000000  1
  V  V9  1  0.666667  0.333333  0.000000  1
  Ga  Ga10  1  0.595557  0.000000  0.235957  1
  Ga  Ga11  1  0.404443  0.000000  0.764043  1
  Ga  Ga12  1  0.000000  0.595557  0.235957  1
  Ga  Ga13  1  0.000000  0.404443  0.764043  1
  Ga  Ga14  1  0.404443  0.404443  0.235957  1
  Ga  Ga15  1  0.595557  0.595557  0.764043  1
  B  B16  1  0.000000  0.000000  0.000000  1
  B  B17  1  0.000000  0.000000  0.500000  1
