# generated using pymatgen
data_NpTl5F9
_symmetry_space_group_name_H-M   'P 1'
_cell_length_a   7.27652900
_cell_length_b   8.53913300
_cell_length_c   11.90485800
_cell_angle_alpha   90.00010065
_cell_angle_beta   89.99852755
_cell_angle_gamma   89.99992619
_symmetry_Int_Tables_number   1
_chemical_formula_structural   NpTl5F9
_chemical_formula_sum   'Np2 Tl10 F18'
_cell_volume   739.71131506
_cell_formula_units_Z   2
loop_
 _symmetry_equiv_pos_site_id
 _symmetry_equiv_pos_as_xyz
  1  'x, y, z'
loop_
 _atom_site_type_symbol
 _atom_site_label
 _atom_site_symmetry_multiplicity
 _atom_site_fract_x
 _atom_site_fract_y
 _atom_site_fract_z
 _atom_site_occupancy
  Np  Np0  1  0.500349  0.999998  0.999885  1
  Np  Np1  1  0.000385  0.000000  0.500157  1
  Tl  Tl2  1  0.028047  0.285786  0.826185  1
  Tl  Tl3  1  0.028049  0.714213  0.826185  1
  Tl  Tl4  1  0.414485  0.499998  0.013290  1
  Tl  Tl5  1  0.460132  0.710135  0.335241  1
  Tl  Tl6  1  0.460138  0.289872  0.335243  1
  Tl  Tl7  1  0.527987  0.714233  0.673794  1
  Tl  Tl8  1  0.527983  0.285773  0.673794  1
  Tl  Tl9  1  0.914437  0.500002  0.486825  1
  Tl  Tl10  1  0.960139  0.289876  0.164715  1
  Tl  Tl11  1  0.960130  0.710127  0.164716  1
  F  F12  1  0.118751  0.000002  0.333554  1
  F  F13  1  0.191064  0.186602  0.550232  1
  F  F14  1  0.191064  0.813402  0.550245  1
  F  F15  1  0.190576  0.500011  0.261260  1
  F  F16  1  0.336737  0.500015  0.785346  1
  F  F17  1  0.305307  0.186018  0.049039  1
  F  F18  1  0.305321  0.813964  0.049040  1
  F  F19  1  0.378666  0.999990  0.833427  1
  F  F20  1  0.544713  0.499998  0.503018  1
  F  F21  1  0.618793  0.000002  0.166464  1
  F  F22  1  0.691090  0.186589  0.949798  1
  F  F23  1  0.691106  0.813411  0.949798  1
  F  F24  1  0.690440  0.500008  0.238569  1
  F  F25  1  0.836800  0.499994  0.714565  1
  F  F26  1  0.805257  0.186018  0.451030  1
  F  F27  1  0.805275  0.813966  0.451029  1
  F  F28  1  0.878684  0.000005  0.666612  1
  F  F29  1  0.044690  0.499992  0.996945  1
