# generated using pymatgen
data_Yb5InAg2
_symmetry_space_group_name_H-M   'P 1'
_cell_length_a   9.29609425
_cell_length_b   9.29609426
_cell_length_c   9.29612435
_cell_angle_alpha   128.55383521
_cell_angle_beta   128.55383923
_cell_angle_gamma   75.72952371
_symmetry_Int_Tables_number   1
_chemical_formula_structural   Yb5InAg2
_chemical_formula_sum   'Yb10 In2 Ag4'
_cell_volume   477.87863500
_cell_formula_units_Z   2
loop_
 _symmetry_equiv_pos_site_id
 _symmetry_equiv_pos_as_xyz
  1  'x, y, z'
loop_
 _atom_site_type_symbol
 _atom_site_label
 _atom_site_symmetry_multiplicity
 _atom_site_fract_x
 _atom_site_fract_y
 _atom_site_fract_z
 _atom_site_occupancy
  Yb  Yb0  1  0.500000  0.500000  0.000000  1
  Yb  Yb1  1  0.000000  0.000000  0.000000  1
  Yb  Yb2  1  0.525132  0.025132  0.835557  1
  Yb  Yb3  1  0.189575  0.689575  0.164443  1
  Yb  Yb4  1  0.025131  0.189575  0.500000  1
  Yb  Yb5  1  0.689575  0.525131  0.500000  1
  Yb  Yb6  1  0.474868  0.974868  0.164443  1
  Yb  Yb7  1  0.810425  0.310425  0.835557  1
  Yb  Yb8  1  0.974869  0.810425  0.500000  1
  Yb  Yb9  1  0.310425  0.474869  0.500000  1
  In  In10  1  0.250003  0.249997  0.000000  1
  In  In11  1  0.749997  0.750003  0.000000  1
  Ag  Ag12  1  0.127708  0.627708  0.755413  1
  Ag  Ag13  1  0.872292  0.372292  0.244587  1
  Ag  Ag14  1  0.627709  0.872291  0.500000  1
  Ag  Ag15  1  0.372291  0.127709  0.500000  1
