# generated using pymatgen
data_Ce2Pr9US20
_symmetry_space_group_name_H-M   'P 1'
_cell_length_a   7.57524826
_cell_length_b   8.17070700
_cell_length_c   12.03663704
_cell_angle_alpha   90.00000000
_cell_angle_beta   89.91094618
_cell_angle_gamma   90.00000000
_symmetry_Int_Tables_number   1
_chemical_formula_structural   Ce2Pr9US20
_chemical_formula_sum   'Ce2 Pr9 U1 S20'
_cell_volume   745.00836195
_cell_formula_units_Z   1
loop_
 _symmetry_equiv_pos_site_id
 _symmetry_equiv_pos_as_xyz
  1  'x, y, z'
loop_
 _atom_site_type_symbol
 _atom_site_label
 _atom_site_symmetry_multiplicity
 _atom_site_fract_x
 _atom_site_fract_y
 _atom_site_fract_z
 _atom_site_occupancy
  Ce  Ce0  1  0.431581  0.250000  0.009192  1
  Ce  Ce1  1  0.573536  0.750000  0.989192  1
  Pr  Pr2  1  0.925074  0.750000  0.492613  1
  Pr  Pr3  1  0.475611  0.998980  0.321805  1
  Pr  Pr4  1  0.979947  0.999225  0.176940  1
  Pr  Pr5  1  0.521789  0.499994  0.677573  1
  Pr  Pr6  1  0.024079  0.500185  0.824203  1
  Pr  Pr7  1  0.521789  0.000006  0.677573  1
  Pr  Pr8  1  0.024079  0.999815  0.824203  1
  Pr  Pr9  1  0.475611  0.501020  0.321805  1
  Pr  Pr10  1  0.979947  0.500775  0.176940  1
  U  U11  1  0.059723  0.250000  0.505804  1
  S  S12  1  0.174599  0.750000  0.308281  1
  S  S13  1  0.669565  0.250000  0.187040  1
  S  S14  1  0.832763  0.250000  0.682307  1
  S  S15  1  0.328087  0.750000  0.811926  1
  S  S16  1  0.538217  0.750000  0.498791  1
  S  S17  1  0.046040  0.250000  0.002553  1
  S  S18  1  0.447962  0.250000  0.499323  1
  S  S19  1  0.955997  0.750000  0.999346  1
  S  S20  1  0.800962  0.750000  0.720442  1
  S  S21  1  0.307354  0.250000  0.789702  1
  S  S22  1  0.194820  0.250000  0.288549  1
  S  S23  1  0.697384  0.750000  0.214774  1
  S  S24  1  0.162511  0.525187  0.598195  1
  S  S25  1  0.664122  0.456891  0.903261  1
  S  S26  1  0.840561  0.053068  0.403525  1
  S  S27  1  0.339546  0.958284  0.094581  1
  S  S28  1  0.840561  0.446932  0.403525  1
  S  S29  1  0.339546  0.541716  0.094581  1
  S  S30  1  0.162511  0.974813  0.598195  1
  S  S31  1  0.664122  0.043109  0.903261  1
