# generated using pymatgen
data_Tm3Lu2In2Sb
_symmetry_space_group_name_H-M   'P 1'
_cell_length_a   6.45387500
_cell_length_b   8.84358456
_cell_length_c   8.81911708
_cell_angle_alpha   119.82923617
_cell_angle_beta   89.99911193
_cell_angle_gamma   89.99939092
_symmetry_Int_Tables_number   1
_chemical_formula_structural   Tm3Lu2In2Sb
_chemical_formula_sum   'Tm6 Lu4 In4 Sb2'
_cell_volume   436.66597856
_cell_formula_units_Z   2
loop_
 _symmetry_equiv_pos_site_id
 _symmetry_equiv_pos_as_xyz
  1  'x, y, z'
loop_
 _atom_site_type_symbol
 _atom_site_label
 _atom_site_symmetry_multiplicity
 _atom_site_fract_x
 _atom_site_fract_y
 _atom_site_fract_z
 _atom_site_occupancy
  Tm  Tm0  1  0.749988  0.232759  0.995386  1
  Tm  Tm1  1  0.750020  0.767063  0.762169  1
  Tm  Tm2  1  0.750045  0.999981  0.237413  1
  Tm  Tm3  1  0.250024  0.764075  0.000394  1
  Tm  Tm4  1  0.250012  0.235788  0.236276  1
  Tm  Tm5  1  0.250001  0.999927  0.764186  1
  Lu  Lu6  1  0.495504  0.333859  0.668079  1
  Lu  Lu7  1  0.495800  0.666105  0.334358  1
  Lu  Lu8  1  0.004187  0.666174  0.334402  1
  Lu  Lu9  1  0.004453  0.333829  0.668089  1
  In  In10  1  0.749963  0.000164  0.596218  1
  In  In11  1  0.250012  0.396999  0.001645  1
  In  In12  1  0.250022  0.603035  0.604626  1
  In  In13  1  0.249998  0.999945  0.400166  1
  Sb  Sb14  1  0.749987  0.605019  0.000734  1
  Sb  Sb15  1  0.749987  0.395279  0.395859  1
