# generated using pymatgen
data_Y2Lu2Ga5Ir9
_symmetry_space_group_name_H-M   'P 1'
_cell_length_a   5.55568500
_cell_length_b   5.55568482
_cell_length_c   23.53562300
_cell_angle_alpha   90.00000000
_cell_angle_beta   90.00000000
_cell_angle_gamma   119.99998323
_symmetry_Int_Tables_number   1
_chemical_formula_structural   Y2Lu2Ga5Ir9
_chemical_formula_sum   'Y4 Lu4 Ga10 Ir18'
_cell_volume   629.11728451
_cell_formula_units_Z   2
loop_
 _symmetry_equiv_pos_site_id
 _symmetry_equiv_pos_as_xyz
  1  'x, y, z'
loop_
 _atom_site_type_symbol
 _atom_site_label
 _atom_site_symmetry_multiplicity
 _atom_site_fract_x
 _atom_site_fract_y
 _atom_site_fract_z
 _atom_site_occupancy
  Y  Y0  1  0.333333  0.666667  0.677310  1
  Y  Y1  1  0.666667  0.333333  0.322690  1
  Y  Y2  1  0.666667  0.333333  0.177310  1
  Y  Y3  1  0.333333  0.666667  0.822690  1
  Lu  Lu4  1  0.333333  0.666667  0.529302  1
  Lu  Lu5  1  0.666667  0.333333  0.470698  1
  Lu  Lu6  1  0.666667  0.333333  0.029302  1
  Lu  Lu7  1  0.333333  0.666667  0.970698  1
  Ga  Ga8  1  0.000000  0.000000  0.000000  1
  Ga  Ga9  1  0.000000  0.000000  0.500000  1
  Ga  Ga10  1  0.333333  0.666667  0.167683  1
  Ga  Ga11  1  0.666667  0.333333  0.832317  1
  Ga  Ga12  1  0.666667  0.333333  0.667683  1
  Ga  Ga13  1  0.333333  0.666667  0.332317  1
  Ga  Ga14  1  0.000000  0.000000  0.164635  1
  Ga  Ga15  1  0.000000  0.000000  0.835365  1
  Ga  Ga16  1  0.000000  0.000000  0.664635  1
  Ga  Ga17  1  0.000000  0.000000  0.335365  1
  Ir  Ir18  1  0.170989  0.341978  0.082412  1
  Ir  Ir19  1  0.829011  0.658022  0.917588  1
  Ir  Ir20  1  0.658022  0.829011  0.082412  1
  Ir  Ir21  1  0.829011  0.658022  0.582412  1
  Ir  Ir22  1  0.341978  0.170989  0.917588  1
  Ir  Ir23  1  0.170989  0.341978  0.417588  1
  Ir  Ir24  1  0.170989  0.829011  0.082412  1
  Ir  Ir25  1  0.341978  0.170989  0.582412  1
  Ir  Ir26  1  0.829011  0.170989  0.917588  1
  Ir  Ir27  1  0.658022  0.829011  0.417588  1
  Ir  Ir28  1  0.829011  0.170989  0.582412  1
  Ir  Ir29  1  0.170989  0.829011  0.417588  1
  Ir  Ir30  1  0.165149  0.330295  0.250000  1
  Ir  Ir31  1  0.834851  0.669705  0.750000  1
  Ir  Ir32  1  0.669705  0.834851  0.250000  1
  Ir  Ir33  1  0.330295  0.165149  0.750000  1
  Ir  Ir34  1  0.165149  0.834851  0.250000  1
  Ir  Ir35  1  0.834851  0.165149  0.750000  1
