# generated using pymatgen
data_La4P3Cl
_symmetry_space_group_name_H-M   'P 1'
_cell_length_a   8.49875014
_cell_length_b   4.25611500
_cell_length_c   5.98897101
_cell_angle_alpha   90.00000000
_cell_angle_beta   89.99195298
_cell_angle_gamma   90.00000000
_symmetry_Int_Tables_number   1
_chemical_formula_structural   La4P3Cl
_chemical_formula_sum   'La4 P3 Cl1'
_cell_volume   216.63100867
_cell_formula_units_Z   1
loop_
 _symmetry_equiv_pos_site_id
 _symmetry_equiv_pos_as_xyz
  1  'x, y, z'
loop_
 _atom_site_type_symbol
 _atom_site_label
 _atom_site_symmetry_multiplicity
 _atom_site_fract_x
 _atom_site_fract_y
 _atom_site_fract_z
 _atom_site_occupancy
  La  La0  1  0.107062  0.749999  0.249882  1
  La  La1  1  0.642661  0.749999  0.250185  1
  La  La2  1  0.375183  0.249999  0.749806  1
  La  La3  1  0.875107  0.249999  0.750142  1
  P  P4  1  0.874841  0.249999  0.250162  1
  P  P5  1  0.131109  0.749999  0.749850  1
  P  P6  1  0.619210  0.749999  0.750195  1
  Cl  Cl7  1  0.374828  0.249999  0.249782  1
