# generated using pymatgen
data_Tb3Ho(OF)4
_symmetry_space_group_name_H-M   'P 1'
_cell_length_a   5.55908758
_cell_length_b   5.67520549
_cell_length_c   5.63900001
_cell_angle_alpha   80.24996473
_cell_angle_beta   90.06490807
_cell_angle_gamma   90.04887341
_symmetry_Int_Tables_number   1
_chemical_formula_structural   Tb3Ho(OF)4
_chemical_formula_sum   'Tb3 Ho1 O4 F4'
_cell_volume   175.33479631
_cell_formula_units_Z   1
loop_
 _symmetry_equiv_pos_site_id
 _symmetry_equiv_pos_as_xyz
  1  'x, y, z'
loop_
 _atom_site_type_symbol
 _atom_site_label
 _atom_site_symmetry_multiplicity
 _atom_site_fract_x
 _atom_site_fract_y
 _atom_site_fract_z
 _atom_site_occupancy
  Tb  Tb0  1  0.475566  0.696007  0.712514  1
  Tb  Tb1  1  0.525482  0.305244  0.286265  1
  Tb  Tb2  1  0.976203  0.305513  0.787071  1
  Ho  Ho3  1  0.025296  0.692972  0.213023  1
  O  O4  1  0.247258  0.464790  0.508279  1
  O  O5  1  0.754506  0.538278  0.488907  1
  O  O6  1  0.748956  0.536349  0.990970  1
  O  O7  1  0.252870  0.465931  0.009951  1
  F  F8  1  0.173711  0.940580  0.849610  1
  F  F9  1  0.826406  0.052855  0.155227  1
  F  F10  1  0.672744  0.060369  0.653644  1
  F  F11  1  0.321001  0.941110  0.344540  1
