# generated using pymatgen
data_LiMoF5
_symmetry_space_group_name_H-M   'P 1'
_cell_length_a   5.69116562
_cell_length_b   5.88171906
_cell_length_c   7.81880642
_cell_angle_alpha   103.98886148
_cell_angle_beta   104.23362835
_cell_angle_gamma   105.26367646
_symmetry_Int_Tables_number   1
_chemical_formula_structural   LiMoF5
_chemical_formula_sum   'Li2 Mo2 F10'
_cell_volume   231.22500499
_cell_formula_units_Z   2
loop_
 _symmetry_equiv_pos_site_id
 _symmetry_equiv_pos_as_xyz
  1  'x, y, z'
loop_
 _atom_site_type_symbol
 _atom_site_label
 _atom_site_symmetry_multiplicity
 _atom_site_fract_x
 _atom_site_fract_y
 _atom_site_fract_z
 _atom_site_occupancy
  Li  Li0  1  0.312547  0.663052  0.763967  1
  Li  Li1  1  0.687453  0.336948  0.236033  1
  Mo  Mo2  1  0.000000  0.000000  0.500000  1
  Mo  Mo3  1  0.000000  0.000000  0.000000  1
  F  F4  1  0.256557  0.338356  0.619720  1
  F  F5  1  0.745796  0.142725  0.393397  1
  F  F6  1  0.254204  0.857275  0.606603  1
  F  F7  1  0.934108  0.302191  0.116710  1
  F  F8  1  0.110980  0.957323  0.262216  1
  F  F9  1  0.743443  0.661644  0.380280  1
  F  F10  1  0.361348  0.197617  0.049368  1
  F  F11  1  0.638652  0.802383  0.950632  1
  F  F12  1  0.889020  0.042677  0.737784  1
  F  F13  1  0.065892  0.697809  0.883290  1
