# generated using pymatgen
data_Er3Zn3C
_symmetry_space_group_name_H-M   'P 1'
_cell_length_a   9.08072255
_cell_length_b   9.08072357
_cell_length_c   9.08072300
_cell_angle_alpha   59.99999842
_cell_angle_beta   59.99999474
_cell_angle_gamma   60.00000438
_symmetry_Int_Tables_number   1
_chemical_formula_structural   Er3Zn3C
_chemical_formula_sum   'Er12 Zn12 C4'
_cell_volume   529.47600596
_cell_formula_units_Z   4
loop_
 _symmetry_equiv_pos_site_id
 _symmetry_equiv_pos_as_xyz
  1  'x, y, z'
loop_
 _atom_site_type_symbol
 _atom_site_label
 _atom_site_symmetry_multiplicity
 _atom_site_fract_x
 _atom_site_fract_y
 _atom_site_fract_z
 _atom_site_occupancy
  Er  Er0  1  0.447428  0.447428  0.052572  1
  Er  Er1  1  0.052572  0.447428  0.052572  1
  Er  Er2  1  0.447428  0.052572  0.052572  1
  Er  Er3  1  0.052572  0.052572  0.447428  1
  Er  Er4  1  0.447428  0.052572  0.447428  1
  Er  Er5  1  0.052572  0.447428  0.447428  1
  Er  Er6  1  0.802572  0.802572  0.197428  1
  Er  Er7  1  0.197428  0.802572  0.197428  1
  Er  Er8  1  0.802572  0.197428  0.197428  1
  Er  Er9  1  0.197428  0.197428  0.802572  1
  Er  Er10  1  0.802572  0.197428  0.802572  1
  Er  Er11  1  0.197428  0.802572  0.802572  1
  Zn  Zn12  1  0.827468  0.827468  0.517594  1
  Zn  Zn13  1  0.827468  0.517594  0.827468  1
  Zn  Zn14  1  0.517594  0.827468  0.827468  1
  Zn  Zn15  1  0.827468  0.827468  0.827468  1
  Zn  Zn16  1  0.422532  0.422532  0.732406  1
  Zn  Zn17  1  0.422532  0.732406  0.422532  1
  Zn  Zn18  1  0.732406  0.422532  0.422532  1
  Zn  Zn19  1  0.422532  0.422532  0.422532  1
  Zn  Zn20  1  0.625000  0.625000  0.125000  1
  Zn  Zn21  1  0.625000  0.125000  0.625000  1
  Zn  Zn22  1  0.125000  0.625000  0.625000  1
  Zn  Zn23  1  0.625000  0.625000  0.625000  1
  C  C24  1  0.125000  0.125000  0.625000  1
  C  C25  1  0.125000  0.625000  0.125000  1
  C  C26  1  0.625000  0.125000  0.125000  1
  C  C27  1  0.125000  0.125000  0.125000  1
