# generated using pymatgen
data_Nd29S32
_symmetry_space_group_name_H-M   'P 1'
_cell_length_a   14.10165747
_cell_length_b   14.10165713
_cell_length_c   14.10165700
_cell_angle_alpha   131.84886751
_cell_angle_beta   131.84886629
_cell_angle_gamma   70.46783176
_symmetry_Int_Tables_number   1
_chemical_formula_structural   Nd29S32
_chemical_formula_sum   'Nd29 S32'
_cell_volume   1524.69541625
_cell_formula_units_Z   1
loop_
 _symmetry_equiv_pos_site_id
 _symmetry_equiv_pos_as_xyz
  1  'x, y, z'
loop_
 _atom_site_type_symbol
 _atom_site_label
 _atom_site_symmetry_multiplicity
 _atom_site_fract_x
 _atom_site_fract_y
 _atom_site_fract_z
 _atom_site_occupancy
  Nd  Nd0  1  0.125331  0.874326  0.748995  1
  Nd  Nd1  1  0.374757  0.623542  0.248784  1
  Nd  Nd2  1  0.625243  0.376458  0.751216  1
  Nd  Nd3  1  0.874669  0.125674  0.251005  1
  Nd  Nd4  1  0.748582  0.748582  0.497162  1
  Nd  Nd5  1  0.000000  0.500000  0.000000  1
  Nd  Nd6  1  0.251418  0.251418  0.502838  1
  Nd  Nd7  1  0.500000  0.000000  0.000000  1
  Nd  Nd8  1  0.874326  0.125331  0.748995  1
  Nd  Nd9  1  0.125674  0.874669  0.251005  1
  Nd  Nd10  1  0.376458  0.625243  0.751216  1
  Nd  Nd11  1  0.623542  0.374757  0.248784  1
  Nd  Nd12  1  0.625243  0.874027  0.248784  1
  Nd  Nd13  1  0.874669  0.623664  0.748995  1
  Nd  Nd14  1  0.125331  0.376336  0.251005  1
  Nd  Nd15  1  0.374757  0.125973  0.751216  1
  Nd  Nd16  1  0.000000  0.000000  0.500000  1
  Nd  Nd17  1  0.251418  0.748582  0.000000  1
  Nd  Nd18  1  0.500000  0.500000  0.500000  1
  Nd  Nd19  1  0.748582  0.251418  0.000000  1
  Nd  Nd20  1  0.125973  0.374757  0.751216  1
  Nd  Nd21  1  0.376336  0.125331  0.251005  1
  Nd  Nd22  1  0.623664  0.874669  0.748995  1
  Nd  Nd23  1  0.874027  0.625243  0.248784  1
  Nd  Nd24  1  0.500000  0.000000  0.500000  1
  Nd  Nd25  1  0.751373  0.751373  0.000000  1
  Nd  Nd26  1  0.000000  0.500000  0.500000  1
  Nd  Nd27  1  0.248627  0.248627  0.000000  1
  Nd  Nd28  1  0.000000  0.000000  0.000000  1
  S  S29  1  0.874824  0.874824  0.499418  1
  S  S30  1  0.125176  0.624594  0.000000  1
  S  S31  1  0.375406  0.375406  0.500582  1
  S  S32  1  0.624594  0.125176  0.000000  1
  S  S33  1  0.125176  0.125176  0.500582  1
  S  S34  1  0.375406  0.874824  0.000000  1
  S  S35  1  0.624594  0.624594  0.499418  1
  S  S36  1  0.874824  0.375406  0.000000  1
  S  S37  1  0.748950  0.000000  0.748950  1
  S  S38  1  0.999506  0.749732  0.249774  1
  S  S39  1  0.250285  0.500000  0.750285  1
  S  S40  1  0.500041  0.250268  0.249774  1
  S  S41  1  0.375113  0.875113  0.500000  1
  S  S42  1  0.626506  0.626506  0.000000  1
  S  S43  1  0.875113  0.375113  0.500000  1
  S  S44  1  0.124762  0.124762  0.000000  1
  S  S45  1  0.500000  0.250285  0.750285  1
  S  S46  1  0.749732  0.999506  0.249774  1
  S  S47  1  0.000000  0.748950  0.748950  1
  S  S48  1  0.250268  0.500041  0.249774  1
  S  S49  1  0.251050  0.000000  0.251050  1
  S  S50  1  0.499959  0.749732  0.750226  1
  S  S51  1  0.749715  0.500000  0.249715  1
  S  S52  1  0.000494  0.250268  0.750226  1
  S  S53  1  0.624887  0.124887  0.500000  1
  S  S54  1  0.875238  0.875238  0.000000  1
  S  S55  1  0.124887  0.624887  0.500000  1
  S  S56  1  0.373494  0.373494  0.000000  1
  S  S57  1  0.500000  0.749715  0.249715  1
  S  S58  1  0.749732  0.499959  0.750226  1
  S  S59  1  0.000000  0.251050  0.251050  1
  S  S60  1  0.250268  0.000494  0.750226  1
