# generated using pymatgen
data_Tb3Er2In4IrPd
_symmetry_space_group_name_H-M   'P 1'
_cell_length_a   3.63500500
_cell_length_b   8.14239006
_cell_length_c   18.24761105
_cell_angle_alpha   90.07413156
_cell_angle_beta   90.00000000
_cell_angle_gamma   90.00000000
_symmetry_Int_Tables_number   1
_chemical_formula_structural   Tb3Er2In4IrPd
_chemical_formula_sum   'Tb6 Er4 In8 Ir2 Pd2'
_cell_volume   540.08556218
_cell_formula_units_Z   2
loop_
 _symmetry_equiv_pos_site_id
 _symmetry_equiv_pos_as_xyz
  1  'x, y, z'
loop_
 _atom_site_type_symbol
 _atom_site_label
 _atom_site_symmetry_multiplicity
 _atom_site_fract_x
 _atom_site_fract_y
 _atom_site_fract_z
 _atom_site_occupancy
  Tb  Tb0  1  0.000000  0.500000  0.500000  1
  Tb  Tb1  1  0.000000  0.000000  0.000000  1
  Tb  Tb2  1  0.000000  0.728480  0.277717  1
  Tb  Tb3  1  0.000000  0.271520  0.722283  1
  Tb  Tb4  1  0.000000  0.747787  0.780045  1
  Tb  Tb5  1  0.000000  0.252213  0.219955  1
  Er  Er6  1  0.000000  0.613266  0.087443  1
  Er  Er7  1  0.000000  0.386734  0.912557  1
  Er  Er8  1  0.000000  0.885007  0.584751  1
  Er  Er9  1  0.000000  0.114993  0.415249  1
  In  In10  1  0.500000  0.707320  0.932545  1
  In  In11  1  0.500000  0.292680  0.067455  1
  In  In12  1  0.500000  0.793074  0.432419  1
  In  In13  1  0.500000  0.206926  0.567581  1
  In  In14  1  0.500000  0.579436  0.648342  1
  In  In15  1  0.500000  0.420564  0.351658  1
  In  In16  1  0.500000  0.921580  0.149966  1
  In  In17  1  0.500000  0.078420  0.850034  1
  Ir  Ir18  1  0.500000  0.519359  0.194938  1
  Ir  Ir19  1  0.500000  0.480641  0.805062  1
  Pd  Pd20  1  0.500000  0.980308  0.695367  1
  Pd  Pd21  1  0.500000  0.019692  0.304633  1
