# generated using pymatgen
data_Nd5Bi3O14
_symmetry_space_group_name_H-M   'P 1'
_cell_length_a   6.76208223
_cell_length_b   6.80151506
_cell_length_c   7.96135817
_cell_angle_alpha   106.71604949
_cell_angle_beta   89.67159074
_cell_angle_gamma   97.91797891
_symmetry_Int_Tables_number   1
_chemical_formula_structural   Nd5Bi3O14
_chemical_formula_sum   'Nd5 Bi3 O14'
_cell_volume   347.12360440
_cell_formula_units_Z   1
loop_
 _symmetry_equiv_pos_site_id
 _symmetry_equiv_pos_as_xyz
  1  'x, y, z'
loop_
 _atom_site_type_symbol
 _atom_site_label
 _atom_site_symmetry_multiplicity
 _atom_site_fract_x
 _atom_site_fract_y
 _atom_site_fract_z
 _atom_site_occupancy
  Nd  Nd0  1  0.456584  0.007867  0.254639  1
  Nd  Nd1  1  0.538875  0.001921  0.750590  1
  Nd  Nd2  1  0.267701  0.532231  0.881288  1
  Nd  Nd3  1  0.743729  0.462112  0.115521  1
  Nd  Nd4  1  0.750994  0.483508  0.618680  1
  Bi  Bi5  1  0.993412  0.998866  0.499924  1
  Bi  Bi6  1  0.998352  0.995176  0.997228  1
  Bi  Bi7  1  0.288910  0.537971  0.390374  1
  O  O8  1  0.444877  0.647003  0.172197  1
  O  O9  1  0.561153  0.361034  0.836413  1
  O  O10  1  0.296154  0.921428  0.953099  1
  O  O11  1  0.702989  0.073252  0.049034  1
  O  O12  1  0.290730  0.927410  0.513729  1
  O  O13  1  0.703700  0.086377  0.493173  1
  O  O14  1  0.548433  0.366347  0.345712  1
  O  O15  1  0.455516  0.639105  0.651430  1
  O  O16  1  0.926276  0.667481  0.948115  1
  O  O17  1  0.069126  0.315411  0.025571  1
  O  O18  1  0.070260  0.328035  0.625116  1
  O  O19  1  0.904919  0.673239  0.384673  1
  O  O20  1  0.881163  0.905790  0.726915  1
  O  O21  1  0.106145  0.068438  0.266576  1
