# generated using pymatgen
data_Dy2Lu2ScSb3
_symmetry_space_group_name_H-M   'P 1'
_cell_length_a   7.92131000
_cell_length_b   9.10906900
_cell_length_c   11.71597900
_cell_angle_alpha   90.00000000
_cell_angle_beta   90.00000000
_cell_angle_gamma   90.00000000
_symmetry_Int_Tables_number   1
_chemical_formula_structural   Dy2Lu2ScSb3
_chemical_formula_sum   'Dy8 Lu8 Sc4 Sb12'
_cell_volume   845.37536140
_cell_formula_units_Z   4
loop_
 _symmetry_equiv_pos_site_id
 _symmetry_equiv_pos_as_xyz
  1  'x, y, z'
loop_
 _atom_site_type_symbol
 _atom_site_label
 _atom_site_symmetry_multiplicity
 _atom_site_fract_x
 _atom_site_fract_y
 _atom_site_fract_z
 _atom_site_occupancy
  Dy  Dy0  1  0.184461  0.750000  0.721319  1
  Dy  Dy1  1  0.684461  0.750000  0.778681  1
  Dy  Dy2  1  0.815539  0.250000  0.278681  1
  Dy  Dy3  1  0.315539  0.250000  0.221319  1
  Dy  Dy4  1  0.854855  0.750000  0.285222  1
  Dy  Dy5  1  0.354855  0.750000  0.214778  1
  Dy  Dy6  1  0.145145  0.250000  0.714778  1
  Dy  Dy7  1  0.645145  0.250000  0.785222  1
  Lu  Lu8  1  0.196523  0.562232  0.440400  1
  Lu  Lu9  1  0.696523  0.937768  0.059600  1
  Lu  Lu10  1  0.803477  0.062232  0.559600  1
  Lu  Lu11  1  0.303477  0.437768  0.940400  1
  Lu  Lu12  1  0.803477  0.437768  0.559600  1
  Lu  Lu13  1  0.303477  0.062232  0.940400  1
  Lu  Lu14  1  0.196523  0.937768  0.440400  1
  Lu  Lu15  1  0.696523  0.562232  0.059600  1
  Sc  Sc16  1  0.028032  0.750000  0.988863  1
  Sc  Sc17  1  0.528032  0.750000  0.511137  1
  Sc  Sc18  1  0.971968  0.250000  0.011137  1
  Sc  Sc19  1  0.471968  0.250000  0.488863  1
  Sb  Sb20  1  0.933852  0.496048  0.832911  1
  Sb  Sb21  1  0.433852  0.003952  0.667089  1
  Sb  Sb22  1  0.066148  0.996048  0.167089  1
  Sb  Sb23  1  0.566148  0.503952  0.332911  1
  Sb  Sb24  1  0.066148  0.503952  0.167089  1
  Sb  Sb25  1  0.566148  0.996048  0.332911  1
  Sb  Sb26  1  0.933852  0.003952  0.832911  1
  Sb  Sb27  1  0.433852  0.496048  0.667089  1
  Sb  Sb28  1  0.906819  0.750000  0.541265  1
  Sb  Sb29  1  0.406819  0.750000  0.958735  1
  Sb  Sb30  1  0.093181  0.250000  0.458735  1
  Sb  Sb31  1  0.593181  0.250000  0.041265  1
