# generated using pymatgen
data_K4CuP2Au
_symmetry_space_group_name_H-M   'P 1'
_cell_length_a   6.21958830
_cell_length_b   6.21958763
_cell_length_c   5.93841024
_cell_angle_alpha   89.28021502
_cell_angle_beta   89.28022050
_cell_angle_gamma   105.80068405
_symmetry_Int_Tables_number   1
_chemical_formula_structural   K4CuP2Au
_chemical_formula_sum   'K4 Cu1 P2 Au1'
_cell_volume   220.98929243
_cell_formula_units_Z   1
loop_
 _symmetry_equiv_pos_site_id
 _symmetry_equiv_pos_as_xyz
  1  'x, y, z'
loop_
 _atom_site_type_symbol
 _atom_site_label
 _atom_site_symmetry_multiplicity
 _atom_site_fract_x
 _atom_site_fract_y
 _atom_site_fract_z
 _atom_site_occupancy
  K  K0  1  0.973361  0.315524  0.749437  1
  K  K1  1  0.315524  0.973361  0.749437  1
  K  K2  1  0.026639  0.684476  0.250563  1
  K  K3  1  0.684476  0.026639  0.250563  1
  Cu  Cu4  1  0.500000  0.500000  0.000000  1
  P  P5  1  0.741118  0.741118  0.766124  1
  P  P6  1  0.258882  0.258882  0.233876  1
  Au  Au7  1  0.500000  0.500000  0.500000  1
