# generated using pymatgen
data_U3Ga3Ru2Pt
_symmetry_space_group_name_H-M   'P 1'
_cell_length_a   7.01182100
_cell_length_b   7.01182065
_cell_length_c   3.98433000
_cell_angle_alpha   90.00000000
_cell_angle_beta   90.00000000
_cell_angle_gamma   119.99999692
_symmetry_Int_Tables_number   1
_chemical_formula_structural   U3Ga3Ru2Pt
_chemical_formula_sum   'U3 Ga3 Ru2 Pt1'
_cell_volume   169.64754005
_cell_formula_units_Z   1
loop_
 _symmetry_equiv_pos_site_id
 _symmetry_equiv_pos_as_xyz
  1  'x, y, z'
loop_
 _atom_site_type_symbol
 _atom_site_label
 _atom_site_symmetry_multiplicity
 _atom_site_fract_x
 _atom_site_fract_y
 _atom_site_fract_z
 _atom_site_occupancy
  U  U0  1  0.423168  0.000000  0.500000  1
  U  U1  1  0.000000  0.423168  0.500000  1
  U  U2  1  0.576832  0.576832  0.500000  1
  Ga  Ga3  1  0.753361  0.000000  0.000000  1
  Ga  Ga4  1  0.000000  0.753361  0.000000  1
  Ga  Ga5  1  0.246639  0.246639  0.000000  1
  Ru  Ru6  1  0.333333  0.666667  0.000000  1
  Ru  Ru7  1  0.666667  0.333333  0.000000  1
  Pt  Pt8  1  0.000000  0.000000  0.500000  1
