# generated using pymatgen
data_Tb3TmReRu7
_symmetry_space_group_name_H-M   'P 1'
_cell_length_a   5.21224539
_cell_length_b   5.44597890
_cell_length_c   8.97755901
_cell_angle_alpha   90.00000053
_cell_angle_beta   90.00530983
_cell_angle_gamma   121.49484245
_symmetry_Int_Tables_number   1
_chemical_formula_structural   Tb3TmReRu7
_chemical_formula_sum   'Tb3 Tm1 Re1 Ru7'
_cell_volume   217.29454055
_cell_formula_units_Z   1
loop_
 _symmetry_equiv_pos_site_id
 _symmetry_equiv_pos_as_xyz
  1  'x, y, z'
loop_
 _atom_site_type_symbol
 _atom_site_label
 _atom_site_symmetry_multiplicity
 _atom_site_fract_x
 _atom_site_fract_y
 _atom_site_fract_z
 _atom_site_occupancy
  Tb  Tb0  1  0.327135  0.663568  0.432783  1
  Tb  Tb1  1  0.654331  0.327164  0.564595  1
  Tb  Tb2  1  0.654270  0.327134  0.936106  1
  Tm  Tm3  1  0.328370  0.664186  0.067156  1
  Re  Re4  1  0.688061  0.844031  0.750966  1
  Ru  Ru5  1  0.974271  0.987136  0.499596  1
  Ru  Ru6  1  0.973321  0.986661  0.000669  1
  Ru  Ru7  1  0.837674  0.166723  0.248485  1
  Ru  Ru8  1  0.837674  0.670950  0.248485  1
  Ru  Ru9  1  0.356853  0.178427  0.248595  1
  Ru  Ru10  1  0.184021  0.828748  0.751282  1
  Ru  Ru11  1  0.184021  0.355274  0.751282  1
