# generated using pymatgen
data_SrTb3Al17CuPd6
_symmetry_space_group_name_H-M   'P 1'
_cell_length_a   7.63628011
_cell_length_b   7.64151518
_cell_length_c   9.51874200
_cell_angle_alpha   90.00000000
_cell_angle_beta   90.00000000
_cell_angle_gamma   118.92251157
_symmetry_Int_Tables_number   1
_chemical_formula_structural   SrTb3Al17CuPd6
_chemical_formula_sum   'Sr1 Tb3 Al17 Cu1 Pd6'
_cell_volume   486.16669173
_cell_formula_units_Z   1
loop_
 _symmetry_equiv_pos_site_id
 _symmetry_equiv_pos_as_xyz
  1  'x, y, z'
loop_
 _atom_site_type_symbol
 _atom_site_label
 _atom_site_symmetry_multiplicity
 _atom_site_fract_x
 _atom_site_fract_y
 _atom_site_fract_z
 _atom_site_occupancy
  Sr  Sr0  1  0.006926  0.327514  0.750000  1
  Tb  Tb1  1  0.992096  0.669974  0.250000  1
  Tb  Tb2  1  0.673350  0.993337  0.250000  1
  Tb  Tb3  1  0.326250  0.005424  0.750000  1
  Al  Al4  1  0.864993  0.860252  0.750000  1
  Al  Al5  1  0.004659  0.328617  0.086945  1
  Al  Al6  1  0.998714  0.665266  0.927489  1
  Al  Al7  1  0.998714  0.665266  0.572511  1
  Al  Al8  1  0.328421  0.002938  0.414050  1
  Al  Al9  1  0.004659  0.328617  0.413055  1
  Al  Al10  1  0.661146  0.997460  0.572543  1
  Al  Al11  1  0.661146  0.997460  0.927457  1
  Al  Al12  1  0.328421  0.002938  0.085950  1
  Al  Al13  1  0.334738  0.332700  0.539969  1
  Al  Al14  1  0.668034  0.667888  0.441890  1
  Al  Al15  1  0.668034  0.667888  0.058110  1
  Al  Al16  1  0.334738  0.332700  0.960031  1
  Al  Al17  1  0.339762  0.545697  0.250000  1
  Al  Al18  1  0.650290  0.448979  0.750000  1
  Al  Al19  1  0.542896  0.339098  0.250000  1
  Al  Al20  1  0.456165  0.665698  0.750000  1
  Cu  Cu21  1  0.155224  0.153727  0.250000  1
  Pd  Pd22  1  0.674249  0.328473  0.002598  1
  Pd  Pd23  1  0.329421  0.676091  0.002067  1
  Pd  Pd24  1  0.329421  0.676091  0.497933  1
  Pd  Pd25  1  0.674249  0.328473  0.497402  1
  Pd  Pd26  1  0.996641  0.995716  0.995844  1
  Pd  Pd27  1  0.996641  0.995716  0.504156  1
