# generated using pymatgen
data_Ce2Y(InIr)3
_symmetry_space_group_name_H-M   'P 1'
_cell_length_a   7.66891518
_cell_length_b   7.66500135
_cell_length_c   3.94055300
_cell_angle_alpha   90.00000000
_cell_angle_beta   90.00000000
_cell_angle_gamma   121.30667191
_symmetry_Int_Tables_number   1
_chemical_formula_structural   Ce2Y(InIr)3
_chemical_formula_sum   'Ce2 Y1 In3 Ir3'
_cell_volume   197.90817442
_cell_formula_units_Z   1
loop_
 _symmetry_equiv_pos_site_id
 _symmetry_equiv_pos_as_xyz
  1  'x, y, z'
loop_
 _atom_site_type_symbol
 _atom_site_label
 _atom_site_symmetry_multiplicity
 _atom_site_fract_x
 _atom_site_fract_y
 _atom_site_fract_z
 _atom_site_occupancy
  Ce  Ce0  1  0.588662  0.998924  0.000000  1
  Ce  Ce1  1  0.998922  0.588615  0.000000  1
  Y  Y2  1  0.407939  0.407945  0.000000  1
  In  In3  1  0.009159  0.254813  0.500000  1
  In  In4  1  0.735477  0.735453  0.500000  1
  In  In5  1  0.254646  0.009142  0.500000  1
  Ir  Ir6  1  0.991978  0.991911  0.000000  1
  Ir  Ir7  1  0.330446  0.682701  0.500000  1
  Ir  Ir8  1  0.682771  0.330497  0.500000  1
