# generated using pymatgen
data_Ce3Y(NiP)4
_symmetry_space_group_name_H-M   'P 1'
_cell_length_a   3.94120100
_cell_length_b   3.94120022
_cell_length_c   15.66856700
_cell_angle_alpha   90.00000000
_cell_angle_beta   90.00000000
_cell_angle_gamma   120.00001493
_symmetry_Int_Tables_number   1
_chemical_formula_structural   Ce3Y(NiP)4
_chemical_formula_sum   'Ce3 Y1 Ni4 P4'
_cell_volume   210.77394698
_cell_formula_units_Z   1
loop_
 _symmetry_equiv_pos_site_id
 _symmetry_equiv_pos_as_xyz
  1  'x, y, z'
loop_
 _atom_site_type_symbol
 _atom_site_label
 _atom_site_symmetry_multiplicity
 _atom_site_fract_x
 _atom_site_fract_y
 _atom_site_fract_z
 _atom_site_occupancy
  Ce  Ce0  1  0.000000  0.000000  0.500000  1
  Ce  Ce1  1  0.000000  0.000000  0.247852  1
  Ce  Ce2  1  0.000000  0.000000  0.752148  1
  Y  Y3  1  0.000000  0.000000  0.000000  1
  Ni  Ni4  1  0.333333  0.666667  0.375995  1
  Ni  Ni5  1  0.666667  0.333333  0.624005  1
  Ni  Ni6  1  0.666667  0.333333  0.874442  1
  Ni  Ni7  1  0.333333  0.666667  0.125558  1
  P  P8  1  0.333333  0.666667  0.878700  1
  P  P9  1  0.666667  0.333333  0.121300  1
  P  P10  1  0.666667  0.333333  0.373496  1
  P  P11  1  0.333333  0.666667  0.626504  1
