# generated using pymatgen
data_Y3Er2Tl2Bi
_symmetry_space_group_name_H-M   'P 1'
_cell_length_a   9.04298600
_cell_length_b   9.03988734
_cell_length_c   6.59265200
_cell_angle_alpha   90.00000000
_cell_angle_beta   90.00000000
_cell_angle_gamma   119.98866654
_symmetry_Int_Tables_number   1
_chemical_formula_structural   Y3Er2Tl2Bi
_chemical_formula_sum   'Y6 Er4 Tl4 Bi2'
_cell_volume   466.78323159
_cell_formula_units_Z   2
loop_
 _symmetry_equiv_pos_site_id
 _symmetry_equiv_pos_as_xyz
  1  'x, y, z'
loop_
 _atom_site_type_symbol
 _atom_site_label
 _atom_site_symmetry_multiplicity
 _atom_site_fract_x
 _atom_site_fract_y
 _atom_site_fract_z
 _atom_site_occupancy
  Y  Y0  1  0.769001  0.760216  0.750000  1
  Y  Y1  1  0.230999  0.991215  0.750000  1
  Y  Y2  1  0.000000  0.241901  0.750000  1
  Y  Y3  1  0.237845  0.238460  0.250000  1
  Y  Y4  1  0.762155  0.000615  0.250000  1
  Y  Y5  1  0.000000  0.760908  0.250000  1
  Er  Er6  1  0.670291  0.337748  0.006727  1
  Er  Er7  1  0.329709  0.667458  0.006727  1
  Er  Er8  1  0.329709  0.667458  0.493273  1
  Er  Er9  1  0.670291  0.337748  0.493273  1
  Tl  Tl10  1  0.000000  0.596374  0.750000  1
  Tl  Tl11  1  0.604156  0.606698  0.250000  1
  Tl  Tl12  1  0.395844  0.002542  0.250000  1
  Tl  Tl13  1  0.000000  0.396973  0.250000  1
  Bi  Bi14  1  0.395339  0.394512  0.750000  1
  Bi  Bi15  1  0.604661  0.999173  0.750000  1
