# generated using pymatgen
data_Nd3PaZn2Ir3
_symmetry_space_group_name_H-M   'P 1'
_cell_length_a   7.65907200
_cell_length_b   7.53742329
_cell_length_c   3.98257300
_cell_angle_alpha   90.00000000
_cell_angle_beta   90.00000000
_cell_angle_gamma   119.47596036
_symmetry_Int_Tables_number   1
_chemical_formula_structural   Nd3PaZn2Ir3
_chemical_formula_sum   'Nd3 Pa1 Zn2 Ir3'
_cell_volume   200.15323864
_cell_formula_units_Z   1
loop_
 _symmetry_equiv_pos_site_id
 _symmetry_equiv_pos_as_xyz
  1  'x, y, z'
loop_
 _atom_site_type_symbol
 _atom_site_label
 _atom_site_symmetry_multiplicity
 _atom_site_fract_x
 _atom_site_fract_y
 _atom_site_fract_z
 _atom_site_occupancy
  Nd  Nd0  1  0.551147  0.587111  0.000000  1
  Nd  Nd1  1  0.448853  0.035964  0.000000  1
  Nd  Nd2  1  0.000000  0.368742  0.000000  1
  Pa  Pa3  1  0.000000  0.744282  0.500000  1
  Zn  Zn4  1  0.252145  0.241262  0.500000  1
  Zn  Zn5  1  0.747855  0.989118  0.500000  1
  Ir  Ir6  1  0.000000  0.986070  0.000000  1
  Ir  Ir7  1  0.687518  0.367483  0.500000  1
  Ir  Ir8  1  0.312482  0.679966  0.500000  1
