# generated using pymatgen
data_Tm4Cr2CoNiB16
_symmetry_space_group_name_H-M   'P 1'
_cell_length_a   3.38530600
_cell_length_b   5.87804127
_cell_length_c   11.37096954
_cell_angle_alpha   90.25616088
_cell_angle_beta   90.00000000
_cell_angle_gamma   90.00000000
_symmetry_Int_Tables_number   1
_chemical_formula_structural   Tm4Cr2CoNiB16
_chemical_formula_sum   'Tm4 Cr2 Co1 Ni1 B16'
_cell_volume   226.26830201
_cell_formula_units_Z   1
loop_
 _symmetry_equiv_pos_site_id
 _symmetry_equiv_pos_as_xyz
  1  'x, y, z'
loop_
 _atom_site_type_symbol
 _atom_site_label
 _atom_site_symmetry_multiplicity
 _atom_site_fract_x
 _atom_site_fract_y
 _atom_site_fract_z
 _atom_site_occupancy
  Tm  Tm0  1  0.000000  0.627058  0.350786  1
  Tm  Tm1  1  0.000000  0.372072  0.648610  1
  Tm  Tm2  1  0.000000  0.126203  0.151683  1
  Tm  Tm3  1  0.000000  0.874702  0.849060  1
  Cr  Cr4  1  0.000000  0.624845  0.082804  1
  Cr  Cr5  1  0.000000  0.375470  0.917607  1
  Co  Co6  1  0.000000  0.132706  0.412092  1
  Ni  Ni7  1  0.000000  0.863073  0.590534  1
  B  B8  1  0.500000  0.785418  0.185538  1
  B  B9  1  0.500000  0.214693  0.814380  1
  B  B10  1  0.500000  0.283675  0.315761  1
  B  B11  1  0.500000  0.715446  0.684415  1
  B  B12  1  0.500000  0.864576  0.032676  1
  B  B13  1  0.500000  0.135802  0.967439  1
  B  B14  1  0.500000  0.361812  0.467145  1
  B  B15  1  0.500000  0.638233  0.531909  1
  B  B16  1  0.500000  0.887951  0.451798  1
  B  B17  1  0.500000  0.114443  0.545819  1
  B  B18  1  0.500000  0.386170  0.046968  1
  B  B19  1  0.500000  0.614114  0.953179  1
  B  B20  1  0.500000  0.978779  0.308699  1
  B  B21  1  0.500000  0.022493  0.691084  1
  B  B22  1  0.500000  0.476029  0.192799  1
  B  B23  1  0.500000  0.524239  0.807214  1
