# generated using pymatgen
data_Sm4Hg2RhAu3
_symmetry_space_group_name_H-M   'P 1'
_cell_length_a   7.98806239
_cell_length_b   7.98806292
_cell_length_c   3.80873600
_cell_angle_alpha   90.00000000
_cell_angle_beta   90.00000000
_cell_angle_gamma   89.63283654
_symmetry_Int_Tables_number   1
_chemical_formula_structural   Sm4Hg2RhAu3
_chemical_formula_sum   'Sm4 Hg2 Rh1 Au3'
_cell_volume   243.02719773
_cell_formula_units_Z   1
loop_
 _symmetry_equiv_pos_site_id
 _symmetry_equiv_pos_as_xyz
  1  'x, y, z'
loop_
 _atom_site_type_symbol
 _atom_site_label
 _atom_site_symmetry_multiplicity
 _atom_site_fract_x
 _atom_site_fract_y
 _atom_site_fract_z
 _atom_site_occupancy
  Sm  Sm0  1  0.653147  0.179557  0.500000  1
  Sm  Sm1  1  0.320443  0.846853  0.500000  1
  Sm  Sm2  1  0.186679  0.313321  0.500000  1
  Sm  Sm3  1  0.829205  0.670795  0.500000  1
  Hg  Hg4  1  0.004611  0.001934  0.000000  1
  Hg  Hg5  1  0.498066  0.495389  0.000000  1
  Rh  Rh6  1  0.374072  0.125928  0.000000  1
  Au  Au7  1  0.130828  0.622955  0.000000  1
  Au  Au8  1  0.877045  0.369172  0.000000  1
  Au  Au9  1  0.625904  0.874096  0.000000  1
