# generated using pymatgen
data_YbDy3Al18ZnIr5
_symmetry_space_group_name_H-M   'P 1'
_cell_length_a   7.58830726
_cell_length_b   7.58729218
_cell_length_c   9.48536572
_cell_angle_alpha   89.93854652
_cell_angle_beta   89.90885379
_cell_angle_gamma   119.68459939
_symmetry_Int_Tables_number   1
_chemical_formula_structural   YbDy3Al18ZnIr5
_chemical_formula_sum   'Yb1 Dy3 Al18 Zn1 Ir5'
_cell_volume   474.44557096
_cell_formula_units_Z   1
loop_
 _symmetry_equiv_pos_site_id
 _symmetry_equiv_pos_as_xyz
  1  'x, y, z'
loop_
 _atom_site_type_symbol
 _atom_site_label
 _atom_site_symmetry_multiplicity
 _atom_site_fract_x
 _atom_site_fract_y
 _atom_site_fract_z
 _atom_site_occupancy
  Yb  Yb0  1  0.991792  0.666882  0.750455  1
  Dy  Dy1  1  0.000836  0.329459  0.250326  1
  Dy  Dy2  1  0.671281  0.998683  0.749679  1
  Dy  Dy3  1  0.333067  0.007872  0.250166  1
  Al  Al4  1  0.126797  0.125080  0.751279  1
  Al  Al5  1  0.875317  0.872582  0.248707  1
  Al  Al6  1  0.012664  0.335795  0.579357  1
  Al  Al7  1  0.006922  0.674488  0.422513  1
  Al  Al8  1  0.002030  0.665775  0.071199  1
  Al  Al9  1  0.333879  0.997378  0.927554  1
  Al  Al10  1  0.000123  0.335008  0.925600  1
  Al  Al11  1  0.665862  0.999835  0.073736  1
  Al  Al12  1  0.664339  0.987595  0.421099  1
  Al  Al13  1  0.324398  0.991599  0.578289  1
  Al  Al14  1  0.331429  0.331738  0.048550  1
  Al  Al15  1  0.668988  0.668754  0.950805  1
  Al  Al16  1  0.665549  0.671791  0.560339  1
  Al  Al17  1  0.328333  0.334544  0.439984  1
  Al  Al18  1  0.342109  0.551778  0.751699  1
  Al  Al19  1  0.660613  0.458062  0.242492  1
  Al  Al20  1  0.541161  0.338984  0.757821  1
  Al  Al21  1  0.448947  0.658940  0.248234  1
  Zn  Zn22  1  0.673949  0.325827  0.499771  1
  Ir  Ir23  1  0.328935  0.671240  0.498874  1
  Ir  Ir24  1  0.329181  0.671369  0.000945  1
  Ir  Ir25  1  0.671290  0.327006  0.000561  1
  Ir  Ir26  1  0.999651  0.001233  0.499140  1
  Ir  Ir27  1  0.000558  0.000702  0.000827  1
