# generated using pymatgen
data_Cs2(RbAg2)3
_symmetry_space_group_name_H-M   'P 1'
_cell_length_a   16.52836582
_cell_length_b   16.52836542
_cell_length_c   5.48009800
_cell_angle_alpha   90.00000000
_cell_angle_beta   90.00000000
_cell_angle_gamma   162.15033762
_symmetry_Int_Tables_number   1
_chemical_formula_structural   Cs2(RbAg2)3
_chemical_formula_sum   'Cs2 Rb3 Ag6'
_cell_volume   458.88898047
_cell_formula_units_Z   1
loop_
 _symmetry_equiv_pos_site_id
 _symmetry_equiv_pos_as_xyz
  1  'x, y, z'
loop_
 _atom_site_type_symbol
 _atom_site_label
 _atom_site_symmetry_multiplicity
 _atom_site_fract_x
 _atom_site_fract_y
 _atom_site_fract_z
 _atom_site_occupancy
  Cs  Cs0  1  0.999817  0.000183  0.000000  1
  Cs  Cs1  1  0.191190  0.808808  0.500001  1
  Rb  Rb2  1  0.613384  0.386614  0.000000  1
  Rb  Rb3  1  0.385814  0.614184  0.000000  1
  Rb  Rb4  1  0.807564  0.192434  0.500001  1
  Ag  Ag5  1  0.737383  0.262615  0.000000  1
  Ag  Ag6  1  0.265693  0.734305  0.000000  1
  Ag  Ag7  1  0.923425  0.076574  0.500001  1
  Ag  Ag8  1  0.545396  0.454602  0.500001  1
  Ag  Ag9  1  0.454682  0.545316  0.500001  1
  Ag  Ag10  1  0.075643  0.924356  0.500001  1
