# generated using pymatgen
data_LiTb6Dy10Cd3Pt4
_symmetry_space_group_name_H-M   'P 1'
_cell_length_a   9.69679147
_cell_length_b   9.69679136
_cell_length_c   9.69679095
_cell_angle_alpha   59.97136902
_cell_angle_beta   59.97136978
_cell_angle_gamma   59.97137072
_symmetry_Int_Tables_number   1
_chemical_formula_structural   LiTb6Dy10Cd3Pt4
_chemical_formula_sum   'Li1 Tb6 Dy10 Cd3 Pt4'
_cell_volume   644.29845763
_cell_formula_units_Z   1
loop_
 _symmetry_equiv_pos_site_id
 _symmetry_equiv_pos_as_xyz
  1  'x, y, z'
loop_
 _atom_site_type_symbol
 _atom_site_label
 _atom_site_symmetry_multiplicity
 _atom_site_fract_x
 _atom_site_fract_y
 _atom_site_fract_z
 _atom_site_occupancy
  Li  Li0  1  0.571401  0.571401  0.571401  1
  Tb  Tb1  1  0.936504  0.564802  0.564802  1
  Tb  Tb2  1  0.562790  0.936778  0.936778  1
  Tb  Tb3  1  0.564802  0.936504  0.564802  1
  Tb  Tb4  1  0.936778  0.562790  0.936778  1
  Tb  Tb5  1  0.564802  0.564802  0.936504  1
  Tb  Tb6  1  0.936778  0.936778  0.562790  1
  Dy  Dy7  1  0.350519  0.350519  0.350519  1
  Dy  Dy8  1  0.352401  0.352401  0.944377  1
  Dy  Dy9  1  0.352401  0.944377  0.352401  1
  Dy  Dy10  1  0.944377  0.352401  0.352401  1
  Dy  Dy11  1  0.810287  0.191996  0.191996  1
  Dy  Dy12  1  0.187309  0.812983  0.812983  1
  Dy  Dy13  1  0.191996  0.810287  0.191996  1
  Dy  Dy14  1  0.812983  0.187309  0.812983  1
  Dy  Dy15  1  0.191996  0.191996  0.810287  1
  Dy  Dy16  1  0.812983  0.812983  0.187309  1
  Cd  Cd17  1  0.582077  0.582077  0.254050  1
  Cd  Cd18  1  0.582077  0.254050  0.582077  1
  Cd  Cd19  1  0.254050  0.582077  0.582077  1
  Pt  Pt20  1  0.144526  0.144526  0.144526  1
  Pt  Pt21  1  0.142777  0.142777  0.570608  1
  Pt  Pt22  1  0.142777  0.570608  0.142777  1
  Pt  Pt23  1  0.570608  0.142777  0.142777  1
