# generated using pymatgen
data_Tb15HoMgCo4Au3
_symmetry_space_group_name_H-M   'P 1'
_cell_length_a   9.39390364
_cell_length_b   9.44755770
_cell_length_c   9.44755848
_cell_angle_alpha   60.29135621
_cell_angle_beta   60.15660894
_cell_angle_gamma   60.15660246
_symmetry_Int_Tables_number   1
_chemical_formula_structural   Tb15HoMgCo4Au3
_chemical_formula_sum   'Tb15 Ho1 Mg1 Co4 Au3'
_cell_volume   595.58795719
_cell_formula_units_Z   1
loop_
 _symmetry_equiv_pos_site_id
 _symmetry_equiv_pos_as_xyz
  1  'x, y, z'
loop_
 _atom_site_type_symbol
 _atom_site_label
 _atom_site_symmetry_multiplicity
 _atom_site_fract_x
 _atom_site_fract_y
 _atom_site_fract_z
 _atom_site_occupancy
  Tb  Tb0  1  0.185538  0.813319  0.813319  1
  Tb  Tb1  1  0.185708  0.813585  0.186162  1
  Tb  Tb2  1  0.806490  0.190925  0.810752  1
  Tb  Tb3  1  0.185708  0.186162  0.813585  1
  Tb  Tb4  1  0.806490  0.810752  0.190925  1
  Tb  Tb5  1  0.936153  0.561823  0.561824  1
  Tb  Tb6  1  0.563059  0.937225  0.937226  1
  Tb  Tb7  1  0.562499  0.937498  0.562879  1
  Tb  Tb8  1  0.937352  0.561563  0.939471  1
  Tb  Tb9  1  0.562499  0.562878  0.937499  1
  Tb  Tb10  1  0.937352  0.939470  0.561564  1
  Tb  Tb11  1  0.347776  0.345294  0.345294  1
  Tb  Tb12  1  0.348344  0.346114  0.960088  1
  Tb  Tb13  1  0.348344  0.960088  0.346114  1
  Tb  Tb14  1  0.932805  0.355749  0.355749  1
  Ho  Ho15  1  0.806772  0.190910  0.190910  1
  Mg  Mg16  1  0.312542  0.562608  0.562608  1
  Co  Co17  1  0.134988  0.144052  0.144052  1
  Co  Co18  1  0.136018  0.144703  0.576461  1
  Co  Co19  1  0.136018  0.576461  0.144703  1
  Co  Co20  1  0.575287  0.142261  0.142261  1
  Au  Au21  1  0.584377  0.591782  0.591782  1
  Au  Au22  1  0.583941  0.591127  0.233648  1
  Au  Au23  1  0.583941  0.233648  0.591127  1
