# generated using pymatgen
data_Tb3Ce17Si15Ag
_symmetry_space_group_name_H-M   'P 1'
_cell_length_a   7.52808620
_cell_length_b   7.72784406
_cell_length_c   14.79686400
_cell_angle_alpha   90.30591875
_cell_angle_beta   90.77417749
_cell_angle_gamma   90.23248464
_symmetry_Int_Tables_number   1
_chemical_formula_structural   Tb3Ce17Si15Ag
_chemical_formula_sum   'Tb3 Ce17 Si15 Ag1'
_cell_volume   860.72233882
_cell_formula_units_Z   1
loop_
 _symmetry_equiv_pos_site_id
 _symmetry_equiv_pos_as_xyz
  1  'x, y, z'
loop_
 _atom_site_type_symbol
 _atom_site_label
 _atom_site_symmetry_multiplicity
 _atom_site_fract_x
 _atom_site_fract_y
 _atom_site_fract_z
 _atom_site_occupancy
  Tb  Tb0  1  0.357250  0.987884  0.751180  1
  Tb  Tb1  1  0.145673  0.492791  0.251676  1
  Tb  Tb2  1  0.648711  0.013707  0.242188  1
  Ce  Ce3  1  0.679173  0.184168  0.627128  1
  Ce  Ce4  1  0.179841  0.323678  0.877928  1
  Ce  Ce5  1  0.313627  0.823701  0.119215  1
  Ce  Ce6  1  0.825504  0.682080  0.375713  1
  Ce  Ce7  1  0.316805  0.827604  0.380617  1
  Ce  Ce8  1  0.814151  0.680886  0.120994  1
  Ce  Ce9  1  0.686723  0.179220  0.876270  1
  Ce  Ce10  1  0.166654  0.326054  0.626260  1
  Ce  Ce11  1  0.517616  0.669294  0.599611  1
  Ce  Ce12  1  0.025306  0.812056  0.900976  1
  Ce  Ce13  1  0.474716  0.323084  0.096284  1
  Ce  Ce14  1  0.988581  0.181672  0.401255  1
  Ce  Ce15  1  0.475135  0.328836  0.402521  1
  Ce  Ce16  1  0.975055  0.181719  0.096883  1
  Ce  Ce17  1  0.530148  0.680662  0.901074  1
  Ce  Ce18  1  0.023460  0.809970  0.600946  1
  Ce  Ce19  1  0.866476  0.479978  0.744385  1
  Si  Si20  1  0.139716  0.524755  0.043097  1
  Si  Si21  1  0.357604  0.027722  0.956530  1
  Si  Si22  1  0.846677  0.472662  0.535961  1
  Si  Si23  1  0.339790  0.031794  0.546004  1
  Si  Si24  1  0.854649  0.474853  0.958952  1
  Si  Si25  1  0.640668  0.976683  0.039670  1
  Si  Si26  1  0.146932  0.528779  0.459988  1
  Si  Si27  1  0.475032  0.404679  0.753163  1
  Si  Si28  1  0.977586  0.085910  0.751351  1
  Si  Si29  1  0.521272  0.604018  0.248906  1
  Si  Si30  1  0.026110  0.905671  0.248242  1
  Si  Si31  1  0.737841  0.861977  0.750457  1
  Si  Si32  1  0.238003  0.629772  0.753202  1
  Si  Si33  1  0.268749  0.129330  0.248022  1
  Si  Si34  1  0.763641  0.376251  0.249299  1
  Ag  Ag35  1  0.655126  0.976101  0.464047  1
