# generated using pymatgen
data_ErLuMg2(B4Ru5)2
_symmetry_space_group_name_H-M   'P 1'
_cell_length_a   3.01454800
_cell_length_b   8.53812851
_cell_length_c   10.14933547
_cell_angle_alpha   91.05551059
_cell_angle_beta   90.00000000
_cell_angle_gamma   90.00000000
_symmetry_Int_Tables_number   1
_chemical_formula_structural   ErLuMg2(B4Ru5)2
_chemical_formula_sum   'Er1 Lu1 Mg2 B8 Ru10'
_cell_volume   261.18534168
_cell_formula_units_Z   1
loop_
 _symmetry_equiv_pos_site_id
 _symmetry_equiv_pos_as_xyz
  1  'x, y, z'
loop_
 _atom_site_type_symbol
 _atom_site_label
 _atom_site_symmetry_multiplicity
 _atom_site_fract_x
 _atom_site_fract_y
 _atom_site_fract_z
 _atom_site_occupancy
  Er  Er0  1  0.500000  0.656453  0.815739  1
  Lu  Lu1  1  0.500000  0.343953  0.185453  1
  Mg  Mg2  1  0.500000  0.151521  0.677877  1
  Mg  Mg3  1  0.500000  0.848648  0.320617  1
  B  B4  1  0.500000  0.857615  0.599477  1
  B  B5  1  0.500000  0.142964  0.399488  1
  B  B6  1  0.500000  0.347619  0.896426  1
  B  B7  1  0.500000  0.651055  0.104334  1
  B  B8  1  0.500000  0.964603  0.911157  1
  B  B9  1  0.500000  0.036988  0.089377  1
  B  B10  1  0.500000  0.461224  0.588326  1
  B  B11  1  0.500000  0.537750  0.411150  1
  Ru  Ru12  1  0.000000  0.390821  0.736626  1
  Ru  Ru13  1  0.000000  0.607764  0.263468  1
  Ru  Ru14  1  0.000000  0.912069  0.759655  1
  Ru  Ru15  1  0.000000  0.090458  0.240046  1
  Ru  Ru16  1  0.000000  0.000110  0.499397  1
  Ru  Ru17  1  0.000000  0.498485  0.001018  1
  Ru  Ru18  1  0.000000  0.656927  0.548707  1
  Ru  Ru19  1  0.000000  0.343153  0.450556  1
  Ru  Ru20  1  0.000000  0.157520  0.956249  1
  Ru  Ru21  1  0.000000  0.842298  0.044858  1
