# generated using pymatgen
data_Zr2TiAlFe8
_symmetry_space_group_name_H-M   'P 1'
_cell_length_a   8.43260975
_cell_length_b   8.43260974
_cell_length_c   8.43261001
_cell_angle_alpha   33.53802251
_cell_angle_beta   33.53802370
_cell_angle_gamma   33.53802051
_symmetry_Int_Tables_number   1
_chemical_formula_structural   Zr2TiAlFe8
_chemical_formula_sum   'Zr2 Ti1 Al1 Fe8'
_cell_volume   163.02882650
_cell_formula_units_Z   1
loop_
 _symmetry_equiv_pos_site_id
 _symmetry_equiv_pos_as_xyz
  1  'x, y, z'
loop_
 _atom_site_type_symbol
 _atom_site_label
 _atom_site_symmetry_multiplicity
 _atom_site_fract_x
 _atom_site_fract_y
 _atom_site_fract_z
 _atom_site_occupancy
  Zr  Zr0  1  0.001315  0.001315  0.001315  1
  Zr  Zr1  1  0.498877  0.498877  0.498877  1
  Ti  Ti2  1  0.624567  0.624567  0.624567  1
  Al  Al3  1  0.125734  0.125734  0.125734  1
  Fe  Fe4  1  0.563310  0.060700  0.563310  1
  Fe  Fe5  1  0.063563  0.560616  0.063563  1
  Fe  Fe6  1  0.060700  0.563310  0.563310  1
  Fe  Fe7  1  0.560616  0.063563  0.063563  1
  Fe  Fe8  1  0.812272  0.812272  0.812272  1
  Fe  Fe9  1  0.312172  0.312172  0.312172  1
  Fe  Fe10  1  0.563310  0.563310  0.060700  1
  Fe  Fe11  1  0.063563  0.063563  0.560616  1
