# generated using pymatgen
data_Pr10Sn4Bi2PBr
_symmetry_space_group_name_H-M   'P 1'
_cell_length_a   9.57387986
_cell_length_b   9.57387893
_cell_length_c   6.96968636
_cell_angle_alpha   89.92801265
_cell_angle_beta   89.92802033
_cell_angle_gamma   120.27162277
_symmetry_Int_Tables_number   1
_chemical_formula_structural   Pr10Sn4Bi2PBr
_chemical_formula_sum   'Pr10 Sn4 Bi2 P1 Br1'
_cell_volume   551.72566110
_cell_formula_units_Z   1
loop_
 _symmetry_equiv_pos_site_id
 _symmetry_equiv_pos_as_xyz
  1  'x, y, z'
loop_
 _atom_site_type_symbol
 _atom_site_label
 _atom_site_symmetry_multiplicity
 _atom_site_fract_x
 _atom_site_fract_y
 _atom_site_fract_z
 _atom_site_occupancy
  Pr  Pr0  1  0.251343  0.996191  0.733289  1
  Pr  Pr1  1  0.748657  0.003809  0.266711  1
  Pr  Pr2  1  0.996191  0.251343  0.733289  1
  Pr  Pr3  1  0.003809  0.748657  0.266711  1
  Pr  Pr4  1  0.750834  0.750834  0.733172  1
  Pr  Pr5  1  0.249166  0.249166  0.266828  1
  Pr  Pr6  1  0.330259  0.669741  0.500000  1
  Pr  Pr7  1  0.669741  0.330259  0.500000  1
  Pr  Pr8  1  0.670360  0.329640  0.000000  1
  Pr  Pr9  1  0.329640  0.670360  0.000000  1
  Sn  Sn10  1  0.606416  0.999521  0.750234  1
  Sn  Sn11  1  0.393584  0.000479  0.249766  1
  Sn  Sn12  1  0.999521  0.606416  0.750234  1
  Sn  Sn13  1  0.000479  0.393584  0.249766  1
  Bi  Bi14  1  0.392286  0.392286  0.751296  1
  Bi  Bi15  1  0.607714  0.607714  0.248704  1
  P  P16  1  0.000000  0.000000  0.500000  1
  Br  Br17  1  0.000000  0.000000  0.000000  1
