# generated using pymatgen
data_Nd2VGeF14
_symmetry_space_group_name_H-M   'P 1'
_cell_length_a   5.60903500
_cell_length_b   9.10929166
_cell_length_c   12.16897200
_cell_angle_alpha   62.12918426
_cell_angle_beta   90.00000000
_cell_angle_gamma   90.00000000
_symmetry_Int_Tables_number   1
_chemical_formula_structural   Nd2VGeF14
_chemical_formula_sum   'Nd4 V2 Ge2 F28'
_cell_volume   549.64313904
_cell_formula_units_Z   2
loop_
 _symmetry_equiv_pos_site_id
 _symmetry_equiv_pos_as_xyz
  1  'x, y, z'
loop_
 _atom_site_type_symbol
 _atom_site_label
 _atom_site_symmetry_multiplicity
 _atom_site_fract_x
 _atom_site_fract_y
 _atom_site_fract_z
 _atom_site_occupancy
  Nd  Nd0  1  0.758480  0.804206  0.767119  1
  Nd  Nd1  1  0.258480  0.195794  0.732881  1
  Nd  Nd2  1  0.240946  0.189172  0.235363  1
  Nd  Nd3  1  0.740946  0.810828  0.264637  1
  V  V4  1  0.245004  0.724947  0.043244  1
  V  V5  1  0.745004  0.275053  0.456756  1
  Ge  Ge6  1  0.756909  0.273300  0.958395  1
  Ge  Ge7  1  0.256909  0.726700  0.541605  1
  F  F8  1  0.442337  0.709517  0.922573  1
  F  F9  1  0.942337  0.290483  0.577427  1
  F  F10  1  0.561132  0.291089  0.071771  1
  F  F11  1  0.061132  0.708911  0.428229  1
  F  F12  1  0.465994  0.285022  0.543378  1
  F  F13  1  0.965994  0.714978  0.956622  1
  F  F14  1  0.524352  0.714107  0.458198  1
  F  F15  1  0.024352  0.285893  0.041802  1
  F  F16  1  0.764731  0.499545  0.865437  1
  F  F17  1  0.264731  0.500455  0.634563  1
  F  F18  1  0.236335  0.496226  0.133862  1
  F  F19  1  0.736335  0.503774  0.366138  1
  F  F20  1  0.762839  0.047185  0.048424  1
  F  F21  1  0.262839  0.952815  0.451576  1
  F  F22  1  0.240303  0.951784  0.953433  1
  F  F23  1  0.740303  0.048216  0.546567  1
  F  F24  1  0.997429  0.734890  0.630558  1
  F  F25  1  0.497429  0.265110  0.869442  1
  F  F26  1  0.016203  0.269697  0.365357  1
  F  F27  1  0.516203  0.730303  0.134643  1
  F  F28  1  0.048298  0.741269  0.165807  1
  F  F29  1  0.548298  0.258731  0.334193  1
  F  F30  1  0.951214  0.257026  0.842065  1
  F  F31  1  0.451214  0.742974  0.657935  1
  F  F32  1  0.402375  0.967457  0.226630  1
  F  F33  1  0.902375  0.032543  0.273370  1
  F  F34  1  0.585120  0.027941  0.769698  1
  F  F35  1  0.085120  0.972059  0.730302  1
