# generated using pymatgen
data_Ho10InBi4Pb
_symmetry_space_group_name_H-M   'P 1'
_cell_length_a   9.11160100
_cell_length_b   9.09598182
_cell_length_c   6.48456600
_cell_angle_alpha   90.00000000
_cell_angle_beta   90.00000000
_cell_angle_gamma   120.05682285
_symmetry_Int_Tables_number   1
_chemical_formula_structural   Ho10InBi4Pb
_chemical_formula_sum   'Ho10 In1 Bi4 Pb1'
_cell_volume   465.16482677
_cell_formula_units_Z   1
loop_
 _symmetry_equiv_pos_site_id
 _symmetry_equiv_pos_as_xyz
  1  'x, y, z'
loop_
 _atom_site_type_symbol
 _atom_site_label
 _atom_site_symmetry_multiplicity
 _atom_site_fract_x
 _atom_site_fract_y
 _atom_site_fract_z
 _atom_site_occupancy
  Ho  Ho0  1  0.338633  0.674544  0.000310  1
  Ho  Ho1  1  0.664089  0.325456  0.499690  1
  Ho  Ho2  1  0.664089  0.325456  0.000310  1
  Ho  Ho3  1  0.338633  0.674544  0.499690  1
  Ho  Ho4  1  0.241775  0.000000  0.250000  1
  Ho  Ho5  1  0.241567  0.236979  0.750000  1
  Ho  Ho6  1  0.004588  0.763021  0.750000  1
  Ho  Ho7  1  0.991006  0.233812  0.250000  1
  Ho  Ho8  1  0.757194  0.766188  0.250000  1
  Ho  Ho9  1  0.759600  0.000000  0.750000  1
  In  In10  1  0.604278  0.000000  0.250000  1
  Bi  Bi11  1  0.611072  0.607874  0.750000  1
  Bi  Bi12  1  0.003198  0.392126  0.750000  1
  Bi  Bi13  1  0.997933  0.609255  0.250000  1
  Bi  Bi14  1  0.388678  0.390745  0.250000  1
  Pb  Pb15  1  0.393668  0.000000  0.750000  1
