# generated using pymatgen
data_Lu3Al2CuC
_symmetry_space_group_name_H-M   'P 1'
_cell_length_a   8.95615570
_cell_length_b   8.95607183
_cell_length_c   8.95672300
_cell_angle_alpha   59.99644612
_cell_angle_beta   59.99629793
_cell_angle_gamma   59.99504562
_symmetry_Int_Tables_number   1
_chemical_formula_structural   Lu3Al2CuC
_chemical_formula_sum   'Lu12 Al8 Cu4 C4'
_cell_volume   507.96439169
_cell_formula_units_Z   4
loop_
 _symmetry_equiv_pos_site_id
 _symmetry_equiv_pos_as_xyz
  1  'x, y, z'
loop_
 _atom_site_type_symbol
 _atom_site_label
 _atom_site_symmetry_multiplicity
 _atom_site_fract_x
 _atom_site_fract_y
 _atom_site_fract_z
 _atom_site_occupancy
  Lu  Lu0  1  0.555389  0.944626  0.555382  1
  Lu  Lu1  1  0.305368  0.694633  0.694639  1
  Lu  Lu2  1  0.694636  0.305380  0.305368  1
  Lu  Lu3  1  0.305348  0.694637  0.305371  1
  Lu  Lu4  1  0.694627  0.694627  0.305376  1
  Lu  Lu5  1  0.305350  0.305356  0.694640  1
  Lu  Lu6  1  0.555392  0.555393  0.944594  1
  Lu  Lu7  1  0.944631  0.555344  0.555370  1
  Lu  Lu8  1  0.555354  0.944638  0.944629  1
  Lu  Lu9  1  0.944640  0.944639  0.555355  1
  Lu  Lu10  1  0.694641  0.305364  0.694638  1
  Lu  Lu11  1  0.944633  0.555370  0.944615  1
  Al  Al12  1  0.923150  0.923169  0.923180  1
  Al  Al13  1  0.019475  0.326841  0.326835  1
  Al  Al14  1  0.326850  0.019482  0.326827  1
  Al  Al15  1  0.326849  0.326829  0.019488  1
  Al  Al16  1  0.923153  0.230506  0.923181  1
  Al  Al17  1  0.923155  0.923174  0.230498  1
  Al  Al18  1  0.230508  0.923156  0.923175  1
  Al  Al19  1  0.326853  0.326841  0.326823  1
  Cu  Cu20  1  0.125001  0.125009  0.124995  1
  Cu  Cu21  1  0.624985  0.125007  0.125004  1
  Cu  Cu22  1  0.125012  0.624994  0.125012  1
  Cu  Cu23  1  0.125014  0.124989  0.624992  1
  C  C24  1  0.625013  0.624992  0.624997  1
  C  C25  1  0.124994  0.624996  0.624992  1
  C  C26  1  0.624983  0.125006  0.625021  1
  C  C27  1  0.624997  0.625002  0.125000  1
