# generated using pymatgen
data_CaTh3(Ga3Ir)6
_symmetry_space_group_name_H-M   'P 1'
_cell_length_a   7.68484023
_cell_length_b   7.69680876
_cell_length_c   9.50672700
_cell_angle_alpha   90.00000000
_cell_angle_beta   90.00000000
_cell_angle_gamma   119.69750113
_symmetry_Int_Tables_number   1
_chemical_formula_structural   CaTh3(Ga3Ir)6
_chemical_formula_sum   'Ca1 Th3 Ga18 Ir6'
_cell_volume   488.45318552
_cell_formula_units_Z   1
loop_
 _symmetry_equiv_pos_site_id
 _symmetry_equiv_pos_as_xyz
  1  'x, y, z'
loop_
 _atom_site_type_symbol
 _atom_site_label
 _atom_site_symmetry_multiplicity
 _atom_site_fract_x
 _atom_site_fract_y
 _atom_site_fract_z
 _atom_site_occupancy
  Ca  Ca0  1  0.328770  0.004513  0.750000  1
  Th  Th1  1  0.997659  0.671191  0.250000  1
  Th  Th2  1  0.001625  0.329461  0.750000  1
  Th  Th3  1  0.670144  0.995943  0.250000  1
  Ga  Ga4  1  0.136307  0.133443  0.250000  1
  Ga  Ga5  1  0.870483  0.869139  0.750000  1
  Ga  Ga6  1  0.004811  0.335529  0.080452  1
  Ga  Ga7  1  0.003144  0.671656  0.916442  1
  Ga  Ga8  1  0.003144  0.671656  0.583558  1
  Ga  Ga9  1  0.335513  0.003904  0.426446  1
  Ga  Ga10  1  0.004811  0.335529  0.419548  1
  Ga  Ga11  1  0.657424  0.996222  0.583704  1
  Ga  Ga12  1  0.657424  0.996222  0.916296  1
  Ga  Ga13  1  0.335513  0.003904  0.073554  1
  Ga  Ga14  1  0.335190  0.329913  0.563545  1
  Ga  Ga15  1  0.663735  0.663440  0.442206  1
  Ga  Ga16  1  0.663735  0.663440  0.057794  1
  Ga  Ga17  1  0.335190  0.329913  0.936455  1
  Ga  Ga18  1  0.342248  0.542843  0.250000  1
  Ga  Ga19  1  0.656480  0.451147  0.750000  1
  Ga  Ga20  1  0.543202  0.339294  0.250000  1
  Ga  Ga21  1  0.453818  0.659611  0.750000  1
  Ir  Ir22  1  0.676876  0.331391  0.001925  1
  Ir  Ir23  1  0.327404  0.669650  0.002270  1
  Ir  Ir24  1  0.327404  0.669650  0.497730  1
  Ir  Ir25  1  0.676876  0.331391  0.498075  1
  Ir  Ir26  1  0.995534  0.000000  0.002407  1
  Ir  Ir27  1  0.995534  0.000000  0.497593  1
