# generated using pymatgen
data_Tb15Dy5Ir7Pt5
_symmetry_space_group_name_H-M   'P 1'
_cell_length_a   11.05184916
_cell_length_b   11.05131183
_cell_length_c   6.34643300
_cell_angle_alpha   90.00806062
_cell_angle_beta   90.00588883
_cell_angle_gamma   89.78748559
_symmetry_Int_Tables_number   1
_chemical_formula_structural   Tb15Dy5Ir7Pt5
_chemical_formula_sum   'Tb15 Dy5 Ir7 Pt5'
_cell_volume   775.13168096
_cell_formula_units_Z   1
loop_
 _symmetry_equiv_pos_site_id
 _symmetry_equiv_pos_as_xyz
  1  'x, y, z'
loop_
 _atom_site_type_symbol
 _atom_site_label
 _atom_site_symmetry_multiplicity
 _atom_site_fract_x
 _atom_site_fract_y
 _atom_site_fract_z
 _atom_site_occupancy
  Tb  Tb0  1  0.295202  0.090738  0.373860  1
  Tb  Tb1  1  0.295432  0.909258  0.872937  1
  Tb  Tb2  1  0.704654  0.086659  0.873131  1
  Tb  Tb3  1  0.704537  0.908609  0.373314  1
  Tb  Tb4  1  0.586374  0.789800  0.878433  1
  Tb  Tb5  1  0.584566  0.206993  0.374387  1
  Tb  Tb6  1  0.413755  0.791220  0.377940  1
  Tb  Tb7  1  0.410446  0.207847  0.879947  1
  Tb  Tb8  1  0.210177  0.413556  0.621513  1
  Tb  Tb9  1  0.208747  0.586141  0.122064  1
  Tb  Tb10  1  0.793099  0.415406  0.125617  1
  Tb  Tb11  1  0.792189  0.589522  0.620090  1
  Tb  Tb12  1  0.909342  0.704734  0.126076  1
  Tb  Tb13  1  0.913417  0.295345  0.626845  1
  Tb  Tb14  1  0.090732  0.704584  0.627049  1
  Dy  Dy15  1  0.091378  0.295668  0.126559  1
  Dy  Dy16  1  0.999730  0.999894  0.499482  1
  Dy  Dy17  1  0.000185  0.000344  0.000530  1
  Dy  Dy18  1  0.498334  0.500987  0.000336  1
  Dy  Dy19  1  0.499020  0.501636  0.499675  1
  Ir  Ir20  1  0.653693  0.653121  0.250125  1
  Ir  Ir21  1  0.346681  0.346235  0.249803  1
  Ir  Ir22  1  0.345192  0.654787  0.750026  1
  Ir  Ir23  1  0.500215  0.000199  0.122188  1
  Ir  Ir24  1  0.500140  0.000488  0.623513  1
  Ir  Ir25  1  0.999592  0.499691  0.876645  1
  Ir  Ir26  1  0.999865  0.499625  0.377650  1
  Pt  Pt27  1  0.845918  0.154256  0.249945  1
  Pt  Pt28  1  0.846609  0.847514  0.750474  1
  Pt  Pt29  1  0.152398  0.153538  0.749869  1
  Pt  Pt30  1  0.153525  0.846465  0.249983  1
  Pt  Pt31  1  0.654850  0.345144  0.749996  1
