# generated using pymatgen
data_TiNbF9
_symmetry_space_group_name_H-M   'P 1'
_cell_length_a   8.91278715
_cell_length_b   8.91278641
_cell_length_c   8.91278700
_cell_angle_alpha   93.27253811
_cell_angle_beta   93.27253784
_cell_angle_gamma   93.27253760
_symmetry_Int_Tables_number   1
_chemical_formula_structural   TiNbF9
_chemical_formula_sum   'Ti4 Nb4 F36'
_cell_volume   704.41017980
_cell_formula_units_Z   4
loop_
 _symmetry_equiv_pos_site_id
 _symmetry_equiv_pos_as_xyz
  1  'x, y, z'
loop_
 _atom_site_type_symbol
 _atom_site_label
 _atom_site_symmetry_multiplicity
 _atom_site_fract_x
 _atom_site_fract_y
 _atom_site_fract_z
 _atom_site_occupancy
  Ti  Ti0  1  0.453457  0.929742  0.250125  1
  Ti  Ti1  1  0.250125  0.453457  0.929742  1
  Ti  Ti2  1  0.929742  0.250125  0.453457  1
  Ti  Ti3  1  0.876015  0.876015  0.876015  1
  Nb  Nb4  1  0.009870  0.815808  0.317509  1
  Nb  Nb5  1  0.317509  0.009870  0.815808  1
  Nb  Nb6  1  0.815808  0.317509  0.009870  1
  Nb  Nb7  1  0.370271  0.370271  0.370271  1
  F  F8  1  0.910312  0.445328  0.485112  1
  F  F9  1  0.445328  0.485112  0.910312  1
  F  F10  1  0.485112  0.910312  0.445328  1
  F  F11  1  0.863500  0.101302  0.959704  1
  F  F12  1  0.101302  0.959704  0.863500  1
  F  F13  1  0.959704  0.863500  0.101302  1
  F  F14  1  0.890409  0.272734  0.221464  1
  F  F15  1  0.272734  0.221464  0.890409  1
  F  F16  1  0.424332  0.322212  0.567011  1
  F  F17  1  0.567011  0.424332  0.322212  1
  F  F18  1  0.322212  0.567011  0.424332  1
  F  F19  1  0.392042  0.153078  0.299126  1
  F  F20  1  0.299126  0.392042  0.153078  1
  F  F21  1  0.153078  0.299126  0.392042  1
  F  F22  1  0.805882  0.774216  0.344509  1
  F  F23  1  0.344509  0.805882  0.774216  1
  F  F24  1  0.774216  0.344509  0.805882  1
  F  F25  1  0.050110  0.619266  0.254480  1
  F  F26  1  0.254480  0.050110  0.619266  1
  F  F27  1  0.619266  0.254480  0.050110  1
  F  F28  1  0.464295  0.741289  0.181447  1
  F  F29  1  0.181447  0.464295  0.741289  1
  F  F30  1  0.741289  0.181447  0.464295  1
  F  F31  1  0.631894  0.003484  0.203525  1
  F  F32  1  0.203525  0.631894  0.003484  1
  F  F33  1  0.003484  0.203525  0.631894  1
  F  F34  1  0.075621  0.793784  0.517575  1
  F  F35  1  0.517575  0.075621  0.793784  1
  F  F36  1  0.793784  0.517575  0.075621  1
  F  F37  1  0.984994  0.038028  0.363386  1
  F  F38  1  0.363386  0.984994  0.038028  1
  F  F39  1  0.038028  0.363386  0.984994  1
  F  F40  1  0.932045  0.692273  0.833533  1
  F  F41  1  0.833533  0.932045  0.692273  1
  F  F42  1  0.692273  0.833533  0.932045  1
  F  F43  1  0.221464  0.890409  0.272734  1
