# generated using pymatgen
data_TmZr2Ta3(B2Ru5)2
_symmetry_space_group_name_H-M   'P 1'
_cell_length_a   9.51630983
_cell_length_b   9.51630935
_cell_length_c   3.10041300
_cell_angle_alpha   90.00000000
_cell_angle_beta   90.00000000
_cell_angle_gamma   90.03610715
_symmetry_Int_Tables_number   1
_chemical_formula_structural   TmZr2Ta3(B2Ru5)2
_chemical_formula_sum   'Tm1 Zr2 Ta3 B4 Ru10'
_cell_volume   280.77380507
_cell_formula_units_Z   1
loop_
 _symmetry_equiv_pos_site_id
 _symmetry_equiv_pos_as_xyz
  1  'x, y, z'
loop_
 _atom_site_type_symbol
 _atom_site_label
 _atom_site_symmetry_multiplicity
 _atom_site_fract_x
 _atom_site_fract_y
 _atom_site_fract_z
 _atom_site_occupancy
  Tm  Tm0  1  0.324828  0.824828  0.000000  1
  Zr  Zr1  1  0.824266  0.677088  0.000000  1
  Zr  Zr2  1  0.177088  0.324266  0.000000  1
  Ta  Ta3  1  0.676688  0.176688  0.000000  1
  Ta  Ta4  1  0.498816  0.502387  0.000000  1
  Ta  Ta5  1  0.002387  0.998816  0.000000  1
  B  B6  1  0.623046  0.880590  0.000000  1
  B  B7  1  0.380590  0.123046  0.000000  1
  B  B8  1  0.119136  0.619136  0.000000  1
  B  B9  1  0.876832  0.376832  0.000000  1
  Ru  Ru10  1  0.576041  0.719294  0.500000  1
  Ru  Ru11  1  0.435542  0.282595  0.500000  1
  Ru  Ru12  1  0.063498  0.778238  0.500000  1
  Ru  Ru13  1  0.921565  0.214518  0.500000  1
  Ru  Ru14  1  0.278238  0.563498  0.500000  1
  Ru  Ru15  1  0.714518  0.421565  0.500000  1
  Ru  Ru16  1  0.219294  0.076041  0.500000  1
  Ru  Ru17  1  0.782595  0.935542  0.500000  1
  Ru  Ru18  1  0.509057  0.009057  0.500000  1
  Ru  Ru19  1  0.995975  0.495975  0.500000  1
