# generated using pymatgen
data_HfTa2Nb(Co4P3)2
_symmetry_space_group_name_H-M   'P 1'
_cell_length_a   11.90070800
_cell_length_b   11.91347127
_cell_length_c   3.61846600
_cell_angle_alpha   90.00000000
_cell_angle_beta   90.00000000
_cell_angle_gamma   119.96457253
_symmetry_Int_Tables_number   1
_chemical_formula_structural   HfTa2Nb(Co4P3)2
_chemical_formula_sum   'Hf2 Ta4 Nb2 Co16 P12'
_cell_volume   444.44822649
_cell_formula_units_Z   2
loop_
 _symmetry_equiv_pos_site_id
 _symmetry_equiv_pos_as_xyz
  1  'x, y, z'
loop_
 _atom_site_type_symbol
 _atom_site_label
 _atom_site_symmetry_multiplicity
 _atom_site_fract_x
 _atom_site_fract_y
 _atom_site_fract_z
 _atom_site_occupancy
  Hf  Hf0  1  0.333381  0.666683  0.000000  1
  Hf  Hf1  1  0.666699  0.333317  0.000000  1
  Ta  Ta2  1  0.823107  0.000000  0.500000  1
  Ta  Ta3  1  0.447471  0.000000  0.000000  1
  Ta  Ta4  1  0.999638  0.446660  0.000000  1
  Ta  Ta5  1  0.552978  0.553340  0.000000  1
  Nb  Nb6  1  0.000025  0.821904  0.500000  1
  Nb  Nb7  1  0.178121  0.178096  0.500000  1
  Co  Co8  1  0.273954  0.000000  0.500000  1
  Co  Co9  1  0.999334  0.273310  0.500000  1
  Co  Co10  1  0.726024  0.726690  0.500000  1
  Co  Co11  1  0.631130  0.809678  0.000000  1
  Co  Co12  1  0.191578  0.821491  0.000000  1
  Co  Co13  1  0.178398  0.370005  0.000000  1
  Co  Co14  1  0.370087  0.178509  0.000000  1
  Co  Co15  1  0.808393  0.629995  0.000000  1
  Co  Co16  1  0.821452  0.190322  0.000000  1
  Co  Co17  1  0.514341  0.870086  0.500000  1
  Co  Co18  1  0.129666  0.644062  0.500000  1
  Co  Co19  1  0.355721  0.485617  0.500000  1
  Co  Co20  1  0.485604  0.355938  0.500000  1
  Co  Co21  1  0.870104  0.514383  0.500000  1
  Co  Co22  1  0.644255  0.129914  0.500000  1
  Co  Co23  1  0.999021  0.000000  0.000000  1
  P  P24  1  0.173712  0.000000  0.000000  1
  P  P25  1  0.000042  0.174220  0.000000  1
  P  P26  1  0.825823  0.825780  0.000000  1
  P  P27  1  0.519313  0.689367  0.500000  1
  P  P28  1  0.310440  0.830094  0.500000  1
  P  P29  1  0.169673  0.480284  0.500000  1
  P  P30  1  0.480346  0.169906  0.500000  1
  P  P31  1  0.689388  0.519716  0.500000  1
  P  P32  1  0.829945  0.310633  0.500000  1
  P  P33  1  0.649807  0.000000  0.000000  1
  P  P34  1  0.000039  0.649051  0.000000  1
  P  P35  1  0.350988  0.350949  0.000000  1
