# generated using pymatgen
data_Dy3Y7CoHg3
_symmetry_space_group_name_H-M   'P 1'
_cell_length_a   9.66502500
_cell_length_b   9.66502546
_cell_length_c   9.59913800
_cell_angle_alpha   90.00000000
_cell_angle_beta   90.00000000
_cell_angle_gamma   119.99999500
_symmetry_Int_Tables_number   1
_chemical_formula_structural   Dy3Y7CoHg3
_chemical_formula_sum   'Dy6 Y14 Co2 Hg6'
_cell_volume   776.54901482
_cell_formula_units_Z   2
loop_
 _symmetry_equiv_pos_site_id
 _symmetry_equiv_pos_as_xyz
  1  'x, y, z'
loop_
 _atom_site_type_symbol
 _atom_site_label
 _atom_site_symmetry_multiplicity
 _atom_site_fract_x
 _atom_site_fract_y
 _atom_site_fract_z
 _atom_site_occupancy
  Dy  Dy0  1  0.211542  0.788458  0.435428  1
  Dy  Dy1  1  0.211542  0.423086  0.435428  1
  Dy  Dy2  1  0.576914  0.788458  0.435428  1
  Dy  Dy3  1  0.788458  0.211542  0.564572  1
  Dy  Dy4  1  0.788458  0.576914  0.564572  1
  Dy  Dy5  1  0.423086  0.211542  0.564572  1
  Y  Y6  1  0.000000  0.000000  0.500000  1
  Y  Y7  1  0.000000  0.000000  0.000000  1
  Y  Y8  1  0.542231  0.457769  0.250691  1
  Y  Y9  1  0.542231  0.084462  0.250691  1
  Y  Y10  1  0.915538  0.457769  0.250691  1
  Y  Y11  1  0.457769  0.542231  0.749309  1
  Y  Y12  1  0.457769  0.915538  0.749309  1
  Y  Y13  1  0.084462  0.542231  0.749309  1
  Y  Y14  1  0.789074  0.210926  0.935767  1
  Y  Y15  1  0.789074  0.578146  0.935767  1
  Y  Y16  1  0.421854  0.210926  0.935767  1
  Y  Y17  1  0.210926  0.789074  0.064233  1
  Y  Y18  1  0.210926  0.421854  0.064233  1
  Y  Y19  1  0.578146  0.789074  0.064233  1
  Co  Co20  1  0.333333  0.666667  0.252173  1
  Co  Co21  1  0.666667  0.333333  0.747827  1
  Hg  Hg22  1  0.880609  0.119391  0.249916  1
  Hg  Hg23  1  0.880609  0.761219  0.249916  1
  Hg  Hg24  1  0.238781  0.119391  0.249916  1
  Hg  Hg25  1  0.119391  0.880609  0.750084  1
  Hg  Hg26  1  0.119391  0.238781  0.750084  1
  Hg  Hg27  1  0.761219  0.880609  0.750084  1
