# generated using pymatgen
data_Co(MoBr6)2
_symmetry_space_group_name_H-M   'P 1'
_cell_length_a   9.15558744
_cell_length_b   9.15558760
_cell_length_c   7.06940502
_cell_angle_alpha   68.91628551
_cell_angle_beta   68.91628825
_cell_angle_gamma   82.43637846
_symmetry_Int_Tables_number   1
_chemical_formula_structural   Co(MoBr6)2
_chemical_formula_sum   'Co1 Mo2 Br12'
_cell_volume   515.90430291
_cell_formula_units_Z   1
loop_
 _symmetry_equiv_pos_site_id
 _symmetry_equiv_pos_as_xyz
  1  'x, y, z'
loop_
 _atom_site_type_symbol
 _atom_site_label
 _atom_site_symmetry_multiplicity
 _atom_site_fract_x
 _atom_site_fract_y
 _atom_site_fract_z
 _atom_site_occupancy
  Co  Co0  1  0.000000  0.000000  0.000000  1
  Mo  Mo1  1  0.269580  0.269580  0.734965  1
  Mo  Mo2  1  0.730420  0.730420  0.265035  1
  Br  Br3  1  0.977836  0.255903  0.747498  1
  Br  Br4  1  0.255903  0.977836  0.747498  1
  Br  Br5  1  0.022164  0.744097  0.252502  1
  Br  Br6  1  0.744097  0.022164  0.252502  1
  Br  Br7  1  0.225223  0.524979  0.776151  1
  Br  Br8  1  0.524979  0.225223  0.776151  1
  Br  Br9  1  0.774777  0.475021  0.223849  1
  Br  Br10  1  0.475021  0.774777  0.223849  1
  Br  Br11  1  0.125215  0.125215  0.150441  1
  Br  Br12  1  0.874785  0.874785  0.849559  1
  Br  Br13  1  0.635176  0.635176  0.656698  1
  Br  Br14  1  0.364824  0.364824  0.343302  1
