# generated using pymatgen
data_Zr4Al4CuMo3
_symmetry_space_group_name_H-M   'P 1'
_cell_length_a   5.24990435
_cell_length_b   5.24990421
_cell_length_c   8.80797300
_cell_angle_alpha   90.00000000
_cell_angle_beta   90.00000000
_cell_angle_gamma   119.16967910
_symmetry_Int_Tables_number   1
_chemical_formula_structural   Zr4Al4CuMo3
_chemical_formula_sum   'Zr4 Al4 Cu1 Mo3'
_cell_volume   211.97399715
_cell_formula_units_Z   1
loop_
 _symmetry_equiv_pos_site_id
 _symmetry_equiv_pos_as_xyz
  1  'x, y, z'
loop_
 _atom_site_type_symbol
 _atom_site_label
 _atom_site_symmetry_multiplicity
 _atom_site_fract_x
 _atom_site_fract_y
 _atom_site_fract_z
 _atom_site_occupancy
  Zr  Zr0  1  0.334002  0.665998  0.186224  1
  Zr  Zr1  1  0.664557  0.335443  0.314283  1
  Zr  Zr2  1  0.664557  0.335443  0.685717  1
  Zr  Zr3  1  0.334002  0.665998  0.813776  1
  Al  Al4  1  0.994784  0.005216  0.243079  1
  Al  Al5  1  0.994784  0.005216  0.756921  1
  Al  Al6  1  0.835107  0.648398  0.000000  1
  Al  Al7  1  0.351602  0.164893  0.000000  1
  Cu  Cu8  1  0.834810  0.165190  0.000000  1
  Mo  Mo9  1  0.167162  0.341696  0.500000  1
  Mo  Mo10  1  0.658304  0.832838  0.500000  1
  Mo  Mo11  1  0.166480  0.833520  0.500000  1
