# generated using pymatgen
data_Cs2TcP4O13
_symmetry_space_group_name_H-M   'P 1'
_cell_length_a   5.21970759
_cell_length_b   8.12170301
_cell_length_c   16.05204600
_cell_angle_alpha   84.22910926
_cell_angle_beta   83.93934690
_cell_angle_gamma   80.49840076
_symmetry_Int_Tables_number   1
_chemical_formula_structural   Cs2TcP4O13
_chemical_formula_sum   'Cs4 Tc2 P8 O26'
_cell_volume   665.00475094
_cell_formula_units_Z   2
loop_
 _symmetry_equiv_pos_site_id
 _symmetry_equiv_pos_as_xyz
  1  'x, y, z'
loop_
 _atom_site_type_symbol
 _atom_site_label
 _atom_site_symmetry_multiplicity
 _atom_site_fract_x
 _atom_site_fract_y
 _atom_site_fract_z
 _atom_site_occupancy
  Cs  Cs0  1  0.680436  0.740889  0.988854  1
  Cs  Cs1  1  0.319564  0.259111  0.011146  1
  Cs  Cs2  1  0.266778  0.299187  0.528484  1
  Cs  Cs3  1  0.733222  0.700813  0.471516  1
  Tc  Tc4  1  0.448186  0.056630  0.259696  1
  Tc  Tc5  1  0.551814  0.943370  0.740304  1
  P  P6  1  0.877190  0.220853  0.351890  1
  P  P7  1  0.122810  0.779147  0.648110  1
  P  P8  1  0.666765  0.407811  0.195934  1
  P  P9  1  0.333235  0.592189  0.804066  1
  P  P10  1  0.312967  0.672704  0.287576  1
  P  P11  1  0.687033  0.327296  0.712424  1
  P  P12  1  0.022920  0.898862  0.162229  1
  P  P13  1  0.977080  0.101138  0.837771  1
  O  O14  1  0.719896  0.081435  0.335629  1
  O  O15  1  0.280104  0.918565  0.664371  1
  O  O16  1  0.787330  0.303364  0.431013  1
  O  O17  1  0.212670  0.696636  0.568987  1
  O  O18  1  0.850836  0.360257  0.270737  1
  O  O19  1  0.149164  0.639743  0.729263  1
  O  O20  1  0.170898  0.146626  0.348731  1
  O  O21  1  0.829102  0.853374  0.651269  1
  O  O22  1  0.514786  0.592790  0.213288  1
  O  O23  1  0.485214  0.407210  0.786712  1
  O  O24  1  0.813714  0.422101  0.112012  1
  O  O25  1  0.186286  0.577899  0.887988  1
  O  O26  1  0.458082  0.291703  0.206919  1
  O  O27  1  0.541918  0.708297  0.793081  1
  O  O28  1  0.433082  0.821054  0.311523  1
  O  O29  1  0.566918  0.178946  0.688477  1
  O  O30  1  0.060643  0.748897  0.239411  1
  O  O31  1  0.939357  0.251103  0.760589  1
  O  O32  1  0.252206  0.551333  0.358819  1
  O  O33  1  0.747794  0.448667  0.641181  1
  O  O34  1  0.120629  0.832141  0.079657  1
  O  O35  1  0.879371  0.167859  0.920343  1
  O  O36  1  0.725944  0.962980  0.169841  1
  O  O37  1  0.274056  0.037020  0.830159  1
  O  O38  1  0.171379  0.037276  0.185183  1
  O  O39  1  0.828621  0.962724  0.814817  1
