# generated using pymatgen
data_Sm5TcRuO12
_symmetry_space_group_name_H-M   'P 1'
_cell_length_a   7.00012211
_cell_length_b   7.00012176
_cell_length_c   7.69352208
_cell_angle_alpha   73.81979878
_cell_angle_beta   73.81980879
_cell_angle_gamma   48.44017961
_symmetry_Int_Tables_number   1
_chemical_formula_structural   Sm5TcRuO12
_chemical_formula_sum   'Sm5 Tc1 Ru1 O12'
_cell_volume   268.60089037
_cell_formula_units_Z   1
loop_
 _symmetry_equiv_pos_site_id
 _symmetry_equiv_pos_as_xyz
  1  'x, y, z'
loop_
 _atom_site_type_symbol
 _atom_site_label
 _atom_site_symmetry_multiplicity
 _atom_site_fract_x
 _atom_site_fract_y
 _atom_site_fract_z
 _atom_site_occupancy
  Sm  Sm0  1  0.296098  0.314649  0.355522  1
  Sm  Sm1  1  0.685351  0.703902  0.644478  1
  Sm  Sm2  1  0.682388  0.688925  0.170570  1
  Sm  Sm3  1  0.311075  0.317612  0.829430  1
  Sm  Sm4  1  0.994622  0.005378  0.500000  1
  Tc  Tc5  1  0.794309  0.205691  0.000000  1
  Ru  Ru6  1  0.225796  0.774204  0.000000  1
  O  O7  1  0.090528  0.597217  0.577952  1
  O  O8  1  0.000038  0.999161  0.198471  1
  O  O9  1  0.402783  0.909472  0.422048  1
  O  O10  1  0.505161  0.492028  0.170361  1
  O  O11  1  0.086526  0.579326  0.081844  1
  O  O12  1  0.896415  0.407719  0.427361  1
  O  O13  1  0.000839  0.999962  0.801529  1
  O  O14  1  0.592281  0.103584  0.572639  1
  O  O15  1  0.507972  0.494839  0.829639  1
  O  O16  1  0.596465  0.089320  0.079553  1
  O  O17  1  0.420674  0.913474  0.918156  1
  O  O18  1  0.910680  0.403535  0.920447  1
