# generated using pymatgen
data_Ho2Ga2Fe2C
_symmetry_space_group_name_H-M   'P 1'
_cell_length_a   5.72621773
_cell_length_b   5.72621696
_cell_length_c   6.91719753
_cell_angle_alpha   54.01683929
_cell_angle_beta   54.01682948
_cell_angle_gamma   40.42770440
_symmetry_Int_Tables_number   1
_chemical_formula_structural   Ho2Ga2Fe2C
_chemical_formula_sum   'Ho2 Ga2 Fe2 C1'
_cell_volume   114.68714084
_cell_formula_units_Z   1
loop_
 _symmetry_equiv_pos_site_id
 _symmetry_equiv_pos_as_xyz
  1  'x, y, z'
loop_
 _atom_site_type_symbol
 _atom_site_label
 _atom_site_symmetry_multiplicity
 _atom_site_fract_x
 _atom_site_fract_y
 _atom_site_fract_z
 _atom_site_occupancy
  Ho  Ho0  1  0.442986  0.442986  0.285650  1
  Ho  Ho1  1  0.557014  0.557014  0.714350  1
  Ga  Ga2  1  0.840350  0.840350  0.708038  1
  Ga  Ga3  1  0.159650  0.159650  0.291962  1
  Fe  Fe4  1  0.805580  0.805580  0.089344  1
  Fe  Fe5  1  0.194420  0.194420  0.910656  1
  C  C6  1  0.000000  0.000000  0.000000  1
