# generated using pymatgen
data_Tm4Sc6In8IrRh3
_symmetry_space_group_name_H-M   'P 1'
_cell_length_a   3.48089800
_cell_length_b   7.80621803
_cell_length_c   17.75849520
_cell_angle_alpha   89.89788169
_cell_angle_beta   90.00000000
_cell_angle_gamma   90.00000000
_symmetry_Int_Tables_number   1
_chemical_formula_structural   Tm4Sc6In8IrRh3
_chemical_formula_sum   'Tm4 Sc6 In8 Ir1 Rh3'
_cell_volume   482.54458590
_cell_formula_units_Z   1
loop_
 _symmetry_equiv_pos_site_id
 _symmetry_equiv_pos_as_xyz
  1  'x, y, z'
loop_
 _atom_site_type_symbol
 _atom_site_label
 _atom_site_symmetry_multiplicity
 _atom_site_fract_x
 _atom_site_fract_y
 _atom_site_fract_z
 _atom_site_occupancy
  Tm  Tm0  1  0.000000  0.750156  0.780892  1
  Tm  Tm1  1  0.000000  0.251185  0.219063  1
  Tm  Tm2  1  0.000000  0.248268  0.718948  1
  Tm  Tm3  1  0.000000  0.751296  0.280745  1
  Sc  Sc4  1  0.000000  0.999884  0.999748  1
  Sc  Sc5  1  0.000000  0.499548  0.500059  1
  Sc  Sc6  1  0.000000  0.878661  0.586913  1
  Sc  Sc7  1  0.000000  0.120295  0.412959  1
  Sc  Sc8  1  0.000000  0.379487  0.913086  1
  Sc  Sc9  1  0.000000  0.621110  0.087052  1
  In  In10  1  0.500000  0.798587  0.438702  1
  In  In11  1  0.500000  0.200474  0.560706  1
  In  In12  1  0.500000  0.299306  0.061156  1
  In  In13  1  0.500000  0.700862  0.939096  1
  In  In14  1  0.500000  0.928106  0.146000  1
  In  In15  1  0.500000  0.073900  0.854366  1
  In  In16  1  0.500000  0.426971  0.353676  1
  In  In17  1  0.500000  0.571755  0.646215  1
  Ir  Ir18  1  0.500000  0.964795  0.693235  1
  Rh  Rh19  1  0.500000  0.035530  0.307080  1
  Rh  Rh20  1  0.500000  0.464229  0.807630  1
  Rh  Rh21  1  0.500000  0.535596  0.192672  1
