# generated using pymatgen
data_Cs6Cr2Se7
_symmetry_space_group_name_H-M   'P 1'
_cell_length_a   11.94459200
_cell_length_b   8.90300109
_cell_length_c   14.71198847
_cell_angle_alpha   54.57056757
_cell_angle_beta   90.00000000
_cell_angle_gamma   90.00000000
_symmetry_Int_Tables_number   1
_chemical_formula_structural   Cs6Cr2Se7
_chemical_formula_sum   'Cs12 Cr4 Se14'
_cell_volume   1274.81214974
_cell_formula_units_Z   2
loop_
 _symmetry_equiv_pos_site_id
 _symmetry_equiv_pos_as_xyz
  1  'x, y, z'
loop_
 _atom_site_type_symbol
 _atom_site_label
 _atom_site_symmetry_multiplicity
 _atom_site_fract_x
 _atom_site_fract_y
 _atom_site_fract_z
 _atom_site_occupancy
  Cs  Cs0  1  0.796700  0.569069  0.295760  1
  Cs  Cs1  1  0.648740  0.944616  0.913086  1
  Cs  Cs2  1  0.528879  0.183830  0.568244  1
  Cs  Cs3  1  0.028879  0.816170  0.931756  1
  Cs  Cs4  1  0.296700  0.430931  0.204240  1
  Cs  Cs5  1  0.148740  0.055384  0.586914  1
  Cs  Cs6  1  0.851260  0.944616  0.413086  1
  Cs  Cs7  1  0.703300  0.569069  0.795760  1
  Cs  Cs8  1  0.971121  0.183830  0.068244  1
  Cs  Cs9  1  0.471121  0.816170  0.431756  1
  Cs  Cs10  1  0.351260  0.055384  0.086914  1
  Cs  Cs11  1  0.203300  0.430931  0.704240  1
  Cr  Cr12  1  0.858638  0.320047  0.634809  1
  Cr  Cr13  1  0.358638  0.679953  0.865191  1
  Cr  Cr14  1  0.641362  0.320047  0.134809  1
  Cr  Cr15  1  0.141362  0.679953  0.365191  1
  Se  Se16  1  0.000000  0.500000  0.500000  1
  Se  Se17  1  0.089612  0.740258  0.195957  1
  Se  Se18  1  0.301380  0.499755  0.426617  1
  Se  Se19  1  0.332664  0.951659  0.852110  1
  Se  Se20  1  0.832664  0.048341  0.647890  1
  Se  Se21  1  0.801380  0.500245  0.073383  1
  Se  Se22  1  0.589612  0.259742  0.304043  1
  Se  Se23  1  0.500000  0.500000  0.000000  1
  Se  Se24  1  0.410388  0.740258  0.695957  1
  Se  Se25  1  0.198620  0.499755  0.926617  1
  Se  Se26  1  0.167336  0.951659  0.352110  1
  Se  Se27  1  0.667336  0.048341  0.147890  1
  Se  Se28  1  0.698620  0.500245  0.573383  1
  Se  Se29  1  0.910388  0.259742  0.804043  1
