# generated using pymatgen
data_Lu2ZnIn4Ni13B4
_symmetry_space_group_name_H-M   'P 1'
_cell_length_a   5.03811800
_cell_length_b   5.03811871
_cell_length_c   13.85058400
_cell_angle_alpha   90.00000000
_cell_angle_beta   90.00000000
_cell_angle_gamma   119.99999531
_symmetry_Int_Tables_number   1
_chemical_formula_structural   Lu2ZnIn4Ni13B4
_chemical_formula_sum   'Lu2 Zn1 In4 Ni13 B4'
_cell_volume   304.46366398
_cell_formula_units_Z   1
loop_
 _symmetry_equiv_pos_site_id
 _symmetry_equiv_pos_as_xyz
  1  'x, y, z'
loop_
 _atom_site_type_symbol
 _atom_site_label
 _atom_site_symmetry_multiplicity
 _atom_site_fract_x
 _atom_site_fract_y
 _atom_site_fract_z
 _atom_site_occupancy
  Lu  Lu0  1  0.333333  0.666667  0.748267  1
  Lu  Lu1  1  0.666667  0.333333  0.251733  1
  Zn  Zn2  1  0.000000  0.000000  0.000000  1
  In  In3  1  0.333333  0.666667  0.529138  1
  In  In4  1  0.666667  0.333333  0.033878  1
  In  In5  1  0.666667  0.333333  0.470862  1
  In  In6  1  0.333333  0.666667  0.966122  1
  Ni  Ni7  1  0.000000  0.000000  0.500000  1
  Ni  Ni8  1  0.167221  0.334443  0.147503  1
  Ni  Ni9  1  0.833826  0.667650  0.648029  1
  Ni  Ni10  1  0.665557  0.832779  0.147503  1
  Ni  Ni11  1  0.167221  0.832779  0.147503  1
  Ni  Ni12  1  0.833826  0.166174  0.648029  1
  Ni  Ni13  1  0.332350  0.166174  0.648029  1
  Ni  Ni14  1  0.832779  0.665557  0.852497  1
  Ni  Ni15  1  0.832779  0.167221  0.852497  1
  Ni  Ni16  1  0.334443  0.167221  0.852497  1
  Ni  Ni17  1  0.667650  0.833826  0.351971  1
  Ni  Ni18  1  0.166174  0.833826  0.351971  1
  Ni  Ni19  1  0.166174  0.332350  0.351971  1
  B  B20  1  0.333333  0.666667  0.249907  1
  B  B21  1  0.666667  0.333333  0.750093  1
  B  B22  1  0.000000  0.000000  0.249387  1
  B  B23  1  0.000000  0.000000  0.750613  1
