# generated using pymatgen
data_CeAl2SiAg
_symmetry_space_group_name_H-M   'P 1'
_cell_length_a   4.26228162
_cell_length_b   4.26228137
_cell_length_c   6.18849507
_cell_angle_alpha   69.85656639
_cell_angle_beta   69.85657089
_cell_angle_gamma   89.99999658
_symmetry_Int_Tables_number   1
_chemical_formula_structural   CeAl2SiAg
_chemical_formula_sum   'Ce1 Al2 Si1 Ag1'
_cell_volume   98.19274052
_cell_formula_units_Z   1
loop_
 _symmetry_equiv_pos_site_id
 _symmetry_equiv_pos_as_xyz
  1  'x, y, z'
loop_
 _atom_site_type_symbol
 _atom_site_label
 _atom_site_symmetry_multiplicity
 _atom_site_fract_x
 _atom_site_fract_y
 _atom_site_fract_z
 _atom_site_occupancy
  Ce  Ce0  1  0.984660  0.984660  0.030679  1
  Al  Al1  1  0.751774  0.251774  0.496452  1
  Al  Al2  1  0.251774  0.751774  0.496452  1
  Si  Si3  1  0.391987  0.391987  0.216025  1
  Ag  Ag4  1  0.619804  0.619804  0.760392  1
