# generated using pymatgen
data_Rb2LiYAs2
_symmetry_space_group_name_H-M   'P 1'
_cell_length_a   10.62716940
_cell_length_b   10.62716986
_cell_length_c   6.84717600
_cell_angle_alpha   90.00000000
_cell_angle_beta   90.00000000
_cell_angle_gamma   99.41788724
_symmetry_Int_Tables_number   1
_chemical_formula_structural   Rb2LiYAs2
_chemical_formula_sum   'Rb8 Li4 Y4 As8'
_cell_volume   762.87451331
_cell_formula_units_Z   4
loop_
 _symmetry_equiv_pos_site_id
 _symmetry_equiv_pos_as_xyz
  1  'x, y, z'
loop_
 _atom_site_type_symbol
 _atom_site_label
 _atom_site_symmetry_multiplicity
 _atom_site_fract_x
 _atom_site_fract_y
 _atom_site_fract_z
 _atom_site_occupancy
  Rb  Rb0  1  0.567875  0.932125  0.750000  1
  Rb  Rb1  1  0.932125  0.567875  0.250000  1
  Rb  Rb2  1  0.432125  0.067875  0.250000  1
  Rb  Rb3  1  0.067875  0.432125  0.750000  1
  Rb  Rb4  1  0.677666  0.322334  0.786778  1
  Rb  Rb5  1  0.822334  0.177666  0.286778  1
  Rb  Rb6  1  0.322334  0.677666  0.213222  1
  Rb  Rb7  1  0.177666  0.822334  0.713222  1
  Li  Li8  1  0.617662  0.617662  0.000000  1
  Li  Li9  1  0.882338  0.882338  0.500000  1
  Li  Li10  1  0.382338  0.382338  0.000000  1
  Li  Li11  1  0.117662  0.117662  0.500000  1
  Y  Y12  1  0.867731  0.867731  0.000000  1
  Y  Y13  1  0.632269  0.632269  0.500000  1
  Y  Y14  1  0.132269  0.132269  0.000000  1
  Y  Y15  1  0.367731  0.367731  0.500000  1
  As  As16  1  0.343886  0.156114  0.750000  1
  As  As17  1  0.156114  0.343886  0.250000  1
  As  As18  1  0.656114  0.843886  0.250000  1
  As  As19  1  0.843886  0.656114  0.750000  1
  As  As20  1  0.909944  0.090056  0.762906  1
  As  As21  1  0.590056  0.409944  0.262906  1
  As  As22  1  0.090056  0.909944  0.237094  1
  As  As23  1  0.409944  0.590056  0.737094  1
