# generated using pymatgen
data_Y11LuGa9Si9Ge2
_symmetry_space_group_name_H-M   'P 1'
_cell_length_a   5.97565279
_cell_length_b   5.97565435
_cell_length_c   18.68677000
_cell_angle_alpha   90.00000000
_cell_angle_beta   90.00000000
_cell_angle_gamma   102.76485158
_symmetry_Int_Tables_number   1
_chemical_formula_structural   Y11LuGa9Si9Ge2
_chemical_formula_sum   'Y11 Lu1 Ga9 Si9 Ge2'
_cell_volume   650.78366764
_cell_formula_units_Z   1
loop_
 _symmetry_equiv_pos_site_id
 _symmetry_equiv_pos_as_xyz
  1  'x, y, z'
loop_
 _atom_site_type_symbol
 _atom_site_label
 _atom_site_symmetry_multiplicity
 _atom_site_fract_x
 _atom_site_fract_y
 _atom_site_fract_z
 _atom_site_occupancy
  Y  Y0  1  0.661056  0.661056  0.500000  1
  Y  Y1  1  0.340276  0.340276  0.250366  1
  Y  Y2  1  0.340276  0.340276  0.749634  1
  Y  Y3  1  0.200869  0.802105  0.127995  1
  Y  Y4  1  0.199187  0.801529  0.625093  1
  Y  Y5  1  0.200869  0.802105  0.872005  1
  Y  Y6  1  0.199187  0.801529  0.374907  1
  Y  Y7  1  0.802105  0.200869  0.127995  1
  Y  Y8  1  0.801529  0.199187  0.625093  1
  Y  Y9  1  0.801529  0.199187  0.374907  1
  Y  Y10  1  0.802105  0.200869  0.872005  1
  Lu  Lu11  1  0.653263  0.653263  0.000000  1
  Ga  Ga12  1  0.318297  0.318297  0.902718  1
  Ga  Ga13  1  0.323039  0.323039  0.402346  1
  Ga  Ga14  1  0.678117  0.678117  0.347822  1
  Ga  Ga15  1  0.677578  0.677578  0.848595  1
  Ga  Ga16  1  0.318297  0.318297  0.097282  1
  Ga  Ga17  1  0.323039  0.323039  0.597654  1
  Ga  Ga18  1  0.677578  0.677578  0.151405  1
  Ga  Ga19  1  0.678117  0.678117  0.652178  1
  Ga  Ga20  1  0.037965  0.037965  0.000000  1
  Si  Si21  1  0.482439  0.090158  0.500000  1
  Si  Si22  1  0.910886  0.519239  0.250306  1
  Si  Si23  1  0.910886  0.519239  0.749694  1
  Si  Si24  1  0.519239  0.910886  0.250306  1
  Si  Si25  1  0.519239  0.910886  0.749694  1
  Si  Si26  1  0.090158  0.482439  0.500000  1
  Si  Si27  1  0.054180  0.054180  0.500000  1
  Si  Si28  1  0.947349  0.947349  0.250689  1
  Si  Si29  1  0.947349  0.947349  0.749311  1
  Ge  Ge30  1  0.497824  0.086174  0.000000  1
  Ge  Ge31  1  0.086174  0.497824  0.000000  1
