# generated using pymatgen
data_HoLu15(Ga3Co)2
_symmetry_space_group_name_H-M   'P 1'
_cell_length_a   9.80573300
_cell_length_b   9.80573285
_cell_length_c   6.78985500
_cell_angle_alpha   90.00000000
_cell_angle_beta   90.00000000
_cell_angle_gamma   119.99999712
_symmetry_Int_Tables_number   1
_chemical_formula_structural   HoLu15(Ga3Co)2
_chemical_formula_sum   'Ho1 Lu15 Ga6 Co2'
_cell_volume   565.39409060
_cell_formula_units_Z   1
loop_
 _symmetry_equiv_pos_site_id
 _symmetry_equiv_pos_as_xyz
  1  'x, y, z'
loop_
 _atom_site_type_symbol
 _atom_site_label
 _atom_site_symmetry_multiplicity
 _atom_site_fract_x
 _atom_site_fract_y
 _atom_site_fract_z
 _atom_site_occupancy
  Ho  Ho0  1  0.000000  0.000000  0.730665  1
  Lu  Lu1  1  0.174030  0.825970  0.509023  1
  Lu  Lu2  1  0.651940  0.825970  0.509023  1
  Lu  Lu3  1  0.174030  0.348060  0.509023  1
  Lu  Lu4  1  0.825900  0.174100  0.011033  1
  Lu  Lu5  1  0.348201  0.174100  0.011033  1
  Lu  Lu6  1  0.825900  0.651799  0.011033  1
  Lu  Lu7  1  0.333333  0.666667  0.829823  1
  Lu  Lu8  1  0.666667  0.333333  0.328408  1
  Lu  Lu9  1  0.464504  0.535496  0.207188  1
  Lu  Lu10  1  0.070991  0.535496  0.207188  1
  Lu  Lu11  1  0.464504  0.929009  0.207188  1
  Lu  Lu12  1  0.535550  0.464450  0.707434  1
  Lu  Lu13  1  0.928900  0.464450  0.707434  1
  Lu  Lu14  1  0.535550  0.071100  0.707434  1
  Lu  Lu15  1  0.000000  0.000000  0.231855  1
  Ga  Ga16  1  0.163417  0.836583  0.961539  1
  Ga  Ga17  1  0.673165  0.836583  0.961539  1
  Ga  Ga18  1  0.163417  0.326835  0.961539  1
  Ga  Ga19  1  0.836636  0.163364  0.459508  1
  Ga  Ga20  1  0.326729  0.163364  0.459508  1
  Ga  Ga21  1  0.836636  0.673271  0.459508  1
  Co  Co22  1  0.333333  0.666667  0.443780  1
  Co  Co23  1  0.666667  0.333333  0.942334  1
