# generated using pymatgen
data_LaNdTh6(ZnRh)8
_symmetry_space_group_name_H-M   'P 1'
_cell_length_a   3.94436000
_cell_length_b   7.53730020
_cell_length_c   16.62440550
_cell_angle_alpha   89.09206712
_cell_angle_beta   90.00000000
_cell_angle_gamma   90.00000000
_symmetry_Int_Tables_number   1
_chemical_formula_structural   LaNdTh6(ZnRh)8
_chemical_formula_sum   'La1 Nd1 Th6 Zn8 Rh8'
_cell_volume   494.17862048
_cell_formula_units_Z   1
loop_
 _symmetry_equiv_pos_site_id
 _symmetry_equiv_pos_as_xyz
  1  'x, y, z'
loop_
 _atom_site_type_symbol
 _atom_site_label
 _atom_site_symmetry_multiplicity
 _atom_site_fract_x
 _atom_site_fract_y
 _atom_site_fract_z
 _atom_site_occupancy
  La  La0  1  0.750000  0.940661  0.285434  1
  Nd  Nd1  1  0.250000  0.060466  0.714196  1
  Th  Th2  1  0.750000  0.328493  0.440343  1
  Th  Th3  1  0.250000  0.560228  0.785329  1
  Th  Th4  1  0.250000  0.674420  0.561196  1
  Th  Th5  1  0.750000  0.822790  0.060271  1
  Th  Th6  1  0.250000  0.174091  0.938106  1
  Th  Th7  1  0.750000  0.439332  0.214210  1
  Zn  Zn8  1  0.250000  0.112721  0.152293  1
  Zn  Zn9  1  0.250000  0.997990  0.440412  1
  Zn  Zn10  1  0.750000  0.888242  0.845388  1
  Zn  Zn11  1  0.750000  0.005712  0.562258  1
  Zn  Zn12  1  0.250000  0.490488  0.057718  1
  Zn  Zn13  1  0.750000  0.384199  0.653559  1
  Zn  Zn14  1  0.750000  0.505528  0.941243  1
  Zn  Zn15  1  0.250000  0.615328  0.348044  1
  Rh  Rh16  1  0.750000  0.270584  0.819462  1
  Rh  Rh17  1  0.250000  0.256838  0.314805  1
  Rh  Rh18  1  0.250000  0.756656  0.937236  1
  Rh  Rh19  1  0.250000  0.261370  0.559594  1
  Rh  Rh20  1  0.250000  0.726843  0.180197  1
  Rh  Rh21  1  0.750000  0.742981  0.441301  1
  Rh  Rh22  1  0.750000  0.239580  0.061451  1
  Rh  Rh23  1  0.750000  0.744457  0.685951  1
