# generated using pymatgen
data_Li28Sc2Si7P
_symmetry_space_group_name_H-M   'P 1'
_cell_length_a   9.17671288
_cell_length_b   9.18480452
_cell_length_c   9.18323744
_cell_angle_alpha   109.72137157
_cell_angle_beta   109.43329535
_cell_angle_gamma   109.32799984
_symmetry_Int_Tables_number   1
_chemical_formula_structural   Li28Sc2Si7P
_chemical_formula_sum   'Li28 Sc2 Si7 P1'
_cell_volume   595.32821417
_cell_formula_units_Z   1
loop_
 _symmetry_equiv_pos_site_id
 _symmetry_equiv_pos_as_xyz
  1  'x, y, z'
loop_
 _atom_site_type_symbol
 _atom_site_label
 _atom_site_symmetry_multiplicity
 _atom_site_fract_x
 _atom_site_fract_y
 _atom_site_fract_z
 _atom_site_occupancy
  Li  Li0  1  0.077470  0.543854  0.279695  1
  Li  Li1  1  0.263241  0.792757  0.720470  1
  Li  Li2  1  0.178984  0.958394  0.971099  1
  Li  Li3  1  0.987239  0.203334  0.027149  1
  Li  Li4  1  0.041631  0.013349  0.218684  1
  Li  Li5  1  0.792577  0.820761  0.780208  1
  Li  Li6  1  0.456814  0.737381  0.529506  1
  Li  Li7  1  0.205874  0.929662  0.473131  1
  Li  Li8  1  0.723559  0.343275  0.063400  1
  Li  Li9  1  0.968865  0.407183  0.883140  1
  Li  Li10  1  0.280906  0.662495  0.941044  1
  Li  Li11  1  0.527319  0.089857  0.119338  1
  Li  Li12  1  0.694620  0.868277  0.092860  1
  Li  Li13  1  0.475418  0.879766  0.324177  1
  Li  Li14  1  0.555703  0.152798  0.673926  1
  Li  Li15  1  0.772604  0.597043  0.905714  1
  Li  Li16  1  0.851543  0.522811  0.406920  1
  Li  Li17  1  0.400436  0.309722  0.173641  1
  Li  Li18  1  0.131653  0.227489  0.821784  1
  Li  Li19  1  0.117432  0.444912  0.594912  1
  Li  Li20  1  0.911037  0.029067  0.436120  1
  Li  Li21  1  0.334792  0.275381  0.618231  1
  Li  Li22  1  0.594422  0.470670  0.566434  1
  Li  Li23  1  0.658218  0.719096  0.381501  1
  Li  Li24  1  0.001632  0.874158  0.628743  1
  Li  Li25  1  0.247431  0.373008  0.374356  1
  Li  Li26  1  0.122902  0.756186  0.127056  1
  Li  Li27  1  0.624137  0.998298  0.871581  1
  Sc  Sc28  1  0.499455  0.501211  0.999569  1
  Sc  Sc29  1  0.750899  0.248408  0.498683  1
  Si  Si30  1  0.374106  0.135714  0.842492  1
  Si  Si31  1  0.958908  0.616569  0.743473  1
  Si  Si32  1  0.879759  0.219304  0.259243  1
  Si  Si33  1  0.382147  0.122575  0.339452  1
  Si  Si34  1  0.782523  0.041356  0.659262  1
  Si  Si35  1  0.466066  0.624943  0.757949  1
  Si  Si36  1  0.865980  0.707146  0.240516  1
  P  P37  1  0.291698  0.531785  0.154543  1
