# generated using pymatgen
data_Dy5Cu6
_symmetry_space_group_name_H-M   'P 1'
_cell_length_a   15.90565816
_cell_length_b   15.90565843
_cell_length_c   3.82860400
_cell_angle_alpha   90.00000000
_cell_angle_beta   90.00000000
_cell_angle_gamma   166.43774856
_symmetry_Int_Tables_number   1
_chemical_formula_structural   Dy5Cu6
_chemical_formula_sum   'Dy5 Cu6'
_cell_volume   227.13796895
_cell_formula_units_Z   1
loop_
 _symmetry_equiv_pos_site_id
 _symmetry_equiv_pos_as_xyz
  1  'x, y, z'
loop_
 _atom_site_type_symbol
 _atom_site_label
 _atom_site_symmetry_multiplicity
 _atom_site_fract_x
 _atom_site_fract_y
 _atom_site_fract_z
 _atom_site_occupancy
  Dy  Dy0  1  0.000000  0.000000  0.000000  1
  Dy  Dy1  1  0.615804  0.384194  0.000000  1
  Dy  Dy2  1  0.384194  0.615804  0.000000  1
  Dy  Dy3  1  0.804727  0.195271  0.500001  1
  Dy  Dy4  1  0.195271  0.804727  0.500001  1
  Cu  Cu5  1  0.724220  0.275778  0.000000  1
  Cu  Cu6  1  0.275778  0.724220  0.000000  1
  Cu  Cu7  1  0.910726  0.089273  0.500001  1
  Cu  Cu8  1  0.539557  0.460441  0.500001  1
  Cu  Cu9  1  0.460441  0.539557  0.500001  1
  Cu  Cu10  1  0.089273  0.910726  0.500001  1
