# generated using pymatgen
data_Ce(ErSe2)3
_symmetry_space_group_name_H-M   'P 1'
_cell_length_a   4.09007500
_cell_length_b   11.62669028
_cell_length_c   11.89767430
_cell_angle_alpha   70.79678767
_cell_angle_beta   90.00000000
_cell_angle_gamma   90.00000000
_symmetry_Int_Tables_number   1
_chemical_formula_structural   Ce(ErSe2)3
_chemical_formula_sum   'Ce2 Er6 Se12'
_cell_volume   534.30111843
_cell_formula_units_Z   2
loop_
 _symmetry_equiv_pos_site_id
 _symmetry_equiv_pos_as_xyz
  1  'x, y, z'
loop_
 _atom_site_type_symbol
 _atom_site_label
 _atom_site_symmetry_multiplicity
 _atom_site_fract_x
 _atom_site_fract_y
 _atom_site_fract_z
 _atom_site_occupancy
  Ce  Ce0  1  0.750000  0.547953  0.804561  1
  Ce  Ce1  1  0.250000  0.452047  0.195439  1
  Er  Er2  1  0.750000  0.181426  0.000369  1
  Er  Er3  1  0.250000  0.818574  0.999631  1
  Er  Er4  1  0.750000  0.939768  0.666243  1
  Er  Er5  1  0.250000  0.060232  0.333757  1
  Er  Er6  1  0.750000  0.659036  0.414204  1
  Er  Er7  1  0.250000  0.340964  0.585796  1
  Se  Se8  1  0.750000  0.979395  0.886141  1
  Se  Se9  1  0.250000  0.020605  0.113859  1
  Se  Se10  1  0.750000  0.302659  0.751010  1
  Se  Se11  1  0.250000  0.697341  0.248990  1
  Se  Se12  1  0.750000  0.892476  0.441545  1
  Se  Se13  1  0.250000  0.107524  0.558455  1
  Se  Se14  1  0.750000  0.417428  0.405728  1
  Se  Se15  1  0.250000  0.582572  0.594272  1
  Se  Se16  1  0.750000  0.237307  0.227781  1
  Se  Se17  1  0.250000  0.762693  0.772219  1
  Se  Se18  1  0.750000  0.617827  0.035330  1
  Se  Se19  1  0.250000  0.382173  0.964670  1
