# generated using pymatgen
data_La2Tb2Y2IrI10
_symmetry_space_group_name_H-M   'P 1'
_cell_length_a   7.87427732
_cell_length_b   9.92543970
_cell_length_c   9.91824415
_cell_angle_alpha   106.80067676
_cell_angle_beta   95.81789833
_cell_angle_gamma   105.45413852
_symmetry_Int_Tables_number   1
_chemical_formula_structural   La2Tb2Y2IrI10
_chemical_formula_sum   'La2 Tb2 Y2 Ir1 I10'
_cell_volume   701.75496690
_cell_formula_units_Z   1
loop_
 _symmetry_equiv_pos_site_id
 _symmetry_equiv_pos_as_xyz
  1  'x, y, z'
loop_
 _atom_site_type_symbol
 _atom_site_label
 _atom_site_symmetry_multiplicity
 _atom_site_fract_x
 _atom_site_fract_y
 _atom_site_fract_z
 _atom_site_occupancy
  La  La0  1  0.117663  0.044221  0.763408  1
  La  La1  1  0.882337  0.955779  0.236592  1
  Tb  Tb2  1  0.971330  0.287463  0.087263  1
  Tb  Tb3  1  0.028670  0.712537  0.912737  1
  Y  Y4  1  0.349713  0.127107  0.164734  1
  Y  Y5  1  0.650287  0.872893  0.835266  1
  Ir  Ir6  1  0.000000  0.000000  0.000000  1
  I  I7  1  0.347472  0.446745  0.269589  1
  I  I8  1  0.652528  0.553255  0.730411  1
  I  I9  1  0.270268  0.089970  0.456671  1
  I  I10  1  0.729732  0.910030  0.543329  1
  I  I11  1  0.082320  0.379955  0.825573  1
  I  I12  1  0.917680  0.620045  0.174427  1
  I  I13  1  0.445108  0.818149  0.087264  1
  I  I14  1  0.554892  0.181851  0.912736  1
  I  I15  1  0.772296  0.262562  0.341323  1
  I  I16  1  0.227704  0.737438  0.658677  1
