# generated using pymatgen
data_RuPbBr18
_symmetry_space_group_name_H-M   'P 1'
_cell_length_a   9.53446698
_cell_length_b   9.53446506
_cell_length_c   9.53446635
_cell_angle_alpha   93.98459198
_cell_angle_beta   93.98459650
_cell_angle_gamma   93.98459372
_symmetry_Int_Tables_number   1
_chemical_formula_structural   RuPbBr18
_chemical_formula_sum   'Ru1 Pb1 Br18'
_cell_volume   860.14696663
_cell_formula_units_Z   1
loop_
 _symmetry_equiv_pos_site_id
 _symmetry_equiv_pos_as_xyz
  1  'x, y, z'
loop_
 _atom_site_type_symbol
 _atom_site_label
 _atom_site_symmetry_multiplicity
 _atom_site_fract_x
 _atom_site_fract_y
 _atom_site_fract_z
 _atom_site_occupancy
  Ru  Ru0  1  0.000000  0.000000  0.000000  1
  Pb  Pb1  1  0.500000  0.500000  0.500000  1
  Br  Br2  1  0.263311  0.006222  0.020923  1
  Br  Br3  1  0.020923  0.263311  0.006222  1
  Br  Br4  1  0.006222  0.020923  0.263311  1
  Br  Br5  1  0.736689  0.993778  0.979077  1
  Br  Br6  1  0.979077  0.736689  0.993778  1
  Br  Br7  1  0.993778  0.979077  0.736689  1
  Br  Br8  1  0.639825  0.222988  0.099408  1
  Br  Br9  1  0.099408  0.639825  0.222988  1
  Br  Br10  1  0.222988  0.099408  0.639825  1
  Br  Br11  1  0.360175  0.777012  0.900592  1
  Br  Br12  1  0.900592  0.360175  0.777012  1
  Br  Br13  1  0.777012  0.900592  0.360175  1
  Br  Br14  1  0.443977  0.186567  0.538581  1
  Br  Br15  1  0.538581  0.443977  0.186567  1
  Br  Br16  1  0.186567  0.538581  0.443977  1
  Br  Br17  1  0.556023  0.813433  0.461419  1
  Br  Br18  1  0.461419  0.556023  0.813433  1
  Br  Br19  1  0.813433  0.461419  0.556023  1
