# generated using pymatgen
data_Th4IBr15
_symmetry_space_group_name_H-M   'P 1'
_cell_length_a   7.72918759
_cell_length_b   7.87746849
_cell_length_c   13.49811948
_cell_angle_alpha   67.91821769
_cell_angle_beta   89.45214459
_cell_angle_gamma   89.81909344
_symmetry_Int_Tables_number   1
_chemical_formula_structural   Th4IBr15
_chemical_formula_sum   'Th4 I1 Br15'
_cell_volume   761.53308978
_cell_formula_units_Z   1
loop_
 _symmetry_equiv_pos_site_id
 _symmetry_equiv_pos_as_xyz
  1  'x, y, z'
loop_
 _atom_site_type_symbol
 _atom_site_label
 _atom_site_symmetry_multiplicity
 _atom_site_fract_x
 _atom_site_fract_y
 _atom_site_fract_z
 _atom_site_occupancy
  Th  Th0  1  0.516381  0.007646  0.318392  1
  Th  Th1  1  0.013764  0.999028  0.177770  1
  Th  Th2  1  0.487243  0.996277  0.681854  1
  Th  Th3  1  0.984959  0.003775  0.818856  1
  I  I4  1  0.182961  0.767914  0.408607  1
  Br  Br5  1  0.857138  0.141934  0.343715  1
  Br  Br6  1  0.357588  0.869969  0.150710  1
  Br  Br7  1  0.143236  0.864800  0.655160  1
  Br  Br8  1  0.641769  0.135949  0.847201  1
  Br  Br9  1  0.079256  0.230709  0.945227  1
  Br  Br10  1  0.586331  0.775785  0.553156  1
  Br  Br11  1  0.920827  0.772500  0.051223  1
  Br  Br12  1  0.420845  0.227854  0.448036  1
  Br  Br13  1  0.746598  0.716470  0.809973  1
  Br  Br14  1  0.246369  0.283475  0.690563  1
  Br  Br15  1  0.253138  0.282095  0.191124  1
  Br  Br16  1  0.748852  0.721212  0.305932  1
  Br  Br17  1  0.311017  0.803433  0.895332  1
  Br  Br18  1  0.811289  0.197551  0.604368  1
  Br  Br19  1  0.690439  0.201624  0.102803  1
