# generated using pymatgen
data_Sc5Os2C7
_symmetry_space_group_name_H-M   'P 1'
_cell_length_a   7.75567316
_cell_length_b   7.75567332
_cell_length_c   3.30790700
_cell_angle_alpha   90.00000000
_cell_angle_beta   90.00000000
_cell_angle_gamma   120.30164410
_symmetry_Int_Tables_number   1
_chemical_formula_structural   Sc5Os2C7
_chemical_formula_sum   'Sc5 Os2 C7'
_cell_volume   171.78879017
_cell_formula_units_Z   1
loop_
 _symmetry_equiv_pos_site_id
 _symmetry_equiv_pos_as_xyz
  1  'x, y, z'
loop_
 _atom_site_type_symbol
 _atom_site_label
 _atom_site_symmetry_multiplicity
 _atom_site_fract_x
 _atom_site_fract_y
 _atom_site_fract_z
 _atom_site_occupancy
  Sc  Sc0  1  0.084359  0.340862  0.500000  1
  Sc  Sc1  1  0.340862  0.084359  0.500000  1
  Sc  Sc2  1  0.500000  0.500000  0.000000  1
  Sc  Sc3  1  0.915641  0.659138  0.500000  1
  Sc  Sc4  1  0.659138  0.915641  0.500000  1
  Os  Os5  1  0.713929  0.286071  0.000000  1
  Os  Os6  1  0.286071  0.713929  0.000000  1
  C  C7  1  0.000000  0.000000  0.000000  1
  C  C8  1  0.000000  0.500000  0.000000  1
  C  C9  1  0.500000  0.000000  0.000000  1
  C  C10  1  0.176024  0.176024  0.000000  1
  C  C11  1  0.823976  0.823976  0.000000  1
  C  C12  1  0.622811  0.377189  0.500000  1
  C  C13  1  0.377189  0.622811  0.500000  1
