# generated using pymatgen
data_Ce5Fe15(P3Ru)4
_symmetry_space_group_name_H-M   'P 1'
_cell_length_a   12.24827100
_cell_length_b   12.24827002
_cell_length_c   3.76160700
_cell_angle_alpha   90.00000000
_cell_angle_beta   90.00000000
_cell_angle_gamma   119.99999994
_symmetry_Int_Tables_number   1
_chemical_formula_structural   Ce5Fe15(P3Ru)4
_chemical_formula_sum   'Ce5 Fe15 P12 Ru4'
_cell_volume   488.71266165
_cell_formula_units_Z   1
loop_
 _symmetry_equiv_pos_site_id
 _symmetry_equiv_pos_as_xyz
  1  'x, y, z'
loop_
 _atom_site_type_symbol
 _atom_site_label
 _atom_site_symmetry_multiplicity
 _atom_site_fract_x
 _atom_site_fract_y
 _atom_site_fract_z
 _atom_site_occupancy
  Ce  Ce0  1  0.187066  0.186302  0.500000  1
  Ce  Ce1  1  0.813698  0.000764  0.500000  1
  Ce  Ce2  1  0.999236  0.812934  0.500000  1
  Ce  Ce3  1  0.333333  0.666667  0.000000  1
  Ce  Ce4  1  0.666667  0.333333  0.000000  1
  Fe  Fe5  1  0.555349  0.563421  0.000000  1
  Fe  Fe6  1  0.436579  0.991928  0.000000  1
  Fe  Fe7  1  0.008072  0.444651  0.000000  1
  Fe  Fe8  1  0.711637  0.714776  0.500000  1
  Fe  Fe9  1  0.285224  0.996860  0.500000  1
  Fe  Fe10  1  0.003140  0.288363  0.500000  1
  Fe  Fe11  1  0.182543  0.380559  0.000000  1
  Fe  Fe12  1  0.619441  0.801984  0.000000  1
  Fe  Fe13  1  0.198016  0.817457  0.000000  1
  Fe  Fe14  1  0.800380  0.623355  0.000000  1
  Fe  Fe15  1  0.822975  0.199620  0.000000  1
  Fe  Fe16  1  0.376645  0.177025  0.000000  1
  Fe  Fe17  1  0.360784  0.490172  0.500000  1
  Fe  Fe18  1  0.509828  0.870613  0.500000  1
  Fe  Fe19  1  0.129387  0.639216  0.500000  1
  P  P20  1  0.804879  0.807302  0.000000  1
  P  P21  1  0.192698  0.997577  0.000000  1
  P  P22  1  0.002423  0.195121  0.000000  1
  P  P23  1  0.166373  0.476542  0.500000  1
  P  P24  1  0.523458  0.689831  0.500000  1
  P  P25  1  0.310169  0.833627  0.500000  1
  P  P26  1  0.692968  0.530164  0.500000  1
  P  P27  1  0.837195  0.307032  0.500000  1
  P  P28  1  0.469836  0.162805  0.500000  1
  P  P29  1  0.371050  0.382390  0.000000  1
  P  P30  1  0.617610  0.988660  0.000000  1
  P  P31  1  0.011340  0.628950  0.000000  1
  Ru  Ru32  1  0.880965  0.515582  0.500000  1
  Ru  Ru33  1  0.634617  0.119035  0.500000  1
  Ru  Ru34  1  0.484418  0.365383  0.500000  1
  Ru  Ru35  1  0.000000  0.000000  0.000000  1
