# generated using pymatgen
data_Ac4Mg4AgPt3
_symmetry_space_group_name_H-M   'P 1'
_cell_length_a   4.35366200
_cell_length_b   7.66431564
_cell_length_c   9.10174800
_cell_angle_alpha   89.04275018
_cell_angle_beta   90.00000000
_cell_angle_gamma   90.00000000
_symmetry_Int_Tables_number   1
_chemical_formula_structural   Ac4Mg4AgPt3
_chemical_formula_sum   'Ac4 Mg4 Ag1 Pt3'
_cell_volume   303.66328330
_cell_formula_units_Z   1
loop_
 _symmetry_equiv_pos_site_id
 _symmetry_equiv_pos_as_xyz
  1  'x, y, z'
loop_
 _atom_site_type_symbol
 _atom_site_label
 _atom_site_symmetry_multiplicity
 _atom_site_fract_x
 _atom_site_fract_y
 _atom_site_fract_z
 _atom_site_occupancy
  Ac  Ac0  1  0.250000  0.539561  0.185017  1
  Ac  Ac1  1  0.750000  0.468634  0.827059  1
  Ac  Ac2  1  0.750000  0.948643  0.683163  1
  Ac  Ac3  1  0.250000  0.032663  0.311341  1
  Mg  Mg4  1  0.250000  0.635754  0.554097  1
  Mg  Mg5  1  0.750000  0.372633  0.440271  1
  Mg  Mg6  1  0.750000  0.869252  0.055872  1
  Mg  Mg7  1  0.250000  0.127642  0.946491  1
  Ag  Ag8  1  0.250000  0.265417  0.618211  1
  Pt  Pt9  1  0.250000  0.760016  0.881184  1
  Pt  Pt10  1  0.750000  0.240195  0.120336  1
  Pt  Pt11  1  0.750000  0.739591  0.376958  1
