# generated using pymatgen
data_Pa2CSe
_symmetry_space_group_name_H-M   'P 1'
_cell_length_a   7.26405030
_cell_length_b   7.26405010
_cell_length_c   7.26405181
_cell_angle_alpha   28.94622017
_cell_angle_beta   28.94622463
_cell_angle_gamma   28.94621541
_symmetry_Int_Tables_number   1
_chemical_formula_structural   Pa2CSe
_chemical_formula_sum   'Pa2 C1 Se1'
_cell_volume   79.40835639
_cell_formula_units_Z   1
loop_
 _symmetry_equiv_pos_site_id
 _symmetry_equiv_pos_as_xyz
  1  'x, y, z'
loop_
 _atom_site_type_symbol
 _atom_site_label
 _atom_site_symmetry_multiplicity
 _atom_site_fract_x
 _atom_site_fract_y
 _atom_site_fract_z
 _atom_site_occupancy
  Pa  Pa0  1  0.265816  0.265816  0.265816  1
  Pa  Pa1  1  0.734184  0.734184  0.734184  1
  C  C2  1  0.000000  0.000000  0.000000  1
  Se  Se3  1  0.500000  0.500000  0.500000  1
