# generated using pymatgen
data_Cs14Ta2Tl5InP10
_symmetry_space_group_name_H-M   'P 1'
_cell_length_a   8.88921963
_cell_length_b   9.73601571
_cell_length_c   14.91362439
_cell_angle_alpha   85.65020578
_cell_angle_beta   84.45199297
_cell_angle_gamma   85.09152506
_symmetry_Int_Tables_number   1
_chemical_formula_structural   Cs14Ta2Tl5InP10
_chemical_formula_sum   'Cs14 Ta2 Tl5 In1 P10'
_cell_volume   1276.97574772
_cell_formula_units_Z   1
loop_
 _symmetry_equiv_pos_site_id
 _symmetry_equiv_pos_as_xyz
  1  'x, y, z'
loop_
 _atom_site_type_symbol
 _atom_site_label
 _atom_site_symmetry_multiplicity
 _atom_site_fract_x
 _atom_site_fract_y
 _atom_site_fract_z
 _atom_site_occupancy
  Cs  Cs0  1  0.840449  0.360353  0.654866  1
  Cs  Cs1  1  0.816466  0.805446  0.135951  1
  Cs  Cs2  1  0.236827  0.007600  0.469385  1
  Cs  Cs3  1  0.273472  0.251396  0.252355  1
  Cs  Cs4  1  0.736166  0.498521  0.974043  1
  Cs  Cs5  1  0.260118  0.501536  0.025962  1
  Cs  Cs6  1  0.673478  0.084292  0.887408  1
  Cs  Cs7  1  0.763045  0.990830  0.529096  1
  Cs  Cs8  1  0.728370  0.747238  0.747613  1
  Cs  Cs9  1  0.334601  0.347173  0.598424  1
  Cs  Cs10  1  0.158223  0.639942  0.344657  1
  Cs  Cs11  1  0.179726  0.195057  0.864884  1
  Cs  Cs12  1  0.330278  0.914410  0.113911  1
  Cs  Cs13  1  0.661806  0.656014  0.400067  1
  Ta  Ta14  1  0.352484  0.606551  0.773745  1
  Ta  Ta15  1  0.649339  0.392410  0.226245  1
  Tl  Tl16  1  0.054311  0.819240  0.869731  1
  Tl  Tl17  1  0.947479  0.180930  0.130069  1
  Tl  Tl18  1  0.362810  0.955004  0.703680  1
  Tl  Tl19  1  0.094438  0.721911  0.621284  1
  Tl  Tl20  1  0.906851  0.280223  0.379226  1
  In  In21  1  0.643671  0.053480  0.295249  1
  P  P22  1  0.911007  0.448192  0.212346  1
  P  P23  1  0.626638  0.204620  0.129306  1
  P  P24  1  0.090121  0.552475  0.787318  1
  P  P25  1  0.586890  0.297747  0.380494  1
  P  P26  1  0.415110  0.697973  0.618899  1
  P  P27  1  0.031005  0.998466  0.700410  1
  P  P28  1  0.508336  0.405960  0.808352  1
  P  P29  1  0.490133  0.590313  0.191447  1
  P  P30  1  0.375588  0.790908  0.873293  1
  P  P31  1  0.960766  0.003788  0.300287  1
