# generated using pymatgen
data_TbGe2(AsRh3)2
_symmetry_space_group_name_H-M   'P 1'
_cell_length_a   7.29103700
_cell_length_b   7.23493275
_cell_length_c   3.83997000
_cell_angle_alpha   90.00000000
_cell_angle_beta   90.00000000
_cell_angle_gamma   120.25684988
_symmetry_Int_Tables_number   1
_chemical_formula_structural   TbGe2(AsRh3)2
_chemical_formula_sum   'Tb1 Ge2 As2 Rh6'
_cell_volume   174.96549063
_cell_formula_units_Z   1
loop_
 _symmetry_equiv_pos_site_id
 _symmetry_equiv_pos_as_xyz
  1  'x, y, z'
loop_
 _atom_site_type_symbol
 _atom_site_label
 _atom_site_symmetry_multiplicity
 _atom_site_fract_x
 _atom_site_fract_y
 _atom_site_fract_z
 _atom_site_occupancy
  Tb  Tb0  1  0.998510  0.997018  0.000000  1
  Ge  Ge1  1  0.806321  0.612640  0.500000  1
  Ge  Ge2  1  0.333278  0.666558  0.000000  1
  As  As3  1  0.384321  0.193609  0.500000  1
  As  As4  1  0.809289  0.193609  0.500000  1
  Rh  Rh5  1  0.534890  0.069780  0.000000  1
  Rh  Rh6  1  0.604226  0.802533  0.500000  1
  Rh  Rh7  1  0.198031  0.396063  0.500000  1
  Rh  Rh8  1  0.535178  0.466161  0.000000  1
  Rh  Rh9  1  0.198308  0.802533  0.500000  1
  Rh  Rh10  1  0.930983  0.466161  0.000000  1
