# generated using pymatgen
data_UPdF20
_symmetry_space_group_name_H-M   'P 1'
_cell_length_a   10.92925390
_cell_length_b   5.14996642
_cell_length_c   7.10491114
_cell_angle_alpha   91.48080017
_cell_angle_beta   88.30977841
_cell_angle_gamma   90.62783145
_symmetry_Int_Tables_number   1
_chemical_formula_structural   UPdF20
_chemical_formula_sum   'U1 Pd1 F20'
_cell_volume   399.57370095
_cell_formula_units_Z   1
loop_
 _symmetry_equiv_pos_site_id
 _symmetry_equiv_pos_as_xyz
  1  'x, y, z'
loop_
 _atom_site_type_symbol
 _atom_site_label
 _atom_site_symmetry_multiplicity
 _atom_site_fract_x
 _atom_site_fract_y
 _atom_site_fract_z
 _atom_site_occupancy
  U  U0  1  0.000000  0.500000  0.500000  1
  Pd  Pd1  1  0.500000  0.500000  0.000000  1
  F  F2  1  0.852265  0.774847  0.977628  1
  F  F3  1  0.362107  0.219023  0.524793  1
  F  F4  1  0.147735  0.225153  0.022372  1
  F  F5  1  0.637893  0.780977  0.475207  1
  F  F6  1  0.849168  0.003108  0.095420  1
  F  F7  1  0.356191  0.995449  0.403054  1
  F  F8  1  0.150832  0.996892  0.904580  1
  F  F9  1  0.643809  0.004551  0.596946  1
  F  F10  1  0.076679  0.644042  0.261547  1
  F  F11  1  0.571203  0.371768  0.218717  1
  F  F12  1  0.923321  0.355958  0.738453  1
  F  F13  1  0.428797  0.628232  0.781283  1
  F  F14  1  0.858117  0.361177  0.349031  1
  F  F15  1  0.363182  0.619798  0.146594  1
  F  F16  1  0.141883  0.638823  0.650969  1
  F  F17  1  0.636818  0.380202  0.853406  1
  F  F18  1  0.094864  0.168834  0.449605  1
  F  F19  1  0.580693  0.824111  0.041196  1
  F  F20  1  0.419307  0.175889  0.958804  1
  F  F21  1  0.905136  0.831166  0.550395  1
