# generated using pymatgen
data_Sc8Ti9Nb2Si16Rh
_symmetry_space_group_name_H-M   'P 1'
_cell_length_a   6.65309705
_cell_length_b   6.84486595
_cell_length_c   13.00605200
_cell_angle_alpha   90.00000000
_cell_angle_beta   90.00000000
_cell_angle_gamma   90.19055959
_symmetry_Int_Tables_number   1
_chemical_formula_structural   Sc8Ti9Nb2Si16Rh
_chemical_formula_sum   'Sc8 Ti9 Nb2 Si16 Rh1'
_cell_volume   592.28657703
_cell_formula_units_Z   1
loop_
 _symmetry_equiv_pos_site_id
 _symmetry_equiv_pos_as_xyz
  1  'x, y, z'
loop_
 _atom_site_type_symbol
 _atom_site_label
 _atom_site_symmetry_multiplicity
 _atom_site_fract_x
 _atom_site_fract_y
 _atom_site_fract_z
 _atom_site_occupancy
  Sc  Sc0  1  0.498169  0.673473  0.594576  1
  Sc  Sc1  1  0.003223  0.826237  0.906107  1
  Sc  Sc2  1  0.497730  0.325454  0.095679  1
  Sc  Sc3  1  0.997355  0.176114  0.403362  1
  Sc  Sc4  1  0.497730  0.325454  0.404321  1
  Sc  Sc5  1  0.997355  0.176114  0.096638  1
  Sc  Sc6  1  0.498169  0.673473  0.905424  1
  Sc  Sc7  1  0.003223  0.826237  0.593893  1
  Ti  Ti8  1  0.669853  0.171106  0.628011  1
  Ti  Ti9  1  0.162176  0.325585  0.872413  1
  Ti  Ti10  1  0.335494  0.825250  0.125400  1
  Ti  Ti11  1  0.835627  0.674617  0.375235  1
  Ti  Ti12  1  0.335494  0.825250  0.374600  1
  Ti  Ti13  1  0.835627  0.674617  0.124765  1
  Ti  Ti14  1  0.669853  0.171106  0.871989  1
  Ti  Ti15  1  0.162176  0.325585  0.627587  1
  Ti  Ti16  1  0.339726  0.006082  0.750000  1
  Nb  Nb17  1  0.162627  0.507254  0.250000  1
  Nb  Nb18  1  0.662923  0.993990  0.250000  1
  Si  Si19  1  0.664818  0.965507  0.460830  1
  Si  Si20  1  0.165459  0.534743  0.038277  1
  Si  Si21  1  0.336309  0.035952  0.958369  1
  Si  Si22  1  0.832324  0.462608  0.541870  1
  Si  Si23  1  0.336309  0.035952  0.541631  1
  Si  Si24  1  0.832324  0.462608  0.958130  1
  Si  Si25  1  0.664818  0.965507  0.039170  1
  Si  Si26  1  0.165459  0.534743  0.461723  1
  Si  Si27  1  0.468382  0.384696  0.750000  1
  Si  Si28  1  0.967116  0.105375  0.750000  1
  Si  Si29  1  0.540346  0.616812  0.250000  1
  Si  Si30  1  0.039194  0.883344  0.250000  1
  Si  Si31  1  0.704463  0.861147  0.750000  1
  Si  Si32  1  0.198975  0.635513  0.750000  1
  Si  Si33  1  0.294133  0.134634  0.250000  1
  Si  Si34  1  0.793183  0.366164  0.250000  1
  Rh  Rh35  1  0.831856  0.511695  0.750000  1
