# generated using pymatgen
data_Ca2Sn2PdAu
_symmetry_space_group_name_H-M   'P 1'
_cell_length_a   4.67949300
_cell_length_b   7.40648100
_cell_length_c   8.25137600
_cell_angle_alpha   90.00000000
_cell_angle_beta   90.00000000
_cell_angle_gamma   90.00000000
_symmetry_Int_Tables_number   1
_chemical_formula_structural   Ca2Sn2PdAu
_chemical_formula_sum   'Ca4 Sn4 Pd2 Au2'
_cell_volume   285.98094215
_cell_formula_units_Z   2
loop_
 _symmetry_equiv_pos_site_id
 _symmetry_equiv_pos_as_xyz
  1  'x, y, z'
loop_
 _atom_site_type_symbol
 _atom_site_label
 _atom_site_symmetry_multiplicity
 _atom_site_fract_x
 _atom_site_fract_y
 _atom_site_fract_z
 _atom_site_occupancy
  Ca  Ca0  1  0.750000  0.485304  0.803853  1
  Ca  Ca1  1  0.250000  0.510871  0.197985  1
  Ca  Ca2  1  0.250000  0.010871  0.302015  1
  Ca  Ca3  1  0.750000  0.985304  0.696147  1
  Sn  Sn4  1  0.750000  0.314188  0.430429  1
  Sn  Sn5  1  0.250000  0.677938  0.584274  1
  Sn  Sn6  1  0.750000  0.814188  0.069571  1
  Sn  Sn7  1  0.250000  0.177938  0.915726  1
  Pd  Pd8  1  0.250000  0.794679  0.901564  1
  Pd  Pd9  1  0.250000  0.294679  0.598436  1
  Au  Au10  1  0.750000  0.217021  0.101715  1
  Au  Au11  1  0.750000  0.717021  0.398285  1
