# generated using pymatgen
data_Ho2ErTm(B6Os)2
_symmetry_space_group_name_H-M   'P 1'
_cell_length_a   3.63207400
_cell_length_b   9.10288306
_cell_length_c   11.48231408
_cell_angle_alpha   90.01329828
_cell_angle_beta   90.00000000
_cell_angle_gamma   90.00000000
_symmetry_Int_Tables_number   1
_chemical_formula_structural   Ho2ErTm(B6Os)2
_chemical_formula_sum   'Ho4 Er2 Tm2 B24 Os4'
_cell_volume   379.63221796
_cell_formula_units_Z   2
loop_
 _symmetry_equiv_pos_site_id
 _symmetry_equiv_pos_as_xyz
  1  'x, y, z'
loop_
 _atom_site_type_symbol
 _atom_site_label
 _atom_site_symmetry_multiplicity
 _atom_site_fract_x
 _atom_site_fract_y
 _atom_site_fract_z
 _atom_site_occupancy
  Ho  Ho0  1  0.000000  0.321708  0.413973  1
  Ho  Ho1  1  0.000000  0.678292  0.586027  1
  Ho  Ho2  1  0.000000  0.821509  0.085936  1
  Ho  Ho3  1  0.000000  0.178491  0.914064  1
  Er  Er4  1  0.000000  0.943989  0.372950  1
  Er  Er5  1  0.000000  0.056011  0.627051  1
  Tm  Tm6  1  0.000000  0.444033  0.126895  1
  Tm  Tm7  1  0.000000  0.555967  0.873104  1
  B  B8  1  0.500000  0.553919  0.433076  1
  B  B9  1  0.500000  0.446081  0.566924  1
  B  B10  1  0.500000  0.054049  0.066850  1
  B  B11  1  0.500000  0.945951  0.933150  1
  B  B12  1  0.500000  0.748477  0.419845  1
  B  B13  1  0.500000  0.251523  0.580155  1
  B  B14  1  0.500000  0.248901  0.080122  1
  B  B15  1  0.500000  0.751099  0.919878  1
  B  B16  1  0.500000  0.791205  0.266150  1
  B  B17  1  0.500000  0.208795  0.733850  1
  B  B18  1  0.500000  0.291617  0.233668  1
  B  B19  1  0.500000  0.708382  0.766332  1
  B  B20  1  0.500000  0.631094  0.184801  1
  B  B21  1  0.500000  0.368906  0.815199  1
  B  B22  1  0.500000  0.131491  0.314982  1
  B  B23  1  0.500000  0.868509  0.685018  1
  B  B24  1  0.500000  0.982879  0.213082  1
  B  B25  1  0.500000  0.017121  0.786918  1
  B  B26  1  0.500000  0.482661  0.286643  1
  B  B27  1  0.500000  0.517339  0.713357  1
  B  B28  1  0.500000  0.605902  0.029271  1
  B  B29  1  0.500000  0.394098  0.970729  1
  B  B30  1  0.500000  0.106597  0.470549  1
  B  B31  1  0.500000  0.893403  0.529451  1
  Os  Os32  1  0.000000  0.637417  0.320848  1
  Os  Os33  1  0.000000  0.362583  0.679152  1
  Os  Os34  1  0.000000  0.137993  0.178865  1
  Os  Os35  1  0.000000  0.862007  0.821135  1
