# generated using pymatgen
data_SrHoF5
_symmetry_space_group_name_H-M   'P 1'
_cell_length_a   8.18897197
_cell_length_b   8.18897047
_cell_length_c   5.76602318
_cell_angle_alpha   89.05311861
_cell_angle_beta   89.05312195
_cell_angle_gamma   149.43523179
_symmetry_Int_Tables_number   1
_chemical_formula_structural   SrHoF5
_chemical_formula_sum   'Sr2 Ho2 F10'
_cell_volume   196.23706895
_cell_formula_units_Z   2
loop_
 _symmetry_equiv_pos_site_id
 _symmetry_equiv_pos_as_xyz
  1  'x, y, z'
loop_
 _atom_site_type_symbol
 _atom_site_label
 _atom_site_symmetry_multiplicity
 _atom_site_fract_x
 _atom_site_fract_y
 _atom_site_fract_z
 _atom_site_occupancy
  Sr  Sr0  1  0.323375  0.676625  0.750000  1
  Sr  Sr1  1  0.676625  0.323375  0.250000  1
  Ho  Ho2  1  0.075240  0.924760  0.750000  1
  Ho  Ho3  1  0.924760  0.075240  0.250000  1
  F  F4  1  0.730075  0.807711  0.602030  1
  F  F5  1  0.807711  0.730075  0.102030  1
  F  F6  1  0.803470  0.181181  0.004351  1
  F  F7  1  0.621388  0.378612  0.750000  1
  F  F8  1  0.818819  0.196530  0.495649  1
  F  F9  1  0.181181  0.803470  0.504351  1
  F  F10  1  0.378612  0.621388  0.250000  1
  F  F11  1  0.196530  0.818819  0.995649  1
  F  F12  1  0.192289  0.269925  0.897970  1
  F  F13  1  0.269925  0.192289  0.397970  1
