# generated using pymatgen
data_YbDyRu2O7
_symmetry_space_group_name_H-M   'P 1'
_cell_length_a   7.20994206
_cell_length_b   7.22008523
_cell_length_c   7.22008509
_cell_angle_alpha   60.07912382
_cell_angle_beta   60.04645862
_cell_angle_gamma   60.04646018
_symmetry_Int_Tables_number   1
_chemical_formula_structural   YbDyRu2O7
_chemical_formula_sum   'Yb2 Dy2 Ru4 O14'
_cell_volume   266.11259293
_cell_formula_units_Z   2
loop_
 _symmetry_equiv_pos_site_id
 _symmetry_equiv_pos_as_xyz
  1  'x, y, z'
loop_
 _atom_site_type_symbol
 _atom_site_label
 _atom_site_symmetry_multiplicity
 _atom_site_fract_x
 _atom_site_fract_y
 _atom_site_fract_z
 _atom_site_occupancy
  Yb  Yb0  1  0.125000  0.125000  0.625000  1
  Yb  Yb1  1  0.125000  0.625000  0.125000  1
  Dy  Dy2  1  0.625000  0.125000  0.125000  1
  Dy  Dy3  1  0.125000  0.125000  0.125000  1
  Ru  Ru4  1  0.625000  0.625000  0.125000  1
  Ru  Ru5  1  0.625000  0.125000  0.625000  1
  Ru  Ru6  1  0.125000  0.625000  0.625000  1
  Ru  Ru7  1  0.625000  0.625000  0.625000  1
  O  O8  1  0.254539  0.245461  0.245461  1
  O  O9  1  0.995461  0.004539  0.004539  1
  O  O10  1  0.298246  0.705176  0.296805  1
  O  O11  1  0.550227  0.953195  0.544824  1
  O  O12  1  0.298246  0.296805  0.705176  1
  O  O13  1  0.705009  0.294991  0.294991  1
  O  O14  1  0.301398  0.698602  0.698602  1
  O  O15  1  0.699773  0.705176  0.296805  1
  O  O16  1  0.699773  0.296805  0.705176  1
  O  O17  1  0.948602  0.551398  0.551398  1
  O  O18  1  0.544991  0.955009  0.955009  1
  O  O19  1  0.951754  0.544824  0.953195  1
  O  O20  1  0.550227  0.544824  0.953195  1
  O  O21  1  0.951754  0.953195  0.544824  1
