# generated using pymatgen
data_Dy2Al14Fe3
_symmetry_space_group_name_H-M   'P 1'
_cell_length_a   6.73892389
_cell_length_b   6.73892347
_cell_length_c   6.73892368
_cell_angle_alpha   83.87197430
_cell_angle_beta   83.87197785
_cell_angle_gamma   83.87197390
_symmetry_Int_Tables_number   1
_chemical_formula_structural   Dy2Al14Fe3
_chemical_formula_sum   'Dy2 Al14 Fe3'
_cell_volume   301.13724750
_cell_formula_units_Z   1
loop_
 _symmetry_equiv_pos_site_id
 _symmetry_equiv_pos_as_xyz
  1  'x, y, z'
loop_
 _atom_site_type_symbol
 _atom_site_label
 _atom_site_symmetry_multiplicity
 _atom_site_fract_x
 _atom_site_fract_y
 _atom_site_fract_z
 _atom_site_occupancy
  Dy  Dy0  1  0.660147  0.660147  0.660147  1
  Dy  Dy1  1  0.339853  0.339853  0.339853  1
  Al  Al2  1  0.296123  0.703877  0.000000  1
  Al  Al3  1  0.703877  0.000000  0.296123  1
  Al  Al4  1  0.000000  0.296123  0.703877  1
  Al  Al5  1  0.296123  0.000000  0.703877  1
  Al  Al6  1  0.000000  0.703877  0.296123  1
  Al  Al7  1  0.703877  0.296123  0.000000  1
  Al  Al8  1  0.343916  0.343916  0.861225  1
  Al  Al9  1  0.343916  0.861225  0.343916  1
  Al  Al10  1  0.861225  0.343916  0.343916  1
  Al  Al11  1  0.656084  0.656084  0.138775  1
  Al  Al12  1  0.656084  0.138775  0.656084  1
  Al  Al13  1  0.138775  0.656084  0.656084  1
  Al  Al14  1  0.895130  0.895130  0.895130  1
  Al  Al15  1  0.104870  0.104870  0.104870  1
  Fe  Fe16  1  0.000000  0.000000  0.500000  1
  Fe  Fe17  1  0.000000  0.500000  0.000000  1
  Fe  Fe18  1  0.500000  0.000000  0.000000  1
