# generated using pymatgen
data_Dy9Er7(ScBi3)4
_symmetry_space_group_name_H-M   'P 1'
_cell_length_a   8.11534389
_cell_length_b   9.39722218
_cell_length_c   11.97242300
_cell_angle_alpha   90.00338999
_cell_angle_beta   90.02684280
_cell_angle_gamma   89.98927972
_symmetry_Int_Tables_number   1
_chemical_formula_structural   Dy9Er7(ScBi3)4
_chemical_formula_sum   'Dy9 Er7 Sc4 Bi12'
_cell_volume   913.03708898
_cell_formula_units_Z   1
loop_
 _symmetry_equiv_pos_site_id
 _symmetry_equiv_pos_as_xyz
  1  'x, y, z'
loop_
 _atom_site_type_symbol
 _atom_site_label
 _atom_site_symmetry_multiplicity
 _atom_site_fract_x
 _atom_site_fract_y
 _atom_site_fract_z
 _atom_site_occupancy
  Dy  Dy0  1  0.185423  0.749998  0.720248  1
  Dy  Dy1  1  0.685489  0.749979  0.779771  1
  Dy  Dy2  1  0.814495  0.249841  0.279651  1
  Dy  Dy3  1  0.314478  0.249972  0.220195  1
  Dy  Dy4  1  0.803539  0.436229  0.558896  1
  Dy  Dy5  1  0.354404  0.749944  0.215520  1
  Dy  Dy6  1  0.854360  0.749861  0.284470  1
  Dy  Dy7  1  0.645268  0.249756  0.784601  1
  Dy  Dy8  1  0.145799  0.249741  0.715673  1
  Er  Er9  1  0.303498  0.435210  0.941188  1
  Er  Er10  1  0.803432  0.064657  0.558877  1
  Er  Er11  1  0.696532  0.935293  0.058854  1
  Er  Er12  1  0.196420  0.564783  0.441192  1
  Er  Er13  1  0.696450  0.564752  0.058821  1
  Er  Er14  1  0.196732  0.935295  0.441102  1
  Er  Er15  1  0.303491  0.064757  0.941216  1
  Sc  Sc16  1  0.025329  0.749896  0.988264  1
  Sc  Sc17  1  0.525295  0.749982  0.511768  1
  Sc  Sc18  1  0.974709  0.249972  0.011690  1
  Sc  Sc19  1  0.474288  0.249773  0.488235  1
  Bi  Bi20  1  0.434252  0.003752  0.668329  1
  Bi  Bi21  1  0.934363  0.496087  0.831776  1
  Bi  Bi22  1  0.565642  0.503774  0.331481  1
  Bi  Bi23  1  0.065758  0.996015  0.168366  1
  Bi  Bi24  1  0.565676  0.995965  0.331668  1
  Bi  Bi25  1  0.065796  0.503873  0.168273  1
  Bi  Bi26  1  0.433872  0.496076  0.668442  1
  Bi  Bi27  1  0.934290  0.003794  0.831713  1
  Bi  Bi28  1  0.403870  0.750028  0.957543  1
  Bi  Bi29  1  0.904342  0.751202  0.542225  1
  Bi  Bi30  1  0.596195  0.250038  0.042539  1
  Bi  Bi31  1  0.096512  0.249703  0.457418  1
