# generated using pymatgen
data_SrNd7(Ho3Sn4)4
_symmetry_space_group_name_H-M   'P 1'
_cell_length_a   8.07245862
_cell_length_b   8.23040518
_cell_length_c   15.53378800
_cell_angle_alpha   90.01990983
_cell_angle_beta   89.96370953
_cell_angle_gamma   90.06733706
_symmetry_Int_Tables_number   1
_chemical_formula_structural   SrNd7(Ho3Sn4)4
_chemical_formula_sum   'Sr1 Nd7 Ho12 Sn16'
_cell_volume   1032.05776056
_cell_formula_units_Z   1
loop_
 _symmetry_equiv_pos_site_id
 _symmetry_equiv_pos_as_xyz
  1  'x, y, z'
loop_
 _atom_site_type_symbol
 _atom_site_label
 _atom_site_symmetry_multiplicity
 _atom_site_fract_x
 _atom_site_fract_y
 _atom_site_fract_z
 _atom_site_occupancy
  Sr  Sr0  1  0.515489  0.321920  0.906271  1
  Nd  Nd1  1  0.014319  0.178754  0.595355  1
  Nd  Nd2  1  0.485134  0.678754  0.403115  1
  Nd  Nd3  1  0.983963  0.821889  0.097837  1
  Nd  Nd4  1  0.485229  0.680153  0.096614  1
  Nd  Nd5  1  0.985099  0.821869  0.403199  1
  Nd  Nd6  1  0.513707  0.320614  0.594996  1
  Nd  Nd7  1  0.014652  0.177467  0.903185  1
  Ho  Ho8  1  0.361108  0.837664  0.877012  1
  Ho  Ho9  1  0.861647  0.663805  0.622493  1
  Ho  Ho10  1  0.638748  0.164381  0.377273  1
  Ho  Ho11  1  0.141097  0.334324  0.124815  1
  Ho  Ho12  1  0.639883  0.163417  0.123075  1
  Ho  Ho13  1  0.138748  0.336381  0.376770  1
  Ho  Ho14  1  0.361006  0.836465  0.621301  1
  Ho  Ho15  1  0.858887  0.662607  0.875351  1
  Ho  Ho16  1  0.195341  0.502643  0.749561  1
  Ho  Ho17  1  0.694214  0.996750  0.749459  1
  Ho  Ho18  1  0.806426  0.496859  0.251012  1
  Ho  Ho19  1  0.305634  0.002516  0.250132  1
  Sn  Sn20  1  0.301333  0.036807  0.044190  1
  Sn  Sn21  1  0.803051  0.460128  0.458134  1
  Sn  Sn22  1  0.697540  0.959574  0.541383  1
  Sn  Sn23  1  0.187384  0.545041  0.960371  1
  Sn  Sn24  1  0.698667  0.954119  0.959255  1
  Sn  Sn25  1  0.196682  0.539997  0.541526  1
  Sn  Sn26  1  0.302846  0.040838  0.457712  1
  Sn  Sn27  1  0.812292  0.463042  0.044725  1
  Sn  Sn28  1  0.559418  0.624962  0.747327  1
  Sn  Sn29  1  0.059550  0.877391  0.749200  1
  Sn  Sn30  1  0.441250  0.377425  0.249784  1
  Sn  Sn31  1  0.939927  0.122141  0.250995  1
  Sn  Sn32  1  0.319510  0.141046  0.747828  1
  Sn  Sn33  1  0.826072  0.357447  0.748316  1
  Sn  Sn34  1  0.677133  0.857365  0.250063  1
  Sn  Sn35  1  0.177013  0.643443  0.250367  1
