# generated using pymatgen
data_Hf18Ti2Fe2Tc5Mo
_symmetry_space_group_name_H-M   'P 1'
_cell_length_a   8.35610900
_cell_length_b   8.63630711
_cell_length_c   8.61074000
_cell_angle_alpha   119.90268897
_cell_angle_beta   90.00000000
_cell_angle_gamma   90.00000000
_symmetry_Int_Tables_number   1
_chemical_formula_structural   Hf18Ti2Fe2Tc5Mo
_chemical_formula_sum   'Hf18 Ti2 Fe2 Tc5 Mo1'
_cell_volume   538.67683927
_cell_formula_units_Z   1
loop_
 _symmetry_equiv_pos_site_id
 _symmetry_equiv_pos_as_xyz
  1  'x, y, z'
loop_
 _atom_site_type_symbol
 _atom_site_label
 _atom_site_symmetry_multiplicity
 _atom_site_fract_x
 _atom_site_fract_y
 _atom_site_fract_z
 _atom_site_occupancy
  Hf  Hf0  1  0.558767  0.798569  0.596190  1
  Hf  Hf1  1  0.558766  0.798576  0.202376  1
  Hf  Hf2  1  0.559333  0.402976  0.201487  1
  Hf  Hf3  1  0.442105  0.202216  0.403714  1
  Hf  Hf4  1  0.442108  0.202206  0.798503  1
  Hf  Hf5  1  0.441320  0.597208  0.798605  1
  Hf  Hf6  1  0.057895  0.202216  0.403714  1
  Hf  Hf7  1  0.057892  0.202206  0.798503  1
  Hf  Hf8  1  0.058680  0.597208  0.798605  1
  Hf  Hf9  1  0.941233  0.798569  0.596190  1
  Hf  Hf10  1  0.941234  0.798576  0.202376  1
  Hf  Hf11  1  0.940667  0.402976  0.201487  1
  Hf  Hf12  1  0.750000  0.458906  0.916708  1
  Hf  Hf13  1  0.750000  0.458905  0.542198  1
  Hf  Hf14  1  0.750000  0.084661  0.542329  1
  Hf  Hf15  1  0.250000  0.542553  0.084173  1
  Hf  Hf16  1  0.250000  0.542560  0.458380  1
  Hf  Hf17  1  0.250000  0.917539  0.458767  1
  Ti  Ti18  1  0.502446  0.997643  0.998822  1
  Ti  Ti19  1  0.997554  0.997643  0.998822  1
  Fe  Fe20  1  0.750000  0.666693  0.333337  1
  Fe  Fe21  1  0.250000  0.333841  0.666933  1
  Tc  Tc22  1  0.750000  0.112918  0.228519  1
  Tc  Tc23  1  0.750000  0.112912  0.884393  1
  Tc  Tc24  1  0.750000  0.770452  0.885224  1
  Tc  Tc25  1  0.250000  0.886051  0.771309  1
  Tc  Tc26  1  0.250000  0.886056  0.114752  1
  Mo  Mo27  1  0.250000  0.227169  0.113588  1
