# generated using pymatgen
data_Ho8Tm2Hg3Bi2Au
_symmetry_space_group_name_H-M   'P 1'
_cell_length_a   8.73491884
_cell_length_b   8.73491881
_cell_length_c   8.75943040
_cell_angle_alpha   123.92996283
_cell_angle_beta   123.92996276
_cell_angle_gamma   83.13728322
_symmetry_Int_Tables_number   1
_chemical_formula_structural   Ho8Tm2Hg3Bi2Au
_chemical_formula_sum   'Ho8 Tm2 Hg3 Bi2 Au1'
_cell_volume   441.83515785
_cell_formula_units_Z   1
loop_
 _symmetry_equiv_pos_site_id
 _symmetry_equiv_pos_as_xyz
  1  'x, y, z'
loop_
 _atom_site_type_symbol
 _atom_site_label
 _atom_site_symmetry_multiplicity
 _atom_site_fract_x
 _atom_site_fract_y
 _atom_site_fract_z
 _atom_site_occupancy
  Ho  Ho0  1  0.002588  0.508963  0.800881  1
  Ho  Ho1  1  0.701707  0.208082  0.199119  1
  Ho  Ho2  1  0.515093  0.698098  0.500000  1
  Ho  Ho3  1  0.201347  0.007640  0.500000  1
  Ho  Ho4  1  0.991037  0.497412  0.199119  1
  Ho  Ho5  1  0.291918  0.798293  0.800881  1
  Ho  Ho6  1  0.492360  0.298653  0.500000  1
  Ho  Ho7  1  0.801902  0.984907  0.500000  1
  Tm  Tm8  1  0.998028  0.995699  0.993727  1
  Tm  Tm9  1  0.504301  0.501972  0.006273  1
  Hg  Hg10  1  0.640687  0.141032  0.781719  1
  Hg  Hg11  1  0.358968  0.859313  0.218281  1
  Hg  Hg12  1  0.140452  0.359548  0.500000  1
  Bi  Bi13  1  0.748512  0.751488  0.000000  1
  Bi  Bi14  1  0.248512  0.251488  0.000000  1
  Au  Au15  1  0.862588  0.637412  0.500000  1
