# generated using pymatgen
data_Zr3PaRh2
_symmetry_space_group_name_H-M   'P 1'
_cell_length_a   5.68450392
_cell_length_b   5.68450351
_cell_length_c   5.28779381
_cell_angle_alpha   104.94857211
_cell_angle_beta   104.94857082
_cell_angle_gamma   121.33895983
_symmetry_Int_Tables_number   1
_chemical_formula_structural   Zr3PaRh2
_chemical_formula_sum   'Zr3 Pa1 Rh2'
_cell_volume   124.06485454
_cell_formula_units_Z   1
loop_
 _symmetry_equiv_pos_site_id
 _symmetry_equiv_pos_as_xyz
  1  'x, y, z'
loop_
 _atom_site_type_symbol
 _atom_site_label
 _atom_site_symmetry_multiplicity
 _atom_site_fract_x
 _atom_site_fract_y
 _atom_site_fract_z
 _atom_site_occupancy
  Zr  Zr0  1  0.860991  0.639009  0.500000  1
  Zr  Zr1  1  0.329403  0.842531  0.171933  1
  Zr  Zr2  1  0.657469  0.170597  0.828067  1
  Pa  Pa3  1  0.174964  0.325036  0.500000  1
  Rh  Rh4  1  0.738587  0.761413  0.000000  1
  Rh  Rh5  1  0.238587  0.261413  0.000000  1
