# generated using pymatgen
data_K2Cd3Cl8
_symmetry_space_group_name_H-M   'P 1'
_cell_length_a   8.54266215
_cell_length_b   8.54266119
_cell_length_c   8.54266102
_cell_angle_alpha   55.65020826
_cell_angle_beta   55.65020839
_cell_angle_gamma   55.65021383
_symmetry_Int_Tables_number   1
_chemical_formula_structural   K2Cd3Cl8
_chemical_formula_sum   'K2 Cd3 Cl8'
_cell_volume   396.33168481
_cell_formula_units_Z   1
loop_
 _symmetry_equiv_pos_site_id
 _symmetry_equiv_pos_as_xyz
  1  'x, y, z'
loop_
 _atom_site_type_symbol
 _atom_site_label
 _atom_site_symmetry_multiplicity
 _atom_site_fract_x
 _atom_site_fract_y
 _atom_site_fract_z
 _atom_site_occupancy
  K  K0  1  0.157272  0.157272  0.157272  1
  K  K1  1  0.842728  0.842728  0.842728  1
  Cd  Cd2  1  0.500000  0.500000  0.000000  1
  Cd  Cd3  1  0.000000  0.500000  0.500000  1
  Cd  Cd4  1  0.500000  0.000000  0.500000  1
  Cl  Cl5  1  0.576368  0.110055  0.110055  1
  Cl  Cl6  1  0.110055  0.110055  0.576368  1
  Cl  Cl7  1  0.598169  0.598169  0.598169  1
  Cl  Cl8  1  0.401831  0.401831  0.401831  1
  Cl  Cl9  1  0.889945  0.889945  0.423632  1
  Cl  Cl10  1  0.423632  0.889945  0.889945  1
  Cl  Cl11  1  0.889945  0.423632  0.889945  1
  Cl  Cl12  1  0.110055  0.576368  0.110055  1
