# generated using pymatgen
data_Gd4Lu2Si3Ge
_symmetry_space_group_name_H-M   'P 1'
_cell_length_a   7.34915700
_cell_length_b   7.34915671
_cell_length_c   4.31048100
_cell_angle_alpha   90.00000000
_cell_angle_beta   90.00000000
_cell_angle_gamma   90.39506973
_symmetry_Int_Tables_number   1
_chemical_formula_structural   Gd4Lu2Si3Ge
_chemical_formula_sum   'Gd4 Lu2 Si3 Ge1'
_cell_volume   232.80400325
_cell_formula_units_Z   1
loop_
 _symmetry_equiv_pos_site_id
 _symmetry_equiv_pos_as_xyz
  1  'x, y, z'
loop_
 _atom_site_type_symbol
 _atom_site_label
 _atom_site_symmetry_multiplicity
 _atom_site_fract_x
 _atom_site_fract_y
 _atom_site_fract_z
 _atom_site_occupancy
  Gd  Gd0  1  0.678808  0.175463  0.500000  1
  Gd  Gd1  1  0.324537  0.821192  0.500000  1
  Gd  Gd2  1  0.174562  0.325438  0.500000  1
  Gd  Gd3  1  0.823484  0.676516  0.500000  1
  Lu  Lu4  1  0.501026  0.502326  0.000000  1
  Lu  Lu5  1  0.997674  0.998974  0.000000  1
  Si  Si6  1  0.117230  0.616524  0.000000  1
  Si  Si7  1  0.883476  0.382770  0.000000  1
  Si  Si8  1  0.619847  0.880153  0.000000  1
  Ge  Ge9  1  0.379353  0.120647  0.000000  1
