# generated using pymatgen
data_ErTl3Pd3PtF28
_symmetry_space_group_name_H-M   'P 1'
_cell_length_a   5.43874660
_cell_length_b   8.79202379
_cell_length_c   11.95771073
_cell_angle_alpha   62.65362325
_cell_angle_beta   90.12631868
_cell_angle_gamma   90.03277903
_symmetry_Int_Tables_number   1
_chemical_formula_structural   ErTl3Pd3PtF28
_chemical_formula_sum   'Er1 Tl3 Pd3 Pt1 F28'
_cell_volume   507.88773695
_cell_formula_units_Z   1
loop_
 _symmetry_equiv_pos_site_id
 _symmetry_equiv_pos_as_xyz
  1  'x, y, z'
loop_
 _atom_site_type_symbol
 _atom_site_label
 _atom_site_symmetry_multiplicity
 _atom_site_fract_x
 _atom_site_fract_y
 _atom_site_fract_z
 _atom_site_occupancy
  Er  Er0  1  0.737684  0.813671  0.263931  1
  Tl  Tl1  1  0.764405  0.812731  0.762645  1
  Tl  Tl2  1  0.263300  0.185722  0.738207  1
  Tl  Tl3  1  0.234478  0.186474  0.235443  1
  Pd  Pd4  1  0.760921  0.273942  0.956439  1
  Pd  Pd5  1  0.260746  0.726124  0.543813  1
  Pd  Pd6  1  0.238701  0.725215  0.044552  1
  Pt  Pt7  1  0.738376  0.272899  0.456028  1
  F  F8  1  0.427401  0.692189  0.920233  1
  F  F9  1  0.918230  0.303880  0.585744  1
  F  F10  1  0.579152  0.308110  0.082364  1
  F  F11  1  0.071305  0.703686  0.413729  1
  F  F12  1  0.421948  0.274261  0.534995  1
  F  F13  1  0.929491  0.721012  0.962714  1
  F  F14  1  0.567914  0.730139  0.457295  1
  F  F15  1  0.075331  0.278830  0.034182  1
  F  F16  1  0.791808  0.522590  0.853647  1
  F  F17  1  0.297793  0.475440  0.640457  1
  F  F18  1  0.206362  0.475849  0.147386  1
  F  F19  1  0.719508  0.524242  0.359684  1
  F  F20  1  0.752120  0.025692  0.050672  1
  F  F21  1  0.248428  0.974212  0.456456  1
  F  F22  1  0.249647  0.972880  0.954714  1
  F  F23  1  0.745711  0.022896  0.544039  1
  F  F24  1  0.954402  0.713584  0.631833  1
  F  F25  1  0.450397  0.280663  0.871641  1
  F  F26  1  0.051922  0.281259  0.371633  1
  F  F27  1  0.537515  0.721156  0.136620  1
  F  F28  1  0.052426  0.747115  0.176811  1
  F  F29  1  0.569497  0.260094  0.313901  1
  F  F30  1  0.932179  0.255114  0.818255  1
  F  F31  1  0.435293  0.736906  0.684200  1
  F  F32  1  0.404279  0.967738  0.228215  1
  F  F33  1  0.899874  0.034099  0.269732  1
  F  F34  1  0.605743  0.035231  0.771951  1
  F  F35  1  0.105711  0.964359  0.725838  1
