# generated using pymatgen
data_SrHf(SiO3)3
_symmetry_space_group_name_H-M   'P 1'
_cell_length_a   6.68010200
_cell_length_b   6.68010147
_cell_length_c   10.11404300
_cell_angle_alpha   90.00000000
_cell_angle_beta   90.00000000
_cell_angle_gamma   119.99999271
_symmetry_Int_Tables_number   1
_chemical_formula_structural   SrHf(SiO3)3
_chemical_formula_sum   'Sr2 Hf2 Si6 O18'
_cell_volume   390.86034655
_cell_formula_units_Z   2
loop_
 _symmetry_equiv_pos_site_id
 _symmetry_equiv_pos_as_xyz
  1  'x, y, z'
loop_
 _atom_site_type_symbol
 _atom_site_label
 _atom_site_symmetry_multiplicity
 _atom_site_fract_x
 _atom_site_fract_y
 _atom_site_fract_z
 _atom_site_occupancy
  Sr  Sr0  1  0.000000  0.000000  0.000000  1
  Sr  Sr1  1  0.000000  0.000000  0.500000  1
  Hf  Hf2  1  0.666667  0.333333  0.000000  1
  Hf  Hf3  1  0.666667  0.333333  0.500000  1
  Si  Si4  1  0.382402  0.434041  0.250000  1
  Si  Si5  1  0.565959  0.948360  0.250000  1
  Si  Si6  1  0.382402  0.948360  0.750000  1
  Si  Si7  1  0.051640  0.617598  0.250000  1
  Si  Si8  1  0.565959  0.617598  0.750000  1
  Si  Si9  1  0.051640  0.434041  0.750000  1
  O  O10  1  0.911840  0.604470  0.115249  1
  O  O11  1  0.395530  0.307370  0.115249  1
  O  O12  1  0.911840  0.604470  0.384751  1
  O  O13  1  0.911840  0.307370  0.615249  1
  O  O14  1  0.692630  0.088160  0.115249  1
  O  O15  1  0.395530  0.307370  0.384751  1
  O  O16  1  0.395530  0.088160  0.615249  1
  O  O17  1  0.911840  0.307370  0.884751  1
  O  O18  1  0.692630  0.088160  0.384751  1
  O  O19  1  0.395530  0.088160  0.884751  1
  O  O20  1  0.692630  0.604470  0.615249  1
  O  O21  1  0.692630  0.604470  0.884751  1
  O  O22  1  0.127927  0.417988  0.250000  1
  O  O23  1  0.582012  0.709939  0.250000  1
  O  O24  1  0.127927  0.709939  0.750000  1
  O  O25  1  0.290061  0.872073  0.250000  1
  O  O26  1  0.582012  0.872073  0.750000  1
  O  O27  1  0.290061  0.417988  0.750000  1
