# generated using pymatgen
data_Y4TiV3F28
_symmetry_space_group_name_H-M   'P 1'
_cell_length_a   5.56157173
_cell_length_b   8.89381149
_cell_length_c   11.88473500
_cell_angle_alpha   62.85201421
_cell_angle_beta   89.88233982
_cell_angle_gamma   89.91099025
_symmetry_Int_Tables_number   1
_chemical_formula_structural   Y4TiV3F28
_chemical_formula_sum   'Y4 Ti1 V3 F28'
_cell_volume   523.09607568
_cell_formula_units_Z   1
loop_
 _symmetry_equiv_pos_site_id
 _symmetry_equiv_pos_as_xyz
  1  'x, y, z'
loop_
 _atom_site_type_symbol
 _atom_site_label
 _atom_site_symmetry_multiplicity
 _atom_site_fract_x
 _atom_site_fract_y
 _atom_site_fract_z
 _atom_site_occupancy
  Y  Y0  1  0.258130  0.809664  0.271292  1
  Y  Y1  1  0.741889  0.188545  0.731864  1
  Y  Y2  1  0.757800  0.194324  0.229763  1
  Y  Y3  1  0.241839  0.806927  0.768565  1
  Ti  Ti4  1  0.755572  0.726330  0.045521  1
  V  V5  1  0.244456  0.273636  0.953852  1
  V  V6  1  0.253435  0.274473  0.454935  1
  V  V7  1  0.745952  0.725669  0.545458  1
  F  F8  1  0.953589  0.707183  0.425461  1
  F  F9  1  0.043889  0.292643  0.574177  1
  F  F10  1  0.455439  0.292968  0.071679  1
  F  F11  1  0.549549  0.704604  0.928310  1
  F  F12  1  0.488718  0.734263  0.142511  1
  F  F13  1  0.508835  0.268879  0.854197  1
  F  F14  1  0.985117  0.266220  0.359176  1
  F  F15  1  0.015963  0.733586  0.640821  1
  F  F16  1  0.961025  0.748039  0.166771  1
  F  F17  1  0.035309  0.255496  0.832568  1
  F  F18  1  0.460227  0.253924  0.332993  1
  F  F19  1  0.540274  0.745760  0.668122  1
  F  F20  1  0.767172  0.488526  0.140572  1
  F  F21  1  0.234602  0.507136  0.861198  1
  F  F22  1  0.263190  0.506667  0.361488  1
  F  F23  1  0.737130  0.494224  0.638166  1
  F  F24  1  0.969324  0.286127  0.046251  1
  F  F25  1  0.035992  0.714192  0.956303  1
  F  F26  1  0.468017  0.713323  0.454430  1
  F  F27  1  0.529151  0.286496  0.547307  1
  F  F28  1  0.740600  0.955122  0.454496  1
  F  F29  1  0.257979  0.044506  0.545743  1
  F  F30  1  0.240439  0.043842  0.045982  1
  F  F31  1  0.757570  0.961179  0.949779  1
  F  F32  1  0.574873  0.975257  0.232094  1
  F  F33  1  0.425687  0.021818  0.767524  1
  F  F34  1  0.075346  0.026548  0.268681  1
  F  F35  1  0.925922  0.971902  0.731947  1
