# generated using pymatgen
data_Nd3Th(B10Pt)2
_symmetry_space_group_name_H-M   'P 1'
_cell_length_a   4.22367700
_cell_length_b   5.75931606
_cell_length_c   11.49110112
_cell_angle_alpha   90.01630989
_cell_angle_beta   90.00000000
_cell_angle_gamma   90.00000000
_symmetry_Int_Tables_number   1
_chemical_formula_structural   Nd3Th(B10Pt)2
_chemical_formula_sum   'Nd3 Th1 B20 Pt2'
_cell_volume   279.52666283
_cell_formula_units_Z   1
loop_
 _symmetry_equiv_pos_site_id
 _symmetry_equiv_pos_as_xyz
  1  'x, y, z'
loop_
 _atom_site_type_symbol
 _atom_site_label
 _atom_site_symmetry_multiplicity
 _atom_site_fract_x
 _atom_site_fract_y
 _atom_site_fract_z
 _atom_site_occupancy
  Nd  Nd0  1  0.500000  0.307747  0.860884  1
  Nd  Nd1  1  0.500000  0.692278  0.139136  1
  Nd  Nd2  1  0.500000  0.808117  0.639804  1
  Th  Th3  1  0.500000  0.192182  0.360762  1
  B  B4  1  0.000000  0.117393  0.543866  1
  B  B5  1  0.000000  0.884123  0.455591  1
  B  B6  1  0.000000  0.617004  0.955740  1
  B  B7  1  0.000000  0.382710  0.044278  1
  B  B8  1  0.000000  0.140808  0.697694  1
  B  B9  1  0.000000  0.860728  0.302402  1
  B  B10  1  0.301799  0.218037  0.119959  1
  B  B11  1  0.301994  0.782040  0.880021  1
  B  B12  1  0.697595  0.717148  0.379591  1
  B  B13  1  0.697390  0.281974  0.619942  1
  B  B14  1  0.698006  0.782040  0.880021  1
  B  B15  1  0.698201  0.218037  0.119959  1
  B  B16  1  0.302610  0.281974  0.619942  1
  B  B17  1  0.302405  0.717148  0.379591  1
  B  B18  1  0.000000  0.053662  0.193938  1
  B  B19  1  0.000000  0.946479  0.806408  1
  B  B20  1  0.000000  0.552657  0.306596  1
  B  B21  1  0.000000  0.446554  0.693780  1
  B  B22  1  0.000000  0.359819  0.197978  1
  B  B23  1  0.000000  0.640463  0.802465  1
  Pt  Pt24  1  0.000000  0.498732  0.499804  1
  Pt  Pt25  1  0.000000  0.000146  0.999847  1
