# generated using pymatgen
data_Li6Nb5InRh12
_symmetry_space_group_name_H-M   'P 1'
_cell_length_a   4.39700200
_cell_length_b   6.12747800
_cell_length_c   13.11185500
_cell_angle_alpha   90.00003618
_cell_angle_beta   90.00062299
_cell_angle_gamma   89.99882453
_symmetry_Int_Tables_number   1
_chemical_formula_structural   Li6Nb5InRh12
_chemical_formula_sum   'Li6 Nb5 In1 Rh12'
_cell_volume   353.26658626
_cell_formula_units_Z   1
loop_
 _symmetry_equiv_pos_site_id
 _symmetry_equiv_pos_as_xyz
  1  'x, y, z'
loop_
 _atom_site_type_symbol
 _atom_site_label
 _atom_site_symmetry_multiplicity
 _atom_site_fract_x
 _atom_site_fract_y
 _atom_site_fract_z
 _atom_site_occupancy
  Li  Li0  1  0.999991  0.499996  0.999235  1
  Li  Li1  1  0.499816  0.000005  0.166198  1
  Li  Li2  1  0.999846  0.499995  0.333342  1
  Li  Li3  1  0.500006  0.000006  0.500488  1
  Li  Li4  1  0.000159  0.499996  0.667419  1
  Li  Li5  1  0.500161  0.000003  0.833322  1
  Nb  Nb6  1  0.000007  0.999997  0.998107  1
  Nb  Nb7  1  0.499836  0.500002  0.166289  1
  Nb  Nb8  1  0.999836  0.999996  0.333307  1
  Nb  Nb9  1  0.500004  0.500004  0.500345  1
  Nb  Nb10  1  0.000178  0.999996  0.668595  1
  In  In11  1  0.500136  0.500000  0.833317  1
  Rh  Rh12  1  0.499994  0.246662  0.003919  1
  Rh  Rh13  1  0.499989  0.753338  0.003919  1
  Rh  Rh14  1  0.999843  0.250752  0.167181  1
  Rh  Rh15  1  0.999855  0.749249  0.167182  1
  Rh  Rh16  1  0.499848  0.248566  0.333306  1
  Rh  Rh17  1  0.499837  0.751433  0.333307  1
  Rh  Rh18  1  0.000002  0.250759  0.499454  1
  Rh  Rh19  1  0.000013  0.749242  0.499455  1
  Rh  Rh20  1  0.500169  0.246694  0.662809  1
  Rh  Rh21  1  0.500162  0.753307  0.662807  1
  Rh  Rh22  1  0.000152  0.240270  0.833348  1
  Rh  Rh23  1  0.000160  0.759732  0.833349  1
