# generated using pymatgen
data_ErCu2NiPtAu
_symmetry_space_group_name_H-M   'P 1'
_cell_length_a   5.00001154
_cell_length_b   5.02682920
_cell_length_c   5.13231515
_cell_angle_alpha   61.44779628
_cell_angle_beta   60.84914847
_cell_angle_gamma   60.17631018
_symmetry_Int_Tables_number   1
_chemical_formula_structural   ErCu2NiPtAu
_chemical_formula_sum   'Er1 Cu2 Ni1 Pt1 Au1'
_cell_volume   92.88792640
_cell_formula_units_Z   1
loop_
 _symmetry_equiv_pos_site_id
 _symmetry_equiv_pos_as_xyz
  1  'x, y, z'
loop_
 _atom_site_type_symbol
 _atom_site_label
 _atom_site_symmetry_multiplicity
 _atom_site_fract_x
 _atom_site_fract_y
 _atom_site_fract_z
 _atom_site_occupancy
  Er  Er0  1  0.996756  0.003340  0.003148  1
  Cu  Cu1  1  0.129407  0.625617  0.617737  1
  Cu  Cu2  1  0.627239  0.625617  0.617737  1
  Ni  Ni3  1  0.627295  0.128013  0.617396  1
  Pt  Pt4  1  0.627846  0.626629  0.117679  1
  Au  Au5  1  0.241456  0.240783  0.276304  1
