# generated using pymatgen
data_LiY3Zn2Si2Au
_symmetry_space_group_name_H-M   'P 1'
_cell_length_a   4.25409700
_cell_length_b   6.98459155
_cell_length_c   6.99161978
_cell_angle_alpha   119.96675341
_cell_angle_beta   90.00000000
_cell_angle_gamma   90.00000000
_symmetry_Int_Tables_number   1
_chemical_formula_structural   LiY3Zn2Si2Au
_chemical_formula_sum   'Li1 Y3 Zn2 Si2 Au1'
_cell_volume   179.97087754
_cell_formula_units_Z   1
loop_
 _symmetry_equiv_pos_site_id
 _symmetry_equiv_pos_as_xyz
  1  'x, y, z'
loop_
 _atom_site_type_symbol
 _atom_site_label
 _atom_site_symmetry_multiplicity
 _atom_site_fract_x
 _atom_site_fract_y
 _atom_site_fract_z
 _atom_site_occupancy
  Li  Li0  1  0.500000  0.763481  0.000000  1
  Y  Y1  1  0.000000  0.419732  0.000000  1
  Y  Y2  1  0.000000  0.577599  0.581416  1
  Y  Y3  1  0.000000  0.996184  0.418584  1
  Zn  Zn4  1  0.500000  0.250347  0.252410  1
  Zn  Zn5  1  0.500000  0.997936  0.747590  1
  Si  Si6  1  0.500000  0.664769  0.335886  1
  Si  Si7  1  0.500000  0.328882  0.664114  1
  Au  Au8  1  0.000000  0.001167  0.000000  1
