# generated using pymatgen
data_YCd3(Ru2O7)2
_symmetry_space_group_name_H-M   'P 1'
_cell_length_a   7.21446255
_cell_length_b   7.21446242
_cell_length_c   7.29737619
_cell_angle_alpha   60.37514585
_cell_angle_beta   60.37515189
_cell_angle_gamma   60.00000110
_symmetry_Int_Tables_number   1
_chemical_formula_structural   YCd3(Ru2O7)2
_chemical_formula_sum   'Y1 Cd3 Ru4 O14'
_cell_volume   270.08419972
_cell_formula_units_Z   1
loop_
 _symmetry_equiv_pos_site_id
 _symmetry_equiv_pos_as_xyz
  1  'x, y, z'
loop_
 _atom_site_type_symbol
 _atom_site_label
 _atom_site_symmetry_multiplicity
 _atom_site_fract_x
 _atom_site_fract_y
 _atom_site_fract_z
 _atom_site_occupancy
  Y  Y0  1  0.125000  0.125000  0.625000  1
  Cd  Cd1  1  0.125000  0.625000  0.125000  1
  Cd  Cd2  1  0.625000  0.125000  0.125000  1
  Cd  Cd3  1  0.125000  0.125000  0.125000  1
  Ru  Ru4  1  0.625000  0.125000  0.625000  1
  Ru  Ru5  1  0.625000  0.625000  0.125000  1
  Ru  Ru6  1  0.125000  0.625000  0.625000  1
  Ru  Ru7  1  0.625000  0.625000  0.625000  1
  O  O8  1  0.693393  0.693393  0.308524  1
  O  O9  1  0.950457  0.543031  0.556054  1
  O  O10  1  0.556607  0.945310  0.941476  1
  O  O11  1  0.950457  0.950457  0.556054  1
  O  O12  1  0.945310  0.556607  0.941476  1
  O  O13  1  0.543031  0.950457  0.556054  1
  O  O14  1  0.304690  0.693393  0.308524  1
  O  O15  1  0.299543  0.706969  0.693946  1
  O  O16  1  0.693393  0.304690  0.308524  1
  O  O17  1  0.706969  0.299543  0.693946  1
  O  O18  1  0.556607  0.556607  0.941476  1
  O  O19  1  0.299543  0.299543  0.693946  1
  O  O20  1  0.250864  0.250864  0.247408  1
  O  O21  1  0.999136  0.999136  0.002592  1
