# generated using pymatgen
data_Hf2Zr11Sn3(Rh2N)4
_symmetry_space_group_name_H-M   'P 1'
_cell_length_a   8.74016294
_cell_length_b   8.74016215
_cell_length_c   8.76672477
_cell_angle_alpha   60.09068808
_cell_angle_beta   60.09069919
_cell_angle_gamma   59.88086867
_symmetry_Int_Tables_number   1
_chemical_formula_structural   Hf2Zr11Sn3(Rh2N)4
_chemical_formula_sum   'Hf2 Zr11 Sn3 Rh8 N4'
_cell_volume   473.76369651
_cell_formula_units_Z   1
loop_
 _symmetry_equiv_pos_site_id
 _symmetry_equiv_pos_as_xyz
  1  'x, y, z'
loop_
 _atom_site_type_symbol
 _atom_site_label
 _atom_site_symmetry_multiplicity
 _atom_site_fract_x
 _atom_site_fract_y
 _atom_site_fract_z
 _atom_site_occupancy
  Hf  Hf0  1  0.625229  0.625229  0.125260  1
  Hf  Hf1  1  0.814218  0.814218  0.187809  1
  Zr  Zr2  1  0.184985  0.184985  0.816724  1
  Zr  Zr3  1  0.813564  0.184579  0.816978  1
  Zr  Zr4  1  0.183846  0.813029  0.189893  1
  Zr  Zr5  1  0.184579  0.813564  0.816978  1
  Zr  Zr6  1  0.813029  0.183846  0.189893  1
  Zr  Zr7  1  0.436804  0.436804  0.060583  1
  Zr  Zr8  1  0.065253  0.065253  0.433032  1
  Zr  Zr9  1  0.437330  0.064213  0.433384  1
  Zr  Zr10  1  0.065136  0.437618  0.060144  1
  Zr  Zr11  1  0.064213  0.437330  0.433384  1
  Zr  Zr12  1  0.437618  0.065136  0.060144  1
  Sn  Sn13  1  0.124709  0.625390  0.624925  1
  Sn  Sn14  1  0.625390  0.124709  0.624925  1
  Sn  Sn15  1  0.625024  0.625024  0.624935  1
  Rh  Rh16  1  0.769358  0.416484  0.399459  1
  Rh  Rh17  1  0.416484  0.769358  0.399459  1
  Rh  Rh18  1  0.409278  0.409278  0.772881  1
  Rh  Rh19  1  0.415390  0.415390  0.399277  1
  Rh  Rh20  1  0.480709  0.834186  0.850317  1
  Rh  Rh21  1  0.834186  0.480709  0.850317  1
  Rh  Rh22  1  0.840358  0.840358  0.475341  1
  Rh  Rh23  1  0.834228  0.834228  0.852966  1
  N  N24  1  0.627649  0.121219  0.125622  1
  N  N25  1  0.121219  0.627649  0.125622  1
  N  N26  1  0.125113  0.125113  0.624759  1
  N  N27  1  0.125101  0.125101  0.124985  1
