# generated using pymatgen
data_Li8Np(PaBr8)3
_symmetry_space_group_name_H-M   'P 1'
_cell_length_a   6.97584900
_cell_length_b   6.97584886
_cell_length_c   28.11647800
_cell_angle_alpha   90.00000000
_cell_angle_beta   90.00000000
_cell_angle_gamma   120.00000539
_symmetry_Int_Tables_number   1
_chemical_formula_structural   Li8Np(PaBr8)3
_chemical_formula_sum   'Li8 Np1 Pa3 Br24'
_cell_volume   1184.91080585
_cell_formula_units_Z   1
loop_
 _symmetry_equiv_pos_site_id
 _symmetry_equiv_pos_as_xyz
  1  'x, y, z'
loop_
 _atom_site_type_symbol
 _atom_site_label
 _atom_site_symmetry_multiplicity
 _atom_site_fract_x
 _atom_site_fract_y
 _atom_site_fract_z
 _atom_site_occupancy
  Li  Li0  1  0.000000  0.000000  0.249954  1
  Li  Li1  1  0.000000  0.000000  0.750046  1
  Li  Li2  1  0.333333  0.666667  0.000334  1
  Li  Li3  1  0.333333  0.666667  0.499644  1
  Li  Li4  1  0.333333  0.666667  0.249891  1
  Li  Li5  1  0.666667  0.333333  0.750109  1
  Li  Li6  1  0.666667  0.333333  0.999666  1
  Li  Li7  1  0.666667  0.333333  0.500356  1
  Np  Np8  1  0.000000  0.000000  0.000000  1
  Pa  Pa9  1  0.000000  0.000000  0.500000  1
  Pa  Pa10  1  0.333333  0.666667  0.749692  1
  Pa  Pa11  1  0.666667  0.333333  0.250308  1
  Br  Br12  1  0.331652  0.997974  0.306305  1
  Br  Br13  1  0.333265  0.002755  0.804522  1
  Br  Br14  1  0.000066  0.334290  0.055094  1
  Br  Br15  1  0.999821  0.335998  0.555083  1
  Br  Br16  1  0.002026  0.333680  0.306305  1
  Br  Br17  1  0.997245  0.330508  0.804522  1
  Br  Br18  1  0.330508  0.333265  0.195478  1
  Br  Br19  1  0.333680  0.331652  0.693695  1
  Br  Br20  1  0.335998  0.336176  0.444917  1
  Br  Br21  1  0.334290  0.334223  0.944906  1
  Br  Br22  1  0.663824  0.999821  0.444917  1
  Br  Br23  1  0.334223  0.999934  0.055094  1
  Br  Br24  1  0.336176  0.000179  0.555083  1
  Br  Br25  1  0.665710  0.665777  0.055094  1
  Br  Br26  1  0.664002  0.663824  0.555083  1
  Br  Br27  1  0.666320  0.668348  0.306305  1
  Br  Br28  1  0.669492  0.666735  0.804522  1
  Br  Br29  1  0.002755  0.669492  0.195478  1
  Br  Br30  1  0.997974  0.666320  0.693695  1
  Br  Br31  1  0.000179  0.664002  0.444917  1
  Br  Br32  1  0.999934  0.665710  0.944906  1
  Br  Br33  1  0.665777  0.000066  0.944906  1
  Br  Br34  1  0.666735  0.997245  0.195478  1
  Br  Br35  1  0.668348  0.002026  0.693695  1
