# generated using pymatgen
data_LiMgTa(NbN2)3
_symmetry_space_group_name_H-M   'P 1'
_cell_length_a   5.25605000
_cell_length_b   5.25605065
_cell_length_c   10.40854100
_cell_angle_alpha   90.00000000
_cell_angle_beta   90.00000000
_cell_angle_gamma   120.00000848
_symmetry_Int_Tables_number   1
_chemical_formula_structural   LiMgTa(NbN2)3
_chemical_formula_sum   'Li2 Mg2 Ta2 Nb6 N12'
_cell_volume   249.02301198
_cell_formula_units_Z   2
loop_
 _symmetry_equiv_pos_site_id
 _symmetry_equiv_pos_as_xyz
  1  'x, y, z'
loop_
 _atom_site_type_symbol
 _atom_site_label
 _atom_site_symmetry_multiplicity
 _atom_site_fract_x
 _atom_site_fract_y
 _atom_site_fract_z
 _atom_site_occupancy
  Li  Li0  1  0.333333  0.666667  0.000000  1
  Li  Li1  1  0.333333  0.666667  0.500000  1
  Mg  Mg2  1  0.666667  0.333333  0.500000  1
  Mg  Mg3  1  0.666667  0.333333  0.000000  1
  Ta  Ta4  1  0.000000  0.000000  0.500000  1
  Ta  Ta5  1  0.000000  0.000000  0.000000  1
  Nb  Nb6  1  0.003510  0.344435  0.250000  1
  Nb  Nb7  1  0.655565  0.996490  0.750000  1
  Nb  Nb8  1  0.340925  0.344435  0.750000  1
  Nb  Nb9  1  0.655565  0.659075  0.250000  1
  Nb  Nb10  1  0.340925  0.996490  0.250000  1
  Nb  Nb11  1  0.003510  0.659075  0.750000  1
  N  N12  1  0.676074  0.673839  0.621428  1
  N  N13  1  0.676074  0.673839  0.878572  1
  N  N14  1  0.326161  0.323926  0.121428  1
  N  N15  1  0.326161  0.323926  0.378572  1
  N  N16  1  0.326161  0.002235  0.878572  1
  N  N17  1  0.326161  0.002235  0.621428  1
  N  N18  1  0.997765  0.673839  0.378572  1
  N  N19  1  0.997765  0.673839  0.121428  1
  N  N20  1  0.676074  0.002235  0.121428  1
  N  N21  1  0.676074  0.002235  0.378572  1
  N  N22  1  0.997765  0.323926  0.878572  1
  N  N23  1  0.997765  0.323926  0.621428  1
