# generated using pymatgen
data_CaSn6Ru3Rh
_symmetry_space_group_name_H-M   'P 1'
_cell_length_a   6.98838430
_cell_length_b   6.97606972
_cell_length_c   6.97133256
_cell_angle_alpha   120.26411924
_cell_angle_beta   120.32229303
_cell_angle_gamma   89.58309813
_symmetry_Int_Tables_number   1
_chemical_formula_structural   CaSn6Ru3Rh
_chemical_formula_sum   'Ca1 Sn6 Ru3 Rh1'
_cell_volume   239.05655862
_cell_formula_units_Z   1
loop_
 _symmetry_equiv_pos_site_id
 _symmetry_equiv_pos_as_xyz
  1  'x, y, z'
loop_
 _atom_site_type_symbol
 _atom_site_label
 _atom_site_symmetry_multiplicity
 _atom_site_fract_x
 _atom_site_fract_y
 _atom_site_fract_z
 _atom_site_occupancy
  Ca  Ca0  1  0.998339  0.002787  0.000000  1
  Sn  Sn1  1  0.879165  0.533102  0.000000  1
  Sn  Sn2  1  0.535352  0.882249  0.000000  1
  Sn  Sn3  1  0.118935  0.113342  0.646266  1
  Sn  Sn4  1  0.001929  0.499648  0.497298  1
  Sn  Sn5  1  0.472670  0.467077  0.353734  1
  Sn  Sn6  1  0.504632  0.002350  0.502702  1
  Ru  Ru7  1  0.406162  0.407713  0.659140  1
  Ru  Ru8  1  0.590089  0.251109  0.000000  1
  Ru  Ru9  1  0.747022  0.748573  0.340860  1
  Rh  Rh10  1  0.245705  0.592048  0.000000  1
