# generated using pymatgen
data_Ca2(SbPd3)3
_symmetry_space_group_name_H-M   'P 1'
_cell_length_a   8.06110591
_cell_length_b   8.06110625
_cell_length_c   9.38158300
_cell_angle_alpha   90.00000000
_cell_angle_beta   90.00000000
_cell_angle_gamma   119.86053070
_symmetry_Int_Tables_number   1
_chemical_formula_structural   Ca2(SbPd3)3
_chemical_formula_sum   'Ca4 Sb6 Pd18'
_cell_volume   528.69434690
_cell_formula_units_Z   2
loop_
 _symmetry_equiv_pos_site_id
 _symmetry_equiv_pos_as_xyz
  1  'x, y, z'
loop_
 _atom_site_type_symbol
 _atom_site_label
 _atom_site_symmetry_multiplicity
 _atom_site_fract_x
 _atom_site_fract_y
 _atom_site_fract_z
 _atom_site_occupancy
  Ca  Ca0  1  0.326265  0.016196  0.750000  1
  Ca  Ca1  1  0.673735  0.983804  0.250000  1
  Ca  Ca2  1  0.016196  0.326265  0.750000  1
  Ca  Ca3  1  0.983804  0.673735  0.250000  1
  Sb  Sb4  1  0.000000  0.000000  0.500000  1
  Sb  Sb5  1  0.677139  0.322861  0.000000  1
  Sb  Sb6  1  0.322861  0.677139  0.500000  1
  Sb  Sb7  1  0.322861  0.677139  0.000000  1
  Sb  Sb8  1  0.000000  0.000000  0.000000  1
  Sb  Sb9  1  0.677139  0.322861  0.500000  1
  Pd  Pd10  1  0.331996  0.331996  0.967418  1
  Pd  Pd11  1  0.447226  0.645357  0.750000  1
  Pd  Pd12  1  0.552774  0.354643  0.250000  1
  Pd  Pd13  1  0.645357  0.447226  0.750000  1
  Pd  Pd14  1  0.999517  0.339363  0.082155  1
  Pd  Pd15  1  0.000483  0.660637  0.582155  1
  Pd  Pd16  1  0.339363  0.999517  0.417845  1
  Pd  Pd17  1  0.660637  0.000483  0.917845  1
  Pd  Pd18  1  0.000483  0.660637  0.917845  1
  Pd  Pd19  1  0.999517  0.339363  0.417845  1
  Pd  Pd20  1  0.660637  0.000483  0.582155  1
  Pd  Pd21  1  0.859784  0.859784  0.750000  1
  Pd  Pd22  1  0.331996  0.331996  0.532582  1
  Pd  Pd23  1  0.668004  0.668004  0.032582  1
  Pd  Pd24  1  0.339363  0.999517  0.082155  1
  Pd  Pd25  1  0.668004  0.668004  0.467418  1
  Pd  Pd26  1  0.140216  0.140216  0.250000  1
  Pd  Pd27  1  0.354643  0.552774  0.250000  1
