# generated using pymatgen
data_Hf6Ga6NiRh5
_symmetry_space_group_name_H-M   'P 1'
_cell_length_a   7.16008900
_cell_length_b   7.16008841
_cell_length_c   6.79152100
_cell_angle_alpha   90.00000000
_cell_angle_beta   90.00000000
_cell_angle_gamma   120.00000734
_symmetry_Int_Tables_number   1
_chemical_formula_structural   Hf6Ga6NiRh5
_chemical_formula_sum   'Hf6 Ga6 Ni1 Rh5'
_cell_volume   301.53272541
_cell_formula_units_Z   1
loop_
 _symmetry_equiv_pos_site_id
 _symmetry_equiv_pos_as_xyz
  1  'x, y, z'
loop_
 _atom_site_type_symbol
 _atom_site_label
 _atom_site_symmetry_multiplicity
 _atom_site_fract_x
 _atom_site_fract_y
 _atom_site_fract_z
 _atom_site_occupancy
  Hf  Hf0  1  0.602961  0.599290  0.250000  1
  Hf  Hf1  1  0.003799  0.399279  0.750000  1
  Hf  Hf2  1  0.400710  0.003670  0.250000  1
  Hf  Hf3  1  0.996330  0.397039  0.250000  1
  Hf  Hf4  1  0.395481  0.996201  0.750000  1
  Hf  Hf5  1  0.600721  0.604519  0.750000  1
  Ga  Ga6  1  0.263612  0.263407  0.507395  1
  Ga  Ga7  1  0.736593  0.000205  0.507395  1
  Ga  Ga8  1  0.999795  0.736388  0.507395  1
  Ga  Ga9  1  0.736593  0.000205  0.992605  1
  Ga  Ga10  1  0.263612  0.263407  0.992605  1
  Ga  Ga11  1  0.999795  0.736388  0.992605  1
  Ni  Ni12  1  0.000000  0.000000  0.750000  1
  Rh  Rh13  1  0.333333  0.666667  0.495994  1
  Rh  Rh14  1  0.000000  0.000000  0.250000  1
  Rh  Rh15  1  0.333333  0.666667  0.004006  1
  Rh  Rh16  1  0.666667  0.333333  0.506192  1
  Rh  Rh17  1  0.666667  0.333333  0.993808  1
