# generated using pymatgen
data_Pr8Be4Si11Pt
_symmetry_space_group_name_H-M   'P 1'
_cell_length_a   8.00109602
_cell_length_b   8.00109643
_cell_length_c   8.68762700
_cell_angle_alpha   89.99585379
_cell_angle_beta   90.00414621
_cell_angle_gamma   119.89401592
_symmetry_Int_Tables_number   1
_chemical_formula_structural   Pr8Be4Si11Pt
_chemical_formula_sum   'Pr8 Be4 Si11 Pt1'
_cell_volume   482.16269427
_cell_formula_units_Z   1
loop_
 _symmetry_equiv_pos_site_id
 _symmetry_equiv_pos_as_xyz
  1  'x, y, z'
loop_
 _atom_site_type_symbol
 _atom_site_label
 _atom_site_symmetry_multiplicity
 _atom_site_fract_x
 _atom_site_fract_y
 _atom_site_fract_z
 _atom_site_occupancy
  Pr  Pr0  1  0.499028  0.500972  0.750961  1
  Pr  Pr1  1  0.499131  0.500869  0.249050  1
  Pr  Pr2  1  0.999722  0.500316  0.749614  1
  Pr  Pr3  1  0.999513  0.500228  0.250375  1
  Pr  Pr4  1  0.499684  0.000278  0.749614  1
  Pr  Pr5  1  0.499772  0.000487  0.250375  1
  Pr  Pr6  1  0.000622  0.999378  0.747603  1
  Pr  Pr7  1  0.000609  0.999391  0.252405  1
  Be  Be8  1  0.667414  0.332586  0.998974  1
  Be  Be9  1  0.336858  0.663142  0.000904  1
  Be  Be10  1  0.334034  0.665966  0.498854  1
  Be  Be11  1  0.666755  0.333245  0.501131  1
  Si  Si12  1  0.172116  0.827884  0.000002  1
  Si  Si13  1  0.345431  0.176521  0.000002  1
  Si  Si14  1  0.172199  0.827801  0.500070  1
  Si  Si15  1  0.657026  0.830672  0.000062  1
  Si  Si16  1  0.827879  0.172121  0.499842  1
  Si  Si17  1  0.823479  0.654569  0.000002  1
  Si  Si18  1  0.655649  0.827814  0.500146  1
  Si  Si19  1  0.169328  0.342974  0.000062  1
  Si  Si20  1  0.344632  0.173049  0.499891  1
  Si  Si21  1  0.172186  0.344351  0.500146  1
  Si  Si22  1  0.826951  0.655368  0.499891  1
  Pt  Pt23  1  0.829981  0.170019  0.000027  1
