# generated using pymatgen
data_PrLu11Tc4
_symmetry_space_group_name_H-M   'P 1'
_cell_length_a   6.16007830
_cell_length_b   7.42329056
_cell_length_c   8.91767300
_cell_angle_alpha   90.00000000
_cell_angle_beta   90.00000000
_cell_angle_gamma   90.21919567
_symmetry_Int_Tables_number   1
_chemical_formula_structural   PrLu11Tc4
_chemical_formula_sum   'Pr1 Lu11 Tc4'
_cell_volume   407.78482238
_cell_formula_units_Z   1
loop_
 _symmetry_equiv_pos_site_id
 _symmetry_equiv_pos_as_xyz
  1  'x, y, z'
loop_
 _atom_site_type_symbol
 _atom_site_label
 _atom_site_symmetry_multiplicity
 _atom_site_fract_x
 _atom_site_fract_y
 _atom_site_fract_z
 _atom_site_occupancy
  Pr  Pr0  1  0.377640  0.960746  0.750000  1
  Lu  Lu1  1  0.347102  0.671388  0.064326  1
  Lu  Lu2  1  0.151430  0.177521  0.434994  1
  Lu  Lu3  1  0.655066  0.325828  0.560935  1
  Lu  Lu4  1  0.848867  0.824553  0.939800  1
  Lu  Lu5  1  0.655066  0.325828  0.939065  1
  Lu  Lu6  1  0.848867  0.824553  0.560200  1
  Lu  Lu7  1  0.347102  0.671388  0.435674  1
  Lu  Lu8  1  0.151430  0.177521  0.065006  1
  Lu  Lu9  1  0.872185  0.541961  0.250000  1
  Lu  Lu10  1  0.624673  0.038803  0.250000  1
  Lu  Lu11  1  0.124254  0.460309  0.750000  1
  Tc  Tc12  1  0.044628  0.882419  0.250000  1
  Tc  Tc13  1  0.456218  0.381762  0.250000  1
  Tc  Tc14  1  0.950449  0.120323  0.750000  1
  Tc  Tc15  1  0.545020  0.615101  0.750000  1
