# generated using pymatgen
data_YPa(NbN3)2
_symmetry_space_group_name_H-M   'P 1'
_cell_length_a   5.54764800
_cell_length_b   5.78421600
_cell_length_c   7.96685700
_cell_angle_alpha   90.00000000
_cell_angle_beta   90.00000000
_cell_angle_gamma   90.00000000
_symmetry_Int_Tables_number   1
_chemical_formula_structural   YPa(NbN3)2
_chemical_formula_sum   'Y2 Pa2 Nb4 N12'
_cell_volume   255.64683568
_cell_formula_units_Z   2
loop_
 _symmetry_equiv_pos_site_id
 _symmetry_equiv_pos_as_xyz
  1  'x, y, z'
loop_
 _atom_site_type_symbol
 _atom_site_label
 _atom_site_symmetry_multiplicity
 _atom_site_fract_x
 _atom_site_fract_y
 _atom_site_fract_z
 _atom_site_occupancy
  Y  Y0  1  0.511150  0.553057  0.750000  1
  Y  Y1  1  0.988850  0.053057  0.750000  1
  Pa  Pa2  1  0.485727  0.430449  0.250000  1
  Pa  Pa3  1  0.014273  0.930449  0.250000  1
  Nb  Nb4  1  0.507421  0.985112  0.505856  1
  Nb  Nb5  1  0.992579  0.485112  0.994144  1
  Nb  Nb6  1  0.992579  0.485112  0.505856  1
  Nb  Nb7  1  0.507421  0.985112  0.994144  1
  N  N8  1  0.690561  0.311542  0.547604  1
  N  N9  1  0.305646  0.701606  0.073015  1
  N  N10  1  0.194354  0.201606  0.073015  1
  N  N11  1  0.394567  0.963941  0.750000  1
  N  N12  1  0.872843  0.556033  0.250000  1
  N  N13  1  0.305646  0.701606  0.426985  1
  N  N14  1  0.809439  0.811542  0.952396  1
  N  N15  1  0.690561  0.311542  0.952396  1
  N  N16  1  0.809439  0.811542  0.547604  1
  N  N17  1  0.105433  0.463941  0.750000  1
  N  N18  1  0.194354  0.201606  0.426985  1
  N  N19  1  0.627157  0.056033  0.250000  1
