# generated using pymatgen
data_Pr8YHo11Ga5Si11
_symmetry_space_group_name_H-M   'P 1'
_cell_length_a   7.56145719
_cell_length_b   7.85961287
_cell_length_c   15.00957004
_cell_angle_alpha   89.99141614
_cell_angle_beta   90.10147117
_cell_angle_gamma   90.05566656
_symmetry_Int_Tables_number   1
_chemical_formula_structural   Pr8YHo11Ga5Si11
_chemical_formula_sum   'Pr8 Y1 Ho11 Ga5 Si11'
_cell_volume   892.01881317
_cell_formula_units_Z   1
loop_
 _symmetry_equiv_pos_site_id
 _symmetry_equiv_pos_as_xyz
  1  'x, y, z'
loop_
 _atom_site_type_symbol
 _atom_site_label
 _atom_site_symmetry_multiplicity
 _atom_site_fract_x
 _atom_site_fract_y
 _atom_site_fract_z
 _atom_site_occupancy
  Pr  Pr0  1  0.019983  0.177287  0.400159  1
  Pr  Pr1  1  0.519803  0.323011  0.400347  1
  Pr  Pr2  1  0.483005  0.678843  0.898950  1
  Pr  Pr3  1  0.480842  0.681350  0.600005  1
  Pr  Pr4  1  0.980795  0.819639  0.599827  1
  Pr  Pr5  1  0.980828  0.825971  0.899342  1
  Pr  Pr6  1  0.518329  0.320460  0.101267  1
  Pr  Pr7  1  0.018186  0.178866  0.101633  1
  Y  Y8  1  0.159006  0.505213  0.750511  1
  Ho  Ho9  1  0.325278  0.172913  0.623797  1
  Ho  Ho10  1  0.675442  0.821353  0.376082  1
  Ho  Ho11  1  0.661151  0.992878  0.751566  1
  Ho  Ho12  1  0.174536  0.678405  0.375952  1
  Ho  Ho13  1  0.822976  0.323495  0.876147  1
  Ho  Ho14  1  0.823948  0.325626  0.623519  1
  Ho  Ho15  1  0.839576  0.492871  0.250501  1
  Ho  Ho16  1  0.340787  0.005838  0.251580  1
  Ho  Ho17  1  0.327397  0.175699  0.874337  1
  Ho  Ho18  1  0.173571  0.673463  0.125539  1
  Ho  Ho19  1  0.673398  0.826248  0.124504  1
  Ga  Ga20  1  0.153689  0.463437  0.537884  1
  Ga  Ga21  1  0.844869  0.536646  0.038829  1
  Ga  Ga22  1  0.344761  0.962878  0.037568  1
  Ga  Ga23  1  0.153893  0.464566  0.960130  1
  Ga  Ga24  1  0.654052  0.036622  0.537763  1
  Si  Si25  1  0.277006  0.879265  0.749496  1
  Si  Si26  1  0.468298  0.613325  0.251322  1
  Si  Si27  1  0.030605  0.113145  0.749186  1
  Si  Si28  1  0.531802  0.388134  0.749159  1
  Si  Si29  1  0.968617  0.887972  0.250690  1
  Si  Si30  1  0.722662  0.120412  0.251254  1
  Si  Si31  1  0.351404  0.966381  0.460041  1
  Si  Si32  1  0.851239  0.533529  0.460069  1
  Si  Si33  1  0.776633  0.621185  0.749211  1
  Si  Si34  1  0.222844  0.378924  0.251296  1
  Si  Si35  1  0.648784  0.034155  0.960538  1
