# generated using pymatgen
data_K2NiCl5
_symmetry_space_group_name_H-M   'P 1'
_cell_length_a   6.85391548
_cell_length_b   6.85391604
_cell_length_c   9.69207200
_cell_angle_alpha   90.00000000
_cell_angle_beta   90.00000000
_cell_angle_gamma   94.90989800
_symmetry_Int_Tables_number   1
_chemical_formula_structural   K2NiCl5
_chemical_formula_sum   'K4 Ni2 Cl10'
_cell_volume   453.62563851
_cell_formula_units_Z   2
loop_
 _symmetry_equiv_pos_site_id
 _symmetry_equiv_pos_as_xyz
  1  'x, y, z'
loop_
 _atom_site_type_symbol
 _atom_site_label
 _atom_site_symmetry_multiplicity
 _atom_site_fract_x
 _atom_site_fract_y
 _atom_site_fract_z
 _atom_site_occupancy
  K  K0  1  0.512242  0.994393  0.250000  1
  K  K1  1  0.005607  0.487758  0.750000  1
  K  K2  1  0.487758  0.005607  0.750000  1
  K  K3  1  0.994393  0.512242  0.250000  1
  Ni  Ni4  1  0.000000  0.000000  0.500000  1
  Ni  Ni5  1  0.000000  0.000000  0.000000  1
  Cl  Cl6  1  0.241208  0.241208  0.522127  1
  Cl  Cl7  1  0.758792  0.758792  0.477873  1
  Cl  Cl8  1  0.241208  0.241208  0.977873  1
  Cl  Cl9  1  0.758792  0.758792  0.022127  1
  Cl  Cl10  1  0.222290  0.777710  0.500000  1
  Cl  Cl11  1  0.222290  0.777710  0.000000  1
  Cl  Cl12  1  0.777710  0.222290  0.500000  1
  Cl  Cl13  1  0.777710  0.222290  0.000000  1
  Cl  Cl14  1  0.033461  0.033461  0.250000  1
  Cl  Cl15  1  0.966539  0.966539  0.750000  1
