# generated using pymatgen
data_Yb6Cd2AgPb3
_symmetry_space_group_name_H-M   'P 1'
_cell_length_a   5.33576600
_cell_length_b   7.46492400
_cell_length_c   16.09208500
_cell_angle_alpha   89.99998465
_cell_angle_beta   89.99954900
_cell_angle_gamma   90.00004605
_symmetry_Int_Tables_number   1
_chemical_formula_structural   Yb6Cd2AgPb3
_chemical_formula_sum   'Yb12 Cd4 Ag2 Pb6'
_cell_volume   640.96524846
_cell_formula_units_Z   2
loop_
 _symmetry_equiv_pos_site_id
 _symmetry_equiv_pos_as_xyz
  1  'x, y, z'
loop_
 _atom_site_type_symbol
 _atom_site_label
 _atom_site_symmetry_multiplicity
 _atom_site_fract_x
 _atom_site_fract_y
 _atom_site_fract_z
 _atom_site_occupancy
  Yb  Yb0  1  0.499985  0.254013  0.995950  1
  Yb  Yb1  1  0.499985  0.745988  0.995950  1
  Yb  Yb2  1  0.000002  0.249906  0.166267  1
  Yb  Yb3  1  0.000003  0.750096  0.166267  1
  Yb  Yb4  1  0.499979  0.250091  0.333719  1
  Yb  Yb5  1  0.499980  0.749910  0.333719  1
  Yb  Yb6  1  0.000011  0.246018  0.504071  1
  Yb  Yb7  1  0.000012  0.753982  0.504071  1
  Yb  Yb8  1  0.499996  0.246453  0.670154  1
  Yb  Yb9  1  0.499997  0.753546  0.670154  1
  Yb  Yb10  1  0.000012  0.253557  0.829848  1
  Yb  Yb11  1  0.000012  0.746444  0.829848  1
  Cd  Cd12  1  0.000017  0.000000  0.997400  1
  Cd  Cd13  1  0.499984  0.500000  0.165509  1
  Cd  Cd14  1  0.000007  0.000000  0.334499  1
  Cd  Cd15  1  0.499987  0.500000  0.502606  1
  Ag  Ag16  1  0.000055  0.000000  0.667471  1
  Ag  Ag17  1  0.500010  0.500000  0.832506  1
  Pb  Pb18  1  0.000024  0.500000  0.000128  1
  Pb  Pb19  1  0.499975  0.000000  0.165596  1
  Pb  Pb20  1  0.999981  0.500000  0.334334  1
  Pb  Pb21  1  0.499977  0.000000  0.499897  1
  Pb  Pb22  1  0.000026  0.500000  0.665379  1
  Pb  Pb23  1  0.499984  0.000000  0.834660  1
