# generated using pymatgen
data_Ba3TmInWO9
_symmetry_space_group_name_H-M   'P 1'
_cell_length_a   6.02820611
_cell_length_b   8.45990618
_cell_length_c   10.42337610
_cell_angle_alpha   66.05855471
_cell_angle_beta   73.19222064
_cell_angle_gamma   90.00146812
_symmetry_Int_Tables_number   1
_chemical_formula_structural   Ba3TmInWO9
_chemical_formula_sum   'Ba6 Tm2 In2 W2 O18'
_cell_volume   460.87732632
_cell_formula_units_Z   2
loop_
 _symmetry_equiv_pos_site_id
 _symmetry_equiv_pos_as_xyz
  1  'x, y, z'
loop_
 _atom_site_type_symbol
 _atom_site_label
 _atom_site_symmetry_multiplicity
 _atom_site_fract_x
 _atom_site_fract_y
 _atom_site_fract_z
 _atom_site_occupancy
  Ba  Ba0  1  0.499998  0.264068  0.999995  1
  Ba  Ba1  1  0.840420  0.582821  0.319157  1
  Ba  Ba2  1  0.159588  0.901993  0.680840  1
  Ba  Ba3  1  0.500001  0.735932  0.000005  1
  Ba  Ba4  1  0.840410  0.098007  0.319160  1
  Ba  Ba5  1  0.159580  0.417178  0.680843  1
  Tm  Tm6  1  0.330610  0.330601  0.338780  1
  Tm  Tm7  1  0.669389  0.669398  0.661220  1
  In  In8  1  0.000000  0.000001  0.999999  1
  In  In9  1  0.000000  0.500000  0.000000  1
  W  W10  1  0.333983  0.833970  0.332022  1
  W  W11  1  0.666016  0.166028  0.667981  1
  O  O12  1  0.999998  0.241338  0.000002  1
  O  O13  1  0.330741  0.597925  0.338555  1
  O  O14  1  0.669257  0.936525  0.661440  1
  O  O15  1  0.162074  0.413148  0.173676  1
  O  O16  1  0.491178  0.758080  0.483808  1
  O  O17  1  0.818313  0.089430  0.821172  1
  O  O18  1  0.335710  0.586849  0.826318  1
  O  O19  1  0.639494  0.910571  0.178831  1
  O  O20  1  0.974990  0.241934  0.516180  1
  O  O21  1  0.000002  0.758662  0.999999  1
  O  O22  1  0.330744  0.063475  0.338559  1
  O  O23  1  0.669260  0.402075  0.661444  1
  O  O24  1  0.837926  0.586851  0.826324  1
  O  O25  1  0.181688  0.910570  0.178828  1
  O  O26  1  0.508821  0.241921  0.516191  1
  O  O27  1  0.664288  0.413151  0.173683  1
  O  O28  1  0.025012  0.758067  0.483818  1
  O  O29  1  0.360507  0.089430  0.821169  1
