# generated using pymatgen
data_LiLaTa3FeH12
_symmetry_space_group_name_H-M   'P 1'
_cell_length_a   6.00641300
_cell_length_b   6.00641117
_cell_length_c   4.67702400
_cell_angle_alpha   90.00000000
_cell_angle_beta   90.00000000
_cell_angle_gamma   119.99999354
_symmetry_Int_Tables_number   1
_chemical_formula_structural   LiLaTa3FeH12
_chemical_formula_sum   'Li1 La1 Ta3 Fe1 H12'
_cell_volume   146.12701342
_cell_formula_units_Z   1
loop_
 _symmetry_equiv_pos_site_id
 _symmetry_equiv_pos_as_xyz
  1  'x, y, z'
loop_
 _atom_site_type_symbol
 _atom_site_label
 _atom_site_symmetry_multiplicity
 _atom_site_fract_x
 _atom_site_fract_y
 _atom_site_fract_z
 _atom_site_occupancy
  Li  Li0  1  0.666667  0.333333  0.000000  1
  La  La1  1  0.000000  0.000000  0.000000  1
  Ta  Ta2  1  0.500247  0.000495  0.500000  1
  Ta  Ta3  1  0.999505  0.499753  0.500000  1
  Ta  Ta4  1  0.500247  0.499753  0.500000  1
  Fe  Fe5  1  0.333333  0.666667  0.000000  1
  H  H6  1  0.799892  0.599786  0.735941  1
  H  H7  1  0.208945  0.417890  0.236677  1
  H  H8  1  0.208945  0.791055  0.236677  1
  H  H9  1  0.799892  0.200108  0.264059  1
  H  H10  1  0.582110  0.791055  0.236677  1
  H  H11  1  0.400214  0.200108  0.264059  1
  H  H12  1  0.400214  0.200108  0.735941  1
  H  H13  1  0.208945  0.417890  0.763323  1
  H  H14  1  0.799892  0.200108  0.735941  1
  H  H15  1  0.582110  0.791055  0.763323  1
  H  H16  1  0.799892  0.599786  0.264059  1
  H  H17  1  0.208945  0.791055  0.763323  1
