# generated using pymatgen
data_Yb2TcRu3C4
_symmetry_space_group_name_H-M   'P 1'
_cell_length_a   5.41984142
_cell_length_b   5.43662934
_cell_length_c   5.79679084
_cell_angle_alpha   108.35453526
_cell_angle_beta   108.25267653
_cell_angle_gamma   109.05861654
_symmetry_Int_Tables_number   1
_chemical_formula_structural   Yb2TcRu3C4
_chemical_formula_sum   'Yb2 Tc1 Ru3 C4'
_cell_volume   135.75662276
_cell_formula_units_Z   1
loop_
 _symmetry_equiv_pos_site_id
 _symmetry_equiv_pos_as_xyz
  1  'x, y, z'
loop_
 _atom_site_type_symbol
 _atom_site_label
 _atom_site_symmetry_multiplicity
 _atom_site_fract_x
 _atom_site_fract_y
 _atom_site_fract_z
 _atom_site_occupancy
  Yb  Yb0  1  0.378433  0.628391  0.256828  1
  Yb  Yb1  1  0.625153  0.375135  0.749940  1
  Tc  Tc2  1  0.261292  0.011719  0.022118  1
  Ru  Ru3  1  0.986115  0.736354  0.473055  1
  Ru  Ru4  1  0.010904  0.260297  0.520582  1
  Ru  Ru5  1  0.737045  0.986777  0.974626  1
  C  C6  1  0.687477  0.312361  0.244327  1
  C  C7  1  0.057562  0.931714  0.244450  1
  C  C8  1  0.951293  0.067005  0.756788  1
  C  C9  1  0.304726  0.690245  0.757289  1
