# generated using pymatgen
data_Sm2Th2(Ga8Pd3)3
_symmetry_space_group_name_H-M   'P 1'
_cell_length_a   7.64014444
_cell_length_b   7.64746058
_cell_length_c   13.42458406
_cell_angle_alpha   84.68964198
_cell_angle_beta   100.72236491
_cell_angle_gamma   119.89400206
_symmetry_Int_Tables_number   1
_chemical_formula_structural   Sm2Th2(Ga8Pd3)3
_chemical_formula_sum   'Sm2 Th2 Ga24 Pd9'
_cell_volume   668.13390217
_cell_formula_units_Z   1
loop_
 _symmetry_equiv_pos_site_id
 _symmetry_equiv_pos_as_xyz
  1  'x, y, z'
loop_
 _atom_site_type_symbol
 _atom_site_label
 _atom_site_symmetry_multiplicity
 _atom_site_fract_x
 _atom_site_fract_y
 _atom_site_fract_z
 _atom_site_occupancy
  Sm  Sm0  1  0.770164  0.502636  0.809034  1
  Sm  Sm1  1  0.229836  0.497364  0.190966  1
  Th  Th2  1  0.436451  0.831672  0.807846  1
  Th  Th3  1  0.563549  0.168328  0.192154  1
  Ga  Ga4  1  0.479163  0.168800  0.940648  1
  Ga  Ga5  1  0.520837  0.831200  0.059352  1
  Ga  Ga6  1  0.021743  0.164987  0.559140  1
  Ga  Ga7  1  0.978257  0.835013  0.440860  1
  Ga  Ga8  1  0.353171  0.832704  0.556435  1
  Ga  Ga9  1  0.646829  0.167296  0.443565  1
  Ga  Ga10  1  0.614884  0.831931  0.330361  1
  Ga  Ga11  1  0.385116  0.168069  0.669639  1
  Ga  Ga12  1  0.055393  0.492462  0.670144  1
  Ga  Ga13  1  0.944607  0.507538  0.329856  1
  Ga  Ga14  1  0.731953  0.838234  0.668498  1
  Ga  Ga15  1  0.268047  0.161766  0.331502  1
  Ga  Ga16  1  0.144264  0.497337  0.942658  1
  Ga  Ga17  1  0.855736  0.502663  0.057342  1
  Ga  Ga18  1  0.817437  0.833041  0.948623  1
  Ga  Ga19  1  0.182563  0.166959  0.051377  1
  Ga  Ga20  1  0.311850  0.498373  0.442152  1
  Ga  Ga21  1  0.688150  0.501627  0.557848  1
  Ga  Ga22  1  0.100018  0.834999  0.183164  1
  Ga  Ga23  1  0.899982  0.165001  0.816836  1
  Ga  Ga24  1  0.306124  0.367041  0.815336  1
  Ga  Ga25  1  0.693876  0.632959  0.184664  1
  Ga  Ga26  1  0.098802  0.960364  0.815923  1
  Ga  Ga27  1  0.901198  0.039636  0.184077  1
  Pd  Pd28  1  0.384352  0.503980  0.637203  1
  Pd  Pd29  1  0.615648  0.496020  0.362797  1
  Pd  Pd30  1  0.172596  0.830973  0.999284  1
  Pd  Pd31  1  0.827404  0.169027  0.000716  1
  Pd  Pd32  1  0.291023  0.833531  0.361964  1
  Pd  Pd33  1  0.708977  0.166469  0.638036  1
  Pd  Pd34  1  0.048289  0.828331  0.637718  1
  Pd  Pd35  1  0.951711  0.171669  0.362282  1
  Pd  Pd36  1  0.500000  0.500000  0.000000  1
