# generated using pymatgen
data_K3Ag(BPt3)2
_symmetry_space_group_name_H-M   'P 1'
_cell_length_a   8.54664088
_cell_length_b   8.54664056
_cell_length_c   8.54663940
_cell_angle_alpha   38.79849449
_cell_angle_beta   38.79849554
_cell_angle_gamma   38.79849698
_symmetry_Int_Tables_number   1
_chemical_formula_structural   K3Ag(BPt3)2
_chemical_formula_sum   'K3 Ag1 B2 Pt6'
_cell_volume   220.33929170
_cell_formula_units_Z   1
loop_
 _symmetry_equiv_pos_site_id
 _symmetry_equiv_pos_as_xyz
  1  'x, y, z'
loop_
 _atom_site_type_symbol
 _atom_site_label
 _atom_site_symmetry_multiplicity
 _atom_site_fract_x
 _atom_site_fract_y
 _atom_site_fract_z
 _atom_site_occupancy
  K  K0  1  0.858589  0.858589  0.858589  1
  K  K1  1  0.141411  0.141411  0.141411  1
  K  K2  1  0.000000  0.000000  0.000000  1
  Ag  Ag3  1  0.500000  0.500000  0.500000  1
  B  B4  1  0.667851  0.667851  0.667851  1
  B  B5  1  0.332149  0.332149  0.332149  1
  Pt  Pt6  1  0.439337  0.935509  0.439337  1
  Pt  Pt7  1  0.439337  0.439337  0.935509  1
  Pt  Pt8  1  0.935509  0.439337  0.439337  1
  Pt  Pt9  1  0.560663  0.064491  0.560663  1
  Pt  Pt10  1  0.560663  0.560663  0.064491  1
  Pt  Pt11  1  0.064491  0.560663  0.560663  1
