# generated using pymatgen
data_Dy7ThSnPd24
_symmetry_space_group_name_H-M   'P 1'
_cell_length_a   8.43741118
_cell_length_b   8.43741137
_cell_length_c   8.43741100
_cell_angle_alpha   90.01199234
_cell_angle_beta   90.01199235
_cell_angle_gamma   90.01198983
_symmetry_Int_Tables_number   1
_chemical_formula_structural   Dy7ThSnPd24
_chemical_formula_sum   'Dy7 Th1 Sn1 Pd24'
_cell_volume   600.65848233
_cell_formula_units_Z   1
loop_
 _symmetry_equiv_pos_site_id
 _symmetry_equiv_pos_as_xyz
  1  'x, y, z'
loop_
 _atom_site_type_symbol
 _atom_site_label
 _atom_site_symmetry_multiplicity
 _atom_site_fract_x
 _atom_site_fract_y
 _atom_site_fract_z
 _atom_site_occupancy
  Dy  Dy0  1  0.747144  0.747144  0.747144  1
  Dy  Dy1  1  0.746976  0.746976  0.252894  1
  Dy  Dy2  1  0.746976  0.252894  0.746976  1
  Dy  Dy3  1  0.252773  0.252773  0.747477  1
  Dy  Dy4  1  0.252773  0.747477  0.252773  1
  Dy  Dy5  1  0.252894  0.746976  0.746976  1
  Dy  Dy6  1  0.747477  0.252773  0.252773  1
  Th  Th7  1  0.253594  0.253594  0.253594  1
  Sn  Sn8  1  0.999196  0.999196  0.999196  1
  Pd  Pd9  1  0.264968  0.500246  0.999730  1
  Pd  Pd10  1  0.735089  0.500155  0.999964  1
  Pd  Pd11  1  0.999730  0.264968  0.500246  1
  Pd  Pd12  1  0.500246  0.264968  0.999730  1
  Pd  Pd13  1  0.999964  0.735089  0.500155  1
  Pd  Pd14  1  0.500155  0.735089  0.999964  1
  Pd  Pd15  1  0.500246  0.999730  0.264968  1
  Pd  Pd16  1  0.264968  0.999730  0.500246  1
  Pd  Pd17  1  0.500155  0.999964  0.735089  1
  Pd  Pd18  1  0.735089  0.999964  0.500155  1
  Pd  Pd19  1  0.999730  0.500246  0.264968  1
  Pd  Pd20  1  0.999964  0.500155  0.735089  1
  Pd  Pd21  1  0.254685  0.500570  0.500570  1
  Pd  Pd22  1  0.745542  0.500111  0.500111  1
  Pd  Pd23  1  0.500570  0.254685  0.500570  1
  Pd  Pd24  1  0.500111  0.745542  0.500111  1
  Pd  Pd25  1  0.500570  0.500570  0.254685  1
  Pd  Pd26  1  0.500111  0.500111  0.745542  1
  Pd  Pd27  1  0.308052  0.999063  0.999063  1
  Pd  Pd28  1  0.692052  0.000037  0.000037  1
  Pd  Pd29  1  0.999063  0.308052  0.999063  1
  Pd  Pd30  1  0.000037  0.692052  0.000037  1
  Pd  Pd31  1  0.999063  0.999063  0.308052  1
  Pd  Pd32  1  0.000037  0.000037  0.692052  1
