# generated using pymatgen
data_Pr8Nd2(IrPt)3
_symmetry_space_group_name_H-M   'P 1'
_cell_length_a   11.48900820
_cell_length_b   11.48709100
_cell_length_c   6.56177430
_cell_angle_alpha   90.00000000
_cell_angle_beta   89.92848400
_cell_angle_gamma   90.00000000
_symmetry_Int_Tables_number   1
_chemical_formula_structural   Pr8Nd2(IrPt)3
_chemical_formula_sum   'Pr16 Nd4 Ir6 Pt6'
_cell_volume   865.99134354
_cell_formula_units_Z   2
loop_
 _symmetry_equiv_pos_site_id
 _symmetry_equiv_pos_as_xyz
  1  'x, y, z'
loop_
 _atom_site_type_symbol
 _atom_site_label
 _atom_site_symmetry_multiplicity
 _atom_site_fract_x
 _atom_site_fract_y
 _atom_site_fract_z
 _atom_site_occupancy
  Pr  Pr0  1  0.088269  0.294005  0.122462  1
  Pr  Pr1  1  0.791893  0.409689  0.116503  1
  Pr  Pr2  1  0.205397  0.589725  0.122422  1
  Pr  Pr3  1  0.908458  0.707216  0.116271  1
  Pr  Pr4  1  0.411731  0.794005  0.377538  1
  Pr  Pr5  1  0.591542  0.207216  0.383729  1
  Pr  Pr6  1  0.294603  0.089725  0.377578  1
  Pr  Pr7  1  0.708107  0.909689  0.383497  1
  Pr  Pr8  1  0.414535  0.206709  0.877510  1
  Pr  Pr9  1  0.706051  0.090101  0.877883  1
  Pr  Pr10  1  0.295996  0.910787  0.877553  1
  Pr  Pr11  1  0.594029  0.796176  0.878118  1
  Pr  Pr12  1  0.085465  0.706709  0.622490  1
  Pr  Pr13  1  0.905971  0.296176  0.621882  1
  Pr  Pr14  1  0.204004  0.410787  0.622447  1
  Pr  Pr15  1  0.793949  0.590101  0.622117  1
  Nd  Nd16  1  0.998312  0.997842  0.999042  1
  Nd  Nd17  1  0.501602  0.499225  0.999324  1
  Nd  Nd18  1  0.501688  0.497842  0.500958  1
  Nd  Nd19  1  0.998398  0.999225  0.500676  1
  Ir  Ir20  1  0.849114  0.847588  0.749258  1
  Ir  Ir21  1  0.650886  0.347588  0.750742  1
  Ir  Ir22  1  0.000254  0.499933  0.377722  1
  Ir  Ir23  1  0.499746  0.999933  0.122278  1
  Ir  Ir24  1  0.498532  0.998920  0.618056  1
  Ir  Ir25  1  0.001468  0.498920  0.881944  1
  Pt  Pt26  1  0.154420  0.846091  0.249609  1
  Pt  Pt27  1  0.345580  0.346091  0.250391  1
  Pt  Pt28  1  0.653783  0.653957  0.249876  1
  Pt  Pt29  1  0.846217  0.153957  0.250124  1
  Pt  Pt30  1  0.347327  0.652036  0.749623  1
  Pt  Pt31  1  0.152673  0.152036  0.750377  1
