# generated using pymatgen
data_Sc4Mn(AsRu)6
_symmetry_space_group_name_H-M   'P 1'
_cell_length_a   7.05652451
_cell_length_b   7.05652407
_cell_length_c   7.05652369
_cell_angle_alpha   109.27279151
_cell_angle_beta   109.86882472
_cell_angle_gamma   109.27278064
_symmetry_Int_Tables_number   1
_chemical_formula_structural   Sc4Mn(AsRu)6
_chemical_formula_sum   'Sc4 Mn1 As6 Ru6'
_cell_volume   270.47983123
_cell_formula_units_Z   1
loop_
 _symmetry_equiv_pos_site_id
 _symmetry_equiv_pos_as_xyz
  1  'x, y, z'
loop_
 _atom_site_type_symbol
 _atom_site_label
 _atom_site_symmetry_multiplicity
 _atom_site_fract_x
 _atom_site_fract_y
 _atom_site_fract_z
 _atom_site_occupancy
  Sc  Sc0  1  0.006830  0.013660  0.506830  1
  Sc  Sc1  1  0.493170  0.986340  0.993170  1
  Sc  Sc2  1  0.006830  0.500000  0.993170  1
  Sc  Sc3  1  0.493170  0.500000  0.506830  1
  Mn  Mn4  1  0.750000  0.500000  0.250000  1
  As  As5  1  0.312792  0.000000  0.312792  1
  As  As6  1  0.998032  0.310323  0.308356  1
  As  As7  1  0.998032  0.689677  0.687709  1
  As  As8  1  0.312291  0.310323  0.001968  1
  As  As9  1  0.691644  0.689677  0.001968  1
  As  As10  1  0.687208  0.000000  0.687208  1
  Ru  Ru11  1  0.506303  0.747592  0.253896  1
  Ru  Ru12  1  0.506303  0.252408  0.758711  1
  Ru  Ru13  1  0.746104  0.252408  0.493697  1
  Ru  Ru14  1  0.241289  0.747592  0.493697  1
  Ru  Ru15  1  0.250000  0.500000  0.750000  1
  Ru  Ru16  1  0.000000  0.000000  0.000000  1
