# generated using pymatgen
data_Ba3MgTc2O9
_symmetry_space_group_name_H-M   'P 1'
_cell_length_a   5.86537200
_cell_length_b   5.86537187
_cell_length_c   14.12871500
_cell_angle_alpha   90.00000000
_cell_angle_beta   90.00000000
_cell_angle_gamma   120.00000076
_symmetry_Int_Tables_number   1
_chemical_formula_structural   Ba3MgTc2O9
_chemical_formula_sum   'Ba6 Mg2 Tc4 O18'
_cell_volume   420.94408033
_cell_formula_units_Z   2
loop_
 _symmetry_equiv_pos_site_id
 _symmetry_equiv_pos_as_xyz
  1  'x, y, z'
loop_
 _atom_site_type_symbol
 _atom_site_label
 _atom_site_symmetry_multiplicity
 _atom_site_fract_x
 _atom_site_fract_y
 _atom_site_fract_z
 _atom_site_occupancy
  Ba  Ba0  1  0.333333  0.666667  0.909948  1
  Ba  Ba1  1  0.666667  0.333333  0.409948  1
  Ba  Ba2  1  0.333333  0.666667  0.590052  1
  Ba  Ba3  1  0.000000  0.000000  0.250000  1
  Ba  Ba4  1  0.666667  0.333333  0.090052  1
  Ba  Ba5  1  0.000000  0.000000  0.750000  1
  Mg  Mg6  1  0.000000  0.000000  0.500000  1
  Mg  Mg7  1  0.000000  0.000000  0.000000  1
  Tc  Tc8  1  0.333333  0.666667  0.340804  1
  Tc  Tc9  1  0.666667  0.333333  0.659196  1
  Tc  Tc10  1  0.333333  0.666667  0.159196  1
  Tc  Tc11  1  0.666667  0.333333  0.840804  1
  O  O12  1  0.172445  0.827555  0.085268  1
  O  O13  1  0.827555  0.655109  0.585268  1
  O  O14  1  0.508636  0.491364  0.750000  1
  O  O15  1  0.344891  0.172445  0.914732  1
  O  O16  1  0.491364  0.508636  0.250000  1
  O  O17  1  0.344891  0.172445  0.585268  1
  O  O18  1  0.017273  0.508636  0.250000  1
  O  O19  1  0.827555  0.172445  0.585268  1
  O  O20  1  0.508636  0.017273  0.750000  1
  O  O21  1  0.655109  0.827555  0.085268  1
  O  O22  1  0.172445  0.827555  0.414732  1
  O  O23  1  0.982727  0.491364  0.750000  1
  O  O24  1  0.827555  0.172445  0.914732  1
  O  O25  1  0.655109  0.827555  0.414732  1
  O  O26  1  0.172445  0.344891  0.414732  1
  O  O27  1  0.172445  0.344891  0.085268  1
  O  O28  1  0.491364  0.982727  0.250000  1
  O  O29  1  0.827555  0.655109  0.914732  1
