# generated using pymatgen
data_YEr5Tm10(CdPt)4
_symmetry_space_group_name_H-M   'P 1'
_cell_length_a   9.57918206
_cell_length_b   9.57918179
_cell_length_c   9.57794700
_cell_angle_alpha   60.00426056
_cell_angle_beta   60.00426149
_cell_angle_gamma   59.98105977
_symmetry_Int_Tables_number   1
_chemical_formula_structural   YEr5Tm10(CdPt)4
_chemical_formula_sum   'Y1 Er5 Tm10 Cd4 Pt4'
_cell_volume   621.41256537
_cell_formula_units_Z   1
loop_
 _symmetry_equiv_pos_site_id
 _symmetry_equiv_pos_as_xyz
  1  'x, y, z'
loop_
 _atom_site_type_symbol
 _atom_site_label
 _atom_site_symmetry_multiplicity
 _atom_site_fract_x
 _atom_site_fract_y
 _atom_site_fract_z
 _atom_site_occupancy
  Y  Y0  1  0.936354  0.936354  0.563646  1
  Er  Er1  1  0.936109  0.563016  0.564217  1
  Er  Er2  1  0.563016  0.936109  0.936658  1
  Er  Er3  1  0.563016  0.936109  0.564217  1
  Er  Er4  1  0.936109  0.563016  0.936658  1
  Er  Er5  1  0.564982  0.564982  0.935018  1
  Tm  Tm6  1  0.352595  0.352595  0.350851  1
  Tm  Tm7  1  0.352595  0.352595  0.943959  1
  Tm  Tm8  1  0.354945  0.940018  0.352518  1
  Tm  Tm9  1  0.940018  0.354945  0.352518  1
  Tm  Tm10  1  0.810918  0.189516  0.188976  1
  Tm  Tm11  1  0.189516  0.810918  0.810590  1
  Tm  Tm12  1  0.189516  0.810918  0.188976  1
  Tm  Tm13  1  0.810918  0.189516  0.810590  1
  Tm  Tm14  1  0.189875  0.189875  0.810125  1
  Tm  Tm15  1  0.811359  0.811359  0.188641  1
  Cd  Cd16  1  0.581515  0.581515  0.582177  1
  Cd  Cd17  1  0.581515  0.581515  0.254794  1
  Cd  Cd18  1  0.581061  0.254735  0.582103  1
  Cd  Cd19  1  0.254735  0.581061  0.582103  1
  Pt  Pt20  1  0.143343  0.143343  0.143873  1
  Pt  Pt21  1  0.143343  0.143343  0.569441  1
  Pt  Pt22  1  0.142881  0.569767  0.143677  1
  Pt  Pt23  1  0.569767  0.142881  0.143677  1
