# generated using pymatgen
data_YHf2Co6(B2Ir)3
_symmetry_space_group_name_H-M   'P 1'
_cell_length_a   5.87465552
_cell_length_b   5.87465498
_cell_length_c   5.87465578
_cell_angle_alpha   95.03016491
_cell_angle_beta   95.03015954
_cell_angle_gamma   95.03014875
_symmetry_Int_Tables_number   1
_chemical_formula_structural   YHf2Co6(B2Ir)3
_chemical_formula_sum   'Y1 Hf2 Co6 B6 Ir3'
_cell_volume   200.25368956
_cell_formula_units_Z   1
loop_
 _symmetry_equiv_pos_site_id
 _symmetry_equiv_pos_as_xyz
  1  'x, y, z'
loop_
 _atom_site_type_symbol
 _atom_site_label
 _atom_site_symmetry_multiplicity
 _atom_site_fract_x
 _atom_site_fract_y
 _atom_site_fract_z
 _atom_site_occupancy
  Y  Y0  1  0.000000  0.000000  0.000000  1
  Hf  Hf1  1  0.665285  0.665285  0.665285  1
  Hf  Hf2  1  0.334715  0.334715  0.334715  1
  Co  Co3  1  0.686851  0.212226  0.686851  1
  Co  Co4  1  0.686851  0.686851  0.212226  1
  Co  Co5  1  0.212226  0.686851  0.686851  1
  Co  Co6  1  0.313149  0.787774  0.313149  1
  Co  Co7  1  0.313149  0.313149  0.787774  1
  Co  Co8  1  0.787774  0.313149  0.313149  1
  B  B9  1  0.382567  0.000000  0.617433  1
  B  B10  1  0.617433  0.382567  0.000000  1
  B  B11  1  0.000000  0.617433  0.382567  1
  B  B12  1  0.617433  0.000000  0.382567  1
  B  B13  1  0.382567  0.617433  0.000000  1
  B  B14  1  0.000000  0.382567  0.617433  1
  Ir  Ir15  1  0.500000  0.000000  0.000000  1
  Ir  Ir16  1  0.000000  0.500000  0.000000  1
  Ir  Ir17  1  0.000000  0.000000  0.500000  1
