# generated using pymatgen
data_LiNd3MnC6
_symmetry_space_group_name_H-M   'P 1'
_cell_length_a   8.51969600
_cell_length_b   8.51969635
_cell_length_c   5.22435700
_cell_angle_alpha   90.00000000
_cell_angle_beta   90.00000000
_cell_angle_gamma   119.99999967
_symmetry_Int_Tables_number   1
_chemical_formula_structural   LiNd3MnC6
_chemical_formula_sum   'Li2 Nd6 Mn2 C12'
_cell_volume   328.40646235
_cell_formula_units_Z   2
loop_
 _symmetry_equiv_pos_site_id
 _symmetry_equiv_pos_as_xyz
  1  'x, y, z'
loop_
 _atom_site_type_symbol
 _atom_site_label
 _atom_site_symmetry_multiplicity
 _atom_site_fract_x
 _atom_site_fract_y
 _atom_site_fract_z
 _atom_site_occupancy
  Li  Li0  1  0.000000  0.000000  0.500000  1
  Li  Li1  1  0.000000  0.000000  0.000000  1
  Nd  Nd2  1  0.620536  0.679980  0.750000  1
  Nd  Nd3  1  0.940556  0.620536  0.250000  1
  Nd  Nd4  1  0.679980  0.059444  0.250000  1
  Nd  Nd5  1  0.320020  0.940556  0.750000  1
  Nd  Nd6  1  0.059444  0.379464  0.750000  1
  Nd  Nd7  1  0.379464  0.320020  0.250000  1
  Mn  Mn8  1  0.666667  0.333333  0.750000  1
  Mn  Mn9  1  0.333333  0.666667  0.250000  1
  C  C10  1  0.980205  0.739921  0.750000  1
  C  C11  1  0.240284  0.980205  0.250000  1
  C  C12  1  0.739921  0.759716  0.250000  1
  C  C13  1  0.260079  0.240284  0.750000  1
  C  C14  1  0.759716  0.019795  0.750000  1
  C  C15  1  0.019795  0.260079  0.250000  1
  C  C16  1  0.856637  0.564367  0.750000  1
  C  C17  1  0.292269  0.856637  0.250000  1
  C  C18  1  0.564367  0.707731  0.250000  1
  C  C19  1  0.435633  0.292269  0.750000  1
  C  C20  1  0.143363  0.435633  0.250000  1
  C  C21  1  0.707731  0.143363  0.750000  1
