# generated using pymatgen
data_Ta8V2SiB4As
_symmetry_space_group_name_H-M   'P 1'
_cell_length_a   7.22373317
_cell_length_b   7.22373438
_cell_length_c   7.22373373
_cell_angle_alpha   129.68825805
_cell_angle_beta   129.68826638
_cell_angle_gamma   73.90561386
_symmetry_Int_Tables_number   1
_chemical_formula_structural   Ta8V2SiB4As
_chemical_formula_sum   'Ta8 V2 Si1 B4 As1'
_cell_volume   217.72537425
_cell_formula_units_Z   1
loop_
 _symmetry_equiv_pos_site_id
 _symmetry_equiv_pos_as_xyz
  1  'x, y, z'
loop_
 _atom_site_type_symbol
 _atom_site_label
 _atom_site_symmetry_multiplicity
 _atom_site_fract_x
 _atom_site_fract_y
 _atom_site_fract_z
 _atom_site_occupancy
  Ta  Ta0  1  0.534642  0.698318  0.504881  1
  Ta  Ta1  1  0.029761  0.534642  0.836324  1
  Ta  Ta2  1  0.698318  0.193436  0.163676  1
  Ta  Ta3  1  0.965358  0.470239  0.163676  1
  Ta  Ta4  1  0.193436  0.029761  0.495119  1
  Ta  Ta5  1  0.470239  0.306564  0.504881  1
  Ta  Ta6  1  0.801682  0.965358  0.495119  1
  Ta  Ta7  1  0.306564  0.801682  0.836324  1
  V  V8  1  0.999388  0.999388  0.000000  1
  V  V9  1  0.500612  0.500612  0.000000  1
  Si  Si10  1  0.750000  0.750000  0.000000  1
  B  B11  1  0.621666  0.121666  0.743330  1
  B  B12  1  0.121666  0.378334  0.500000  1
  B  B13  1  0.878334  0.621666  0.500000  1
  B  B14  1  0.378334  0.878334  0.256670  1
  As  As15  1  0.250000  0.250000  0.000000  1
