# generated using pymatgen
data_Y20Cd3Hg3Ir2
_symmetry_space_group_name_H-M   'P 1'
_cell_length_a   9.71745700
_cell_length_b   9.71745621
_cell_length_c   9.74560500
_cell_angle_alpha   90.00000000
_cell_angle_beta   90.00000000
_cell_angle_gamma   119.99999928
_symmetry_Int_Tables_number   1
_chemical_formula_structural   Y20Cd3Hg3Ir2
_chemical_formula_sum   'Y20 Cd3 Hg3 Ir2'
_cell_volume   796.97492889
_cell_formula_units_Z   1
loop_
 _symmetry_equiv_pos_site_id
 _symmetry_equiv_pos_as_xyz
  1  'x, y, z'
loop_
 _atom_site_type_symbol
 _atom_site_label
 _atom_site_symmetry_multiplicity
 _atom_site_fract_x
 _atom_site_fract_y
 _atom_site_fract_z
 _atom_site_occupancy
  Y  Y0  1  0.000000  0.000000  0.488421  1
  Y  Y1  1  0.000000  0.000000  0.011579  1
  Y  Y2  1  0.208972  0.791028  0.440175  1
  Y  Y3  1  0.208972  0.417945  0.440175  1
  Y  Y4  1  0.582055  0.791028  0.440175  1
  Y  Y5  1  0.791038  0.208962  0.559219  1
  Y  Y6  1  0.791038  0.582077  0.559219  1
  Y  Y7  1  0.417923  0.208962  0.559219  1
  Y  Y8  1  0.791038  0.208962  0.940781  1
  Y  Y9  1  0.791038  0.582077  0.940781  1
  Y  Y10  1  0.417923  0.208962  0.940781  1
  Y  Y11  1  0.208972  0.791028  0.059825  1
  Y  Y12  1  0.208972  0.417945  0.059825  1
  Y  Y13  1  0.582055  0.791028  0.059825  1
  Y  Y14  1  0.540950  0.459050  0.250000  1
  Y  Y15  1  0.540950  0.081901  0.250000  1
  Y  Y16  1  0.918099  0.459050  0.250000  1
  Y  Y17  1  0.458786  0.541214  0.750000  1
  Y  Y18  1  0.458786  0.917571  0.750000  1
  Y  Y19  1  0.082429  0.541214  0.750000  1
  Cd  Cd20  1  0.113022  0.886978  0.750000  1
  Cd  Cd21  1  0.113022  0.226045  0.750000  1
  Cd  Cd22  1  0.773955  0.886978  0.750000  1
  Hg  Hg23  1  0.878534  0.121466  0.250000  1
  Hg  Hg24  1  0.878534  0.757068  0.250000  1
  Hg  Hg25  1  0.242932  0.121466  0.250000  1
  Ir  Ir26  1  0.333333  0.666667  0.250000  1
  Ir  Ir27  1  0.666667  0.333333  0.750000  1
