# generated using pymatgen
data_Tm3LuAl24Pt8Rh
_symmetry_space_group_name_H-M   'P 1'
_cell_length_a   7.50162725
_cell_length_b   7.52567198
_cell_length_c   13.12320210
_cell_angle_alpha   84.65153946
_cell_angle_beta   79.13388262
_cell_angle_gamma   59.90751549
_symmetry_Int_Tables_number   1
_chemical_formula_structural   Tm3LuAl24Pt8Rh
_chemical_formula_sum   'Tm3 Lu1 Al24 Pt8 Rh1'
_cell_volume   629.51751319
_cell_formula_units_Z   1
loop_
 _symmetry_equiv_pos_site_id
 _symmetry_equiv_pos_as_xyz
  1  'x, y, z'
loop_
 _atom_site_type_symbol
 _atom_site_label
 _atom_site_symmetry_multiplicity
 _atom_site_fract_x
 _atom_site_fract_y
 _atom_site_fract_z
 _atom_site_occupancy
  Tm  Tm0  1  0.394247  0.168463  0.808232  1
  Tm  Tm1  1  0.605785  0.831545  0.191767  1
  Tm  Tm2  1  0.733722  0.498636  0.808251  1
  Lu  Lu3  1  0.266060  0.501366  0.191972  1
  Al  Al4  1  0.686924  0.830319  0.944924  1
  Al  Al5  1  0.313056  0.169889  0.055182  1
  Al  Al6  1  0.146543  0.832046  0.561864  1
  Al  Al7  1  0.853455  0.167949  0.438150  1
  Al  Al8  1  0.479937  0.166655  0.558981  1
  Al  Al9  1  0.520044  0.833347  0.441032  1
  Al  Al10  1  0.217750  0.165471  0.326893  1
  Al  Al11  1  0.782288  0.834674  0.673000  1
  Al  Al12  1  0.436010  0.507063  0.672888  1
  Al  Al13  1  0.563862  0.492921  0.327010  1
  Al  Al14  1  0.109026  0.160402  0.670977  1
  Al  Al15  1  0.891189  0.839423  0.328911  1
  Al  Al16  1  0.349960  0.498742  0.945175  1
  Al  Al17  1  0.649780  0.501254  0.055036  1
  Al  Al18  1  0.015670  0.172693  0.953279  1
  Al  Al19  1  0.984496  0.827134  0.046829  1
  Al  Al20  1  0.186544  0.499474  0.441064  1
  Al  Al21  1  0.813475  0.500515  0.558908  1
  Al  Al22  1  0.733792  0.164242  0.182697  1
  Al  Al23  1  0.266005  0.835919  0.817283  1
  Al  Al24  1  0.060861  0.627887  0.818226  1
  Al  Al25  1  0.939330  0.372142  0.181768  1
  Al  Al26  1  0.855159  0.041840  0.816803  1
  Al  Al27  1  0.144885  0.957916  0.183174  1
  Pt  Pt28  1  0.119875  0.491605  0.639144  1
  Pt  Pt29  1  0.880338  0.508423  0.360731  1
  Pt  Pt30  1  0.656753  0.171635  0.999843  1
  Pt  Pt31  1  0.343208  0.828380  0.000203  1
  Pt  Pt32  1  0.537004  0.166933  0.360882  1
  Pt  Pt33  1  0.462859  0.833247  0.638981  1
  Pt  Pt34  1  0.778052  0.175643  0.637651  1
  Pt  Pt35  1  0.222036  0.824155  0.362209  1
  Rh  Rh36  1  0.000023  0.500049  0.000077  1
