# generated using pymatgen
data_Hf4VSi2GeN
_symmetry_space_group_name_H-M   'P 1'
_cell_length_a   7.75951214
_cell_length_b   7.74558329
_cell_length_c   5.39559110
_cell_angle_alpha   90.01083255
_cell_angle_beta   89.97837379
_cell_angle_gamma   120.05952210
_symmetry_Int_Tables_number   1
_chemical_formula_structural   Hf4VSi2GeN
_chemical_formula_sum   'Hf8 V2 Si4 Ge2 N2'
_cell_volume   280.67089506
_cell_formula_units_Z   2
loop_
 _symmetry_equiv_pos_site_id
 _symmetry_equiv_pos_as_xyz
  1  'x, y, z'
loop_
 _atom_site_type_symbol
 _atom_site_label
 _atom_site_symmetry_multiplicity
 _atom_site_fract_x
 _atom_site_fract_y
 _atom_site_fract_z
 _atom_site_occupancy
  Hf  Hf0  1  0.233335  0.000000  0.249794  1
  Hf  Hf1  1  0.766665  0.000000  0.750206  1
  Hf  Hf2  1  0.002064  0.238279  0.250663  1
  Hf  Hf3  1  0.997936  0.761721  0.749337  1
  Hf  Hf4  1  0.763786  0.761721  0.250663  1
  Hf  Hf5  1  0.236214  0.238279  0.749337  1
  Hf  Hf6  1  0.669666  0.339333  0.500000  1
  Hf  Hf7  1  0.330334  0.660667  0.500000  1
  V  V8  1  0.329734  0.659469  0.000000  1
  V  V9  1  0.670266  0.340531  0.000000  1
  Si  Si10  1  0.001089  0.590912  0.224477  1
  Si  Si11  1  0.998911  0.409088  0.775523  1
  Si  Si12  1  0.410176  0.409088  0.224477  1
  Si  Si13  1  0.589824  0.590912  0.775523  1
  Ge  Ge14  1  0.592024  0.000000  0.232178  1
  Ge  Ge15  1  0.407976  0.000000  0.767822  1
  N  N16  1  0.000000  0.000000  0.000000  1
  N  N17  1  0.000000  0.000000  0.500000  1
