# generated using pymatgen
data_Tm8Cr(B8Rh)3
_symmetry_space_group_name_H-M   'P 1'
_cell_length_a   3.60555600
_cell_length_b   9.10446743
_cell_length_c   11.45508306
_cell_angle_alpha   90.13609625
_cell_angle_beta   90.00000000
_cell_angle_gamma   90.00000000
_symmetry_Int_Tables_number   1
_chemical_formula_structural   Tm8Cr(B8Rh)3
_chemical_formula_sum   'Tm8 Cr1 B24 Rh3'
_cell_volume   376.03113844
_cell_formula_units_Z   1
loop_
 _symmetry_equiv_pos_site_id
 _symmetry_equiv_pos_as_xyz
  1  'x, y, z'
loop_
 _atom_site_type_symbol
 _atom_site_label
 _atom_site_symmetry_multiplicity
 _atom_site_fract_x
 _atom_site_fract_y
 _atom_site_fract_z
 _atom_site_occupancy
  Tm  Tm0  1  0.500000  0.317793  0.410357  1
  Tm  Tm1  1  0.500000  0.677761  0.585248  1
  Tm  Tm2  1  0.500000  0.178409  0.918341  1
  Tm  Tm3  1  0.500000  0.825507  0.087392  1
  Tm  Tm4  1  0.500000  0.441805  0.126227  1
  Tm  Tm5  1  0.500000  0.556865  0.872903  1
  Tm  Tm6  1  0.500000  0.056152  0.627897  1
  Tm  Tm7  1  0.500000  0.946787  0.371843  1
  Cr  Cr8  1  0.500000  0.138447  0.179455  1
  B  B9  1  0.000000  0.107423  0.471290  1
  B  B10  1  0.000000  0.892084  0.529732  1
  B  B11  1  0.000000  0.393318  0.969928  1
  B  B12  1  0.000000  0.608425  0.029202  1
  B  B13  1  0.000000  0.131915  0.314915  1
  B  B14  1  0.000000  0.867029  0.683657  1
  B  B15  1  0.000000  0.367920  0.816703  1
  B  B16  1  0.000000  0.632607  0.183491  1
  B  B17  1  0.000000  0.053134  0.066935  1
  B  B18  1  0.000000  0.947398  0.934714  1
  B  B19  1  0.000000  0.445724  0.564830  1
  B  B20  1  0.000000  0.552490  0.433782  1
  B  B21  1  0.000000  0.481481  0.286871  1
  B  B22  1  0.000000  0.518358  0.712190  1
  B  B23  1  0.000000  0.018569  0.788056  1
  B  B24  1  0.000000  0.983161  0.212731  1
  B  B25  1  0.000000  0.248272  0.080661  1
  B  B26  1  0.000000  0.751313  0.920734  1
  B  B27  1  0.000000  0.250117  0.578675  1
  B  B28  1  0.000000  0.749722  0.420580  1
  B  B29  1  0.000000  0.292544  0.234884  1
  B  B30  1  0.000000  0.705840  0.763358  1
  B  B31  1  0.000000  0.206913  0.736420  1
  B  B32  1  0.000000  0.793394  0.264888  1
  Rh  Rh33  1  0.500000  0.861655  0.820956  1
  Rh  Rh34  1  0.500000  0.360946  0.679095  1
  Rh  Rh35  1  0.500000  0.638723  0.321056  1
