# generated using pymatgen
data_Pr5ZnSe4
_symmetry_space_group_name_H-M   'P 1'
_cell_length_a   7.41853113
_cell_length_b   7.41853152
_cell_length_c   7.41853066
_cell_angle_alpha   99.61477628
_cell_angle_beta   99.61478730
_cell_angle_gamma   131.75553807
_symmetry_Int_Tables_number   1
_chemical_formula_structural   Pr5ZnSe4
_chemical_formula_sum   'Pr5 Zn1 Se4'
_cell_volume   277.97452420
_cell_formula_units_Z   1
loop_
 _symmetry_equiv_pos_site_id
 _symmetry_equiv_pos_as_xyz
  1  'x, y, z'
loop_
 _atom_site_type_symbol
 _atom_site_label
 _atom_site_symmetry_multiplicity
 _atom_site_fract_x
 _atom_site_fract_y
 _atom_site_fract_z
 _atom_site_occupancy
  Pr  Pr0  1  0.399965  0.801059  0.201024  1
  Pr  Pr1  1  0.000000  0.000000  0.000000  1
  Pr  Pr2  1  0.600035  0.198941  0.798976  1
  Pr  Pr3  1  0.198941  0.399965  0.598906  1
  Pr  Pr4  1  0.801059  0.600035  0.401094  1
  Zn  Zn5  1  0.500000  0.500000  0.000000  1
  Se  Se6  1  0.099918  0.698889  0.798806  1
  Se  Se7  1  0.698889  0.900082  0.598971  1
  Se  Se8  1  0.301111  0.099918  0.401029  1
  Se  Se9  1  0.900082  0.301111  0.201194  1
