# generated using pymatgen
data_Dy3In3Cu2Hg
_symmetry_space_group_name_H-M   'P 1'
_cell_length_a   7.62508100
_cell_length_b   7.62508188
_cell_length_c   4.01714900
_cell_angle_alpha   90.00000000
_cell_angle_beta   90.00000000
_cell_angle_gamma   120.00000920
_symmetry_Int_Tables_number   1
_chemical_formula_structural   Dy3In3Cu2Hg
_chemical_formula_sum   'Dy3 In3 Cu2 Hg1'
_cell_volume   202.27280863
_cell_formula_units_Z   1
loop_
 _symmetry_equiv_pos_site_id
 _symmetry_equiv_pos_as_xyz
  1  'x, y, z'
loop_
 _atom_site_type_symbol
 _atom_site_label
 _atom_site_symmetry_multiplicity
 _atom_site_fract_x
 _atom_site_fract_y
 _atom_site_fract_z
 _atom_site_occupancy
  Dy  Dy0  1  0.414118  0.014448  0.500000  1
  Dy  Dy1  1  0.985552  0.399670  0.500000  1
  Dy  Dy2  1  0.600330  0.585882  0.500000  1
  In  In3  1  0.756630  0.010033  0.000000  1
  In  In4  1  0.989967  0.746596  0.000000  1
  In  In5  1  0.253404  0.243370  0.000000  1
  Cu  Cu6  1  0.000000  0.000000  0.500000  1
  Cu  Cu7  1  0.666667  0.333333  0.000000  1
  Hg  Hg8  1  0.333333  0.666667  0.000000  1
