# generated using pymatgen
data_Sr2Ca2As7Rh8
_symmetry_space_group_name_H-M   'P 1'
_cell_length_a   4.13748600
_cell_length_b   13.26642782
_cell_length_c   13.50244000
_cell_angle_alpha   82.14859263
_cell_angle_beta   90.00000000
_cell_angle_gamma   90.00000000
_symmetry_Int_Tables_number   1
_chemical_formula_structural   Sr2Ca2As7Rh8
_chemical_formula_sum   'Sr4 Ca4 As14 Rh16'
_cell_volume   734.19660371
_cell_formula_units_Z   2
loop_
 _symmetry_equiv_pos_site_id
 _symmetry_equiv_pos_as_xyz
  1  'x, y, z'
loop_
 _atom_site_type_symbol
 _atom_site_label
 _atom_site_symmetry_multiplicity
 _atom_site_fract_x
 _atom_site_fract_y
 _atom_site_fract_z
 _atom_site_occupancy
  Sr  Sr0  1  0.250000  0.103526  0.792633  1
  Sr  Sr1  1  0.750000  0.896474  0.207367  1
  Sr  Sr2  1  0.250000  0.286177  0.104861  1
  Sr  Sr3  1  0.750000  0.713823  0.895139  1
  Ca  Ca4  1  0.250000  0.514887  0.292055  1
  Ca  Ca5  1  0.750000  0.485113  0.707945  1
  Ca  Ca6  1  0.250000  0.213316  0.435654  1
  Ca  Ca7  1  0.750000  0.786684  0.564346  1
  As  As8  1  0.250000  0.057198  0.099704  1
  As  As9  1  0.750000  0.942802  0.900296  1
  As  As10  1  0.250000  0.313384  0.684995  1
  As  As11  1  0.750000  0.686616  0.315005  1
  As  As12  1  0.250000  0.607793  0.564649  1
  As  As13  1  0.750000  0.392207  0.435351  1
  As  As14  1  0.250000  0.848147  0.717337  1
  As  As15  1  0.750000  0.151853  0.282663  1
  As  As16  1  0.750000  0.257811  0.917859  1
  As  As17  1  0.250000  0.742189  0.082141  1
  As  As18  1  0.750000  0.094102  0.585040  1
  As  As19  1  0.250000  0.905898  0.414960  1
  As  As20  1  0.750000  0.472127  0.129587  1
  As  As21  1  0.250000  0.527873  0.870413  1
  Rh  Rh22  1  0.250000  0.985205  0.572804  1
  Rh  Rh23  1  0.750000  0.014795  0.427196  1
  Rh  Rh24  1  0.250000  0.665920  0.726661  1
  Rh  Rh25  1  0.750000  0.334080  0.273339  1
  Rh  Rh26  1  0.250000  0.553895  0.048751  1
  Rh  Rh27  1  0.750000  0.446105  0.951249  1
  Rh  Rh28  1  0.250000  0.056835  0.282130  1
  Rh  Rh29  1  0.750000  0.943165  0.717870  1
  Rh  Rh30  1  0.250000  0.426644  0.526461  1
  Rh  Rh31  1  0.750000  0.573356  0.473539  1
  Rh  Rh32  1  0.250000  0.918742  0.999493  1
  Rh  Rh33  1  0.750000  0.081258  0.000507  1
  Rh  Rh34  1  0.250000  0.720214  0.401977  1
  Rh  Rh35  1  0.750000  0.279786  0.598023  1
  Rh  Rh36  1  0.250000  0.345244  0.856956  1
  Rh  Rh37  1  0.750000  0.654756  0.143044  1
