# generated using pymatgen
data_Y6HoErIn8
_symmetry_space_group_name_H-M   'P 1'
_cell_length_a   6.51652274
_cell_length_b   6.51652320
_cell_length_c   10.30924800
_cell_angle_alpha   90.00000000
_cell_angle_beta   90.00000000
_cell_angle_gamma   103.29283107
_symmetry_Int_Tables_number   1
_chemical_formula_structural   Y6HoErIn8
_chemical_formula_sum   'Y6 Ho1 Er1 In8'
_cell_volume   426.05372051
_cell_formula_units_Z   1
loop_
 _symmetry_equiv_pos_site_id
 _symmetry_equiv_pos_as_xyz
  1  'x, y, z'
loop_
 _atom_site_type_symbol
 _atom_site_label
 _atom_site_symmetry_multiplicity
 _atom_site_fract_x
 _atom_site_fract_y
 _atom_site_fract_z
 _atom_site_occupancy
  Y  Y0  1  0.528231  0.528231  0.250000  1
  Y  Y1  1  0.471640  0.471640  0.750000  1
  Y  Y2  1  0.246877  0.753179  0.500059  1
  Y  Y3  1  0.246877  0.753179  0.999941  1
  Y  Y4  1  0.753179  0.246877  0.500059  1
  Y  Y5  1  0.753179  0.246877  0.999941  1
  Ho  Ho6  1  0.980872  0.980872  0.250000  1
  Er  Er7  1  0.018978  0.018978  0.750000  1
  In  In8  1  0.253247  0.253247  0.016275  1
  In  In9  1  0.746796  0.746796  0.983557  1
  In  In10  1  0.253247  0.253247  0.483725  1
  In  In11  1  0.746796  0.746796  0.516443  1
  In  In12  1  0.488094  0.018817  0.250000  1
  In  In13  1  0.981234  0.511936  0.750000  1
  In  In14  1  0.511936  0.981234  0.750000  1
  In  In15  1  0.018817  0.488094  0.250000  1
