# generated using pymatgen
data_LiHo5(P2Ir3)6
_symmetry_space_group_name_H-M   'P 1'
_cell_length_a   12.68926264
_cell_length_b   12.78083266
_cell_length_c   3.96144200
_cell_angle_alpha   90.00000000
_cell_angle_beta   90.00000000
_cell_angle_gamma   120.23900138
_symmetry_Int_Tables_number   1
_chemical_formula_structural   LiHo5(P2Ir3)6
_chemical_formula_sum   'Li1 Ho5 P12 Ir18'
_cell_volume   555.04538416
_cell_formula_units_Z   1
loop_
 _symmetry_equiv_pos_site_id
 _symmetry_equiv_pos_as_xyz
  1  'x, y, z'
loop_
 _atom_site_type_symbol
 _atom_site_label
 _atom_site_symmetry_multiplicity
 _atom_site_fract_x
 _atom_site_fract_y
 _atom_site_fract_z
 _atom_site_occupancy
  Li  Li0  1  0.000000  0.557371  0.000000  1
  Ho  Ho1  1  0.000000  0.191576  0.500000  1
  Ho  Ho2  1  0.812254  0.812442  0.500000  1
  Ho  Ho3  1  0.187746  0.000187  0.500000  1
  Ho  Ho4  1  0.669083  0.335703  0.000000  1
  Ho  Ho5  1  0.330917  0.666621  0.000000  1
  P  P6  1  0.000000  0.820103  0.000000  1
  P  P7  1  0.177838  0.176239  0.000000  1
  P  P8  1  0.822162  0.998400  0.000000  1
  P  P9  1  0.691624  0.172047  0.500000  1
  P  P10  1  0.831126  0.515471  0.500000  1
  P  P11  1  0.484195  0.310809  0.500000  1
  P  P12  1  0.168874  0.684345  0.500000  1
  P  P13  1  0.515805  0.826613  0.500000  1
  P  P14  1  0.308376  0.480423  0.500000  1
  P  P15  1  0.000000  0.367399  0.000000  1
  P  P16  1  0.641153  0.641849  0.000000  1
  P  P17  1  0.358847  0.000695  0.000000  1
  Ir  Ir18  1  0.460291  0.462287  0.000000  1
  Ir  Ir19  1  0.539709  0.001997  0.000000  1
  Ir  Ir20  1  0.000000  0.718878  0.500000  1
  Ir  Ir21  1  0.283786  0.281453  0.500000  1
  Ir  Ir22  1  0.716214  0.997667  0.500000  1
  Ir  Ir23  1  0.803298  0.175303  0.000000  1
  Ir  Ir24  1  0.817201  0.624686  0.000000  1
  Ir  Ir25  1  0.377333  0.194511  0.000000  1
  Ir  Ir26  1  0.182799  0.807485  0.000000  1
  Ir  Ir27  1  0.622667  0.817179  0.000000  1
  Ir  Ir28  1  0.196702  0.372005  0.000000  1
  Ir  Ir29  1  0.869021  0.358700  0.500000  1
  Ir  Ir30  1  0.639000  0.505725  0.500000  1
  Ir  Ir31  1  0.496063  0.133154  0.500000  1
  Ir  Ir32  1  0.361000  0.866724  0.500000  1
  Ir  Ir33  1  0.503937  0.637090  0.500000  1
  Ir  Ir34  1  0.130979  0.489679  0.500000  1
  Ir  Ir35  1  0.000000  0.997184  0.000000  1
