# generated using pymatgen
data_Er3GeS2
_symmetry_space_group_name_H-M   'P 1'
_cell_length_a   6.84950689
_cell_length_b   6.84950688
_cell_length_c   6.84950764
_cell_angle_alpha   146.29993862
_cell_angle_beta   131.73725653
_cell_angle_gamma   60.15408290
_symmetry_Int_Tables_number   1
_chemical_formula_structural   Er3GeS2
_chemical_formula_sum   'Er3 Ge1 S2'
_cell_volume   131.81766058
_cell_formula_units_Z   1
loop_
 _symmetry_equiv_pos_site_id
 _symmetry_equiv_pos_as_xyz
  1  'x, y, z'
loop_
 _atom_site_type_symbol
 _atom_site_label
 _atom_site_symmetry_multiplicity
 _atom_site_fract_x
 _atom_site_fract_y
 _atom_site_fract_z
 _atom_site_occupancy
  Er  Er0  1  0.332067  0.332067  0.000000  1
  Er  Er1  1  0.000000  0.000000  0.000000  1
  Er  Er2  1  0.667933  0.667933  0.000000  1
  Ge  Ge3  1  0.500000  0.000000  0.500000  1
  S  S4  1  0.165764  0.665764  0.500000  1
  S  S5  1  0.834236  0.334236  0.500000  1
