# generated using pymatgen
data_Cs4TlOsCl12
_symmetry_space_group_name_H-M   'P 1'
_cell_length_a   12.89340963
_cell_length_b   12.89340894
_cell_length_c   12.89340800
_cell_angle_alpha   131.84035273
_cell_angle_beta   131.84035595
_cell_angle_gamma   70.48128705
_symmetry_Int_Tables_number   1
_chemical_formula_structural   Cs4TlOsCl12
_chemical_formula_sum   'Cs8 Tl2 Os2 Cl24'
_cell_volume   1165.69322498
_cell_formula_units_Z   2
loop_
 _symmetry_equiv_pos_site_id
 _symmetry_equiv_pos_as_xyz
  1  'x, y, z'
loop_
 _atom_site_type_symbol
 _atom_site_label
 _atom_site_symmetry_multiplicity
 _atom_site_fract_x
 _atom_site_fract_y
 _atom_site_fract_z
 _atom_site_occupancy
  Cs  Cs0  1  0.374994  0.848496  0.973491  1
  Cs  Cs1  1  0.598496  0.624994  0.473491  1
  Cs  Cs2  1  0.875007  0.848506  0.473513  1
  Cs  Cs3  1  0.598506  0.125007  0.973513  1
  Cs  Cs4  1  0.874993  0.401494  0.026487  1
  Cs  Cs5  1  0.151494  0.124993  0.526487  1
  Cs  Cs6  1  0.375006  0.401504  0.526509  1
  Cs  Cs7  1  0.151504  0.625006  0.026509  1
  Tl  Tl8  1  0.499999  0.500001  0.000000  1
  Tl  Tl9  1  0.250001  0.749999  0.500000  1
  Os  Os10  1  0.000001  0.000000  0.000000  1
  Os  Os11  1  0.749999  0.250000  0.500000  1
  Cl  Cl12  1  0.746398  0.495309  0.251083  1
  Cl  Cl13  1  0.504690  0.253602  0.748917  1
  Cl  Cl14  1  0.374722  0.374723  0.999999  1
  Cl  Cl15  1  0.124723  0.624722  0.499999  1
  Cl  Cl16  1  0.375278  0.875277  0.500001  1
  Cl  Cl17  1  0.625277  0.625278  0.000001  1
  Cl  Cl18  1  0.110347  0.110348  0.000003  1
  Cl  Cl19  1  0.860348  0.360347  0.500003  1
  Cl  Cl20  1  0.639653  0.139652  0.499997  1
  Cl  Cl21  1  0.889652  0.889653  0.999997  1
  Cl  Cl22  1  0.221984  0.000870  0.221114  1
  Cl  Cl23  1  0.750870  0.029756  0.278889  1
  Cl  Cl24  1  0.504687  0.755769  0.251082  1
  Cl  Cl25  1  0.528016  0.249130  0.278886  1
  Cl  Cl26  1  0.970244  0.249130  0.721111  1
  Cl  Cl27  1  0.999130  0.220244  0.221111  1
  Cl  Cl28  1  0.999130  0.778016  0.778886  1
  Cl  Cl29  1  0.779756  0.000870  0.778889  1
  Cl  Cl30  1  0.750870  0.471984  0.721114  1
  Cl  Cl31  1  0.245313  0.494231  0.248918  1
  Cl  Cl32  1  0.245310  0.996398  0.751083  1
  Cl  Cl33  1  0.003602  0.754691  0.248917  1
  Cl  Cl34  1  0.505769  0.754688  0.751082  1
  Cl  Cl35  1  0.244231  0.495312  0.748918  1
