# generated using pymatgen
data_Tb4Th2VFe15(CoP6)2
_symmetry_space_group_name_H-M   'P 1'
_cell_length_a   3.75228200
_cell_length_b   10.59714500
_cell_length_c   12.28416500
_cell_angle_alpha   90.00000000
_cell_angle_beta   90.00000000
_cell_angle_gamma   90.00000000
_symmetry_Int_Tables_number   1
_chemical_formula_structural   Tb4Th2VFe15(CoP6)2
_chemical_formula_sum   'Tb4 Th2 V1 Fe15 Co2 P12'
_cell_volume   488.46110550
_cell_formula_units_Z   1
loop_
 _symmetry_equiv_pos_site_id
 _symmetry_equiv_pos_as_xyz
  1  'x, y, z'
loop_
 _atom_site_type_symbol
 _atom_site_label
 _atom_site_symmetry_multiplicity
 _atom_site_fract_x
 _atom_site_fract_y
 _atom_site_fract_z
 _atom_site_occupancy
  Tb  Tb0  1  0.500000  0.819660  0.205194  1
  Tb  Tb1  1  0.500000  0.180340  0.205194  1
  Tb  Tb2  1  0.000000  0.681582  0.795162  1
  Tb  Tb3  1  0.000000  0.318418  0.795162  1
  Th  Th4  1  0.000000  0.500000  0.527616  1
  Th  Th5  1  0.500000  0.000000  0.474318  1
  V  V6  1  0.500000  0.500000  0.143857  1
  Fe  Fe7  1  0.000000  0.000000  0.849266  1
  Fe  Fe8  1  0.000000  0.500000  0.987509  1
  Fe  Fe9  1  0.500000  0.000000  0.010264  1
  Fe  Fe10  1  0.500000  0.326332  0.996493  1
  Fe  Fe11  1  0.500000  0.673668  0.996493  1
  Fe  Fe12  1  0.000000  0.171000  0.002561  1
  Fe  Fe13  1  0.000000  0.829000  0.002561  1
  Fe  Fe14  1  0.500000  0.300115  0.428610  1
  Fe  Fe15  1  0.500000  0.699885  0.428610  1
  Fe  Fe16  1  0.000000  0.198577  0.571803  1
  Fe  Fe17  1  0.000000  0.801423  0.571803  1
  Fe  Fe18  1  0.500000  0.883928  0.711456  1
  Fe  Fe19  1  0.500000  0.116072  0.711456  1
  Fe  Fe20  1  0.000000  0.617156  0.290624  1
  Fe  Fe21  1  0.000000  0.382844  0.290624  1
  Co  Co22  1  0.500000  0.500000  0.699862  1
  Co  Co23  1  0.000000  0.000000  0.299481  1
  P  P24  1  0.500000  0.500000  0.885942  1
  P  P25  1  0.000000  0.000000  0.113927  1
  P  P26  1  0.500000  0.500000  0.340744  1
  P  P27  1  0.000000  0.000000  0.664546  1
  P  P28  1  0.500000  0.300372  0.615820  1
  P  P29  1  0.500000  0.699628  0.615820  1
  P  P30  1  0.000000  0.197930  0.385597  1
  P  P31  1  0.000000  0.802070  0.385597  1
  P  P32  1  0.500000  0.851056  0.889622  1
  P  P33  1  0.500000  0.148944  0.889622  1
  P  P34  1  0.000000  0.652845  0.108393  1
  P  P35  1  0.000000  0.347155  0.108393  1
