# generated using pymatgen
data_YTiMn3CoP3
_symmetry_space_group_name_H-M   'P 1'
_cell_length_a   3.62761400
_cell_length_b   10.74205300
_cell_length_c   12.38329800
_cell_angle_alpha   90.00000000
_cell_angle_beta   90.00000000
_cell_angle_gamma   90.00000000
_symmetry_Int_Tables_number   1
_chemical_formula_structural   YTiMn3CoP3
_chemical_formula_sum   'Y4 Ti4 Mn12 Co4 P12'
_cell_volume   482.55262706
_cell_formula_units_Z   4
loop_
 _symmetry_equiv_pos_site_id
 _symmetry_equiv_pos_as_xyz
  1  'x, y, z'
loop_
 _atom_site_type_symbol
 _atom_site_label
 _atom_site_symmetry_multiplicity
 _atom_site_fract_x
 _atom_site_fract_y
 _atom_site_fract_z
 _atom_site_occupancy
  Y  Y0  1  0.250000  0.915336  0.209523  1
  Y  Y1  1  0.750000  0.084664  0.790477  1
  Y  Y2  1  0.750000  0.415336  0.290477  1
  Y  Y3  1  0.250000  0.584664  0.709523  1
  Ti  Ti4  1  0.250000  0.795881  0.486357  1
  Ti  Ti5  1  0.750000  0.204119  0.513643  1
  Ti  Ti6  1  0.750000  0.295881  0.013643  1
  Ti  Ti7  1  0.250000  0.704119  0.986357  1
  Mn  Mn8  1  0.250000  0.091028  0.993416  1
  Mn  Mn9  1  0.750000  0.908972  0.006584  1
  Mn  Mn10  1  0.750000  0.591028  0.506584  1
  Mn  Mn11  1  0.250000  0.408972  0.493416  1
  Mn  Mn12  1  0.250000  0.284384  0.676871  1
  Mn  Mn13  1  0.750000  0.715616  0.323129  1
  Mn  Mn14  1  0.750000  0.784384  0.823129  1
  Mn  Mn15  1  0.250000  0.215616  0.176871  1
  Mn  Mn16  1  0.250000  0.620190  0.198110  1
  Mn  Mn17  1  0.750000  0.379810  0.801890  1
  Mn  Mn18  1  0.750000  0.120190  0.301890  1
  Mn  Mn19  1  0.250000  0.879810  0.698110  1
  Co  Co20  1  0.250000  0.036745  0.434633  1
  Co  Co21  1  0.750000  0.963255  0.565367  1
  Co  Co22  1  0.750000  0.536745  0.065367  1
  Co  Co23  1  0.250000  0.463255  0.934633  1
  P  P24  1  0.250000  0.076364  0.613632  1
  P  P25  1  0.750000  0.923636  0.386368  1
  P  P26  1  0.750000  0.576364  0.886368  1
  P  P27  1  0.250000  0.423636  0.113632  1
  P  P28  1  0.250000  0.233887  0.368482  1
  P  P29  1  0.750000  0.766113  0.631518  1
  P  P30  1  0.750000  0.733887  0.131518  1
  P  P31  1  0.250000  0.266113  0.868482  1
  P  P32  1  0.250000  0.910031  0.884725  1
  P  P33  1  0.750000  0.089969  0.115275  1
  P  P34  1  0.750000  0.410031  0.615275  1
  P  P35  1  0.250000  0.589969  0.384725  1
