# generated using pymatgen
data_Nd16CdHg3(RuPt)2
_symmetry_space_group_name_H-M   'P 1'
_cell_length_a   9.93919803
_cell_length_b   9.95799969
_cell_length_c   10.02680200
_cell_angle_alpha   59.77117945
_cell_angle_beta   59.70800480
_cell_angle_gamma   59.80780296
_symmetry_Int_Tables_number   1
_chemical_formula_structural   Nd16CdHg3(RuPt)2
_chemical_formula_sum   'Nd16 Cd1 Hg3 Ru2 Pt2'
_cell_volume   697.94332286
_cell_formula_units_Z   1
loop_
 _symmetry_equiv_pos_site_id
 _symmetry_equiv_pos_as_xyz
  1  'x, y, z'
loop_
 _atom_site_type_symbol
 _atom_site_label
 _atom_site_symmetry_multiplicity
 _atom_site_fract_x
 _atom_site_fract_y
 _atom_site_fract_z
 _atom_site_occupancy
  Nd  Nd0  1  0.349393  0.348583  0.355021  1
  Nd  Nd1  1  0.349393  0.348583  0.947004  1
  Nd  Nd2  1  0.344884  0.953918  0.350599  1
  Nd  Nd3  1  0.951665  0.345568  0.351384  1
  Nd  Nd4  1  0.814125  0.189813  0.192246  1
  Nd  Nd5  1  0.188616  0.814871  0.804707  1
  Nd  Nd6  1  0.188616  0.814871  0.191805  1
  Nd  Nd7  1  0.814125  0.189813  0.803816  1
  Nd  Nd8  1  0.189239  0.189944  0.810408  1
  Nd  Nd9  1  0.805618  0.805717  0.194333  1
  Nd  Nd10  1  0.937418  0.558553  0.564717  1
  Nd  Nd11  1  0.557646  0.938332  0.939364  1
  Nd  Nd12  1  0.557646  0.938332  0.564658  1
  Nd  Nd13  1  0.937418  0.558553  0.939312  1
  Nd  Nd14  1  0.561000  0.561946  0.938527  1
  Nd  Nd15  1  0.936833  0.937995  0.562586  1
  Cd  Cd16  1  0.260084  0.580999  0.579459  1
  Hg  Hg17  1  0.582716  0.585081  0.584008  1
  Hg  Hg18  1  0.582716  0.585081  0.248195  1
  Hg  Hg19  1  0.583857  0.246416  0.584863  1
  Ru  Ru20  1  0.143694  0.144018  0.136255  1
  Ru  Ru21  1  0.143694  0.144018  0.576035  1
  Pt  Pt22  1  0.146385  0.572822  0.140397  1
  Pt  Pt23  1  0.573223  0.146174  0.140302  1
