# generated using pymatgen
data_Ba4GdBiO8
_symmetry_space_group_name_H-M   'P 1'
_cell_length_a   7.58667800
_cell_length_b   7.58667571
_cell_length_c   6.15168600
_cell_angle_alpha   90.00000000
_cell_angle_beta   90.00000000
_cell_angle_gamma   132.12859419
_symmetry_Int_Tables_number   1
_chemical_formula_structural   Ba4GdBiO8
_chemical_formula_sum   'Ba4 Gd1 Bi1 O8'
_cell_volume   262.59784556
_cell_formula_units_Z   1
loop_
 _symmetry_equiv_pos_site_id
 _symmetry_equiv_pos_as_xyz
  1  'x, y, z'
loop_
 _atom_site_type_symbol
 _atom_site_label
 _atom_site_symmetry_multiplicity
 _atom_site_fract_x
 _atom_site_fract_y
 _atom_site_fract_z
 _atom_site_occupancy
  Ba  Ba0  1  0.351178  0.648822  0.000000  1
  Ba  Ba1  1  0.852382  0.147618  0.500000  1
  Ba  Ba2  1  0.147618  0.852382  0.500000  1
  Ba  Ba3  1  0.648822  0.351178  0.000000  1
  Gd  Gd4  1  0.000000  0.000000  0.000000  1
  Bi  Bi5  1  0.500000  0.500000  0.500000  1
  O  O6  1  0.254144  0.254144  0.739817  1
  O  O7  1  0.745856  0.745856  0.260183  1
  O  O8  1  0.745856  0.745856  0.739817  1
  O  O9  1  0.254144  0.254144  0.260183  1
  O  O10  1  0.167299  0.832701  0.000000  1
  O  O11  1  0.658364  0.341636  0.500000  1
  O  O12  1  0.341636  0.658364  0.500000  1
  O  O13  1  0.832701  0.167299  0.000000  1
