# generated using pymatgen
data_Dy19TmPb16
_symmetry_space_group_name_H-M   'P 1'
_cell_length_a   8.20639700
_cell_length_b   8.28250730
_cell_length_c   15.65313200
_cell_angle_alpha   90.00000000
_cell_angle_beta   90.00000000
_cell_angle_gamma   90.03207731
_symmetry_Int_Tables_number   1
_chemical_formula_structural   Dy19TmPb16
_chemical_formula_sum   'Dy19 Tm1 Pb16'
_cell_volume   1063.93606249
_cell_formula_units_Z   1
loop_
 _symmetry_equiv_pos_site_id
 _symmetry_equiv_pos_as_xyz
  1  'x, y, z'
loop_
 _atom_site_type_symbol
 _atom_site_label
 _atom_site_symmetry_multiplicity
 _atom_site_fract_x
 _atom_site_fract_y
 _atom_site_fract_z
 _atom_site_occupancy
  Dy  Dy0  1  0.377320  0.841192  0.879176  1
  Dy  Dy1  1  0.877193  0.658894  0.620905  1
  Dy  Dy2  1  0.622432  0.158635  0.379057  1
  Dy  Dy3  1  0.122970  0.341009  0.120938  1
  Dy  Dy4  1  0.622432  0.158635  0.120943  1
  Dy  Dy5  1  0.122970  0.341009  0.379062  1
  Dy  Dy6  1  0.377320  0.841192  0.620824  1
  Dy  Dy7  1  0.877193  0.658894  0.879095  1
  Dy  Dy8  1  0.536631  0.323462  0.899998  1
  Dy  Dy9  1  0.036511  0.176445  0.599928  1
  Dy  Dy10  1  0.463280  0.676709  0.400000  1
  Dy  Dy11  1  0.963586  0.823665  0.099993  1
  Dy  Dy12  1  0.463280  0.676709  0.100000  1
  Dy  Dy13  1  0.963586  0.823665  0.400007  1
  Dy  Dy14  1  0.536631  0.323462  0.600002  1
  Dy  Dy15  1  0.036511  0.176445  0.900072  1
  Dy  Dy16  1  0.208883  0.504063  0.750000  1
  Dy  Dy17  1  0.791168  0.496006  0.250000  1
  Dy  Dy18  1  0.708945  0.995934  0.750000  1
  Tm  Tm19  1  0.290961  0.004204  0.250000  1
  Pb  Pb20  1  0.280786  0.032810  0.043174  1
  Pb  Pb21  1  0.780736  0.467087  0.457244  1
  Pb  Pb22  1  0.719245  0.967065  0.542818  1
  Pb  Pb23  1  0.219230  0.532887  0.957328  1
  Pb  Pb24  1  0.719245  0.967065  0.957182  1
  Pb  Pb25  1  0.219230  0.532887  0.542672  1
  Pb  Pb26  1  0.280786  0.032810  0.456826  1
  Pb  Pb27  1  0.780736  0.467087  0.042756  1
  Pb  Pb28  1  0.572811  0.625841  0.750000  1
  Pb  Pb29  1  0.072388  0.874585  0.750000  1
  Pb  Pb30  1  0.427035  0.373730  0.250000  1
  Pb  Pb31  1  0.928310  0.125119  0.250000  1
  Pb  Pb32  1  0.347932  0.153266  0.750000  1
  Pb  Pb33  1  0.847752  0.345981  0.750000  1
  Pb  Pb34  1  0.651662  0.846716  0.250000  1
  Pb  Pb35  1  0.152313  0.654838  0.250000  1
