# generated using pymatgen
data_Er5TcRuO12
_symmetry_space_group_name_H-M   'P 1'
_cell_length_a   6.78539006
_cell_length_b   6.78539089
_cell_length_c   7.43624604
_cell_angle_alpha   73.85442993
_cell_angle_beta   73.85442916
_cell_angle_gamma   49.12276865
_symmetry_Int_Tables_number   1
_chemical_formula_structural   Er5TcRuO12
_chemical_formula_sum   'Er5 Tc1 Ru1 O12'
_cell_volume   246.47870548
_cell_formula_units_Z   1
loop_
 _symmetry_equiv_pos_site_id
 _symmetry_equiv_pos_as_xyz
  1  'x, y, z'
loop_
 _atom_site_type_symbol
 _atom_site_label
 _atom_site_symmetry_multiplicity
 _atom_site_fract_x
 _atom_site_fract_y
 _atom_site_fract_z
 _atom_site_occupancy
  Er  Er0  1  0.706184  0.688173  0.641977  1
  Er  Er1  1  0.311827  0.293816  0.358023  1
  Er  Er2  1  0.688627  0.681952  0.174751  1
  Er  Er3  1  0.318048  0.311373  0.825249  1
  Er  Er4  1  0.005785  0.994215  0.500000  1
  Tc  Tc5  1  0.206868  0.793132  0.000000  1
  Ru  Ru6  1  0.772867  0.227133  0.000000  1
  O  O7  1  0.999360  0.004478  0.203742  1
  O  O8  1  0.995522  0.000640  0.796258  1
  O  O9  1  0.570704  0.087052  0.085481  1
  O  O10  1  0.413040  0.911117  0.914336  1
  O  O11  1  0.912948  0.429296  0.914519  1
  O  O12  1  0.088883  0.586960  0.085664  1
  O  O13  1  0.493414  0.504333  0.179120  1
  O  O14  1  0.495667  0.506586  0.820880  1
  O  O15  1  0.407734  0.894457  0.430240  1
  O  O16  1  0.598668  0.091688  0.575596  1
  O  O17  1  0.105543  0.592266  0.569760  1
  O  O18  1  0.908312  0.401332  0.424404  1
