# generated using pymatgen
data_Zr8In3Pd8Pb
_symmetry_space_group_name_H-M   'P 1'
_cell_length_a   7.55824900
_cell_length_b   7.55824900
_cell_length_c   6.94025800
_cell_angle_alpha   90.00000000
_cell_angle_beta   90.00000000
_cell_angle_gamma   90.00000000
_symmetry_Int_Tables_number   1
_chemical_formula_structural   Zr8In3Pd8Pb
_chemical_formula_sum   'Zr8 In3 Pd8 Pb1'
_cell_volume   396.47700674
_cell_formula_units_Z   1
loop_
 _symmetry_equiv_pos_site_id
 _symmetry_equiv_pos_as_xyz
  1  'x, y, z'
loop_
 _atom_site_type_symbol
 _atom_site_label
 _atom_site_symmetry_multiplicity
 _atom_site_fract_x
 _atom_site_fract_y
 _atom_site_fract_z
 _atom_site_occupancy
  Zr  Zr0  1  0.148220  0.153893  0.997867  1
  Zr  Zr1  1  0.851780  0.846107  0.997867  1
  Zr  Zr2  1  0.653893  0.351780  0.502133  1
  Zr  Zr3  1  0.346107  0.648220  0.502133  1
  Zr  Zr4  1  0.687395  0.315839  0.998977  1
  Zr  Zr5  1  0.312605  0.684161  0.998977  1
  Zr  Zr6  1  0.815839  0.812605  0.501023  1
  Zr  Zr7  1  0.184161  0.187395  0.501023  1
  In  In8  1  0.500000  0.000000  0.750000  1
  In  In9  1  0.000000  0.500000  0.250000  1
  In  In10  1  0.000000  0.500000  0.750000  1
  Pd  Pd11  1  0.367647  0.373552  0.214960  1
  Pd  Pd12  1  0.629004  0.631115  0.783230  1
  Pd  Pd13  1  0.632353  0.626448  0.214960  1
  Pd  Pd14  1  0.868885  0.129004  0.716770  1
  Pd  Pd15  1  0.873552  0.132353  0.285040  1
  Pd  Pd16  1  0.370996  0.368885  0.783230  1
  Pd  Pd17  1  0.126448  0.867647  0.285040  1
  Pd  Pd18  1  0.131115  0.870996  0.716770  1
  Pb  Pb19  1  0.500000  0.000000  0.250000  1
