# generated using pymatgen
data_FeNi5Pt6
_symmetry_space_group_name_H-M   'P 1'
_cell_length_a   3.64642200
_cell_length_b   3.86270800
_cell_length_c   11.57406900
_cell_angle_alpha   90.00000000
_cell_angle_beta   90.00000000
_cell_angle_gamma   90.00000000
_symmetry_Int_Tables_number   1
_chemical_formula_structural   FeNi5Pt6
_chemical_formula_sum   'Fe1 Ni5 Pt6'
_cell_volume   163.02149602
_cell_formula_units_Z   1
loop_
 _symmetry_equiv_pos_site_id
 _symmetry_equiv_pos_as_xyz
  1  'x, y, z'
loop_
 _atom_site_type_symbol
 _atom_site_label
 _atom_site_symmetry_multiplicity
 _atom_site_fract_x
 _atom_site_fract_y
 _atom_site_fract_z
 _atom_site_occupancy
  Fe  Fe0  1  0.000000  0.000000  0.000000  1
  Ni  Ni1  1  0.000000  0.000000  0.336133  1
  Ni  Ni2  1  0.000000  0.000000  0.663867  1
  Ni  Ni3  1  0.000000  0.500000  0.165693  1
  Ni  Ni4  1  0.000000  0.500000  0.500000  1
  Ni  Ni5  1  0.000000  0.500000  0.834307  1
  Pt  Pt6  1  0.500000  0.500000  0.000000  1
  Pt  Pt7  1  0.500000  0.500000  0.332911  1
  Pt  Pt8  1  0.500000  0.500000  0.667089  1
  Pt  Pt9  1  0.500000  0.000000  0.167208  1
  Pt  Pt10  1  0.500000  0.000000  0.500000  1
  Pt  Pt11  1  0.500000  0.000000  0.832792  1
