# generated using pymatgen
data_Tb3Al2Co8NiB4
_symmetry_space_group_name_H-M   'P 1'
_cell_length_a   5.14020015
_cell_length_b   5.15558600
_cell_length_c   9.55657800
_cell_angle_alpha   89.99985656
_cell_angle_beta   90.00006754
_cell_angle_gamma   120.08927002
_symmetry_Int_Tables_number   1
_chemical_formula_structural   Tb3Al2Co8NiB4
_chemical_formula_sum   'Tb3 Al2 Co8 Ni1 B4'
_cell_volume   219.12893884
_cell_formula_units_Z   1
loop_
 _symmetry_equiv_pos_site_id
 _symmetry_equiv_pos_as_xyz
  1  'x, y, z'
loop_
 _atom_site_type_symbol
 _atom_site_label
 _atom_site_symmetry_multiplicity
 _atom_site_fract_x
 _atom_site_fract_y
 _atom_site_fract_z
 _atom_site_occupancy
  Tb  Tb0  1  0.999987  0.999995  0.997476  1
  Tb  Tb1  1  0.000002  0.000007  0.340742  1
  Tb  Tb2  1  0.999993  0.999995  0.660378  1
  Al  Al3  1  0.337250  0.668652  0.999043  1
  Al  Al4  1  0.662727  0.331341  0.999042  1
  Co  Co5  1  0.499997  0.000002  0.499986  1
  Co  Co6  1  0.499997  0.500002  0.499990  1
  Co  Co7  1  0.999996  0.500001  0.500519  1
  Co  Co8  1  0.499999  0.000005  0.207503  1
  Co  Co9  1  0.500001  0.500007  0.207524  1
  Co  Co10  1  0.499992  0.999995  0.792546  1
  Co  Co11  1  0.499990  0.499994  0.792518  1
  Co  Co12  1  0.999992  0.499994  0.793330  1
  Ni  Ni13  1  0.999998  0.500006  0.205975  1
  B  B14  1  0.340548  0.670276  0.350239  1
  B  B15  1  0.659447  0.329732  0.350238  1
  B  B16  1  0.665808  0.332904  0.651477  1
  B  B17  1  0.334177  0.667091  0.651477  1
