# generated using pymatgen
data_SrLa5P17Pd6
_symmetry_space_group_name_H-M   'P 1'
_cell_length_a   9.06943536
_cell_length_b   9.06943483
_cell_length_c   9.11370896
_cell_angle_alpha   109.31195543
_cell_angle_beta   109.31194982
_cell_angle_gamma   109.59373762
_symmetry_Int_Tables_number   1
_chemical_formula_structural   SrLa5P17Pd6
_chemical_formula_sum   'Sr1 La5 P17 Pd6'
_cell_volume   578.46527865
_cell_formula_units_Z   1
loop_
 _symmetry_equiv_pos_site_id
 _symmetry_equiv_pos_as_xyz
  1  'x, y, z'
loop_
 _atom_site_type_symbol
 _atom_site_label
 _atom_site_symmetry_multiplicity
 _atom_site_fract_x
 _atom_site_fract_y
 _atom_site_fract_z
 _atom_site_occupancy
  Sr  Sr0  1  0.287390  0.287390  0.000000  1
  La  La1  1  0.000490  0.717114  0.716733  1
  La  La2  1  0.000381  0.283758  0.283267  1
  La  La3  1  0.283758  0.000381  0.283267  1
  La  La4  1  0.717114  0.000490  0.716733  1
  La  La5  1  0.714644  0.714644  0.000000  1
  P  P6  1  0.639402  0.421683  0.639222  1
  P  P7  1  0.782461  0.000180  0.360778  1
  P  P8  1  0.361847  0.998026  0.780354  1
  P  P9  1  0.780925  0.361013  0.000000  1
  P  P10  1  0.217589  0.217589  0.577601  1
  P  P11  1  0.581493  0.217673  0.219646  1
  P  P12  1  0.998026  0.361847  0.780354  1
  P  P13  1  0.000180  0.782461  0.360778  1
  P  P14  1  0.361013  0.780925  0.000000  1
  P  P15  1  0.639988  0.639988  0.422399  1
  P  P16  1  0.421683  0.639402  0.639222  1
  P  P17  1  0.217673  0.581493  0.219646  1
  P  P18  1  0.434463  0.434463  0.436199  1
  P  P19  1  0.998264  0.998264  0.563801  1
  P  P20  1  0.566190  0.000493  0.000000  1
  P  P21  1  0.000493  0.566190  0.000000  1
  P  P22  1  0.993601  0.993601  0.000000  1
  Pd  Pd23  1  0.250117  0.750117  0.500000  1
  Pd  Pd24  1  0.500075  0.249420  0.749146  1
  Pd  Pd25  1  0.500274  0.750929  0.250854  1
  Pd  Pd26  1  0.249420  0.500075  0.749146  1
  Pd  Pd27  1  0.750929  0.500274  0.250854  1
  Pd  Pd28  1  0.750117  0.250117  0.500000  1
