# generated using pymatgen
data_TbDy5NiI10
_symmetry_space_group_name_H-M   'P 1'
_cell_length_a   7.71661653
_cell_length_b   9.67622086
_cell_length_c   9.70781214
_cell_angle_alpha   106.97042502
_cell_angle_beta   96.88546111
_cell_angle_gamma   104.42681240
_symmetry_Int_Tables_number   1
_chemical_formula_structural   TbDy5NiI10
_chemical_formula_sum   'Tb1 Dy5 Ni1 I10'
_cell_volume   656.75928082
_cell_formula_units_Z   1
loop_
 _symmetry_equiv_pos_site_id
 _symmetry_equiv_pos_as_xyz
  1  'x, y, z'
loop_
 _atom_site_type_symbol
 _atom_site_label
 _atom_site_symmetry_multiplicity
 _atom_site_fract_x
 _atom_site_fract_y
 _atom_site_fract_z
 _atom_site_occupancy
  Tb  Tb0  1  0.339703  0.120389  0.162019  1
  Dy  Dy1  1  0.662083  0.880357  0.839102  1
  Dy  Dy2  1  0.966983  0.278524  0.082686  1
  Dy  Dy3  1  0.032490  0.721244  0.916946  1
  Dy  Dy4  1  0.886680  0.958696  0.235017  1
  Dy  Dy5  1  0.112413  0.040803  0.764796  1
  Ni  Ni6  1  0.999878  0.999939  0.999988  1
  I  I7  1  0.346993  0.450384  0.272116  1
  I  I8  1  0.652269  0.550930  0.727054  1
  I  I9  1  0.774799  0.255647  0.344595  1
  I  I10  1  0.228466  0.745440  0.657181  1
  I  I11  1  0.545261  0.185818  0.906340  1
  I  I12  1  0.455111  0.812966  0.092392  1
  I  I13  1  0.742937  0.912913  0.537993  1
  I  I14  1  0.255167  0.086540  0.462670  1
  I  I15  1  0.913658  0.626787  0.179708  1
  I  I16  1  0.085108  0.372627  0.819400  1
