# generated using pymatgen
data_Sr3Ca9(GaAs3)4
_symmetry_space_group_name_H-M   'P 1'
_cell_length_a   4.28160600
_cell_length_b   12.38681585
_cell_length_c   13.70523814
_cell_angle_alpha   90.12309219
_cell_angle_beta   90.00000000
_cell_angle_gamma   90.00000000
_symmetry_Int_Tables_number   1
_chemical_formula_structural   Sr3Ca9(GaAs3)4
_chemical_formula_sum   'Sr3 Ca9 Ga4 As12'
_cell_volume   726.86200133
_cell_formula_units_Z   1
loop_
 _symmetry_equiv_pos_site_id
 _symmetry_equiv_pos_as_xyz
  1  'x, y, z'
loop_
 _atom_site_type_symbol
 _atom_site_label
 _atom_site_symmetry_multiplicity
 _atom_site_fract_x
 _atom_site_fract_y
 _atom_site_fract_z
 _atom_site_occupancy
  Sr  Sr0  1  0.250000  0.850534  0.497321  1
  Sr  Sr1  1  0.250000  0.352816  0.002441  1
  Sr  Sr2  1  0.750000  0.148913  0.503114  1
  Ca  Ca3  1  0.750000  0.225267  0.213966  1
  Ca  Ca4  1  0.750000  0.435897  0.391790  1
  Ca  Ca5  1  0.250000  0.565308  0.609673  1
  Ca  Ca6  1  0.750000  0.934533  0.106879  1
  Ca  Ca7  1  0.250000  0.064517  0.891448  1
  Ca  Ca8  1  0.250000  0.275805  0.715738  1
  Ca  Ca9  1  0.750000  0.723954  0.282125  1
  Ca  Ca10  1  0.250000  0.773889  0.788213  1
  Ca  Ca11  1  0.750000  0.648269  0.001734  1
  Ga  Ga12  1  0.750000  0.936500  0.705474  1
  Ga  Ga13  1  0.250000  0.062487  0.294517  1
  Ga  Ga14  1  0.250000  0.562134  0.203964  1
  Ga  Ga15  1  0.750000  0.439049  0.797146  1
  As  As16  1  0.750000  0.459565  0.152120  1
  As  As17  1  0.250000  0.544612  0.848589  1
  As  As18  1  0.750000  0.956846  0.343748  1
  As  As19  1  0.250000  0.042296  0.655913  1
  As  As20  1  0.750000  0.397826  0.614054  1
  As  As21  1  0.250000  0.604019  0.385927  1
  As  As22  1  0.750000  0.896197  0.888127  1
  As  As23  1  0.250000  0.102741  0.112694  1
  As  As24  1  0.750000  0.248076  0.869742  1
  As  As25  1  0.250000  0.748050  0.123292  1
  As  As26  1  0.750000  0.747205  0.630940  1
  As  As27  1  0.250000  0.252697  0.369313  1
