# generated using pymatgen
data_MgAl12Si4Ni3(BO9)4
_symmetry_space_group_name_H-M   'P 1'
_cell_length_a   5.81667000
_cell_length_b   10.43481800
_cell_length_c   11.10122000
_cell_angle_alpha   90.00000000
_cell_angle_beta   90.00000000
_cell_angle_gamma   90.00000000
_symmetry_Int_Tables_number   1
_chemical_formula_structural   MgAl12Si4Ni3(BO9)4
_chemical_formula_sum   'Mg1 Al12 Si4 Ni3 B4 O36'
_cell_volume   673.79845925
_cell_formula_units_Z   1
loop_
 _symmetry_equiv_pos_site_id
 _symmetry_equiv_pos_as_xyz
  1  'x, y, z'
loop_
 _atom_site_type_symbol
 _atom_site_label
 _atom_site_symmetry_multiplicity
 _atom_site_fract_x
 _atom_site_fract_y
 _atom_site_fract_z
 _atom_site_occupancy
  Mg  Mg0  1  0.250000  0.092314  0.780909  1
  Al  Al1  1  0.999820  0.000161  0.999973  1
  Al  Al2  1  0.999984  0.500070  0.500005  1
  Al  Al3  1  0.500180  0.000161  0.999973  1
  Al  Al4  1  0.500016  0.500070  0.500005  1
  Al  Al5  1  0.000152  0.499944  0.999935  1
  Al  Al6  1  0.000482  0.999979  0.499942  1
  Al  Al7  1  0.499848  0.499944  0.999935  1
  Al  Al8  1  0.499518  0.999979  0.499942  1
  Al  Al9  1  0.250000  0.273215  0.052221  1
  Al  Al10  1  0.750000  0.726380  0.948180  1
  Al  Al11  1  0.750000  0.773656  0.448192  1
  Al  Al12  1  0.250000  0.226517  0.551790  1
  Si  Si13  1  0.250000  0.065617  0.236946  1
  Si  Si14  1  0.750000  0.934653  0.763327  1
  Si  Si15  1  0.750000  0.565627  0.262839  1
  Si  Si16  1  0.250000  0.433438  0.737052  1
  Ni  Ni17  1  0.250000  0.406962  0.281333  1
  Ni  Ni18  1  0.750000  0.592970  0.718777  1
  Ni  Ni19  1  0.750000  0.906985  0.218839  1
  B  B20  1  0.250000  0.748915  0.000456  1
  B  B21  1  0.750000  0.251138  0.999672  1
  B  B22  1  0.750000  0.249015  0.499474  1
  B  B23  1  0.250000  0.750996  0.500405  1
  O  O24  1  0.250000  0.223713  0.210506  1
  O  O25  1  0.750000  0.776580  0.789969  1
  O  O26  1  0.750000  0.723572  0.289795  1
  O  O27  1  0.250000  0.275025  0.711478  1
  O  O28  1  0.045704  0.680663  0.001063  1
  O  O29  1  0.954400  0.319287  0.998880  1
  O  O30  1  0.954335  0.180758  0.498989  1
  O  O31  1  0.545600  0.319287  0.998880  1
  O  O32  1  0.045747  0.819268  0.501032  1
  O  O33  1  0.454296  0.680663  0.001063  1
  O  O34  1  0.454253  0.819268  0.501032  1
  O  O35  1  0.545665  0.180758  0.498989  1
  O  O36  1  0.250000  0.452582  0.100040  1
  O  O37  1  0.750000  0.547331  0.899940  1
  O  O38  1  0.750000  0.952685  0.400042  1
  O  O39  1  0.250000  0.047302  0.599889  1
  O  O40  1  0.250000  0.381676  0.477142  1
  O  O41  1  0.750000  0.618361  0.523065  1
  O  O42  1  0.750000  0.881653  0.023059  1
  O  O43  1  0.250000  0.118374  0.977130  1
  O  O44  1  0.250000  0.621310  0.496869  1
  O  O45  1  0.750000  0.378685  0.503090  1
  O  O46  1  0.750000  0.121484  0.003200  1
  O  O47  1  0.250000  0.878657  0.996645  1
  O  O48  1  0.021266  0.008580  0.170204  1
  O  O49  1  0.977810  0.993138  0.829105  1
  O  O50  1  0.978614  0.508527  0.329708  1
  O  O51  1  0.522190  0.993138  0.829105  1
  O  O52  1  0.021643  0.491115  0.670271  1
  O  O53  1  0.478734  0.008580  0.170204  1
  O  O54  1  0.478357  0.491115  0.670271  1
  O  O55  1  0.521386  0.508527  0.329708  1
  O  O56  1  0.250000  0.026129  0.380150  1
  O  O57  1  0.750000  0.973695  0.619542  1
  O  O58  1  0.750000  0.526149  0.119445  1
  O  O59  1  0.250000  0.473660  0.880379  1
