# generated using pymatgen
data_Dy16MgIn2AgRh4
_symmetry_space_group_name_H-M   'P 1'
_cell_length_a   9.65934317
_cell_length_b   9.68214346
_cell_length_c   9.61508756
_cell_angle_alpha   59.73317022
_cell_angle_beta   59.78353450
_cell_angle_gamma   59.78705733
_symmetry_Int_Tables_number   1
_chemical_formula_structural   Dy16MgIn2AgRh4
_chemical_formula_sum   'Dy16 Mg1 In2 Ag1 Rh4'
_cell_volume   632.50297109
_cell_formula_units_Z   1
loop_
 _symmetry_equiv_pos_site_id
 _symmetry_equiv_pos_as_xyz
  1  'x, y, z'
loop_
 _atom_site_type_symbol
 _atom_site_label
 _atom_site_symmetry_multiplicity
 _atom_site_fract_x
 _atom_site_fract_y
 _atom_site_fract_z
 _atom_site_occupancy
  Dy  Dy0  1  0.690651  0.310742  0.310054  1
  Dy  Dy1  1  0.690317  0.689229  0.311176  1
  Dy  Dy2  1  0.314133  0.687210  0.312446  1
  Dy  Dy3  1  0.936695  0.936014  0.557886  1
  Dy  Dy4  1  0.147768  0.150472  0.548774  1
  Dy  Dy5  1  0.566653  0.937562  0.558175  1
  Dy  Dy6  1  0.151729  0.153432  0.151684  1
  Dy  Dy7  1  0.311672  0.311397  0.689756  1
  Dy  Dy8  1  0.938604  0.567199  0.557046  1
  Dy  Dy9  1  0.564557  0.563432  0.935827  1
  Dy  Dy10  1  0.565317  0.934954  0.933890  1
  Dy  Dy11  1  0.936095  0.563751  0.934622  1
  Dy  Dy12  1  0.149067  0.547858  0.148967  1
  Dy  Dy13  1  0.312801  0.688136  0.689103  1
  Dy  Dy14  1  0.691902  0.308958  0.691644  1
  Dy  Dy15  1  0.551048  0.149375  0.147459  1
  Mg  Mg16  1  0.227541  0.923032  0.928380  1
  In  In17  1  0.917987  0.245411  0.922045  1
  In  In18  1  0.917288  0.917115  0.921065  1
  Ag  Ag19  1  0.918064  0.915648  0.250137  1
  Rh  Rh20  1  0.357813  0.357114  0.357730  1
  Rh  Rh21  1  0.926554  0.357710  0.357563  1
  Rh  Rh22  1  0.357702  0.357082  0.926972  1
  Rh  Rh23  1  0.358039  0.927165  0.357602  1
