# generated using pymatgen
data_Dy5Er3Sc12Si15Tc
_symmetry_space_group_name_H-M   'P 1'
_cell_length_a   7.07734012
_cell_length_b   7.43646061
_cell_length_c   13.92697417
_cell_angle_alpha   89.99556001
_cell_angle_beta   89.98288137
_cell_angle_gamma   90.18985273
_symmetry_Int_Tables_number   1
_chemical_formula_structural   Dy5Er3Sc12Si15Tc
_chemical_formula_sum   'Dy5 Er3 Sc12 Si15 Tc1'
_cell_volume   732.97762002
_cell_formula_units_Z   1
loop_
 _symmetry_equiv_pos_site_id
 _symmetry_equiv_pos_as_xyz
  1  'x, y, z'
loop_
 _atom_site_type_symbol
 _atom_site_label
 _atom_site_symmetry_multiplicity
 _atom_site_fract_x
 _atom_site_fract_y
 _atom_site_fract_z
 _atom_site_occupancy
  Dy  Dy0  1  0.990957  0.827362  0.596232  1
  Dy  Dy1  1  0.510924  0.322975  0.095880  1
  Dy  Dy2  1  0.011537  0.178535  0.404141  1
  Dy  Dy3  1  0.510814  0.323016  0.403895  1
  Dy  Dy4  1  0.488998  0.675722  0.595986  1
  Er  Er5  1  0.011702  0.178722  0.096008  1
  Er  Er6  1  0.990988  0.827131  0.903675  1
  Er  Er7  1  0.488897  0.676211  0.903833  1
  Sc  Sc8  1  0.156473  0.498991  0.750114  1
  Sc  Sc9  1  0.838281  0.494793  0.249937  1
  Sc  Sc10  1  0.338609  0.005510  0.249919  1
  Sc  Sc11  1  0.667675  0.998724  0.750121  1
  Sc  Sc12  1  0.316575  0.171548  0.627923  1
  Sc  Sc13  1  0.671989  0.826196  0.373883  1
  Sc  Sc14  1  0.171662  0.677965  0.373853  1
  Sc  Sc15  1  0.671959  0.826173  0.125973  1
  Sc  Sc16  1  0.837361  0.319692  0.627374  1
  Sc  Sc17  1  0.316237  0.171426  0.872198  1
  Sc  Sc18  1  0.837535  0.319504  0.872733  1
  Sc  Sc19  1  0.171609  0.678057  0.126017  1
  Si  Si20  1  0.968451  0.884835  0.249786  1
  Si  Si21  1  0.470192  0.614249  0.249936  1
  Si  Si22  1  0.529501  0.388366  0.750322  1
  Si  Si23  1  0.286798  0.866610  0.750608  1
  Si  Si24  1  0.713538  0.129429  0.249700  1
  Si  Si25  1  0.213769  0.369848  0.249659  1
  Si  Si26  1  0.779789  0.628549  0.750583  1
  Si  Si27  1  0.159963  0.468591  0.536816  1
  Si  Si28  1  0.844593  0.536449  0.461525  1
  Si  Si29  1  0.344460  0.965385  0.459935  1
  Si  Si30  1  0.844773  0.536338  0.038403  1
  Si  Si31  1  0.654980  0.034107  0.538885  1
  Si  Si32  1  0.160406  0.469102  0.963045  1
  Si  Si33  1  0.655587  0.033121  0.960939  1
  Si  Si34  1  0.343668  0.965251  0.040001  1
  Tc  Tc35  1  0.028753  0.111514  0.750160  1
