# generated using pymatgen
data_Li12SbOsN8
_symmetry_space_group_name_H-M   'P 1'
_cell_length_a   6.79150700
_cell_length_b   6.79150700
_cell_length_c   4.89427600
_cell_angle_alpha   90.00000000
_cell_angle_beta   90.00000000
_cell_angle_gamma   90.00000000
_symmetry_Int_Tables_number   1
_chemical_formula_structural   Li12SbOsN8
_chemical_formula_sum   'Li12 Sb1 Os1 N8'
_cell_volume   225.74636290
_cell_formula_units_Z   1
loop_
 _symmetry_equiv_pos_site_id
 _symmetry_equiv_pos_as_xyz
  1  'x, y, z'
loop_
 _atom_site_type_symbol
 _atom_site_label
 _atom_site_symmetry_multiplicity
 _atom_site_fract_x
 _atom_site_fract_y
 _atom_site_fract_z
 _atom_site_occupancy
  Li  Li0  1  0.000000  0.500000  0.568507  1
  Li  Li1  1  0.500000  0.000000  0.913894  1
  Li  Li2  1  0.500000  0.000000  0.431493  1
  Li  Li3  1  0.000000  0.500000  0.086106  1
  Li  Li4  1  0.214620  0.214620  0.500000  1
  Li  Li5  1  0.785380  0.785380  0.500000  1
  Li  Li6  1  0.712127  0.712127  0.000000  1
  Li  Li7  1  0.287873  0.287873  0.000000  1
  Li  Li8  1  0.785380  0.214620  0.500000  1
  Li  Li9  1  0.214620  0.785380  0.500000  1
  Li  Li10  1  0.287873  0.712127  0.000000  1
  Li  Li11  1  0.712127  0.287873  0.000000  1
  Sb  Sb12  1  0.500000  0.500000  0.500000  1
  Os  Os13  1  0.000000  0.000000  0.000000  1
  N  N14  1  0.240692  0.500000  0.297529  1
  N  N15  1  0.759308  0.500000  0.297529  1
  N  N16  1  0.763404  0.000000  0.191526  1
  N  N17  1  0.236596  0.000000  0.191526  1
  N  N18  1  0.500000  0.240692  0.702471  1
  N  N19  1  0.500000  0.759308  0.702471  1
  N  N20  1  0.000000  0.763404  0.808474  1
  N  N21  1  0.000000  0.236596  0.808474  1
