# generated using pymatgen
data_Pr2Al2PdRh
_symmetry_space_group_name_H-M   'P 1'
_cell_length_a   4.47274300
_cell_length_b   7.10108910
_cell_length_c   8.03146966
_cell_angle_alpha   89.87669264
_cell_angle_beta   90.00000000
_cell_angle_gamma   90.00000000
_symmetry_Int_Tables_number   1
_chemical_formula_structural   Pr2Al2PdRh
_chemical_formula_sum   'Pr4 Al4 Pd2 Rh2'
_cell_volume   255.08970063
_cell_formula_units_Z   2
loop_
 _symmetry_equiv_pos_site_id
 _symmetry_equiv_pos_as_xyz
  1  'x, y, z'
loop_
 _atom_site_type_symbol
 _atom_site_label
 _atom_site_symmetry_multiplicity
 _atom_site_fract_x
 _atom_site_fract_y
 _atom_site_fract_z
 _atom_site_occupancy
  Pr  Pr0  1  0.250000  0.538926  0.182482  1
  Pr  Pr1  1  0.750000  0.461074  0.817518  1
  Pr  Pr2  1  0.750000  0.964976  0.676819  1
  Pr  Pr3  1  0.250000  0.035024  0.323181  1
  Al  Al4  1  0.250000  0.632605  0.561023  1
  Al  Al5  1  0.750000  0.367395  0.438977  1
  Al  Al6  1  0.750000  0.859658  0.065095  1
  Al  Al7  1  0.250000  0.140342  0.934905  1
  Pd  Pd8  1  0.250000  0.778319  0.881817  1
  Pd  Pd9  1  0.750000  0.221681  0.118183  1
  Rh  Rh10  1  0.750000  0.728305  0.384538  1
  Rh  Rh11  1  0.250000  0.271695  0.615462  1
