# generated using pymatgen
data_SbAu(SeO3)4
_symmetry_space_group_name_H-M   'P 1'
_cell_length_a   7.78536500
_cell_length_b   9.26729465
_cell_length_c   8.43102293
_cell_angle_alpha   80.07830877
_cell_angle_beta   90.00000000
_cell_angle_gamma   90.00000000
_symmetry_Int_Tables_number   1
_chemical_formula_structural   SbAu(SeO3)4
_chemical_formula_sum   'Sb2 Au2 Se8 O24'
_cell_volume   599.19464505
_cell_formula_units_Z   2
loop_
 _symmetry_equiv_pos_site_id
 _symmetry_equiv_pos_as_xyz
  1  'x, y, z'
loop_
 _atom_site_type_symbol
 _atom_site_label
 _atom_site_symmetry_multiplicity
 _atom_site_fract_x
 _atom_site_fract_y
 _atom_site_fract_z
 _atom_site_occupancy
  Sb  Sb0  1  0.000000  0.000000  0.500000  1
  Sb  Sb1  1  0.500000  0.000000  0.000000  1
  Au  Au2  1  0.000000  0.500000  0.000000  1
  Au  Au3  1  0.500000  0.500000  0.500000  1
  Se  Se4  1  0.316333  0.665592  0.168442  1
  Se  Se5  1  0.816333  0.334408  0.331558  1
  Se  Se6  1  0.646558  0.848775  0.697287  1
  Se  Se7  1  0.146558  0.151225  0.802713  1
  Se  Se8  1  0.683667  0.334408  0.831558  1
  Se  Se9  1  0.183667  0.665592  0.668442  1
  Se  Se10  1  0.353442  0.151225  0.302713  1
  Se  Se11  1  0.853442  0.848775  0.197287  1
  O  O12  1  0.250064  0.563249  0.021613  1
  O  O13  1  0.750064  0.436751  0.478387  1
  O  O14  1  0.748945  0.962755  0.530260  1
  O  O15  1  0.248945  0.037245  0.969740  1
  O  O16  1  0.534253  0.998320  0.766476  1
  O  O17  1  0.469467  0.536048  0.256720  1
  O  O18  1  0.969467  0.463952  0.243280  1
  O  O19  1  0.034253  0.001680  0.733524  1
  O  O20  1  0.962546  0.224129  0.459595  1
  O  O21  1  0.495102  0.781096  0.595984  1
  O  O22  1  0.462546  0.775871  0.040405  1
  O  O23  1  0.995102  0.218904  0.904016  1
  O  O24  1  0.749936  0.436751  0.978387  1
  O  O25  1  0.249936  0.563249  0.521613  1
  O  O26  1  0.251055  0.037245  0.469740  1
  O  O27  1  0.751055  0.962755  0.030260  1
  O  O28  1  0.465747  0.001680  0.233524  1
  O  O29  1  0.530533  0.463952  0.743280  1
  O  O30  1  0.030533  0.536048  0.756720  1
  O  O31  1  0.965747  0.998320  0.266476  1
  O  O32  1  0.037454  0.775871  0.540405  1
  O  O33  1  0.504898  0.218904  0.404016  1
  O  O34  1  0.537454  0.224129  0.959595  1
  O  O35  1  0.004898  0.781096  0.095984  1
