# generated using pymatgen
data_Er6Al24FeNi3Ru4
_symmetry_space_group_name_H-M   'P 1'
_cell_length_a   8.75067761
_cell_length_b   8.73738141
_cell_length_c   9.37845090
_cell_angle_alpha   90.30755398
_cell_angle_beta   90.06076835
_cell_angle_gamma   119.62005170
_symmetry_Int_Tables_number   1
_chemical_formula_structural   Er6Al24FeNi3Ru4
_chemical_formula_sum   'Er6 Al24 Fe1 Ni3 Ru4'
_cell_volume   623.33935080
_cell_formula_units_Z   1
loop_
 _symmetry_equiv_pos_site_id
 _symmetry_equiv_pos_as_xyz
  1  'x, y, z'
loop_
 _atom_site_type_symbol
 _atom_site_label
 _atom_site_symmetry_multiplicity
 _atom_site_fract_x
 _atom_site_fract_y
 _atom_site_fract_z
 _atom_site_occupancy
  Er  Er0  1  0.191729  0.387333  0.250994  1
  Er  Er1  1  0.808271  0.612667  0.749006  1
  Er  Er2  1  0.614124  0.808239  0.249111  1
  Er  Er3  1  0.385876  0.191761  0.750889  1
  Er  Er4  1  0.192684  0.806438  0.249005  1
  Er  Er5  1  0.807316  0.193562  0.750995  1
  Al  Al6  1  0.336660  0.667414  0.024158  1
  Al  Al7  1  0.663340  0.332586  0.975842  1
  Al  Al8  1  0.664669  0.333944  0.521045  1
  Al  Al9  1  0.335331  0.666056  0.478955  1
  Al  Al10  1  0.159724  0.319971  0.575329  1
  Al  Al11  1  0.840276  0.680029  0.424671  1
  Al  Al12  1  0.679635  0.840470  0.575064  1
  Al  Al13  1  0.836463  0.673587  0.076027  1
  Al  Al14  1  0.320365  0.159530  0.424936  1
  Al  Al15  1  0.163537  0.326413  0.923973  1
  Al  Al16  1  0.160994  0.839672  0.575180  1
  Al  Al17  1  0.326828  0.164671  0.077181  1
  Al  Al18  1  0.839006  0.160328  0.424820  1
  Al  Al19  1  0.673172  0.835329  0.922819  1
  Al  Al20  1  0.837013  0.164283  0.076822  1
  Al  Al21  1  0.162987  0.835717  0.923178  1
  Al  Al22  1  0.560037  0.122452  0.247347  1
  Al  Al23  1  0.439963  0.877548  0.752653  1
  Al  Al24  1  0.876086  0.439464  0.249650  1
  Al  Al25  1  0.123914  0.560536  0.750350  1
  Al  Al26  1  0.559070  0.440780  0.249674  1
  Al  Al27  1  0.440930  0.559220  0.750326  1
  Al  Al28  1  0.998077  0.000634  0.256485  1
  Al  Al29  1  0.001923  0.999366  0.743515  1
  Fe  Fe30  1  0.000000  0.000000  0.500000  1
  Ni  Ni31  1  0.500000  0.000000  0.000000  1
  Ni  Ni32  1  0.500000  0.500000  0.000000  1
  Ni  Ni33  1  0.500000  0.500000  0.500000  1
  Ru  Ru34  1  0.000000  0.500000  0.000000  1
  Ru  Ru35  1  0.500000  0.000000  0.500000  1
  Ru  Ru36  1  0.000000  0.500000  0.500000  1
  Ru  Ru37  1  0.000000  0.000000  0.000000  1
