# generated using pymatgen
data_LiTh3(Pd5Pt)2
_symmetry_space_group_name_H-M   'P 1'
_cell_length_a   5.91061267
_cell_length_b   5.91061257
_cell_length_c   9.55021900
_cell_angle_alpha   90.00000000
_cell_angle_beta   90.00000000
_cell_angle_gamma   120.18456824
_symmetry_Int_Tables_number   1
_chemical_formula_structural   LiTh3(Pd5Pt)2
_chemical_formula_sum   'Li1 Th3 Pd10 Pt2'
_cell_volume   288.40197644
_cell_formula_units_Z   1
loop_
 _symmetry_equiv_pos_site_id
 _symmetry_equiv_pos_as_xyz
  1  'x, y, z'
loop_
 _atom_site_type_symbol
 _atom_site_label
 _atom_site_symmetry_multiplicity
 _atom_site_fract_x
 _atom_site_fract_y
 _atom_site_fract_z
 _atom_site_occupancy
  Li  Li0  1  0.333387  0.666613  0.250000  1
  Th  Th1  1  0.999685  0.000315  0.490003  1
  Th  Th2  1  0.999685  0.000315  0.009997  1
  Th  Th3  1  0.667281  0.332719  0.750000  1
  Pd  Pd4  1  0.497127  0.502873  0.493552  1
  Pd  Pd5  1  0.496719  0.994373  0.493280  1
  Pd  Pd6  1  0.005627  0.503281  0.493280  1
  Pd  Pd7  1  0.497127  0.502873  0.006448  1
  Pd  Pd8  1  0.496719  0.994373  0.006720  1
  Pd  Pd9  1  0.005627  0.503281  0.006720  1
  Pd  Pd10  1  0.824475  0.648945  0.250000  1
  Pd  Pd11  1  0.351055  0.175525  0.250000  1
  Pd  Pd12  1  0.825090  0.174910  0.250000  1
  Pd  Pd13  1  0.172906  0.827094  0.750000  1
  Pt  Pt14  1  0.172472  0.344983  0.750000  1
  Pt  Pt15  1  0.655017  0.827528  0.750000  1
