# generated using pymatgen
data_Tb2YPa(Ga3Rh)6
_symmetry_space_group_name_H-M   'P 1'
_cell_length_a   7.60994916
_cell_length_b   7.60368571
_cell_length_c   9.48544200
_cell_angle_alpha   90.00000000
_cell_angle_beta   90.00000000
_cell_angle_gamma   119.81628172
_symmetry_Int_Tables_number   1
_chemical_formula_structural   Tb2YPa(Ga3Rh)6
_chemical_formula_sum   'Tb2 Y1 Pa1 Ga18 Rh6'
_cell_volume   476.20630344
_cell_formula_units_Z   1
loop_
 _symmetry_equiv_pos_site_id
 _symmetry_equiv_pos_as_xyz
  1  'x, y, z'
loop_
 _atom_site_type_symbol
 _atom_site_label
 _atom_site_symmetry_multiplicity
 _atom_site_fract_x
 _atom_site_fract_y
 _atom_site_fract_z
 _atom_site_occupancy
  Tb  Tb0  1  0.003140  0.332183  0.750000  1
  Tb  Tb1  1  0.331464  0.002121  0.750000  1
  Y  Y2  1  0.669168  0.997665  0.250000  1
  Pa  Pa3  1  0.998236  0.668040  0.250000  1
  Ga  Ga4  1  0.332064  0.332047  0.565895  1
  Ga  Ga5  1  0.665131  0.667743  0.435994  1
  Ga  Ga6  1  0.665131  0.667743  0.064006  1
  Ga  Ga7  1  0.332064  0.332047  0.934105  1
  Ga  Ga8  1  0.338739  0.544349  0.250000  1
  Ga  Ga9  1  0.660281  0.452781  0.750000  1
  Ga  Ga10  1  0.544797  0.340594  0.250000  1
  Ga  Ga11  1  0.453461  0.660575  0.750000  1
  Ga  Ga12  1  0.999597  0.331563  0.079180  1
  Ga  Ga13  1  0.999760  0.665541  0.918306  1
  Ga  Ga14  1  0.999760  0.665541  0.581694  1
  Ga  Ga15  1  0.337186  0.002553  0.420615  1
  Ga  Ga16  1  0.999597  0.331563  0.420820  1
  Ga  Ga17  1  0.665626  0.000365  0.580295  1
  Ga  Ga18  1  0.665626  0.000365  0.919705  1
  Ga  Ga19  1  0.337186  0.002553  0.079385  1
  Ga  Ga20  1  0.126393  0.125590  0.250000  1
  Ga  Ga21  1  0.876748  0.877275  0.750000  1
  Rh  Rh22  1  0.999653  0.997751  0.001901  1
  Rh  Rh23  1  0.999653  0.997751  0.498099  1
  Rh  Rh24  1  0.672812  0.330637  0.001788  1
  Rh  Rh25  1  0.326954  0.671215  0.002013  1
  Rh  Rh26  1  0.326954  0.671215  0.497987  1
  Rh  Rh27  1  0.672812  0.330637  0.498212  1
