# generated using pymatgen
data_RbY10(C2Cl9)2
_symmetry_space_group_name_H-M   'P 1'
_cell_length_a   10.17030217
_cell_length_b   10.26581384
_cell_length_c   10.46908500
_cell_angle_alpha   112.94550856
_cell_angle_beta   88.19127994
_cell_angle_gamma   117.92965532
_symmetry_Int_Tables_number   1
_chemical_formula_structural   RbY10(C2Cl9)2
_chemical_formula_sum   'Rb1 Y10 C4 Cl18'
_cell_volume   873.85566899
_cell_formula_units_Z   1
loop_
 _symmetry_equiv_pos_site_id
 _symmetry_equiv_pos_as_xyz
  1  'x, y, z'
loop_
 _atom_site_type_symbol
 _atom_site_label
 _atom_site_symmetry_multiplicity
 _atom_site_fract_x
 _atom_site_fract_y
 _atom_site_fract_z
 _atom_site_occupancy
  Rb  Rb0  1  0.500000  0.000000  0.500000  1
  Y  Y1  1  0.650152  0.712178  0.696471  1
  Y  Y2  1  0.283728  0.375603  0.008696  1
  Y  Y3  1  0.093132  0.419488  0.307178  1
  Y  Y4  1  0.956224  0.035273  0.339832  1
  Y  Y5  1  0.906868  0.580512  0.692822  1
  Y  Y6  1  0.118894  0.939273  0.001384  1
  Y  Y7  1  0.043776  0.964727  0.660168  1
  Y  Y8  1  0.349848  0.287822  0.303529  1
  Y  Y9  1  0.716272  0.624397  0.991304  1
  Y  Y10  1  0.881106  0.060727  0.998616  1
  C  C11  1  0.159823  0.233600  0.124772  1
  C  C12  1  0.840177  0.766400  0.875228  1
  C  C13  1  0.919888  0.847581  0.791396  1
  C  C14  1  0.080112  0.152419  0.208604  1
  Cl  Cl15  1  0.453629  0.530123  0.835002  1
  Cl  Cl16  1  0.384100  0.038778  0.164373  1
  Cl  Cl17  1  0.776481  0.861006  0.502044  1
  Cl  Cl18  1  0.838290  0.314440  0.156340  1
  Cl  Cl19  1  0.546371  0.469877  0.164998  1
  Cl  Cl20  1  0.223519  0.138994  0.497956  1
  Cl  Cl21  1  0.311925  0.103812  0.829806  1
  Cl  Cl22  1  0.688075  0.896188  0.170194  1
  Cl  Cl23  1  0.975681  0.764964  0.176415  1
  Cl  Cl24  1  0.929657  0.302683  0.498867  1
  Cl  Cl25  1  0.024319  0.235036  0.823585  1
  Cl  Cl26  1  0.070343  0.697317  0.501133  1
  Cl  Cl27  1  0.262953  0.628939  0.193461  1
  Cl  Cl28  1  0.737047  0.371061  0.806539  1
  Cl  Cl29  1  0.635916  0.432470  0.500790  1
  Cl  Cl30  1  0.161710  0.685560  0.843660  1
  Cl  Cl31  1  0.615900  0.961222  0.835627  1
  Cl  Cl32  1  0.364084  0.567530  0.499210  1
