# generated using pymatgen
data_Tb8Ho9Er3Sn16
_symmetry_space_group_name_H-M   'P 1'
_cell_length_a   8.02487203
_cell_length_b   8.16887903
_cell_length_c   15.44056100
_cell_angle_alpha   90.00000000
_cell_angle_beta   90.00000000
_cell_angle_gamma   90.01006953
_symmetry_Int_Tables_number   1
_chemical_formula_structural   Tb8Ho9Er3Sn16
_chemical_formula_sum   'Tb8 Ho9 Er3 Sn16'
_cell_volume   1012.19374515
_cell_formula_units_Z   1
loop_
 _symmetry_equiv_pos_site_id
 _symmetry_equiv_pos_as_xyz
  1  'x, y, z'
loop_
 _atom_site_type_symbol
 _atom_site_label
 _atom_site_symmetry_multiplicity
 _atom_site_fract_x
 _atom_site_fract_y
 _atom_site_fract_z
 _atom_site_occupancy
  Tb  Tb0  1  0.520406  0.319895  0.902501  1
  Tb  Tb1  1  0.020347  0.180047  0.597500  1
  Tb  Tb2  1  0.479620  0.680073  0.402478  1
  Tb  Tb3  1  0.979633  0.819924  0.097515  1
  Tb  Tb4  1  0.479620  0.680073  0.097522  1
  Tb  Tb5  1  0.979633  0.819924  0.402485  1
  Tb  Tb6  1  0.520406  0.319895  0.597499  1
  Tb  Tb7  1  0.020347  0.180047  0.902500  1
  Ho  Ho8  1  0.367496  0.835868  0.877993  1
  Ho  Ho9  1  0.867391  0.664212  0.622009  1
  Ho  Ho10  1  0.632539  0.164170  0.377986  1
  Ho  Ho11  1  0.132544  0.335838  0.122041  1
  Ho  Ho12  1  0.632539  0.164170  0.122014  1
  Ho  Ho13  1  0.132544  0.335838  0.377959  1
  Ho  Ho14  1  0.367496  0.835868  0.622007  1
  Ho  Ho15  1  0.867391  0.664212  0.877991  1
  Ho  Ho16  1  0.198005  0.503143  0.750000  1
  Er  Er17  1  0.698092  0.996799  0.750000  1
  Er  Er18  1  0.801947  0.496810  0.250000  1
  Er  Er19  1  0.301957  0.003166  0.250000  1
  Sn  Sn20  1  0.293461  0.035948  0.041941  1
  Sn  Sn21  1  0.793461  0.464070  0.458062  1
  Sn  Sn22  1  0.706529  0.964050  0.541919  1
  Sn  Sn23  1  0.206518  0.535977  0.958221  1
  Sn  Sn24  1  0.706529  0.964050  0.958081  1
  Sn  Sn25  1  0.206518  0.535977  0.541779  1
  Sn  Sn26  1  0.293461  0.035948  0.458059  1
  Sn  Sn27  1  0.793461  0.464070  0.041938  1
  Sn  Sn28  1  0.565042  0.619972  0.750000  1
  Sn  Sn29  1  0.064671  0.880319  0.750000  1
  Sn  Sn30  1  0.435276  0.380113  0.250000  1
  Sn  Sn31  1  0.935241  0.119868  0.250000  1
  Sn  Sn32  1  0.328660  0.146273  0.750000  1
  Sn  Sn33  1  0.828488  0.353318  0.750000  1
  Sn  Sn34  1  0.671399  0.853422  0.250000  1
  Sn  Sn35  1  0.171333  0.646655  0.250000  1
