# generated using pymatgen
data_AcMgP7Ru12
_symmetry_space_group_name_H-M   'P 1'
_cell_length_a   9.51770700
_cell_length_b   9.51770607
_cell_length_c   3.93867000
_cell_angle_alpha   90.00000000
_cell_angle_beta   90.00000000
_cell_angle_gamma   119.99999695
_symmetry_Int_Tables_number   1
_chemical_formula_structural   AcMgP7Ru12
_chemical_formula_sum   'Ac1 Mg1 P7 Ru12'
_cell_volume   308.99030997
_cell_formula_units_Z   1
loop_
 _symmetry_equiv_pos_site_id
 _symmetry_equiv_pos_as_xyz
  1  'x, y, z'
loop_
 _atom_site_type_symbol
 _atom_site_label
 _atom_site_symmetry_multiplicity
 _atom_site_fract_x
 _atom_site_fract_y
 _atom_site_fract_z
 _atom_site_occupancy
  Ac  Ac0  1  0.333333  0.666667  0.000000  1
  Mg  Mg1  1  0.666667  0.333333  0.500000  1
  P  P2  1  0.610614  0.711138  0.500000  1
  P  P3  1  0.000000  0.000000  0.000000  1
  P  P4  1  0.288862  0.899477  0.500000  1
  P  P5  1  0.100523  0.389386  0.500000  1
  P  P6  1  0.899170  0.589041  0.000000  1
  P  P7  1  0.410959  0.310129  0.000000  1
  P  P8  1  0.689871  0.100830  0.000000  1
  Ru  Ru9  1  0.562163  0.958586  0.500000  1
  Ru  Ru10  1  0.396426  0.437837  0.500000  1
  Ru  Ru11  1  0.909662  0.115735  0.500000  1
  Ru  Ru12  1  0.206074  0.090338  0.500000  1
  Ru  Ru13  1  0.884265  0.793926  0.500000  1
  Ru  Ru14  1  0.726746  0.878486  0.000000  1
  Ru  Ru15  1  0.121514  0.848261  0.000000  1
  Ru  Ru16  1  0.151739  0.273254  0.000000  1
  Ru  Ru17  1  0.437526  0.085590  0.000000  1
  Ru  Ru18  1  0.914410  0.351937  0.000000  1
  Ru  Ru19  1  0.648063  0.562474  0.000000  1
  Ru  Ru20  1  0.041414  0.603574  0.500000  1
