# generated using pymatgen
data_Tb4ThTl15
_symmetry_space_group_name_H-M   'P 1'
_cell_length_a   4.80447800
_cell_length_b   4.80447800
_cell_length_c   23.92594200
_cell_angle_alpha   90.00000000
_cell_angle_beta   90.00000000
_cell_angle_gamma   90.00000000
_symmetry_Int_Tables_number   1
_chemical_formula_structural   Tb4ThTl15
_chemical_formula_sum   'Tb4 Th1 Tl15'
_cell_volume   552.28273099
_cell_formula_units_Z   1
loop_
 _symmetry_equiv_pos_site_id
 _symmetry_equiv_pos_as_xyz
  1  'x, y, z'
loop_
 _atom_site_type_symbol
 _atom_site_label
 _atom_site_symmetry_multiplicity
 _atom_site_fract_x
 _atom_site_fract_y
 _atom_site_fract_z
 _atom_site_occupancy
  Tb  Tb0  1  0.000000  0.000000  0.201227  1
  Tb  Tb1  1  0.000000  0.000000  0.400137  1
  Tb  Tb2  1  0.000000  0.000000  0.599863  1
  Tb  Tb3  1  0.000000  0.000000  0.798773  1
  Th  Th4  1  0.000000  0.000000  0.000000  1
  Tl  Tl5  1  0.500000  0.500000  0.000000  1
  Tl  Tl6  1  0.500000  0.500000  0.200772  1
  Tl  Tl7  1  0.500000  0.500000  0.400239  1
  Tl  Tl8  1  0.500000  0.500000  0.599761  1
  Tl  Tl9  1  0.500000  0.500000  0.799228  1
  Tl  Tl10  1  0.500000  0.000000  0.101653  1
  Tl  Tl11  1  0.500000  0.000000  0.300393  1
  Tl  Tl12  1  0.500000  0.000000  0.500000  1
  Tl  Tl13  1  0.500000  0.000000  0.699607  1
  Tl  Tl14  1  0.500000  0.000000  0.898347  1
  Tl  Tl15  1  0.000000  0.500000  0.101653  1
  Tl  Tl16  1  0.000000  0.500000  0.300393  1
  Tl  Tl17  1  0.000000  0.500000  0.500000  1
  Tl  Tl18  1  0.000000  0.500000  0.699607  1
  Tl  Tl19  1  0.000000  0.500000  0.898347  1
