# generated using pymatgen
data_CsZrPS5
_symmetry_space_group_name_H-M   'P 1'
_cell_length_a   10.17115041
_cell_length_b   10.17115012
_cell_length_c   16.20522400
_cell_angle_alpha   59.55338541
_cell_angle_beta   59.55338636
_cell_angle_gamma   42.93300466
_symmetry_Int_Tables_number   1
_chemical_formula_structural   CsZrPS5
_chemical_formula_sum   'Cs4 Zr4 P4 S20'
_cell_volume   957.78747795
_cell_formula_units_Z   4
loop_
 _symmetry_equiv_pos_site_id
 _symmetry_equiv_pos_as_xyz
  1  'x, y, z'
loop_
 _atom_site_type_symbol
 _atom_site_label
 _atom_site_symmetry_multiplicity
 _atom_site_fract_x
 _atom_site_fract_y
 _atom_site_fract_z
 _atom_site_occupancy
  Cs  Cs0  1  0.663729  0.663729  0.136560  1
  Cs  Cs1  1  0.702142  0.702142  0.644320  1
  Cs  Cs2  1  0.297858  0.297858  0.355680  1
  Cs  Cs3  1  0.336271  0.336271  0.863440  1
  Zr  Zr4  1  0.729740  0.270260  0.000000  1
  Zr  Zr5  1  0.270260  0.729740  0.000000  1
  Zr  Zr6  1  0.773115  0.226885  0.500000  1
  Zr  Zr7  1  0.226885  0.773115  0.500000  1
  P  P8  1  0.329442  0.329442  0.597835  1
  P  P9  1  0.076714  0.076714  0.101597  1
  P  P10  1  0.923286  0.923286  0.898403  1
  P  P11  1  0.670558  0.670558  0.402165  1
  S  S12  1  0.173333  0.173333  0.116228  1
  S  S13  1  0.574669  0.128613  0.657009  1
  S  S14  1  0.128613  0.574669  0.657009  1
  S  S15  1  0.977343  0.977343  0.407982  1
  S  S16  1  0.433660  0.433660  0.449934  1
  S  S17  1  0.112360  0.112360  0.952670  1
  S  S18  1  0.776312  0.223011  0.158114  1
  S  S19  1  0.223011  0.776312  0.158114  1
  S  S20  1  0.608465  0.608465  0.906885  1
  S  S21  1  0.219275  0.219275  0.612428  1
  S  S22  1  0.780725  0.780725  0.387572  1
  S  S23  1  0.391535  0.391535  0.093115  1
  S  S24  1  0.223688  0.776989  0.841886  1
  S  S25  1  0.776989  0.223688  0.841886  1
  S  S26  1  0.887640  0.887640  0.047330  1
  S  S27  1  0.566340  0.566340  0.550066  1
  S  S28  1  0.022657  0.022657  0.592018  1
  S  S29  1  0.871387  0.425331  0.342991  1
  S  S30  1  0.425331  0.871387  0.342991  1
  S  S31  1  0.826667  0.826667  0.883772  1
