# generated using pymatgen
data_LuRuI18
_symmetry_space_group_name_H-M   'P 1'
_cell_length_a   10.16330669
_cell_length_b   10.17654793
_cell_length_c   10.15969255
_cell_angle_alpha   88.98361306
_cell_angle_beta   89.04073831
_cell_angle_gamma   88.88454093
_symmetry_Int_Tables_number   1
_chemical_formula_structural   LuRuI18
_chemical_formula_sum   'Lu1 Ru1 I18'
_cell_volume   1050.28462853
_cell_formula_units_Z   1
loop_
 _symmetry_equiv_pos_site_id
 _symmetry_equiv_pos_as_xyz
  1  'x, y, z'
loop_
 _atom_site_type_symbol
 _atom_site_label
 _atom_site_symmetry_multiplicity
 _atom_site_fract_x
 _atom_site_fract_y
 _atom_site_fract_z
 _atom_site_occupancy
  Lu  Lu0  1  0.000000  0.000000  0.000000  1
  Ru  Ru1  1  0.500000  0.500000  0.500000  1
  I  I2  1  0.765059  0.479905  0.502801  1
  I  I3  1  0.501735  0.764576  0.479488  1
  I  I4  1  0.479646  0.502522  0.764962  1
  I  I5  1  0.234941  0.520095  0.497199  1
  I  I6  1  0.498265  0.235424  0.520512  1
  I  I7  1  0.520354  0.497478  0.235038  1
  I  I8  1  0.880652  0.379691  0.745742  1
  I  I9  1  0.744661  0.879676  0.379574  1
  I  I10  1  0.379640  0.745111  0.880655  1
  I  I11  1  0.119348  0.620309  0.254258  1
  I  I12  1  0.255339  0.120324  0.620426  1
  I  I13  1  0.620360  0.254889  0.119345  1
  I  I14  1  0.017913  0.971864  0.707934  1
  I  I15  1  0.708179  0.017997  0.970210  1
  I  I16  1  0.970680  0.708539  0.016559  1
  I  I17  1  0.982087  0.028136  0.292066  1
  I  I18  1  0.291821  0.982003  0.029790  1
  I  I19  1  0.029320  0.291461  0.983441  1
