# generated using pymatgen
data_Nd2Fe2CoP7Ru9
_symmetry_space_group_name_H-M   'P 1'
_cell_length_a   9.39433377
_cell_length_b   9.35667429
_cell_length_c   3.87703300
_cell_angle_alpha   90.00000000
_cell_angle_beta   90.00000000
_cell_angle_gamma   119.96752301
_symmetry_Int_Tables_number   1
_chemical_formula_structural   Nd2Fe2CoP7Ru9
_chemical_formula_sum   'Nd2 Fe2 Co1 P7 Ru9'
_cell_volume   295.22943883
_cell_formula_units_Z   1
loop_
 _symmetry_equiv_pos_site_id
 _symmetry_equiv_pos_as_xyz
  1  'x, y, z'
loop_
 _atom_site_type_symbol
 _atom_site_label
 _atom_site_symmetry_multiplicity
 _atom_site_fract_x
 _atom_site_fract_y
 _atom_site_fract_z
 _atom_site_occupancy
  Nd  Nd0  1  0.000506  0.999481  0.000000  1
  Nd  Nd1  1  0.333354  0.666520  0.500000  1
  Fe  Fe2  1  0.822576  0.599152  0.000000  1
  Fe  Fe3  1  0.400910  0.223244  0.000000  1
  Co  Co4  1  0.775617  0.176477  0.000000  1
  P  P5  1  0.779142  0.727302  0.500000  1
  P  P6  1  0.272879  0.051000  0.500000  1
  P  P7  1  0.951497  0.222769  0.500000  1
  P  P8  1  0.665598  0.333702  0.000000  1
  P  P9  1  0.075645  0.638097  0.000000  1
  P  P10  1  0.362137  0.438392  0.000000  1
  P  P11  1  0.559978  0.922803  0.000000  1
  Ru  Ru12  1  0.086428  0.392704  0.000000  1
  Ru  Ru13  1  0.607927  0.695032  0.000000  1
  Ru  Ru14  1  0.305903  0.913379  0.000000  1
  Ru  Ru15  1  0.050546  0.768652  0.500000  1
  Ru  Ru16  1  0.231834  0.281973  0.500000  1
  Ru  Ru17  1  0.719098  0.950982  0.500000  1
  Ru  Ru18  1  0.869255  0.419955  0.500000  1
  Ru  Ru19  1  0.579401  0.449274  0.500000  1
  Ru  Ru20  1  0.549772  0.129107  0.500000  1
