# generated using pymatgen
data_Y3Al9Si3Os4
_symmetry_space_group_name_H-M   'P 1'
_cell_length_a   8.71449700
_cell_length_b   8.69049830
_cell_length_c   9.55386100
_cell_angle_alpha   90.00000000
_cell_angle_beta   90.00000000
_cell_angle_gamma   120.09138756
_symmetry_Int_Tables_number   1
_chemical_formula_structural   Y3Al9Si3Os4
_chemical_formula_sum   'Y6 Al18 Si6 Os8'
_cell_volume   626.03106323
_cell_formula_units_Z   2
loop_
 _symmetry_equiv_pos_site_id
 _symmetry_equiv_pos_as_xyz
  1  'x, y, z'
loop_
 _atom_site_type_symbol
 _atom_site_label
 _atom_site_symmetry_multiplicity
 _atom_site_fract_x
 _atom_site_fract_y
 _atom_site_fract_z
 _atom_site_occupancy
  Y  Y0  1  0.193401  0.386802  0.250000  1
  Y  Y1  1  0.806599  0.613198  0.750000  1
  Y  Y2  1  0.610396  0.807804  0.250000  1
  Y  Y3  1  0.389604  0.192196  0.750000  1
  Y  Y4  1  0.197408  0.807804  0.250000  1
  Y  Y5  1  0.802592  0.192196  0.750000  1
  Al  Al6  1  0.164899  0.329797  0.578351  1
  Al  Al7  1  0.835101  0.670203  0.421649  1
  Al  Al8  1  0.670496  0.834541  0.576761  1
  Al  Al9  1  0.835101  0.670203  0.078351  1
  Al  Al10  1  0.329504  0.165459  0.423239  1
  Al  Al11  1  0.164899  0.329797  0.921649  1
  Al  Al12  1  0.164045  0.834541  0.576761  1
  Al  Al13  1  0.329504  0.165459  0.076761  1
  Al  Al14  1  0.835955  0.165459  0.423239  1
  Al  Al15  1  0.670496  0.834541  0.923239  1
  Al  Al16  1  0.835955  0.165459  0.076761  1
  Al  Al17  1  0.164045  0.834541  0.923239  1
  Al  Al18  1  0.872558  0.433331  0.250000  1
  Al  Al19  1  0.127442  0.566669  0.750000  1
  Al  Al20  1  0.560773  0.433331  0.250000  1
  Al  Al21  1  0.439227  0.566669  0.750000  1
  Al  Al22  1  0.999603  0.999206  0.250000  1
  Al  Al23  1  0.000397  0.000794  0.750000  1
  Si  Si24  1  0.332082  0.664166  0.038354  1
  Si  Si25  1  0.667918  0.335834  0.961646  1
  Si  Si26  1  0.667918  0.335834  0.538354  1
  Si  Si27  1  0.332082  0.664166  0.461646  1
  Si  Si28  1  0.563632  0.127264  0.250000  1
  Si  Si29  1  0.436368  0.872736  0.750000  1
  Os  Os30  1  0.500000  0.000000  0.000000  1
  Os  Os31  1  0.000000  0.500000  0.000000  1
  Os  Os32  1  0.500000  0.000000  0.500000  1
  Os  Os33  1  0.500000  0.500000  0.000000  1
  Os  Os34  1  0.000000  0.500000  0.500000  1
  Os  Os35  1  0.500000  0.500000  0.500000  1
  Os  Os36  1  0.000000  0.000000  0.000000  1
  Os  Os37  1  0.000000  0.000000  0.500000  1
