# generated using pymatgen
data_KRb3CoO4
_symmetry_space_group_name_H-M   'P 1'
_cell_length_a   10.95616626
_cell_length_b   6.81028700
_cell_length_c   11.17081700
_cell_angle_alpha   90.00000000
_cell_angle_beta   112.07567218
_cell_angle_gamma   90.00000000
_symmetry_Int_Tables_number   1
_chemical_formula_structural   KRb3CoO4
_chemical_formula_sum   'K4 Rb12 Co4 O16'
_cell_volume   772.40067008
_cell_formula_units_Z   4
loop_
 _symmetry_equiv_pos_site_id
 _symmetry_equiv_pos_as_xyz
  1  'x, y, z'
loop_
 _atom_site_type_symbol
 _atom_site_label
 _atom_site_symmetry_multiplicity
 _atom_site_fract_x
 _atom_site_fract_y
 _atom_site_fract_z
 _atom_site_occupancy
  K  K0  1  0.138948  0.631464  0.108376  1
  K  K1  1  0.861052  0.131464  0.391624  1
  K  K2  1  0.138948  0.868536  0.608376  1
  K  K3  1  0.861052  0.368536  0.891624  1
  Rb  Rb4  1  0.670724  0.389465  0.098989  1
  Rb  Rb5  1  0.056067  0.159721  0.182116  1
  Rb  Rb6  1  0.546430  0.895939  0.183518  1
  Rb  Rb7  1  0.453570  0.395939  0.316482  1
  Rb  Rb8  1  0.943934  0.659721  0.317884  1
  Rb  Rb9  1  0.329276  0.889465  0.401011  1
  Rb  Rb10  1  0.670724  0.110535  0.598989  1
  Rb  Rb11  1  0.056067  0.340279  0.682116  1
  Rb  Rb12  1  0.546430  0.604061  0.683518  1
  Rb  Rb13  1  0.453570  0.104061  0.816482  1
  Rb  Rb14  1  0.943934  0.840279  0.817884  1
  Rb  Rb15  1  0.329276  0.610535  0.901011  1
  Co  Co16  1  0.749083  0.863316  0.005960  1
  Co  Co17  1  0.250916  0.363316  0.494040  1
  Co  Co18  1  0.749083  0.636684  0.505960  1
  Co  Co19  1  0.250916  0.136684  0.994040  1
  O  O20  1  0.878068  0.676805  0.037838  1
  O  O21  1  0.411767  0.255677  0.039794  1
  O  O22  1  0.257173  0.971765  0.125033  1
  O  O23  1  0.786520  0.001778  0.155802  1
  O  O24  1  0.213480  0.501778  0.344198  1
  O  O25  1  0.742827  0.471765  0.374967  1
  O  O26  1  0.588233  0.755677  0.460206  1
  O  O27  1  0.121932  0.176805  0.462162  1
  O  O28  1  0.878068  0.823195  0.537838  1
  O  O29  1  0.411767  0.244323  0.539794  1
  O  O30  1  0.257173  0.528236  0.625033  1
  O  O31  1  0.786520  0.498222  0.655802  1
  O  O32  1  0.213480  0.998222  0.844198  1
  O  O33  1  0.742827  0.028236  0.874967  1
  O  O34  1  0.588232  0.744323  0.960205  1
  O  O35  1  0.121932  0.323195  0.962162  1
