# generated using pymatgen
data_Pr3Nd(Ho4Bi3)4
_symmetry_space_group_name_H-M   'P 1'
_cell_length_a   8.36591301
_cell_length_b   9.51809700
_cell_length_c   12.19781902
_cell_angle_alpha   90.00000000
_cell_angle_beta   90.00604744
_cell_angle_gamma   90.00000000
_symmetry_Int_Tables_number   1
_chemical_formula_structural   Pr3Nd(Ho4Bi3)4
_chemical_formula_sum   'Pr3 Nd1 Ho16 Bi12'
_cell_volume   971.28270098
_cell_formula_units_Z   1
loop_
 _symmetry_equiv_pos_site_id
 _symmetry_equiv_pos_as_xyz
  1  'x, y, z'
loop_
 _atom_site_type_symbol
 _atom_site_label
 _atom_site_symmetry_multiplicity
 _atom_site_fract_x
 _atom_site_fract_y
 _atom_site_fract_z
 _atom_site_occupancy
  Pr  Pr0  1  0.171597  0.750000  0.226137  1
  Pr  Pr1  1  0.328401  0.750000  0.726020  1
  Pr  Pr2  1  0.828413  0.250000  0.774020  1
  Nd  Nd3  1  0.671512  0.250000  0.273995  1
  Ho  Ho4  1  0.810443  0.563210  0.064651  1
  Ho  Ho5  1  0.689529  0.936724  0.564590  1
  Ho  Ho6  1  0.189537  0.063297  0.935453  1
  Ho  Ho7  1  0.310427  0.436752  0.435375  1
  Ho  Ho8  1  0.189537  0.436703  0.935453  1
  Ho  Ho9  1  0.310427  0.063248  0.435375  1
  Ho  Ho10  1  0.810443  0.936790  0.064651  1
  Ho  Ho11  1  0.689529  0.563276  0.564590  1
  Ho  Ho12  1  0.477034  0.750000  0.003853  1
  Ho  Ho13  1  0.022930  0.750000  0.503700  1
  Ho  Ho14  1  0.523159  0.250000  0.996299  1
  Ho  Ho15  1  0.976931  0.250000  0.496142  1
  Ho  Ho16  1  0.664685  0.750000  0.289383  1
  Ho  Ho17  1  0.835334  0.750000  0.789374  1
  Ho  Ho18  1  0.335468  0.250000  0.710532  1
  Ho  Ho19  1  0.164566  0.250000  0.210686  1
  Bi  Bi20  1  0.403392  0.750000  0.466723  1
  Bi  Bi21  1  0.096613  0.750000  0.966794  1
  Bi  Bi22  1  0.596739  0.250000  0.532532  1
  Bi  Bi23  1  0.903157  0.250000  0.033496  1
  Bi  Bi24  1  0.934627  0.506601  0.328307  1
  Bi  Bi25  1  0.564830  0.993011  0.828439  1
  Bi  Bi26  1  0.064843  0.007036  0.671515  1
  Bi  Bi27  1  0.435798  0.492489  0.171826  1
  Bi  Bi28  1  0.064843  0.492964  0.671515  1
  Bi  Bi29  1  0.435798  0.007511  0.171826  1
  Bi  Bi30  1  0.934627  0.993399  0.328307  1
  Bi  Bi31  1  0.564830  0.506989  0.828439  1
