# generated using pymatgen
data_Ho4GeI6
_symmetry_space_group_name_H-M   'P 1'
_cell_length_a   4.20083000
_cell_length_b   13.93225200
_cell_length_c   14.72054200
_cell_angle_alpha   90.00000000
_cell_angle_beta   90.00000000
_cell_angle_gamma   90.00000000
_symmetry_Int_Tables_number   1
_chemical_formula_structural   Ho4GeI6
_chemical_formula_sum   'Ho8 Ge2 I12'
_cell_volume   861.54948798
_cell_formula_units_Z   2
loop_
 _symmetry_equiv_pos_site_id
 _symmetry_equiv_pos_as_xyz
  1  'x, y, z'
loop_
 _atom_site_type_symbol
 _atom_site_label
 _atom_site_symmetry_multiplicity
 _atom_site_fract_x
 _atom_site_fract_y
 _atom_site_fract_z
 _atom_site_occupancy
  Ho  Ho0  1  0.500000  0.114478  0.346751  1
  Ho  Ho1  1  0.500000  0.885522  0.653249  1
  Ho  Ho2  1  0.500000  0.614478  0.153249  1
  Ho  Ho3  1  0.500000  0.385522  0.846751  1
  Ho  Ho4  1  0.000000  0.112100  0.574881  1
  Ho  Ho5  1  0.000000  0.887900  0.425119  1
  Ho  Ho6  1  0.000000  0.612100  0.925119  1
  Ho  Ho7  1  0.000000  0.387900  0.074881  1
  Ge  Ge8  1  0.500000  0.000000  0.500000  1
  Ge  Ge9  1  0.500000  0.500000  0.000000  1
  I  I10  1  0.500000  0.244331  0.161510  1
  I  I11  1  0.500000  0.755669  0.838490  1
  I  I12  1  0.500000  0.744331  0.338490  1
  I  I13  1  0.500000  0.255669  0.661510  1
  I  I14  1  0.000000  0.258962  0.413908  1
  I  I15  1  0.000000  0.741038  0.586092  1
  I  I16  1  0.000000  0.758962  0.086092  1
  I  I17  1  0.000000  0.241038  0.913908  1
  I  I18  1  0.000000  0.998861  0.240158  1
  I  I19  1  0.000000  0.001139  0.759842  1
  I  I20  1  0.000000  0.498861  0.259842  1
  I  I21  1  0.000000  0.501139  0.740158  1
