# generated using pymatgen
data_HoEr7(Si3Pt)4
_symmetry_space_group_name_H-M   'P 1'
_cell_length_a   8.12036100
_cell_length_b   8.12036082
_cell_length_c   8.06303100
_cell_angle_alpha   90.00000000
_cell_angle_beta   90.00000000
_cell_angle_gamma   119.99999664
_symmetry_Int_Tables_number   1
_chemical_formula_structural   HoEr7(Si3Pt)4
_chemical_formula_sum   'Ho1 Er7 Si12 Pt4'
_cell_volume   460.44699184
_cell_formula_units_Z   1
loop_
 _symmetry_equiv_pos_site_id
 _symmetry_equiv_pos_as_xyz
  1  'x, y, z'
loop_
 _atom_site_type_symbol
 _atom_site_label
 _atom_site_symmetry_multiplicity
 _atom_site_fract_x
 _atom_site_fract_y
 _atom_site_fract_z
 _atom_site_occupancy
  Ho  Ho0  1  0.000000  0.000000  0.250000  1
  Er  Er1  1  0.000000  0.000000  0.750000  1
  Er  Er2  1  0.497430  0.502570  0.250000  1
  Er  Er3  1  0.497430  0.994861  0.250000  1
  Er  Er4  1  0.005139  0.502570  0.250000  1
  Er  Er5  1  0.502551  0.497449  0.750000  1
  Er  Er6  1  0.994897  0.497449  0.750000  1
  Er  Er7  1  0.502551  0.005103  0.750000  1
  Si  Si8  1  0.834696  0.165304  0.498746  1
  Si  Si9  1  0.834696  0.669393  0.498746  1
  Si  Si10  1  0.330607  0.165304  0.498746  1
  Si  Si11  1  0.834696  0.165304  0.001254  1
  Si  Si12  1  0.834696  0.669393  0.001254  1
  Si  Si13  1  0.330607  0.165304  0.001254  1
  Si  Si14  1  0.165307  0.834693  0.998530  1
  Si  Si15  1  0.669388  0.834693  0.998530  1
  Si  Si16  1  0.165307  0.330612  0.998530  1
  Si  Si17  1  0.165307  0.834693  0.501470  1
  Si  Si18  1  0.669388  0.834693  0.501470  1
  Si  Si19  1  0.165307  0.330612  0.501470  1
  Pt  Pt20  1  0.666667  0.333333  0.494771  1
  Pt  Pt21  1  0.666667  0.333333  0.005229  1
  Pt  Pt22  1  0.333333  0.666667  0.994751  1
  Pt  Pt23  1  0.333333  0.666667  0.505249  1
