# generated using pymatgen
data_HoPa(AlPt2)2
_symmetry_space_group_name_H-M   'P 1'
_cell_length_a   4.37914100
_cell_length_b   4.37914044
_cell_length_c   9.15433300
_cell_angle_alpha   90.00000000
_cell_angle_beta   90.00000000
_cell_angle_gamma   119.99999664
_symmetry_Int_Tables_number   1
_chemical_formula_structural   HoPa(AlPt2)2
_chemical_formula_sum   'Ho1 Pa1 Al2 Pt4'
_cell_volume   152.03205135
_cell_formula_units_Z   1
loop_
 _symmetry_equiv_pos_site_id
 _symmetry_equiv_pos_as_xyz
  1  'x, y, z'
loop_
 _atom_site_type_symbol
 _atom_site_label
 _atom_site_symmetry_multiplicity
 _atom_site_fract_x
 _atom_site_fract_y
 _atom_site_fract_z
 _atom_site_occupancy
  Ho  Ho0  1  0.333333  0.666666  0.750000  1
  Pa  Pa1  1  0.666667  0.333334  0.250000  1
  Al  Al2  1  0.000000  0.000000  0.993447  1
  Al  Al3  1  0.000000  0.000000  0.506553  1
  Pt  Pt4  1  0.333333  0.666666  0.087033  1
  Pt  Pt5  1  0.333333  0.666666  0.412968  1
  Pt  Pt6  1  0.666667  0.333334  0.579402  1
  Pt  Pt7  1  0.666667  0.333334  0.920598  1
