# generated using pymatgen
data_TbThAl3Re
_symmetry_space_group_name_H-M   'P 1'
_cell_length_a   5.54561000
_cell_length_b   5.54561075
_cell_length_c   9.08044600
_cell_angle_alpha   90.00000000
_cell_angle_beta   90.00000000
_cell_angle_gamma   119.99999555
_symmetry_Int_Tables_number   1
_chemical_formula_structural   TbThAl3Re
_chemical_formula_sum   'Tb2 Th2 Al6 Re2'
_cell_volume   241.84467974
_cell_formula_units_Z   2
loop_
 _symmetry_equiv_pos_site_id
 _symmetry_equiv_pos_as_xyz
  1  'x, y, z'
loop_
 _atom_site_type_symbol
 _atom_site_label
 _atom_site_symmetry_multiplicity
 _atom_site_fract_x
 _atom_site_fract_y
 _atom_site_fract_z
 _atom_site_occupancy
  Tb  Tb0  1  0.666667  0.333333  0.443526  1
  Tb  Tb1  1  0.333333  0.666667  0.556474  1
  Th  Th2  1  0.333333  0.666667  0.955525  1
  Th  Th3  1  0.666667  0.333333  0.044475  1
  Al  Al4  1  0.676369  0.838184  0.256256  1
  Al  Al5  1  0.161816  0.838184  0.256256  1
  Al  Al6  1  0.161816  0.323631  0.256256  1
  Al  Al7  1  0.323631  0.161816  0.743744  1
  Al  Al8  1  0.838184  0.161816  0.743744  1
  Al  Al9  1  0.838184  0.676369  0.743744  1
  Re  Re10  1  0.000000  0.000000  0.500000  1
  Re  Re11  1  0.000000  0.000000  0.000000  1
