# generated using pymatgen
data_Na12Al3P5Pt8
_symmetry_space_group_name_H-M   'P 1'
_cell_length_a   5.85536800
_cell_length_b   7.64542083
_cell_length_c   12.88419000
_cell_angle_alpha   90.10496285
_cell_angle_beta   90.00000000
_cell_angle_gamma   90.00000000
_symmetry_Int_Tables_number   1
_chemical_formula_structural   Na12Al3P5Pt8
_chemical_formula_sum   'Na12 Al3 P5 Pt8'
_cell_volume   576.78237665
_cell_formula_units_Z   1
loop_
 _symmetry_equiv_pos_site_id
 _symmetry_equiv_pos_as_xyz
  1  'x, y, z'
loop_
 _atom_site_type_symbol
 _atom_site_label
 _atom_site_symmetry_multiplicity
 _atom_site_fract_x
 _atom_site_fract_y
 _atom_site_fract_z
 _atom_site_occupancy
  Na  Na0  1  0.666453  0.212380  0.249287  1
  Na  Na1  1  0.341392  0.784512  0.753449  1
  Na  Na2  1  0.341392  0.715488  0.246551  1
  Na  Na3  1  0.666453  0.287620  0.750713  1
  Na  Na4  1  0.121210  0.382170  0.106566  1
  Na  Na5  1  0.875805  0.618482  0.893047  1
  Na  Na6  1  0.873881  0.616877  0.607131  1
  Na  Na7  1  0.873881  0.883123  0.392869  1
  Na  Na8  1  0.126606  0.386222  0.391768  1
  Na  Na9  1  0.126606  0.113778  0.608232  1
  Na  Na10  1  0.121210  0.117830  0.893434  1
  Na  Na11  1  0.875805  0.881518  0.106953  1
  Al  Al12  1  0.431660  0.750000  0.000000  1
  Al  Al13  1  0.428159  0.750000  0.500000  1
  Al  Al14  1  0.566050  0.250000  0.500000  1
  P  P15  1  0.176108  0.070490  0.248520  1
  P  P16  1  0.822288  0.924890  0.752331  1
  P  P17  1  0.822288  0.575110  0.247669  1
  P  P18  1  0.176108  0.429510  0.751480  1
  P  P19  1  0.567264  0.250000  0.000000  1
  Pt  Pt20  1  0.368661  0.034061  0.093315  1
  Pt  Pt21  1  0.630771  0.992615  0.905193  1
  Pt  Pt22  1  0.632713  0.979969  0.598934  1
  Pt  Pt23  1  0.632713  0.520031  0.401066  1
  Pt  Pt24  1  0.367549  0.018925  0.400901  1
  Pt  Pt25  1  0.367549  0.481075  0.599099  1
  Pt  Pt26  1  0.368661  0.465939  0.906685  1
  Pt  Pt27  1  0.630771  0.507385  0.094807  1
