# generated using pymatgen
data_ZrNiI18
_symmetry_space_group_name_H-M   'P 1'
_cell_length_a   10.18532714
_cell_length_b   10.23177583
_cell_length_c   10.17910994
_cell_angle_alpha   92.24295364
_cell_angle_beta   92.28612405
_cell_angle_gamma   92.15032555
_symmetry_Int_Tables_number   1
_chemical_formula_structural   ZrNiI18
_chemical_formula_sum   'Zr1 Ni1 I18'
_cell_volume   1058.33746662
_cell_formula_units_Z   1
loop_
 _symmetry_equiv_pos_site_id
 _symmetry_equiv_pos_as_xyz
  1  'x, y, z'
loop_
 _atom_site_type_symbol
 _atom_site_label
 _atom_site_symmetry_multiplicity
 _atom_site_fract_x
 _atom_site_fract_y
 _atom_site_fract_z
 _atom_site_occupancy
  Zr  Zr0  1  0.000000  0.000000  0.000000  1
  Ni  Ni1  1  0.500000  0.500000  0.500000  1
  I  I2  1  0.765055  0.472784  0.515559  1
  I  I3  1  0.514585  0.763445  0.472042  1
  I  I4  1  0.472964  0.515777  0.765132  1
  I  I5  1  0.234945  0.527216  0.484441  1
  I  I6  1  0.485415  0.236555  0.527958  1
  I  I7  1  0.527036  0.484223  0.234868  1
  I  I8  1  0.883639  0.375237  0.748929  1
  I  I9  1  0.747625  0.881926  0.375205  1
  I  I10  1  0.375712  0.748285  0.883495  1
  I  I11  1  0.116361  0.624763  0.251071  1
  I  I12  1  0.252375  0.118074  0.624795  1
  I  I13  1  0.624288  0.251715  0.116505  1
  I  I14  1  0.010281  0.965946  0.718468  1
  I  I15  1  0.718707  0.010236  0.964436  1
  I  I16  1  0.964695  0.719881  0.008758  1
  I  I17  1  0.989719  0.034054  0.281532  1
  I  I18  1  0.281293  0.989764  0.035564  1
  I  I19  1  0.035305  0.280119  0.991242  1
