# generated using pymatgen
data_TbHoFe2(CoO5)2
_symmetry_space_group_name_H-M   'P 1'
_cell_length_a   5.76949900
_cell_length_b   7.28495961
_cell_length_c   8.51453125
_cell_angle_alpha   90.11425694
_cell_angle_beta   90.00000000
_cell_angle_gamma   90.00000000
_symmetry_Int_Tables_number   1
_chemical_formula_structural   TbHoFe2(CoO5)2
_chemical_formula_sum   'Tb2 Ho2 Fe4 Co4 O20'
_cell_volume   357.86986600
_cell_formula_units_Z   2
loop_
 _symmetry_equiv_pos_site_id
 _symmetry_equiv_pos_as_xyz
  1  'x, y, z'
loop_
 _atom_site_type_symbol
 _atom_site_label
 _atom_site_symmetry_multiplicity
 _atom_site_fract_x
 _atom_site_fract_y
 _atom_site_fract_z
 _atom_site_occupancy
  Tb  Tb0  1  0.500000  0.365788  0.329857  1
  Tb  Tb1  1  0.500000  0.634212  0.670143  1
  Ho  Ho2  1  0.500000  0.134127  0.830483  1
  Ho  Ho3  1  0.500000  0.865873  0.169517  1
  Fe  Fe4  1  0.000000  0.109180  0.146860  1
  Fe  Fe5  1  0.000000  0.890820  0.853140  1
  Fe  Fe6  1  0.000000  0.389988  0.647353  1
  Fe  Fe7  1  0.000000  0.610012  0.352647  1
  Co  Co8  1  0.250599  0.000000  0.500000  1
  Co  Co9  1  0.749401  0.000000  0.500000  1
  Co  Co10  1  0.749598  0.500000  0.000000  1
  Co  Co11  1  0.250402  0.500000  0.000000  1
  O  O12  1  0.235412  0.000000  0.000000  1
  O  O13  1  0.764588  0.000000  0.000000  1
  O  O14  1  0.767061  0.500000  0.500000  1
  O  O15  1  0.232939  0.500000  0.500000  1
  O  O16  1  0.000000  0.353453  0.069279  1
  O  O17  1  0.000000  0.646547  0.930721  1
  O  O18  1  0.000000  0.146649  0.568150  1
  O  O19  1  0.000000  0.853351  0.431850  1
  O  O20  1  0.259662  0.103807  0.297468  1
  O  O21  1  0.740338  0.896193  0.702532  1
  O  O22  1  0.259662  0.896193  0.702532  1
  O  O23  1  0.740352  0.392751  0.798292  1
  O  O24  1  0.740338  0.103807  0.297468  1
  O  O25  1  0.259648  0.607249  0.201708  1
  O  O26  1  0.740352  0.607249  0.201708  1
  O  O27  1  0.259648  0.392751  0.798292  1
  O  O28  1  0.500000  0.341418  0.055277  1
  O  O29  1  0.500000  0.658582  0.944723  1
  O  O30  1  0.500000  0.158182  0.557173  1
  O  O31  1  0.500000  0.841818  0.442827  1
