# generated using pymatgen
data_SrDy2Ho(NiP)4
_symmetry_space_group_name_H-M   'P 1'
_cell_length_a   3.91560700
_cell_length_b   3.91560850
_cell_length_c   15.91503400
_cell_angle_alpha   90.00000000
_cell_angle_beta   90.00000000
_cell_angle_gamma   120.00001267
_symmetry_Int_Tables_number   1
_chemical_formula_structural   SrDy2Ho(NiP)4
_chemical_formula_sum   'Sr1 Dy2 Ho1 Ni4 P4'
_cell_volume   211.31800693
_cell_formula_units_Z   1
loop_
 _symmetry_equiv_pos_site_id
 _symmetry_equiv_pos_as_xyz
  1  'x, y, z'
loop_
 _atom_site_type_symbol
 _atom_site_label
 _atom_site_symmetry_multiplicity
 _atom_site_fract_x
 _atom_site_fract_y
 _atom_site_fract_z
 _atom_site_occupancy
  Sr  Sr0  1  0.000000  0.000000  0.250000  1
  Dy  Dy1  1  0.000000  0.000000  0.508999  1
  Dy  Dy2  1  0.000000  0.000000  0.991001  1
  Ho  Ho3  1  0.000000  0.000000  0.750000  1
  Ni  Ni4  1  0.333333  0.666667  0.390533  1
  Ni  Ni5  1  0.666667  0.333333  0.632904  1
  Ni  Ni6  1  0.666667  0.333333  0.867096  1
  Ni  Ni7  1  0.333333  0.666667  0.109467  1
  P  P8  1  0.333333  0.666667  0.870867  1
  P  P9  1  0.666667  0.333333  0.108253  1
  P  P10  1  0.666667  0.333333  0.391747  1
  P  P11  1  0.333333  0.666667  0.629133  1
