# generated using pymatgen
data_Nd6Al4IrPd12
_symmetry_space_group_name_H-M   'P 1'
_cell_length_a   8.38237822
_cell_length_b   8.38237854
_cell_length_c   8.38237900
_cell_angle_alpha   109.47121932
_cell_angle_beta   109.47122011
_cell_angle_gamma   109.47122721
_symmetry_Int_Tables_number   1
_chemical_formula_structural   Nd6Al4IrPd12
_chemical_formula_sum   'Nd6 Al4 Ir1 Pd12'
_cell_volume   453.39831216
_cell_formula_units_Z   1
loop_
 _symmetry_equiv_pos_site_id
 _symmetry_equiv_pos_as_xyz
  1  'x, y, z'
loop_
 _atom_site_type_symbol
 _atom_site_label
 _atom_site_symmetry_multiplicity
 _atom_site_fract_x
 _atom_site_fract_y
 _atom_site_fract_z
 _atom_site_occupancy
  Nd  Nd0  1  0.703315  0.703315  0.000000  1
  Nd  Nd1  1  0.296685  0.000000  0.296685  1
  Nd  Nd2  1  0.000000  0.296685  0.296685  1
  Nd  Nd3  1  0.296685  0.296685  0.000000  1
  Nd  Nd4  1  0.703315  0.000000  0.703315  1
  Nd  Nd5  1  0.000000  0.703315  0.703315  1
  Al  Al6  1  0.000000  0.000000  0.500000  1
  Al  Al7  1  0.000000  0.500000  0.000000  1
  Al  Al8  1  0.500000  0.000000  0.000000  1
  Al  Al9  1  0.500000  0.500000  0.500000  1
  Ir  Ir10  1  0.000000  0.000000  0.000000  1
  Pd  Pd11  1  0.322886  0.322886  0.645772  1
  Pd  Pd12  1  0.677114  0.000000  0.322886  1
  Pd  Pd13  1  0.000000  0.677114  0.322886  1
  Pd  Pd14  1  0.677114  0.322886  0.000000  1
  Pd  Pd15  1  0.322886  0.645772  0.322886  1
  Pd  Pd16  1  0.000000  0.322886  0.677114  1
  Pd  Pd17  1  0.322886  0.677114  0.000000  1
  Pd  Pd18  1  0.322886  0.000000  0.677114  1
  Pd  Pd19  1  0.645772  0.322886  0.322886  1
  Pd  Pd20  1  0.677114  0.677114  0.354228  1
  Pd  Pd21  1  0.677114  0.354228  0.677114  1
  Pd  Pd22  1  0.354228  0.677114  0.677114  1
