# generated using pymatgen
data_Tb5Dy6(Ho3Bi4)3
_symmetry_space_group_name_H-M   'P 1'
_cell_length_a   8.26177649
_cell_length_b   9.50497707
_cell_length_c   12.06252810
_cell_angle_alpha   89.99494526
_cell_angle_beta   90.02706618
_cell_angle_gamma   90.00545500
_symmetry_Int_Tables_number   1
_chemical_formula_structural   Tb5Dy6(Ho3Bi4)3
_chemical_formula_sum   'Tb5 Dy6 Ho9 Bi12'
_cell_volume   947.24604652
_cell_formula_units_Z   1
loop_
 _symmetry_equiv_pos_site_id
 _symmetry_equiv_pos_as_xyz
  1  'x, y, z'
loop_
 _atom_site_type_symbol
 _atom_site_label
 _atom_site_symmetry_multiplicity
 _atom_site_fract_x
 _atom_site_fract_y
 _atom_site_fract_z
 _atom_site_occupancy
  Tb  Tb0  1  0.192764  0.563553  0.441116  1
  Tb  Tb1  1  0.312740  0.250042  0.218638  1
  Tb  Tb2  1  0.812887  0.250008  0.281309  1
  Tb  Tb3  1  0.687242  0.750108  0.781444  1
  Tb  Tb4  1  0.187225  0.750133  0.718798  1
  Dy  Dy5  1  0.353411  0.750273  0.215705  1
  Dy  Dy6  1  0.852724  0.750323  0.284005  1
  Dy  Dy7  1  0.647303  0.250101  0.784264  1
  Dy  Dy8  1  0.147317  0.250199  0.715765  1
  Dy  Dy9  1  0.692918  0.564246  0.058839  1
  Dy  Dy10  1  0.192872  0.935656  0.441053  1
  Ho  Ho11  1  0.306951  0.064675  0.941142  1
  Ho  Ho12  1  0.807286  0.435204  0.558849  1
  Ho  Ho13  1  0.307120  0.435240  0.941150  1
  Ho  Ho14  1  0.806787  0.064685  0.558991  1
  Ho  Ho15  1  0.693001  0.935539  0.058829  1
  Ho  Ho16  1  0.475219  0.250126  0.487886  1
  Ho  Ho17  1  0.975016  0.250095  0.011972  1
  Ho  Ho18  1  0.525597  0.750017  0.512245  1
  Ho  Ho19  1  0.025335  0.750065  0.987845  1
  Bi  Bi20  1  0.407087  0.750136  0.957567  1
  Bi  Bi21  1  0.906723  0.750183  0.542562  1
  Bi  Bi22  1  0.592567  0.249492  0.042210  1
  Bi  Bi23  1  0.092110  0.249169  0.458028  1
  Bi  Bi24  1  0.565358  0.995242  0.325741  1
  Bi  Bi25  1  0.065209  0.504985  0.173969  1
  Bi  Bi26  1  0.434677  0.495095  0.674304  1
  Bi  Bi27  1  0.934597  0.005125  0.825946  1
  Bi  Bi28  1  0.434686  0.005083  0.674201  1
  Bi  Bi29  1  0.934495  0.495091  0.825905  1
  Bi  Bi30  1  0.565570  0.504942  0.325731  1
  Bi  Bi31  1  0.065207  0.995167  0.173989  1
