# generated using pymatgen
data_Ho2Sc4SiBi2
_symmetry_space_group_name_H-M   'P 1'
_cell_length_a   7.86844671
_cell_length_b   7.90403148
_cell_length_c   4.14872900
_cell_angle_alpha   90.00000000
_cell_angle_beta   90.00000000
_cell_angle_gamma   120.14971701
_symmetry_Int_Tables_number   1
_chemical_formula_structural   Ho2Sc4SiBi2
_chemical_formula_sum   'Ho2 Sc4 Si1 Bi2'
_cell_volume   223.11367598
_cell_formula_units_Z   1
loop_
 _symmetry_equiv_pos_site_id
 _symmetry_equiv_pos_as_xyz
  1  'x, y, z'
loop_
 _atom_site_type_symbol
 _atom_site_label
 _atom_site_symmetry_multiplicity
 _atom_site_fract_x
 _atom_site_fract_y
 _atom_site_fract_z
 _atom_site_occupancy
  Ho  Ho0  1  0.390607  0.390951  0.500000  1
  Ho  Ho1  1  0.609393  0.000345  0.500000  1
  Sc  Sc2  1  0.235558  0.999432  0.000000  1
  Sc  Sc3  1  0.000000  0.616942  0.500000  1
  Sc  Sc4  1  0.764442  0.763876  0.000000  1
  Sc  Sc5  1  0.000000  0.229198  0.000000  1
  Si  Si6  1  0.000000  0.993772  0.500000  1
  Bi  Bi7  1  0.323124  0.664306  0.000000  1
  Bi  Bi8  1  0.676876  0.341179  0.000000  1
