# generated using pymatgen
data_Sc4Si(B7Ir6)2
_symmetry_space_group_name_H-M   'P 1'
_cell_length_a   3.44848333
_cell_length_b   7.70044117
_cell_length_c   13.31434023
_cell_angle_alpha   89.89856192
_cell_angle_beta   90.01854521
_cell_angle_gamma   90.05708835
_symmetry_Int_Tables_number   1
_chemical_formula_structural   Sc4Si(B7Ir6)2
_chemical_formula_sum   'Sc4 Si1 B14 Ir12'
_cell_volume   353.55946659
_cell_formula_units_Z   1
loop_
 _symmetry_equiv_pos_site_id
 _symmetry_equiv_pos_as_xyz
  1  'x, y, z'
loop_
 _atom_site_type_symbol
 _atom_site_label
 _atom_site_symmetry_multiplicity
 _atom_site_fract_x
 _atom_site_fract_y
 _atom_site_fract_z
 _atom_site_occupancy
  Sc  Sc0  1  0.251672  0.498798  0.833411  1
  Sc  Sc1  1  0.252511  0.000996  0.332822  1
  Sc  Sc2  1  0.747489  0.999004  0.667178  1
  Sc  Sc3  1  0.748328  0.501202  0.166589  1
  Si  Si4  1  0.500000  0.500000  0.500000  1
  B  B5  1  0.500000  0.000000  0.000000  1
  B  B6  1  0.000000  0.000000  0.000000  1
  B  B7  1  0.755045  0.323529  0.727513  1
  B  B8  1  0.753254  0.825613  0.223263  1
  B  B9  1  0.752117  0.751560  0.801090  1
  B  B10  1  0.754788  0.247132  0.297937  1
  B  B11  1  0.750066  0.427327  0.974870  1
  B  B12  1  0.761636  0.923884  0.475487  1
  B  B13  1  0.246746  0.174387  0.776737  1
  B  B14  1  0.244955  0.676471  0.272487  1
  B  B15  1  0.245212  0.752868  0.702063  1
  B  B16  1  0.247883  0.248440  0.198910  1
  B  B17  1  0.238364  0.076116  0.524513  1
  B  B18  1  0.249934  0.572673  0.025130  1
  Ir  Ir19  1  0.745977  0.590007  0.671209  1
  Ir  Ir20  1  0.749573  0.087753  0.161626  1
  Ir  Ir21  1  0.750480  0.706911  0.962134  1
  Ir  Ir22  1  0.742372  0.203671  0.459729  1
  Ir  Ir23  1  0.748471  0.202128  0.875691  1
  Ir  Ir24  1  0.746872  0.708153  0.369604  1
  Ir  Ir25  1  0.250427  0.912247  0.838374  1
  Ir  Ir26  1  0.254023  0.409993  0.328791  1
  Ir  Ir27  1  0.257628  0.796329  0.540271  1
  Ir  Ir28  1  0.249520  0.293089  0.037866  1
  Ir  Ir29  1  0.253128  0.291847  0.630396  1
  Ir  Ir30  1  0.251529  0.797872  0.124309  1
