# generated using pymatgen
data_TbLu4(In2Au)2
_symmetry_space_group_name_H-M   'P 1'
_cell_length_a   3.62050400
_cell_length_b   8.12391600
_cell_length_c   18.20454900
_cell_angle_alpha   90.00000000
_cell_angle_beta   90.00000000
_cell_angle_gamma   90.00000000
_symmetry_Int_Tables_number   1
_chemical_formula_structural   TbLu4(In2Au)2
_chemical_formula_sum   'Tb2 Lu8 In8 Au4'
_cell_volume   535.44439904
_cell_formula_units_Z   2
loop_
 _symmetry_equiv_pos_site_id
 _symmetry_equiv_pos_as_xyz
  1  'x, y, z'
loop_
 _atom_site_type_symbol
 _atom_site_label
 _atom_site_symmetry_multiplicity
 _atom_site_fract_x
 _atom_site_fract_y
 _atom_site_fract_z
 _atom_site_occupancy
  Tb  Tb0  1  0.000000  0.500000  0.500000  1
  Tb  Tb1  1  0.000000  0.000000  0.000000  1
  Lu  Lu2  1  0.000000  0.740028  0.281560  1
  Lu  Lu3  1  0.000000  0.259972  0.718440  1
  Lu  Lu4  1  0.000000  0.759972  0.781560  1
  Lu  Lu5  1  0.000000  0.240028  0.218440  1
  Lu  Lu6  1  0.000000  0.620340  0.081369  1
  Lu  Lu7  1  0.000000  0.379660  0.918631  1
  Lu  Lu8  1  0.000000  0.879660  0.581369  1
  Lu  Lu9  1  0.000000  0.120340  0.418631  1
  In  In10  1  0.500000  0.706075  0.934103  1
  In  In11  1  0.500000  0.293925  0.065897  1
  In  In12  1  0.500000  0.793925  0.434103  1
  In  In13  1  0.500000  0.206075  0.565897  1
  In  In14  1  0.500000  0.579623  0.647839  1
  In  In15  1  0.500000  0.420377  0.352161  1
  In  In16  1  0.500000  0.920377  0.147839  1
  In  In17  1  0.500000  0.079623  0.852161  1
  Au  Au18  1  0.500000  0.527800  0.196981  1
  Au  Au19  1  0.500000  0.472200  0.803019  1
  Au  Au20  1  0.500000  0.972200  0.696981  1
  Au  Au21  1  0.500000  0.027800  0.303019  1
