# generated using pymatgen
data_HoEr5(Ni7B2)2
_symmetry_space_group_name_H-M   'P 1'
_cell_length_a   5.04475700
_cell_length_b   5.04475749
_cell_length_c   14.27375200
_cell_angle_alpha   90.00000000
_cell_angle_beta   90.00000000
_cell_angle_gamma   120.00000332
_symmetry_Int_Tables_number   1
_chemical_formula_structural   HoEr5(Ni7B2)2
_chemical_formula_sum   'Ho1 Er5 Ni14 B4'
_cell_volume   314.59318463
_cell_formula_units_Z   1
loop_
 _symmetry_equiv_pos_site_id
 _symmetry_equiv_pos_as_xyz
  1  'x, y, z'
loop_
 _atom_site_type_symbol
 _atom_site_label
 _atom_site_symmetry_multiplicity
 _atom_site_fract_x
 _atom_site_fract_y
 _atom_site_fract_z
 _atom_site_occupancy
  Ho  Ho0  1  0.333333  0.666667  0.467606  1
  Er  Er1  1  0.666667  0.333333  0.967604  1
  Er  Er2  1  0.666667  0.333333  0.532405  1
  Er  Er3  1  0.333333  0.666667  0.032393  1
  Er  Er4  1  0.666667  0.333333  0.750005  1
  Er  Er5  1  0.333333  0.666667  0.249982  1
  Ni  Ni6  1  0.834289  0.165711  0.351439  1
  Ni  Ni7  1  0.834289  0.668578  0.351439  1
  Ni  Ni8  1  0.000000  0.000000  0.000001  1
  Ni  Ni9  1  0.000000  0.000000  0.500009  1
  Ni  Ni10  1  0.834288  0.668576  0.148554  1
  Ni  Ni11  1  0.165701  0.834299  0.648556  1
  Ni  Ni12  1  0.668598  0.834299  0.648556  1
  Ni  Ni13  1  0.331424  0.165712  0.148554  1
  Ni  Ni14  1  0.834288  0.165712  0.148554  1
  Ni  Ni15  1  0.165710  0.331419  0.851447  1
  Ni  Ni16  1  0.165710  0.834290  0.851447  1
  Ni  Ni17  1  0.165701  0.331402  0.648556  1
  Ni  Ni18  1  0.668581  0.834290  0.851447  1
  Ni  Ni19  1  0.331422  0.165711  0.351439  1
  B  B20  1  0.666667  0.333333  0.250008  1
  B  B21  1  0.333333  0.666667  0.749994  1
  B  B22  1  0.000000  0.000000  0.750007  1
  B  B23  1  0.000000  0.000000  0.249999  1
