# generated using pymatgen
data_Dy23Lu(CoTc)4
_symmetry_space_group_name_H-M   'P 1'
_cell_length_a   6.31331260
_cell_length_b   9.21281013
_cell_length_c   14.18236700
_cell_angle_alpha   89.93024608
_cell_angle_beta   89.90008897
_cell_angle_gamma   89.86826274
_symmetry_Int_Tables_number   1
_chemical_formula_structural   Dy23Lu(CoTc)4
_chemical_formula_sum   'Dy23 Lu1 Co4 Tc4'
_cell_volume   824.88993792
_cell_formula_units_Z   1
loop_
 _symmetry_equiv_pos_site_id
 _symmetry_equiv_pos_as_xyz
  1  'x, y, z'
loop_
 _atom_site_type_symbol
 _atom_site_label
 _atom_site_symmetry_multiplicity
 _atom_site_fract_x
 _atom_site_fract_y
 _atom_site_fract_z
 _atom_site_occupancy
  Dy  Dy0  1  0.536741  0.749750  0.349945  1
  Dy  Dy1  1  0.038110  0.251094  0.148261  1
  Dy  Dy2  1  0.463876  0.249430  0.650632  1
  Dy  Dy3  1  0.963553  0.747551  0.850788  1
  Dy  Dy4  1  0.773738  0.749497  0.107702  1
  Dy  Dy5  1  0.273627  0.250338  0.391583  1
  Dy  Dy6  1  0.224300  0.251246  0.892263  1
  Dy  Dy7  1  0.727321  0.750035  0.608599  1
  Dy  Dy8  1  0.411316  0.931040  0.785692  1
  Dy  Dy9  1  0.913086  0.066633  0.715926  1
  Dy  Dy10  1  0.589086  0.433206  0.213158  1
  Dy  Dy11  1  0.088116  0.567751  0.284889  1
  Dy  Dy12  1  0.588738  0.067853  0.214661  1
  Dy  Dy13  1  0.087612  0.933487  0.284446  1
  Dy  Dy14  1  0.415210  0.565857  0.784694  1
  Dy  Dy15  1  0.912971  0.431656  0.717227  1
  Dy  Dy16  1  0.240689  0.934930  0.537268  1
  Dy  Dy17  1  0.742111  0.065984  0.962619  1
  Dy  Dy18  1  0.758784  0.434566  0.463061  1
  Dy  Dy19  1  0.255565  0.564236  0.036445  1
  Dy  Dy20  1  0.758883  0.065321  0.463211  1
  Dy  Dy21  1  0.260696  0.934326  0.036881  1
  Dy  Dy22  1  0.239490  0.564422  0.537507  1
  Lu  Lu23  1  0.733707  0.436499  0.962850  1
  Co  Co24  1  0.373054  0.749116  0.182167  1
  Co  Co25  1  0.874368  0.249598  0.316057  1
  Co  Co26  1  0.625393  0.254642  0.818696  1
  Co  Co27  1  0.127156  0.751771  0.683304  1
  Tc  Tc28  1  0.932826  0.750432  0.434636  1
  Tc  Tc29  1  0.434977  0.250180  0.064081  1
  Tc  Tc30  1  0.067147  0.249904  0.565846  1
  Tc  Tc31  1  0.567753  0.747648  0.934903  1
