# generated using pymatgen
data_Li2Tb16In2Ir3Pt
_symmetry_space_group_name_H-M   'P 1'
_cell_length_a   9.70233210
_cell_length_b   9.69030752
_cell_length_c   9.69030814
_cell_angle_alpha   60.14224089
_cell_angle_beta   60.23867937
_cell_angle_gamma   60.23867766
_symmetry_Int_Tables_number   1
_chemical_formula_structural   Li2Tb16In2Ir3Pt
_chemical_formula_sum   'Li2 Tb16 In2 Ir3 Pt1'
_cell_volume   647.23456751
_cell_formula_units_Z   1
loop_
 _symmetry_equiv_pos_site_id
 _symmetry_equiv_pos_as_xyz
  1  'x, y, z'
loop_
 _atom_site_type_symbol
 _atom_site_label
 _atom_site_symmetry_multiplicity
 _atom_site_fract_x
 _atom_site_fract_y
 _atom_site_fract_z
 _atom_site_occupancy
  Li  Li0  1  0.325661  0.322170  0.322170  1
  Li  Li1  1  0.028599  0.322520  0.322520  1
  Tb  Tb2  1  0.100620  0.705110  0.099906  1
  Tb  Tb3  1  0.941654  0.939813  0.556895  1
  Tb  Tb4  1  0.941654  0.556895  0.939813  1
  Tb  Tb5  1  0.312589  0.688032  0.312201  1
  Tb  Tb6  1  0.931555  0.565995  0.565995  1
  Tb  Tb7  1  0.312589  0.312201  0.688032  1
  Tb  Tb8  1  0.099710  0.098140  0.098140  1
  Tb  Tb9  1  0.559216  0.561753  0.937963  1
  Tb  Tb10  1  0.100620  0.099906  0.705110  1
  Tb  Tb11  1  0.688420  0.312628  0.687691  1
  Tb  Tb12  1  0.688420  0.687691  0.312628  1
  Tb  Tb13  1  0.690223  0.311116  0.311116  1
  Tb  Tb14  1  0.314103  0.687081  0.687081  1
  Tb  Tb15  1  0.559216  0.937963  0.561753  1
  Tb  Tb16  1  0.698689  0.101871  0.101871  1
  Tb  Tb17  1  0.552498  0.943764  0.943764  1
  In  In18  1  0.329357  0.006049  0.334538  1
  In  In19  1  0.329357  0.334538  0.006049  1
  Ir  Ir20  1  0.890397  0.893641  0.324644  1
  Ir  Ir21  1  0.324321  0.892755  0.892755  1
  Ir  Ir22  1  0.890397  0.324644  0.893641  1
  Pt  Pt23  1  0.890131  0.893726  0.893726  1
