# generated using pymatgen
data_La3Y(B2Rh5)2
_symmetry_space_group_name_H-M   'P 1'
_cell_length_a   5.54602500
_cell_length_b   5.54544128
_cell_length_c   21.22189500
_cell_angle_alpha   89.99954539
_cell_angle_beta   90.00057853
_cell_angle_gamma   119.99202317
_symmetry_Int_Tables_number   1
_chemical_formula_structural   La3Y(B2Rh5)2
_chemical_formula_sum   'La6 Y2 B8 Rh20'
_cell_volume   565.28521917
_cell_formula_units_Z   2
loop_
 _symmetry_equiv_pos_site_id
 _symmetry_equiv_pos_as_xyz
  1  'x, y, z'
loop_
 _atom_site_type_symbol
 _atom_site_label
 _atom_site_symmetry_multiplicity
 _atom_site_fract_x
 _atom_site_fract_y
 _atom_site_fract_z
 _atom_site_occupancy
  La  La0  1  0.666670  0.333357  0.521918  1
  La  La1  1  0.333330  0.666643  0.478082  1
  La  La2  1  0.333355  0.666651  0.021723  1
  La  La3  1  0.666645  0.333349  0.978277  1
  La  La4  1  0.666634  0.333361  0.674153  1
  La  La5  1  0.333366  0.666639  0.325847  1
  Y  Y6  1  0.333356  0.666633  0.174302  1
  Y  Y7  1  0.666644  0.333367  0.825698  1
  B  B8  1  0.999971  0.000026  0.678212  1
  B  B9  1  0.000029  0.999974  0.321788  1
  B  B10  1  0.000036  0.999974  0.177656  1
  B  B11  1  0.999964  0.000026  0.822344  1
  B  B12  1  0.666680  0.333304  0.324806  1
  B  B13  1  0.333320  0.666696  0.675194  1
  B  B14  1  0.333331  0.666694  0.825384  1
  B  B15  1  0.666669  0.333306  0.174616  1
  Rh  Rh16  1  0.000000  0.000000  0.500000  1
  Rh  Rh17  1  0.000000  0.000000  0.000000  1
  Rh  Rh18  1  0.167394  0.334910  0.750883  1
  Rh  Rh19  1  0.167401  0.832582  0.750882  1
  Rh  Rh20  1  0.665048  0.832572  0.750883  1
  Rh  Rh21  1  0.832606  0.665090  0.249117  1
  Rh  Rh22  1  0.832599  0.167418  0.249118  1
  Rh  Rh23  1  0.334952  0.167428  0.249117  1
  Rh  Rh24  1  0.163383  0.326834  0.609653  1
  Rh  Rh25  1  0.163382  0.836600  0.609655  1
  Rh  Rh26  1  0.673192  0.836642  0.609652  1
  Rh  Rh27  1  0.836617  0.673166  0.390347  1
  Rh  Rh28  1  0.836618  0.163400  0.390345  1
  Rh  Rh29  1  0.326808  0.163358  0.390348  1
  Rh  Rh30  1  0.836685  0.673288  0.110450  1
  Rh  Rh31  1  0.836650  0.163318  0.110450  1
  Rh  Rh32  1  0.326671  0.163284  0.110451  1
  Rh  Rh33  1  0.163315  0.326712  0.889550  1
  Rh  Rh34  1  0.163350  0.836682  0.889550  1
  Rh  Rh35  1  0.673329  0.836716  0.889549  1
