# generated using pymatgen
data_DyY(ZnPb)2
_symmetry_space_group_name_H-M   'P 1'
_cell_length_a   4.63741700
_cell_length_b   4.63741818
_cell_length_c   15.78003800
_cell_angle_alpha   90.00000000
_cell_angle_beta   90.00000000
_cell_angle_gamma   119.99999874
_symmetry_Int_Tables_number   1
_chemical_formula_structural   DyY(ZnPb)2
_chemical_formula_sum   'Dy2 Y2 Zn4 Pb4'
_cell_volume   293.89425158
_cell_formula_units_Z   2
loop_
 _symmetry_equiv_pos_site_id
 _symmetry_equiv_pos_as_xyz
  1  'x, y, z'
loop_
 _atom_site_type_symbol
 _atom_site_label
 _atom_site_symmetry_multiplicity
 _atom_site_fract_x
 _atom_site_fract_y
 _atom_site_fract_z
 _atom_site_occupancy
  Dy  Dy0  1  0.000000  0.000000  0.250000  1
  Dy  Dy1  1  0.000000  0.000000  0.750000  1
  Y  Y2  1  0.000000  0.000000  0.000000  1
  Y  Y3  1  0.000000  0.000000  0.500000  1
  Zn  Zn4  1  0.333333  0.666667  0.164686  1
  Zn  Zn5  1  0.666667  0.333333  0.835314  1
  Zn  Zn6  1  0.666667  0.333333  0.664686  1
  Zn  Zn7  1  0.333333  0.666667  0.335314  1
  Pb  Pb8  1  0.333333  0.666667  0.609946  1
  Pb  Pb9  1  0.666667  0.333333  0.390054  1
  Pb  Pb10  1  0.666667  0.333333  0.109946  1
  Pb  Pb11  1  0.333333  0.666667  0.890054  1
