# generated using pymatgen
data_LiTb2Nd3(P2Ru3)6
_symmetry_space_group_name_H-M   'P 1'
_cell_length_a   3.99901100
_cell_length_b   12.69318913
_cell_length_c   12.49528300
_cell_angle_alpha   119.48497184
_cell_angle_beta   90.00000000
_cell_angle_gamma   90.00000000
_symmetry_Int_Tables_number   1
_chemical_formula_structural   LiTb2Nd3(P2Ru3)6
_chemical_formula_sum   'Li1 Tb2 Nd3 P12 Ru18'
_cell_volume   552.11640402
_cell_formula_units_Z   1
loop_
 _symmetry_equiv_pos_site_id
 _symmetry_equiv_pos_as_xyz
  1  'x, y, z'
loop_
 _atom_site_type_symbol
 _atom_site_label
 _atom_site_symmetry_multiplicity
 _atom_site_fract_x
 _atom_site_fract_y
 _atom_site_fract_z
 _atom_site_occupancy
  Li  Li0  1  0.000000  0.999999  0.561626  1
  Tb  Tb1  1  0.000000  0.341572  0.670240  1
  Tb  Tb2  1  0.000000  0.658424  0.328668  1
  Nd  Nd3  1  0.500000  0.999994  0.182459  1
  Nd  Nd4  1  0.500000  0.182678  0.997308  1
  Nd  Nd5  1  0.500000  0.817320  0.814625  1
  P  P6  1  0.000000  0.000000  0.803533  1
  P  P7  1  0.000000  0.814929  0.001489  1
  P  P8  1  0.000000  0.185068  0.186560  1
  P  P9  1  0.500000  0.307113  0.481665  1
  P  P10  1  0.500000  0.182990  0.700778  1
  P  P11  1  0.500000  0.526367  0.831584  1
  P  P12  1  0.500000  0.817005  0.517788  1
  P  P13  1  0.500000  0.473629  0.305214  1
  P  P14  1  0.500000  0.692878  0.174545  1
  P  P15  1  0.000000  0.999995  0.370409  1
  P  P16  1  0.000000  0.376035  0.999910  1
  P  P17  1  0.000000  0.623964  0.623871  1
  Ru  Ru18  1  0.000000  0.556246  0.001758  1
  Ru  Ru19  1  0.000000  0.443745  0.445511  1
  Ru  Ru20  1  0.500000  0.999999  0.706597  1
  Ru  Ru21  1  0.500000  0.717146  0.003309  1
  Ru  Ru22  1  0.500000  0.282850  0.286159  1
  Ru  Ru23  1  0.000000  0.196149  0.384001  1
  Ru  Ru24  1  0.000000  0.187943  0.802916  1
  Ru  Ru25  1  0.000000  0.624479  0.816557  1
  Ru  Ru26  1  0.000000  0.812051  0.614969  1
  Ru  Ru27  1  0.000000  0.375518  0.192078  1
  Ru  Ru28  1  0.000000  0.803837  0.187844  1
  Ru  Ru29  1  0.500000  0.123593  0.492871  1
  Ru  Ru30  1  0.500000  0.371023  0.878244  1
  Ru  Ru31  1  0.500000  0.507163  0.635001  1
  Ru  Ru32  1  0.500000  0.628978  0.507221  1
  Ru  Ru33  1  0.500000  0.492830  0.127834  1
  Ru  Ru34  1  0.500000  0.876394  0.369267  1
  Ru  Ru35  1  0.000000  0.999998  0.995592  1
