# generated using pymatgen
data_Sm8Ta11Si16W
_symmetry_space_group_name_H-M   'P 1'
_cell_length_a   6.91629221
_cell_length_b   7.12319751
_cell_length_c   13.48264500
_cell_angle_alpha   90.00000000
_cell_angle_beta   90.00000000
_cell_angle_gamma   89.96397757
_symmetry_Int_Tables_number   1
_chemical_formula_structural   Sm8Ta11Si16W
_chemical_formula_sum   'Sm8 Ta11 Si16 W1'
_cell_volume   664.23741464
_cell_formula_units_Z   1
loop_
 _symmetry_equiv_pos_site_id
 _symmetry_equiv_pos_as_xyz
  1  'x, y, z'
loop_
 _atom_site_type_symbol
 _atom_site_label
 _atom_site_symmetry_multiplicity
 _atom_site_fract_x
 _atom_site_fract_y
 _atom_site_fract_z
 _atom_site_occupancy
  Sm  Sm0  1  0.503307  0.670013  0.595684  1
  Sm  Sm1  1  0.003231  0.830077  0.904450  1
  Sm  Sm2  1  0.497721  0.329776  0.095882  1
  Sm  Sm3  1  0.996975  0.169700  0.403933  1
  Sm  Sm4  1  0.497721  0.329776  0.404118  1
  Sm  Sm5  1  0.996975  0.169700  0.096067  1
  Sm  Sm6  1  0.503307  0.670013  0.904316  1
  Sm  Sm7  1  0.003231  0.830077  0.595550  1
  Ta  Ta8  1  0.662750  0.174344  0.625775  1
  Ta  Ta9  1  0.162846  0.325764  0.874040  1
  Ta  Ta10  1  0.336954  0.827052  0.126687  1
  Ta  Ta11  1  0.836366  0.674384  0.373398  1
  Ta  Ta12  1  0.336954  0.827052  0.373313  1
  Ta  Ta13  1  0.836366  0.674384  0.126602  1
  Ta  Ta14  1  0.662750  0.174344  0.874225  1
  Ta  Ta15  1  0.162846  0.325764  0.625960  1
  Ta  Ta16  1  0.837935  0.489421  0.750000  1
  Ta  Ta17  1  0.338416  0.011249  0.750000  1
  Ta  Ta18  1  0.162072  0.511393  0.250000  1
  Si  Si19  1  0.661357  0.959954  0.457027  1
  Si  Si20  1  0.161286  0.539269  0.042265  1
  Si  Si21  1  0.338100  0.039619  0.958255  1
  Si  Si22  1  0.838595  0.460602  0.541935  1
  Si  Si23  1  0.338100  0.039619  0.541745  1
  Si  Si24  1  0.838595  0.460602  0.958065  1
  Si  Si25  1  0.661357  0.959954  0.042973  1
  Si  Si26  1  0.161286  0.539269  0.457735  1
  Si  Si27  1  0.459341  0.374613  0.750000  1
  Si  Si28  1  0.958860  0.126187  0.750000  1
  Si  Si29  1  0.540905  0.626160  0.250000  1
  Si  Si30  1  0.038421  0.874909  0.250000  1
  Si  Si31  1  0.703125  0.877130  0.750000  1
  Si  Si32  1  0.202827  0.623326  0.750000  1
  Si  Si33  1  0.300668  0.122748  0.250000  1
  Si  Si34  1  0.798080  0.375274  0.250000  1
  W  W35  1  0.660368  0.986477  0.250000  1
