# generated using pymatgen
data_CaEu9(Pb3Cl)2
_symmetry_space_group_name_H-M   'P 1'
_cell_length_a   9.77985700
_cell_length_b   9.77985572
_cell_length_c   7.07943700
_cell_angle_alpha   90.00000000
_cell_angle_beta   90.00000000
_cell_angle_gamma   119.99999417
_symmetry_Int_Tables_number   1
_chemical_formula_structural   CaEu9(Pb3Cl)2
_chemical_formula_sum   'Ca1 Eu9 Pb6 Cl2'
_cell_volume   586.40049890
_cell_formula_units_Z   1
loop_
 _symmetry_equiv_pos_site_id
 _symmetry_equiv_pos_as_xyz
  1  'x, y, z'
loop_
 _atom_site_type_symbol
 _atom_site_label
 _atom_site_symmetry_multiplicity
 _atom_site_fract_x
 _atom_site_fract_y
 _atom_site_fract_z
 _atom_site_occupancy
  Ca  Ca0  1  0.333333  0.666667  0.500000  1
  Eu  Eu1  1  0.251966  0.999195  0.250380  1
  Eu  Eu2  1  0.747229  0.999195  0.749620  1
  Eu  Eu3  1  0.000805  0.252771  0.250380  1
  Eu  Eu4  1  0.000805  0.748034  0.749620  1
  Eu  Eu5  1  0.747229  0.748034  0.250380  1
  Eu  Eu6  1  0.251966  0.252771  0.749620  1
  Eu  Eu7  1  0.333333  0.666667  0.000000  1
  Eu  Eu8  1  0.666667  0.333333  0.000000  1
  Eu  Eu9  1  0.666667  0.333333  0.500000  1
  Pb  Pb10  1  0.592167  0.998083  0.249667  1
  Pb  Pb11  1  0.405916  0.998083  0.750333  1
  Pb  Pb12  1  0.001917  0.594084  0.249667  1
  Pb  Pb13  1  0.001917  0.407833  0.750333  1
  Pb  Pb14  1  0.405916  0.407833  0.249667  1
  Pb  Pb15  1  0.592167  0.594084  0.750333  1
  Cl  Cl16  1  0.000000  0.000000  0.000000  1
  Cl  Cl17  1  0.000000  0.000000  0.500000  1
