# generated using pymatgen
data_Sm5DyCd23P
_symmetry_space_group_name_H-M   'P 1'
_cell_length_a   9.99550708
_cell_length_b   9.99550641
_cell_length_c   9.98514000
_cell_angle_alpha   60.03429468
_cell_angle_beta   60.03429691
_cell_angle_gamma   59.93139976
_symmetry_Int_Tables_number   1
_chemical_formula_structural   Sm5DyCd23P
_chemical_formula_sum   'Sm5 Dy1 Cd23 P1'
_cell_volume   705.42010348
_cell_formula_units_Z   1
loop_
 _symmetry_equiv_pos_site_id
 _symmetry_equiv_pos_as_xyz
  1  'x, y, z'
loop_
 _atom_site_type_symbol
 _atom_site_label
 _atom_site_symmetry_multiplicity
 _atom_site_fract_x
 _atom_site_fract_y
 _atom_site_fract_z
 _atom_site_occupancy
  Sm  Sm0  1  0.200156  0.799410  0.200590  1
  Sm  Sm1  1  0.799410  0.200156  0.200590  1
  Sm  Sm2  1  0.199327  0.199327  0.800673  1
  Sm  Sm3  1  0.799410  0.200156  0.799844  1
  Sm  Sm4  1  0.200156  0.799410  0.799844  1
  Dy  Dy5  1  0.802235  0.802235  0.197765  1
  Cd  Cd6  1  0.834816  0.834816  0.494429  1
  Cd  Cd7  1  0.834491  0.495960  0.834774  1
  Cd  Cd8  1  0.495960  0.834491  0.834774  1
  Cd  Cd9  1  0.834816  0.834816  0.835937  1
  Cd  Cd10  1  0.165226  0.165226  0.504040  1
  Cd  Cd11  1  0.164063  0.505571  0.165184  1
  Cd  Cd12  1  0.505571  0.164063  0.165184  1
  Cd  Cd13  1  0.165226  0.165226  0.165509  1
  Cd  Cd14  1  0.621907  0.621907  0.136367  1
  Cd  Cd15  1  0.621493  0.135499  0.621505  1
  Cd  Cd16  1  0.135499  0.621493  0.621505  1
  Cd  Cd17  1  0.621907  0.621907  0.619819  1
  Cd  Cd18  1  0.378495  0.378495  0.864501  1
  Cd  Cd19  1  0.380181  0.863633  0.378093  1
  Cd  Cd20  1  0.863633  0.380181  0.378093  1
  Cd  Cd21  1  0.378495  0.378495  0.378507  1
  Cd  Cd22  1  0.999611  0.999611  0.500389  1
  Cd  Cd23  1  0.500212  0.999743  0.499788  1
  Cd  Cd24  1  0.999743  0.500212  0.499788  1
  Cd  Cd25  1  0.499611  0.499611  0.000389  1
  Cd  Cd26  1  0.999743  0.500212  0.000257  1
  Cd  Cd27  1  0.500212  0.999743  0.000257  1
  Cd  Cd28  1  0.499710  0.499710  0.500290  1
  P  P29  1  0.998684  0.998684  0.001316  1
