# generated using pymatgen
data_RbHoBi2Se5
_symmetry_space_group_name_H-M   'P 1'
_cell_length_a   4.16331300
_cell_length_b   12.43953800
_cell_length_c   22.28931000
_cell_angle_alpha   90.00000000
_cell_angle_beta   90.00000000
_cell_angle_gamma   90.00000000
_symmetry_Int_Tables_number   1
_chemical_formula_structural   RbHoBi2Se5
_chemical_formula_sum   'Rb4 Ho4 Bi8 Se20'
_cell_volume   1154.35646122
_cell_formula_units_Z   4
loop_
 _symmetry_equiv_pos_site_id
 _symmetry_equiv_pos_as_xyz
  1  'x, y, z'
loop_
 _atom_site_type_symbol
 _atom_site_label
 _atom_site_symmetry_multiplicity
 _atom_site_fract_x
 _atom_site_fract_y
 _atom_site_fract_z
 _atom_site_occupancy
  Rb  Rb0  1  0.250000  0.489685  0.210826  1
  Rb  Rb1  1  0.750000  0.510315  0.789174  1
  Rb  Rb2  1  0.750000  0.989685  0.289174  1
  Rb  Rb3  1  0.250000  0.010315  0.710826  1
  Ho  Ho4  1  0.250000  0.364079  0.024263  1
  Ho  Ho5  1  0.750000  0.635921  0.975737  1
  Ho  Ho6  1  0.750000  0.864079  0.475737  1
  Ho  Ho7  1  0.250000  0.135921  0.524263  1
  Bi  Bi8  1  0.250000  0.802304  0.126698  1
  Bi  Bi9  1  0.750000  0.197696  0.873302  1
  Bi  Bi10  1  0.750000  0.302304  0.373302  1
  Bi  Bi11  1  0.250000  0.697696  0.626698  1
  Bi  Bi12  1  0.250000  0.595772  0.423569  1
  Bi  Bi13  1  0.750000  0.404228  0.576431  1
  Bi  Bi14  1  0.750000  0.095772  0.076431  1
  Bi  Bi15  1  0.250000  0.904228  0.923569  1
  Se  Se16  1  0.250000  0.812050  0.390347  1
  Se  Se17  1  0.750000  0.187950  0.609653  1
  Se  Se18  1  0.750000  0.312050  0.109653  1
  Se  Se19  1  0.250000  0.687950  0.890347  1
  Se  Se20  1  0.250000  0.247351  0.294626  1
  Se  Se21  1  0.750000  0.752649  0.705374  1
  Se  Se22  1  0.750000  0.747351  0.205374  1
  Se  Se23  1  0.250000  0.252649  0.794626  1
  Se  Se24  1  0.250000  0.354638  0.481091  1
  Se  Se25  1  0.750000  0.645362  0.518909  1
  Se  Se26  1  0.750000  0.854638  0.018909  1
  Se  Se27  1  0.250000  0.145362  0.981091  1
  Se  Se28  1  0.250000  0.026512  0.159668  1
  Se  Se29  1  0.750000  0.973488  0.840332  1
  Se  Se30  1  0.750000  0.526512  0.340332  1
  Se  Se31  1  0.250000  0.473488  0.659668  1
  Se  Se32  1  0.250000  0.583148  0.059377  1
  Se  Se33  1  0.750000  0.416852  0.940623  1
  Se  Se34  1  0.750000  0.083148  0.440623  1
  Se  Se35  1  0.250000  0.916852  0.559377  1
