# generated using pymatgen
data_CaNd6As12Pd17
_symmetry_space_group_name_H-M   'P 1'
_cell_length_a   12.77947260
_cell_length_b   12.77947240
_cell_length_c   14.02148825
_cell_angle_alpha   68.57121895
_cell_angle_beta   68.57121865
_cell_angle_gamma   18.79559118
_symmetry_Int_Tables_number   1
_chemical_formula_structural   CaNd6As12Pd17
_chemical_formula_sum   'Ca1 Nd6 As12 Pd17'
_cell_volume   685.34273966
_cell_formula_units_Z   1
loop_
 _symmetry_equiv_pos_site_id
 _symmetry_equiv_pos_as_xyz
  1  'x, y, z'
loop_
 _atom_site_type_symbol
 _atom_site_label
 _atom_site_symmetry_multiplicity
 _atom_site_fract_x
 _atom_site_fract_y
 _atom_site_fract_z
 _atom_site_occupancy
  Ca  Ca0  1  0.500000  0.500000  0.500000  1
  Nd  Nd1  1  0.367536  0.367536  0.999608  1
  Nd  Nd2  1  0.632464  0.632464  0.000392  1
  Nd  Nd3  1  0.233329  0.233329  0.311565  1
  Nd  Nd4  1  0.766671  0.766671  0.688435  1
  Nd  Nd5  1  0.418587  0.418587  0.260208  1
  Nd  Nd6  1  0.581413  0.581413  0.739792  1
  As  As7  1  0.062129  0.062129  0.924959  1
  As  As8  1  0.937871  0.937871  0.075041  1
  As  As9  1  0.885288  0.885288  0.827856  1
  As  As10  1  0.114712  0.114712  0.172144  1
  As  As11  1  0.189815  0.189815  0.620273  1
  As  As12  1  0.810185  0.810185  0.379727  1
  As  As13  1  0.367411  0.367411  0.578853  1
  As  As14  1  0.632589  0.632589  0.421147  1
  As  As15  1  0.011745  0.011745  0.670227  1
  As  As16  1  0.988255  0.988255  0.329773  1
  As  As17  1  0.233149  0.233149  0.883342  1
  As  As18  1  0.766851  0.766851  0.116658  1
  Pd  Pd19  1  0.838472  0.838472  0.193687  1
  Pd  Pd20  1  0.161528  0.161528  0.806313  1
  Pd  Pd21  1  0.024987  0.024987  0.127092  1
  Pd  Pd22  1  0.975013  0.975013  0.872908  1
  Pd  Pd23  1  0.886483  0.886483  0.458209  1
  Pd  Pd24  1  0.113517  0.113517  0.541791  1
  Pd  Pd25  1  0.500000  0.500000  0.000000  1
  Pd  Pd26  1  0.547523  0.547523  0.255876  1
  Pd  Pd27  1  0.452477  0.452477  0.744124  1
  Pd  Pd28  1  0.294715  0.294715  0.491976  1
  Pd  Pd29  1  0.705285  0.705285  0.508024  1
  Pd  Pd30  1  0.664066  0.664066  0.225280  1
  Pd  Pd31  1  0.335934  0.335934  0.774720  1
  Pd  Pd32  1  0.909720  0.909720  0.636831  1
  Pd  Pd33  1  0.090280  0.090280  0.363169  1
  Pd  Pd34  1  0.219988  0.219988  0.071362  1
  Pd  Pd35  1  0.780012  0.780012  0.928638  1
