# generated using pymatgen
data_NbMoIr6
_symmetry_space_group_name_H-M   'P 1'
_cell_length_a   5.56341100
_cell_length_b   5.56341103
_cell_length_c   4.45764100
_cell_angle_alpha   90.00000000
_cell_angle_beta   90.00000000
_cell_angle_gamma   120.00000579
_symmetry_Int_Tables_number   1
_chemical_formula_structural   NbMoIr6
_chemical_formula_sum   'Nb1 Mo1 Ir6'
_cell_volume   119.48626546
_cell_formula_units_Z   1
loop_
 _symmetry_equiv_pos_site_id
 _symmetry_equiv_pos_as_xyz
  1  'x, y, z'
loop_
 _atom_site_type_symbol
 _atom_site_label
 _atom_site_symmetry_multiplicity
 _atom_site_fract_x
 _atom_site_fract_y
 _atom_site_fract_z
 _atom_site_occupancy
  Nb  Nb0  1  0.333333  0.666667  0.250000  1
  Mo  Mo1  1  0.666667  0.333333  0.750000  1
  Ir  Ir2  1  0.832699  0.665400  0.250000  1
  Ir  Ir3  1  0.163406  0.836594  0.750000  1
  Ir  Ir4  1  0.673189  0.836594  0.750000  1
  Ir  Ir5  1  0.334600  0.167301  0.250000  1
  Ir  Ir6  1  0.832699  0.167301  0.250000  1
  Ir  Ir7  1  0.163406  0.326811  0.750000  1
