# generated using pymatgen
data_MgAuF7
_symmetry_space_group_name_H-M   'P 1'
_cell_length_a   6.98249800
_cell_length_b   7.35362200
_cell_length_c   10.01765600
_cell_angle_alpha   90.00000000
_cell_angle_beta   90.00000000
_cell_angle_gamma   90.00000000
_symmetry_Int_Tables_number   1
_chemical_formula_structural   MgAuF7
_chemical_formula_sum   'Mg4 Au4 F28'
_cell_volume   514.37308555
_cell_formula_units_Z   4
loop_
 _symmetry_equiv_pos_site_id
 _symmetry_equiv_pos_as_xyz
  1  'x, y, z'
loop_
 _atom_site_type_symbol
 _atom_site_label
 _atom_site_symmetry_multiplicity
 _atom_site_fract_x
 _atom_site_fract_y
 _atom_site_fract_z
 _atom_site_occupancy
  Mg  Mg0  1  0.750000  0.863202  0.733238  1
  Mg  Mg1  1  0.750000  0.363202  0.766762  1
  Mg  Mg2  1  0.250000  0.136798  0.266762  1
  Mg  Mg3  1  0.250000  0.636798  0.233238  1
  Au  Au4  1  0.250000  0.802412  0.553638  1
  Au  Au5  1  0.250000  0.302412  0.946362  1
  Au  Au6  1  0.750000  0.197588  0.446362  1
  Au  Au7  1  0.750000  0.697588  0.053638  1
  F  F8  1  0.750000  0.607223  0.702966  1
  F  F9  1  0.750000  0.107223  0.797034  1
  F  F10  1  0.250000  0.392777  0.297034  1
  F  F11  1  0.250000  0.892777  0.202966  1
  F  F12  1  0.750000  0.952257  0.529049  1
  F  F13  1  0.750000  0.452257  0.970951  1
  F  F14  1  0.250000  0.047743  0.470951  1
  F  F15  1  0.250000  0.547743  0.029049  1
  F  F16  1  0.934755  0.782412  0.921966  1
  F  F17  1  0.565245  0.282412  0.578034  1
  F  F18  1  0.434755  0.217588  0.078034  1
  F  F19  1  0.065245  0.717588  0.421966  1
  F  F20  1  0.065245  0.217588  0.078034  1
  F  F21  1  0.434755  0.717588  0.421966  1
  F  F22  1  0.565245  0.782412  0.921966  1
  F  F23  1  0.934755  0.282412  0.578034  1
  F  F24  1  0.443640  0.883890  0.682901  1
  F  F25  1  0.056360  0.383890  0.817099  1
  F  F26  1  0.943640  0.116110  0.317099  1
  F  F27  1  0.556360  0.616110  0.182901  1
  F  F28  1  0.556360  0.116110  0.317099  1
  F  F29  1  0.943640  0.616110  0.182901  1
  F  F30  1  0.056360  0.883890  0.682901  1
  F  F31  1  0.443640  0.383890  0.817099  1
  F  F32  1  0.250000  0.566769  0.635524  1
  F  F33  1  0.250000  0.066769  0.864476  1
  F  F34  1  0.750000  0.433231  0.364476  1
  F  F35  1  0.750000  0.933231  0.135524  1
