# generated using pymatgen
data_CaEr2(SiPd)3
_symmetry_space_group_name_H-M   'P 1'
_cell_length_a   4.32791000
_cell_length_b   7.43437900
_cell_length_c   21.09686900
_cell_angle_alpha   90.00000000
_cell_angle_beta   90.00000000
_cell_angle_gamma   90.00000000
_symmetry_Int_Tables_number   1
_chemical_formula_structural   CaEr2(SiPd)3
_chemical_formula_sum   'Ca4 Er8 Si12 Pd12'
_cell_volume   678.79857896
_cell_formula_units_Z   4
loop_
 _symmetry_equiv_pos_site_id
 _symmetry_equiv_pos_as_xyz
  1  'x, y, z'
loop_
 _atom_site_type_symbol
 _atom_site_label
 _atom_site_symmetry_multiplicity
 _atom_site_fract_x
 _atom_site_fract_y
 _atom_site_fract_z
 _atom_site_occupancy
  Ca  Ca0  1  0.250000  0.704285  0.332935  1
  Ca  Ca1  1  0.750000  0.295715  0.667065  1
  Ca  Ca2  1  0.750000  0.204285  0.167065  1
  Ca  Ca3  1  0.250000  0.795715  0.832935  1
  Er  Er4  1  0.250000  0.794873  0.165995  1
  Er  Er5  1  0.750000  0.205127  0.834005  1
  Er  Er6  1  0.750000  0.294873  0.334005  1
  Er  Er7  1  0.250000  0.705127  0.665995  1
  Er  Er8  1  0.250000  0.706603  0.000454  1
  Er  Er9  1  0.750000  0.293397  0.999546  1
  Er  Er10  1  0.750000  0.206603  0.499546  1
  Er  Er11  1  0.250000  0.793397  0.500454  1
  Si  Si12  1  0.250000  0.087179  0.065605  1
  Si  Si13  1  0.750000  0.912821  0.934395  1
  Si  Si14  1  0.750000  0.587179  0.434395  1
  Si  Si15  1  0.250000  0.412821  0.565605  1
  Si  Si16  1  0.250000  0.088459  0.273968  1
  Si  Si17  1  0.750000  0.911541  0.726032  1
  Si  Si18  1  0.750000  0.588459  0.226032  1
  Si  Si19  1  0.250000  0.411541  0.773968  1
  Si  Si20  1  0.250000  0.091094  0.395791  1
  Si  Si21  1  0.750000  0.908906  0.604209  1
  Si  Si22  1  0.750000  0.591094  0.104209  1
  Si  Si23  1  0.250000  0.408906  0.895791  1
  Pd  Pd24  1  0.250000  0.416884  0.236859  1
  Pd  Pd25  1  0.750000  0.583116  0.763141  1
  Pd  Pd26  1  0.750000  0.916884  0.263141  1
  Pd  Pd27  1  0.250000  0.083116  0.736859  1
  Pd  Pd28  1  0.250000  0.416083  0.437785  1
  Pd  Pd29  1  0.750000  0.583917  0.562215  1
  Pd  Pd30  1  0.750000  0.916083  0.062215  1
  Pd  Pd31  1  0.250000  0.083917  0.937785  1
  Pd  Pd32  1  0.250000  0.420163  0.091713  1
  Pd  Pd33  1  0.750000  0.579837  0.908287  1
  Pd  Pd34  1  0.750000  0.920163  0.408287  1
  Pd  Pd35  1  0.250000  0.079837  0.591713  1
