# generated using pymatgen
data_NbSb(O2F)2
_symmetry_space_group_name_H-M   'P 1'
_cell_length_a   5.37913885
_cell_length_b   5.41926310
_cell_length_c   5.64375590
_cell_angle_alpha   59.94785720
_cell_angle_beta   60.08549266
_cell_angle_gamma   62.31924294
_symmetry_Int_Tables_number   1
_chemical_formula_structural   NbSb(O2F)2
_chemical_formula_sum   'Nb1 Sb1 O4 F2'
_cell_volume   118.26501071
_cell_formula_units_Z   1
loop_
 _symmetry_equiv_pos_site_id
 _symmetry_equiv_pos_as_xyz
  1  'x, y, z'
loop_
 _atom_site_type_symbol
 _atom_site_label
 _atom_site_symmetry_multiplicity
 _atom_site_fract_x
 _atom_site_fract_y
 _atom_site_fract_z
 _atom_site_occupancy
  Nb  Nb0  1  0.174746  0.772834  0.348984  1
  Sb  Sb1  1  0.730871  0.201944  0.849112  1
  O  O2  1  0.905846  0.527353  0.591231  1
  O  O3  1  0.050073  0.967584  0.599285  1
  O  O4  1  0.547618  0.882403  0.093649  1
  O  O5  1  0.958744  0.054611  0.102479  1
  F  F6  1  0.475594  0.379300  0.603321  1
  F  F7  1  0.398938  0.456402  0.084643  1
