# generated using pymatgen
data_Hf3Be2SiPd3
_symmetry_space_group_name_H-M   'P 1'
_cell_length_a   6.67112200
_cell_length_b   6.67112153
_cell_length_c   3.59338900
_cell_angle_alpha   90.00000000
_cell_angle_beta   90.00000000
_cell_angle_gamma   120.00001226
_symmetry_Int_Tables_number   1
_chemical_formula_structural   Hf3Be2SiPd3
_chemical_formula_sum   'Hf3 Be2 Si1 Pd3'
_cell_volume   138.49450655
_cell_formula_units_Z   1
loop_
 _symmetry_equiv_pos_site_id
 _symmetry_equiv_pos_as_xyz
  1  'x, y, z'
loop_
 _atom_site_type_symbol
 _atom_site_label
 _atom_site_symmetry_multiplicity
 _atom_site_fract_x
 _atom_site_fract_y
 _atom_site_fract_z
 _atom_site_occupancy
  Hf  Hf0  1  0.582635  0.988148  0.000000  1
  Hf  Hf1  1  0.011852  0.594487  0.000000  1
  Hf  Hf2  1  0.405513  0.417365  0.000000  1
  Be  Be3  1  0.333333  0.666667  0.500000  1
  Be  Be4  1  0.000000  0.000000  0.000000  1
  Si  Si5  1  0.666667  0.333333  0.500000  1
  Pd  Pd6  1  0.243953  0.992796  0.500000  1
  Pd  Pd7  1  0.007204  0.251157  0.500000  1
  Pd  Pd8  1  0.748843  0.756047  0.500000  1
