# generated using pymatgen
data_Dy3HoLu4(WO6)4
_symmetry_space_group_name_H-M   'P 1'
_cell_length_a   5.36324800
_cell_length_b   7.64602218
_cell_length_c   11.33636722
_cell_angle_alpha   75.55154850
_cell_angle_beta   90.00000000
_cell_angle_gamma   90.00000000
_symmetry_Int_Tables_number   1
_chemical_formula_structural   Dy3HoLu4(WO6)4
_chemical_formula_sum   'Dy3 Ho1 Lu4 W4 O24'
_cell_volume   450.17336120
_cell_formula_units_Z   1
loop_
 _symmetry_equiv_pos_site_id
 _symmetry_equiv_pos_as_xyz
  1  'x, y, z'
loop_
 _atom_site_type_symbol
 _atom_site_label
 _atom_site_symmetry_multiplicity
 _atom_site_fract_x
 _atom_site_fract_y
 _atom_site_fract_z
 _atom_site_occupancy
  Dy  Dy0  1  0.742768  0.000000  0.250000  1
  Dy  Dy1  1  0.315533  0.500000  0.750000  1
  Dy  Dy2  1  0.684393  0.500000  0.250000  1
  Ho  Ho3  1  0.257387  0.000000  0.750000  1
  Lu  Lu4  1  0.182721  0.793473  0.079106  1
  Lu  Lu5  1  0.182721  0.206527  0.420894  1
  Lu  Lu6  1  0.817347  0.206469  0.920779  1
  Lu  Lu7  1  0.817347  0.793531  0.579221  1
  W  W8  1  0.743605  0.724119  0.885999  1
  W  W9  1  0.256375  0.723906  0.386091  1
  W  W10  1  0.743605  0.275881  0.614001  1
  W  W11  1  0.256375  0.276094  0.113909  1
  O  O12  1  0.540435  0.157148  0.066853  1
  O  O13  1  0.048054  0.058027  0.102470  1
  O  O14  1  0.018960  0.712851  0.770093  1
  O  O15  1  0.459339  0.156869  0.567139  1
  O  O16  1  0.357736  0.487518  0.386534  1
  O  O17  1  0.952639  0.057906  0.602814  1
  O  O18  1  0.544113  0.792621  0.725191  1
  O  O19  1  0.455238  0.792117  0.225169  1
  O  O20  1  0.145721  0.635043  0.550031  1
  O  O21  1  0.048054  0.941973  0.397530  1
  O  O22  1  0.459339  0.843131  0.932861  1
  O  O23  1  0.455238  0.207883  0.274831  1
  O  O24  1  0.854203  0.364864  0.449988  1
  O  O25  1  0.642325  0.487567  0.886479  1
  O  O26  1  0.357736  0.512482  0.113466  1
  O  O27  1  0.952639  0.942094  0.897186  1
  O  O28  1  0.540435  0.842852  0.433147  1
  O  O29  1  0.981148  0.287411  0.229878  1
  O  O30  1  0.544113  0.207379  0.774809  1
  O  O31  1  0.854203  0.635136  0.050012  1
  O  O32  1  0.018960  0.287149  0.729907  1
  O  O33  1  0.145721  0.364957  0.949969  1
  O  O34  1  0.981148  0.712589  0.270122  1
  O  O35  1  0.642325  0.512433  0.613521  1
