# generated using pymatgen
data_Ho4Al5GaPt8
_symmetry_space_group_name_H-M   'P 1'
_cell_length_a   8.11676269
_cell_length_b   8.11676339
_cell_length_c   7.63584159
_cell_angle_alpha   89.98461448
_cell_angle_beta   89.98462001
_cell_angle_gamma   140.00942767
_symmetry_Int_Tables_number   1
_chemical_formula_structural   Ho4Al5GaPt8
_chemical_formula_sum   'Ho4 Al5 Ga1 Pt8'
_cell_volume   323.29934888
_cell_formula_units_Z   1
loop_
 _symmetry_equiv_pos_site_id
 _symmetry_equiv_pos_as_xyz
  1  'x, y, z'
loop_
 _atom_site_type_symbol
 _atom_site_label
 _atom_site_symmetry_multiplicity
 _atom_site_fract_x
 _atom_site_fract_y
 _atom_site_fract_z
 _atom_site_occupancy
  Ho  Ho0  1  0.107005  0.893383  0.407694  1
  Ho  Ho1  1  0.893144  0.106638  0.592433  1
  Ho  Ho2  1  0.393362  0.606856  0.907567  1
  Ho  Ho3  1  0.606617  0.392995  0.092306  1
  Al  Al4  1  0.999908  0.999711  0.999785  1
  Al  Al5  1  0.500289  0.500092  0.500215  1
  Al  Al6  1  0.476998  0.023002  0.750000  1
  Al  Al7  1  0.976773  0.523227  0.750000  1
  Al  Al8  1  0.523493  0.976507  0.250000  1
  Ga  Ga9  1  0.022014  0.477986  0.250000  1
  Pt  Pt10  1  0.193105  0.306895  0.250000  1
  Pt  Pt11  1  0.308654  0.191346  0.750000  1
  Pt  Pt12  1  0.808593  0.691407  0.750000  1
  Pt  Pt13  1  0.691328  0.808672  0.250000  1
  Pt  Pt14  1  0.187837  0.821770  0.025962  1
  Pt  Pt15  1  0.813834  0.181185  0.969307  1
  Pt  Pt16  1  0.318815  0.686166  0.530693  1
  Pt  Pt17  1  0.678230  0.312163  0.474038  1
