# generated using pymatgen
data_La3Tb2P12Ru16Rh3
_symmetry_space_group_name_H-M   'P 1'
_cell_length_a   12.65590400
_cell_length_b   12.65590454
_cell_length_c   4.02070400
_cell_angle_alpha   90.00000000
_cell_angle_beta   90.00000000
_cell_angle_gamma   119.99999858
_symmetry_Int_Tables_number   1
_chemical_formula_structural   La3Tb2P12Ru16Rh3
_chemical_formula_sum   'La3 Tb2 P12 Ru16 Rh3'
_cell_volume   557.72370314
_cell_formula_units_Z   1
loop_
 _symmetry_equiv_pos_site_id
 _symmetry_equiv_pos_as_xyz
  1  'x, y, z'
loop_
 _atom_site_type_symbol
 _atom_site_label
 _atom_site_symmetry_multiplicity
 _atom_site_fract_x
 _atom_site_fract_y
 _atom_site_fract_z
 _atom_site_occupancy
  La  La0  1  0.182925  0.182925  0.500000  1
  La  La1  1  0.817075  0.000000  0.500000  1
  La  La2  1  0.000000  0.817075  0.500000  1
  Tb  Tb3  1  0.333333  0.666667  0.000000  1
  Tb  Tb4  1  0.666667  0.333333  0.000000  1
  P  P5  1  0.809347  0.809347  0.000000  1
  P  P6  1  0.190653  0.000000  0.000000  1
  P  P7  1  0.000000  0.190653  0.000000  1
  P  P8  1  0.177949  0.479329  0.500000  1
  P  P9  1  0.520671  0.698619  0.500000  1
  P  P10  1  0.301381  0.822051  0.500000  1
  P  P11  1  0.698619  0.520671  0.500000  1
  P  P12  1  0.822051  0.301381  0.500000  1
  P  P13  1  0.479329  0.177949  0.500000  1
  P  P14  1  0.373783  0.373783  0.000000  1
  P  P15  1  0.626217  0.000000  0.000000  1
  P  P16  1  0.000000  0.626217  0.000000  1
  Ru  Ru17  1  0.709985  0.709985  0.500000  1
  Ru  Ru18  1  0.290015  0.000000  0.500000  1
  Ru  Ru19  1  0.000000  0.290015  0.500000  1
  Ru  Ru20  1  0.186462  0.381829  0.000000  1
  Ru  Ru21  1  0.618171  0.804633  0.000000  1
  Ru  Ru22  1  0.195367  0.813538  0.000000  1
  Ru  Ru23  1  0.804633  0.618171  0.000000  1
  Ru  Ru24  1  0.813538  0.195367  0.000000  1
  Ru  Ru25  1  0.381829  0.186462  0.000000  1
  Ru  Ru26  1  0.369818  0.494487  0.500000  1
  Ru  Ru27  1  0.505513  0.875332  0.500000  1
  Ru  Ru28  1  0.124668  0.630182  0.500000  1
  Ru  Ru29  1  0.875332  0.505513  0.500000  1
  Ru  Ru30  1  0.630182  0.124668  0.500000  1
  Ru  Ru31  1  0.494487  0.369818  0.500000  1
  Ru  Ru32  1  0.000000  0.000000  0.000000  1
  Rh  Rh33  1  0.553356  0.553356  0.000000  1
  Rh  Rh34  1  0.446644  0.000000  0.000000  1
  Rh  Rh35  1  0.000000  0.446644  0.000000  1
