# generated using pymatgen
data_Lu4Sn4P2Ir7
_symmetry_space_group_name_H-M   'P 1'
_cell_length_a   7.28353946
_cell_length_b   7.30781998
_cell_length_c   7.30781900
_cell_angle_alpha   109.51042675
_cell_angle_beta   109.51909120
_cell_angle_gamma   109.51909368
_symmetry_Int_Tables_number   1
_chemical_formula_structural   Lu4Sn4P2Ir7
_chemical_formula_sum   'Lu4 Sn4 P2 Ir7'
_cell_volume   298.93088846
_cell_formula_units_Z   1
loop_
 _symmetry_equiv_pos_site_id
 _symmetry_equiv_pos_as_xyz
  1  'x, y, z'
loop_
 _atom_site_type_symbol
 _atom_site_label
 _atom_site_symmetry_multiplicity
 _atom_site_fract_x
 _atom_site_fract_y
 _atom_site_fract_z
 _atom_site_occupancy
  Lu  Lu0  1  0.000000  0.994340  0.449030  1
  Lu  Lu1  1  0.000000  0.550970  0.005660  1
  Lu  Lu2  1  0.500000  0.993432  0.006568  1
  Lu  Lu3  1  0.500000  0.493432  0.506568  1
  Sn  Sn4  1  0.000000  0.322842  0.300789  1
  Sn  Sn5  1  0.277621  0.289058  0.988562  1
  Sn  Sn6  1  0.722379  0.011438  0.710942  1
  Sn  Sn7  1  0.000000  0.699211  0.677158  1
  P  P8  1  0.653210  0.656448  0.996763  1
  P  P9  1  0.346790  0.003237  0.343552  1
  Ir  Ir10  1  0.742202  0.247202  0.495000  1
  Ir  Ir11  1  0.735486  0.500558  0.234927  1
  Ir  Ir12  1  0.500000  0.252770  0.747230  1
  Ir  Ir13  1  0.257798  0.505000  0.752798  1
  Ir  Ir14  1  0.264514  0.765073  0.499442  1
  Ir  Ir15  1  0.500000  0.752770  0.247230  1
  Ir  Ir16  1  0.000000  0.962215  0.037785  1
