# generated using pymatgen
data_Er9Cd5Co4
_symmetry_space_group_name_H-M   'P 1'
_cell_length_a   10.62398900
_cell_length_b   10.62398900
_cell_length_c   3.57614000
_cell_angle_alpha   90.00000000
_cell_angle_beta   90.00000000
_cell_angle_gamma   90.00000000
_symmetry_Int_Tables_number   1
_chemical_formula_structural   Er9Cd5Co4
_chemical_formula_sum   'Er9 Cd5 Co4'
_cell_volume   403.63585445
_cell_formula_units_Z   1
loop_
 _symmetry_equiv_pos_site_id
 _symmetry_equiv_pos_as_xyz
  1  'x, y, z'
loop_
 _atom_site_type_symbol
 _atom_site_label
 _atom_site_symmetry_multiplicity
 _atom_site_fract_x
 _atom_site_fract_y
 _atom_site_fract_z
 _atom_site_occupancy
  Er  Er0  1  0.323704  0.323704  0.500000  1
  Er  Er1  1  0.676296  0.676296  0.500000  1
  Er  Er2  1  0.323704  0.676296  0.500000  1
  Er  Er3  1  0.676296  0.323704  0.500000  1
  Er  Er4  1  0.000000  0.281176  0.500000  1
  Er  Er5  1  0.000000  0.718824  0.500000  1
  Er  Er6  1  0.281176  0.000000  0.500000  1
  Er  Er7  1  0.718824  0.000000  0.500000  1
  Er  Er8  1  0.000000  0.000000  0.000000  1
  Cd  Cd9  1  0.500000  0.144698  0.000000  1
  Cd  Cd10  1  0.500000  0.855302  0.000000  1
  Cd  Cd11  1  0.144698  0.500000  0.000000  1
  Cd  Cd12  1  0.855302  0.500000  0.000000  1
  Cd  Cd13  1  0.500000  0.500000  0.000000  1
  Co  Co14  1  0.185286  0.185286  0.000000  1
  Co  Co15  1  0.814714  0.814714  0.000000  1
  Co  Co16  1  0.185286  0.814714  0.000000  1
  Co  Co17  1  0.814714  0.185286  0.000000  1
