# generated using pymatgen
data_Yb2Y2GaRu7
_symmetry_space_group_name_H-M   'P 1'
_cell_length_a   5.22883524
_cell_length_b   5.28947927
_cell_length_c   8.95584800
_cell_angle_alpha   90.00000000
_cell_angle_beta   90.13834055
_cell_angle_gamma   120.38440455
_symmetry_Int_Tables_number   1
_chemical_formula_structural   Yb2Y2GaRu7
_chemical_formula_sum   'Yb2 Y2 Ga1 Ru7'
_cell_volume   213.67721251
_cell_formula_units_Z   1
loop_
 _symmetry_equiv_pos_site_id
 _symmetry_equiv_pos_as_xyz
  1  'x, y, z'
loop_
 _atom_site_type_symbol
 _atom_site_label
 _atom_site_symmetry_multiplicity
 _atom_site_fract_x
 _atom_site_fract_y
 _atom_site_fract_z
 _atom_site_occupancy
  Yb  Yb0  1  0.669194  0.334597  0.943744  1
  Yb  Yb1  1  0.343612  0.671806  0.062881  1
  Y  Y2  1  0.337898  0.668948  0.423915  1
  Y  Y3  1  0.663491  0.331746  0.568249  1
  Ga  Ga4  1  0.663527  0.831763  0.750777  1
  Ru  Ru5  1  0.011789  0.005895  0.499535  1
  Ru  Ru6  1  0.023120  0.011560  0.998242  1
  Ru  Ru7  1  0.826294  0.178069  0.250523  1
  Ru  Ru8  1  0.826294  0.648225  0.250523  1
  Ru  Ru9  1  0.316861  0.158430  0.248235  1
  Ru  Ru10  1  0.158959  0.814673  0.751689  1
  Ru  Ru11  1  0.158959  0.344287  0.751689  1
