# generated using pymatgen
data_Tb16CdHg3Ir3Ru
_symmetry_space_group_name_H-M   'P 1'
_cell_length_a   9.65625279
_cell_length_b   9.66618320
_cell_length_c   9.66618205
_cell_angle_alpha   59.84762930
_cell_angle_beta   59.83726390
_cell_angle_gamma   59.83727275
_symmetry_Int_Tables_number   1
_chemical_formula_structural   Tb16CdHg3Ir3Ru
_chemical_formula_sum   'Tb16 Cd1 Hg3 Ir3 Ru1'
_cell_volume   635.66875528
_cell_formula_units_Z   1
loop_
 _symmetry_equiv_pos_site_id
 _symmetry_equiv_pos_as_xyz
  1  'x, y, z'
loop_
 _atom_site_type_symbol
 _atom_site_label
 _atom_site_symmetry_multiplicity
 _atom_site_fract_x
 _atom_site_fract_y
 _atom_site_fract_z
 _atom_site_occupancy
  Tb  Tb0  1  0.599645  0.599207  0.599207  1
  Tb  Tb1  1  0.599849  0.599331  0.202304  1
  Tb  Tb2  1  0.599849  0.202304  0.599331  1
  Tb  Tb3  1  0.199245  0.600566  0.600566  1
  Tb  Tb4  1  0.060709  0.439938  0.439938  1
  Tb  Tb5  1  0.438022  0.060019  0.060019  1
  Tb  Tb6  1  0.438669  0.061793  0.439399  1
  Tb  Tb7  1  0.058987  0.439338  0.059362  1
  Tb  Tb8  1  0.438669  0.439399  0.061793  1
  Tb  Tb9  1  0.058987  0.059362  0.439338  1
  Tb  Tb10  1  0.188466  0.811500  0.811500  1
  Tb  Tb11  1  0.809333  0.188910  0.188910  1
  Tb  Tb12  1  0.810925  0.189315  0.811704  1
  Tb  Tb13  1  0.188459  0.809359  0.189425  1
  Tb  Tb14  1  0.810925  0.811704  0.189315  1
  Tb  Tb15  1  0.188459  0.189425  0.809359  1
  Cd  Cd16  1  0.509514  0.829842  0.829842  1
  Hg  Hg17  1  0.833303  0.835172  0.835172  1
  Hg  Hg18  1  0.833709  0.835786  0.494351  1
  Hg  Hg19  1  0.833709  0.494351  0.835786  1
  Ir  Ir20  1  0.392714  0.393546  0.825501  1
  Ir  Ir21  1  0.392714  0.825501  0.393546  1
  Ir  Ir22  1  0.825482  0.393292  0.393292  1
  Ru  Ru23  1  0.389658  0.391041  0.391041  1
