# generated using pymatgen
data_Ho2Mg3Pa2ZnRh4
_symmetry_space_group_name_H-M   'P 1'
_cell_length_a   3.83853100
_cell_length_b   7.25324494
_cell_length_c   8.84348754
_cell_angle_alpha   93.37354679
_cell_angle_beta   90.00000000
_cell_angle_gamma   90.00000000
_symmetry_Int_Tables_number   1
_chemical_formula_structural   Ho2Mg3Pa2ZnRh4
_chemical_formula_sum   'Ho2 Mg3 Pa2 Zn1 Rh4'
_cell_volume   245.79198894
_cell_formula_units_Z   1
loop_
 _symmetry_equiv_pos_site_id
 _symmetry_equiv_pos_as_xyz
  1  'x, y, z'
loop_
 _atom_site_type_symbol
 _atom_site_label
 _atom_site_symmetry_multiplicity
 _atom_site_fract_x
 _atom_site_fract_y
 _atom_site_fract_z
 _atom_site_occupancy
  Ho  Ho0  1  0.250000  0.053443  0.330119  1
  Ho  Ho1  1  0.750000  0.958195  0.674645  1
  Mg  Mg2  1  0.250000  0.131431  0.939695  1
  Mg  Mg3  1  0.750000  0.867837  0.061295  1
  Mg  Mg4  1  0.250000  0.631430  0.550478  1
  Pa  Pa5  1  0.250000  0.535014  0.194032  1
  Pa  Pa6  1  0.750000  0.461108  0.808472  1
  Zn  Zn7  1  0.750000  0.360996  0.444758  1
  Rh  Rh8  1  0.750000  0.740775  0.347451  1
  Rh  Rh9  1  0.250000  0.261813  0.649210  1
  Rh  Rh10  1  0.750000  0.283223  0.132138  1
  Rh  Rh11  1  0.250000  0.714734  0.867705  1
