# generated using pymatgen
data_Pr9Nd7(CdPt)4
_symmetry_space_group_name_H-M   'P 1'
_cell_length_a   10.06948627
_cell_length_b   10.03577220
_cell_length_c   10.07695994
_cell_angle_alpha   60.08591397
_cell_angle_beta   60.26017202
_cell_angle_gamma   60.15991387
_symmetry_Int_Tables_number   1
_chemical_formula_structural   Pr9Nd7(CdPt)4
_chemical_formula_sum   'Pr9 Nd7 Cd4 Pt4'
_cell_volume   722.81386842
_cell_formula_units_Z   1
loop_
 _symmetry_equiv_pos_site_id
 _symmetry_equiv_pos_as_xyz
  1  'x, y, z'
loop_
 _atom_site_type_symbol
 _atom_site_label
 _atom_site_symmetry_multiplicity
 _atom_site_fract_x
 _atom_site_fract_y
 _atom_site_fract_z
 _atom_site_occupancy
  Pr  Pr0  1  0.808025  0.191975  0.808025  1
  Pr  Pr1  1  0.191825  0.191919  0.808948  1
  Pr  Pr2  1  0.808948  0.807308  0.191825  1
  Pr  Pr3  1  0.938388  0.564639  0.562000  1
  Pr  Pr4  1  0.562000  0.934973  0.938388  1
  Pr  Pr5  1  0.562706  0.937294  0.562706  1
  Pr  Pr6  1  0.936036  0.563964  0.936036  1
  Pr  Pr7  1  0.561899  0.564572  0.938533  1
  Pr  Pr8  1  0.938533  0.934995  0.561899  1
  Nd  Nd9  1  0.350071  0.349792  0.349556  1
  Nd  Nd10  1  0.350608  0.350887  0.948126  1
  Nd  Nd11  1  0.349556  0.950581  0.350071  1
  Nd  Nd12  1  0.948126  0.350378  0.350608  1
  Nd  Nd13  1  0.808771  0.192143  0.191892  1
  Nd  Nd14  1  0.191892  0.807194  0.808771  1
  Nd  Nd15  1  0.191917  0.808083  0.191917  1
  Cd  Cd16  1  0.579952  0.580442  0.580494  1
  Cd  Cd17  1  0.580226  0.580153  0.258948  1
  Cd  Cd18  1  0.580494  0.259111  0.579952  1
  Cd  Cd19  1  0.258948  0.580673  0.580226  1
  Pt  Pt20  1  0.142498  0.142990  0.144722  1
  Pt  Pt21  1  0.143723  0.142061  0.570135  1
  Pt  Pt22  1  0.144722  0.569791  0.142498  1
  Pt  Pt23  1  0.570135  0.144081  0.143723  1
