# generated using pymatgen
data_CaTe28
_symmetry_space_group_name_H-M   'P 1'
_cell_length_a   9.05160470
_cell_length_b   12.63759638
_cell_length_c   11.91474400
_cell_angle_alpha   121.89544278
_cell_angle_beta   96.49718573
_cell_angle_gamma   100.61836741
_symmetry_Int_Tables_number   1
_chemical_formula_structural   CaTe28
_chemical_formula_sum   'Ca1 Te28'
_cell_volume   1100.54911307
_cell_formula_units_Z   1
loop_
 _symmetry_equiv_pos_site_id
 _symmetry_equiv_pos_as_xyz
  1  'x, y, z'
loop_
 _atom_site_type_symbol
 _atom_site_label
 _atom_site_symmetry_multiplicity
 _atom_site_fract_x
 _atom_site_fract_y
 _atom_site_fract_z
 _atom_site_occupancy
  Ca  Ca0  1  0.500000  0.000000  0.000000  1
  Te  Te1  1  0.162203  0.091626  0.407437  1
  Te  Te2  1  0.627478  0.104478  0.408841  1
  Te  Te3  1  0.315970  0.358507  0.815967  1
  Te  Te4  1  0.823317  0.350941  0.824599  1
  Te  Te5  1  0.250817  0.697817  0.814496  1
  Te  Te6  1  0.708081  0.578258  0.715913  1
  Te  Te7  1  0.372522  0.895522  0.591159  1
  Te  Te8  1  0.837797  0.908374  0.592563  1
  Te  Te9  1  0.176683  0.649059  0.175401  1
  Te  Te10  1  0.684030  0.641493  0.184033  1
  Te  Te11  1  0.291919  0.421742  0.284087  1
  Te  Te12  1  0.749183  0.302183  0.185504  1
  Te  Te13  1  0.698120  0.079126  0.786076  1
  Te  Te14  1  0.248646  0.044935  0.819558  1
  Te  Te15  1  0.941001  0.638959  0.964203  1
  Te  Te16  1  0.474877  0.670889  0.019826  1
  Te  Te17  1  0.487939  0.265908  0.290448  1
  Te  Te18  1  0.992987  0.192906  0.277364  1
  Te  Te19  1  0.751354  0.955065  0.180442  1
  Te  Te20  1  0.301880  0.920874  0.213924  1
  Te  Te21  1  0.525123  0.329111  0.980174  1
  Te  Te22  1  0.058999  0.361041  0.035797  1
  Te  Te23  1  0.007013  0.807094  0.722636  1
  Te  Te24  1  0.512061  0.734092  0.709552  1
  Te  Te25  1  0.935538  0.295202  0.586375  1
  Te  Te26  1  0.443665  0.336569  0.593962  1
  Te  Te27  1  0.556335  0.663431  0.406038  1
  Te  Te28  1  0.064462  0.704798  0.413625  1
