# generated using pymatgen
data_V12Si4H3
_symmetry_space_group_name_H-M   'P 1'
_cell_length_a   8.25599830
_cell_length_b   8.25599870
_cell_length_c   8.25599800
_cell_angle_alpha   109.47121648
_cell_angle_beta   109.47121744
_cell_angle_gamma   109.47122287
_symmetry_Int_Tables_number   1
_chemical_formula_structural   V12Si4H3
_chemical_formula_sum   'V24 Si8 H6'
_cell_volume   433.19848228
_cell_formula_units_Z   2
loop_
 _symmetry_equiv_pos_site_id
 _symmetry_equiv_pos_as_xyz
  1  'x, y, z'
loop_
 _atom_site_type_symbol
 _atom_site_label
 _atom_site_symmetry_multiplicity
 _atom_site_fract_x
 _atom_site_fract_y
 _atom_site_fract_z
 _atom_site_occupancy
  V  V0  1  0.757020  0.376778  0.121761  1
  V  V1  1  0.255017  0.878238  0.135258  1
  V  V2  1  0.364743  0.242980  0.119760  1
  V  V3  1  0.880241  0.744983  0.123221  1
  V  V4  1  0.621763  0.876779  0.257020  1
  V  V5  1  0.380241  0.623222  0.244984  1
  V  V6  1  0.878239  0.135258  0.255017  1
  V  V7  1  0.119760  0.364743  0.242980  1
  V  V8  1  0.121761  0.757020  0.376778  1
  V  V9  1  0.623222  0.244984  0.380241  1
  V  V10  1  0.242981  0.119759  0.364743  1
  V  V11  1  0.755016  0.635258  0.378238  1
  V  V12  1  0.876779  0.257020  0.621763  1
  V  V13  1  0.378238  0.755016  0.635258  1
  V  V14  1  0.742980  0.864743  0.619759  1
  V  V15  1  0.244984  0.380241  0.623222  1
  V  V16  1  0.376778  0.121762  0.757020  1
  V  V17  1  0.123222  0.880241  0.744983  1
  V  V18  1  0.635257  0.378238  0.755017  1
  V  V19  1  0.864743  0.619760  0.742980  1
  V  V20  1  0.257020  0.621762  0.876779  1
  V  V21  1  0.744983  0.123221  0.880241  1
  V  V22  1  0.619759  0.742980  0.864743  1
  V  V23  1  0.135259  0.255016  0.878239  1
  Si  Si24  1  0.502390  0.500000  0.000000  1
  Si  Si25  1  0.002388  0.500001  0.000000  1
  Si  Si26  1  0.997610  0.997610  0.997610  1
  Si  Si27  1  0.500000  0.000000  0.502390  1
  Si  Si28  1  0.000000  0.502390  0.500000  1
  Si  Si29  1  0.000000  0.002388  0.500001  1
  Si  Si30  1  0.497612  0.497612  0.497612  1
  Si  Si31  1  0.500001  0.000000  0.002388  1
  H  H32  1  0.750000  0.875000  0.125000  1
  H  H33  1  0.625000  0.375001  0.250000  1
  H  H34  1  0.250000  0.625000  0.375001  1
  H  H35  1  0.375000  0.250001  0.625000  1
  H  H36  1  0.875000  0.125000  0.750000  1
  H  H37  1  0.125000  0.750000  0.875000  1
