# generated using pymatgen
data_Dy4Ho4Re3B24Ru
_symmetry_space_group_name_H-M   'P 1'
_cell_length_a   3.67167300
_cell_length_b   9.15424714
_cell_length_c   11.53853419
_cell_angle_alpha   89.89118497
_cell_angle_beta   90.00000000
_cell_angle_gamma   90.00000000
_symmetry_Int_Tables_number   1
_chemical_formula_structural   Dy4Ho4Re3B24Ru
_chemical_formula_sum   'Dy4 Ho4 Re3 B24 Ru1'
_cell_volume   387.82561229
_cell_formula_units_Z   1
loop_
 _symmetry_equiv_pos_site_id
 _symmetry_equiv_pos_as_xyz
  1  'x, y, z'
loop_
 _atom_site_type_symbol
 _atom_site_label
 _atom_site_symmetry_multiplicity
 _atom_site_fract_x
 _atom_site_fract_y
 _atom_site_fract_z
 _atom_site_occupancy
  Dy  Dy0  1  0.000000  0.323257  0.413683  1
  Dy  Dy1  1  0.000000  0.675143  0.584358  1
  Dy  Dy2  1  0.000000  0.822858  0.087707  1
  Dy  Dy3  1  0.000000  0.177895  0.914106  1
  Ho  Ho4  1  0.000000  0.943197  0.371126  1
  Ho  Ho5  1  0.000000  0.056829  0.630442  1
  Ho  Ho6  1  0.000000  0.443711  0.129157  1
  Ho  Ho7  1  0.000000  0.558179  0.869750  1
  Re  Re8  1  0.000000  0.638524  0.320605  1
  Re  Re9  1  0.000000  0.361513  0.679796  1
  Re  Re10  1  0.000000  0.138026  0.178370  1
  B  B11  1  0.500000  0.552969  0.432686  1
  B  B12  1  0.500000  0.446720  0.566905  1
  B  B13  1  0.500000  0.052848  0.066947  1
  B  B14  1  0.500000  0.946095  0.932564  1
  B  B15  1  0.500000  0.748625  0.418805  1
  B  B16  1  0.500000  0.250524  0.581393  1
  B  B17  1  0.500000  0.249242  0.081062  1
  B  B18  1  0.500000  0.751614  0.918469  1
  B  B19  1  0.500000  0.792163  0.266073  1
  B  B20  1  0.500000  0.208163  0.734714  1
  B  B21  1  0.500000  0.292028  0.234042  1
  B  B22  1  0.500000  0.709168  0.765663  1
  B  B23  1  0.500000  0.631307  0.185474  1
  B  B24  1  0.500000  0.369005  0.814923  1
  B  B25  1  0.500000  0.130628  0.314127  1
  B  B26  1  0.500000  0.868500  0.685810  1
  B  B27  1  0.500000  0.981902  0.212262  1
  B  B28  1  0.500000  0.016316  0.788032  1
  B  B29  1  0.500000  0.482460  0.287391  1
  B  B30  1  0.500000  0.517519  0.712048  1
  B  B31  1  0.500000  0.602820  0.028144  1
  B  B32  1  0.500000  0.399270  0.971342  1
  B  B33  1  0.500000  0.101529  0.472190  1
  B  B34  1  0.500000  0.897935  0.528959  1
  Ru  Ru35  1  0.000000  0.861523  0.820877  1
