# generated using pymatgen
data_LaClF2
_symmetry_space_group_name_H-M   'P 1'
_cell_length_a   4.02280700
_cell_length_b   6.34704626
_cell_length_c   6.72184985
_cell_angle_alpha   66.08569080
_cell_angle_beta   90.00000000
_cell_angle_gamma   90.00000000
_symmetry_Int_Tables_number   1
_chemical_formula_structural   LaClF2
_chemical_formula_sum   'La2 Cl2 F4'
_cell_volume   156.89475865
_cell_formula_units_Z   2
loop_
 _symmetry_equiv_pos_site_id
 _symmetry_equiv_pos_as_xyz
  1  'x, y, z'
loop_
 _atom_site_type_symbol
 _atom_site_label
 _atom_site_symmetry_multiplicity
 _atom_site_fract_x
 _atom_site_fract_y
 _atom_site_fract_z
 _atom_site_occupancy
  La  La0  1  0.250000  0.185352  0.645722  1
  La  La1  1  0.750000  0.814648  0.354278  1
  Cl  Cl2  1  0.250000  0.758008  0.055480  1
  Cl  Cl3  1  0.750000  0.241992  0.944520  1
  F  F4  1  0.250000  0.597372  0.560122  1
  F  F5  1  0.750000  0.402628  0.439878  1
  F  F6  1  0.250000  0.047889  0.357571  1
  F  F7  1  0.750000  0.952111  0.642429  1
