# generated using pymatgen
data_V5Si2Os
_symmetry_space_group_name_H-M   'P 1'
_cell_length_a   4.66164500
_cell_length_b   4.66164500
_cell_length_c   4.77846800
_cell_angle_alpha   90.00000000
_cell_angle_beta   90.00000000
_cell_angle_gamma   90.00000000
_symmetry_Int_Tables_number   1
_chemical_formula_structural   V5Si2Os
_chemical_formula_sum   'V5 Si2 Os1'
_cell_volume   103.84057324
_cell_formula_units_Z   1
loop_
 _symmetry_equiv_pos_site_id
 _symmetry_equiv_pos_as_xyz
  1  'x, y, z'
loop_
 _atom_site_type_symbol
 _atom_site_label
 _atom_site_symmetry_multiplicity
 _atom_site_fract_x
 _atom_site_fract_y
 _atom_site_fract_z
 _atom_site_occupancy
  V  V0  1  0.500000  0.249378  0.001099  1
  V  V1  1  0.749378  0.000000  0.498901  1
  V  V2  1  0.000000  0.500000  0.250000  1
  V  V3  1  0.500000  0.750622  0.001099  1
  V  V4  1  0.250622  0.000000  0.498901  1
  Si  Si5  1  0.500000  0.500000  0.492279  1
  Si  Si6  1  0.000000  0.000000  0.007721  1
  Os  Os7  1  0.000000  0.500000  0.750000  1
