# generated using pymatgen
data_Nd3Sn3Ru2Au
_symmetry_space_group_name_H-M   'P 1'
_cell_length_a   7.74136300
_cell_length_b   7.74136273
_cell_length_c   4.03646500
_cell_angle_alpha   90.00000000
_cell_angle_beta   90.00000000
_cell_angle_gamma   119.99999686
_symmetry_Int_Tables_number   1
_chemical_formula_structural   Nd3Sn3Ru2Au
_chemical_formula_sum   'Nd3 Sn3 Ru2 Au1'
_cell_volume   209.49163509
_cell_formula_units_Z   1
loop_
 _symmetry_equiv_pos_site_id
 _symmetry_equiv_pos_as_xyz
  1  'x, y, z'
loop_
 _atom_site_type_symbol
 _atom_site_label
 _atom_site_symmetry_multiplicity
 _atom_site_fract_x
 _atom_site_fract_y
 _atom_site_fract_z
 _atom_site_occupancy
  Nd  Nd0  1  0.600528  0.017359  0.000000  1
  Nd  Nd1  1  0.982641  0.583169  0.000000  1
  Nd  Nd2  1  0.416831  0.399472  0.000000  1
  Sn  Sn3  1  0.254543  0.009371  0.500000  1
  Sn  Sn4  1  0.990629  0.245171  0.500000  1
  Sn  Sn5  1  0.754829  0.745457  0.500000  1
  Ru  Ru6  1  0.666667  0.333333  0.500000  1
  Ru  Ru7  1  0.000000  0.000000  0.000000  1
  Au  Au8  1  0.333333  0.666667  0.500000  1
