# generated using pymatgen
data_La8Zn7InPtRh7
_symmetry_space_group_name_H-M   'P 1'
_cell_length_a   4.07672600
_cell_length_b   7.57720985
_cell_length_c   16.78776206
_cell_angle_alpha   90.10643264
_cell_angle_beta   90.00000000
_cell_angle_gamma   90.00000000
_symmetry_Int_Tables_number   1
_chemical_formula_structural   La8Zn7InPtRh7
_chemical_formula_sum   'La8 Zn7 In1 Pt1 Rh7'
_cell_volume   518.57657407
_cell_formula_units_Z   1
loop_
 _symmetry_equiv_pos_site_id
 _symmetry_equiv_pos_as_xyz
  1  'x, y, z'
loop_
 _atom_site_type_symbol
 _atom_site_label
 _atom_site_symmetry_multiplicity
 _atom_site_fract_x
 _atom_site_fract_y
 _atom_site_fract_z
 _atom_site_occupancy
  La  La0  1  0.750000  0.326644  0.441998  1
  La  La1  1  0.250000  0.045723  0.714658  1
  La  La2  1  0.250000  0.554221  0.781149  1
  La  La3  1  0.250000  0.673221  0.560205  1
  La  La4  1  0.750000  0.817401  0.056802  1
  La  La5  1  0.250000  0.172497  0.941024  1
  La  La6  1  0.750000  0.458396  0.219008  1
  La  La7  1  0.750000  0.944458  0.289588  1
  Zn  Zn8  1  0.250000  0.999366  0.443076  1
  Zn  Zn9  1  0.750000  0.871169  0.849668  1
  Zn  Zn10  1  0.750000  0.002005  0.559897  1
  Zn  Zn11  1  0.250000  0.499881  0.058290  1
  Zn  Zn12  1  0.750000  0.372710  0.648536  1
  Zn  Zn13  1  0.750000  0.503932  0.937558  1
  Zn  Zn14  1  0.250000  0.623246  0.353535  1
  In  In15  1  0.250000  0.121960  0.151073  1
  Pt  Pt16  1  0.750000  0.255414  0.812353  1
  Rh  Rh17  1  0.250000  0.246858  0.315578  1
  Rh  Rh18  1  0.250000  0.740894  0.932324  1
  Rh  Rh19  1  0.250000  0.242156  0.566110  1
  Rh  Rh20  1  0.250000  0.744599  0.185009  1
  Rh  Rh21  1  0.750000  0.758404  0.436371  1
  Rh  Rh22  1  0.750000  0.269647  0.061135  1
  Rh  Rh23  1  0.750000  0.755200  0.685056  1
