# generated using pymatgen
data_Tb2Er6Ti3Si16Tc9
_symmetry_space_group_name_H-M   'P 1'
_cell_length_a   6.77023166
_cell_length_b   6.77038245
_cell_length_c   12.92713330
_cell_angle_alpha   89.94773522
_cell_angle_beta   90.06098623
_cell_angle_gamma   89.25448022
_symmetry_Int_Tables_number   1
_chemical_formula_structural   Tb2Er6Ti3Si16Tc9
_chemical_formula_sum   'Tb2 Er6 Ti3 Si16 Tc9'
_cell_volume   592.49100414
_cell_formula_units_Z   1
loop_
 _symmetry_equiv_pos_site_id
 _symmetry_equiv_pos_as_xyz
  1  'x, y, z'
loop_
 _atom_site_type_symbol
 _atom_site_label
 _atom_site_symmetry_multiplicity
 _atom_site_fract_x
 _atom_site_fract_y
 _atom_site_fract_z
 _atom_site_occupancy
  Tb  Tb0  1  0.003119  0.336557  0.528721  1
  Tb  Tb1  1  0.997337  0.662839  0.028152  1
  Er  Er2  1  0.337750  0.001859  0.471408  1
  Er  Er3  1  0.509830  0.824113  0.716905  1
  Er  Er4  1  0.487737  0.178504  0.216688  1
  Er  Er5  1  0.824018  0.509802  0.283195  1
  Er  Er6  1  0.178727  0.487598  0.783401  1
  Er  Er7  1  0.661203  0.999175  0.971980  1
  Ti  Ti8  1  0.155649  0.844792  0.249275  1
  Ti  Ti9  1  0.844909  0.155686  0.751122  1
  Ti  Ti10  1  0.666049  0.665961  0.499879  1
  Si  Si11  1  0.211924  0.117812  0.680962  1
  Si  Si12  1  0.398005  0.681555  0.939910  1
  Si  Si13  1  0.610451  0.308737  0.437576  1
  Si  Si14  1  0.680978  0.396276  0.059955  1
  Si  Si15  1  0.309330  0.612479  0.562225  1
  Si  Si16  1  0.786490  0.883784  0.182483  1
  Si  Si17  1  0.118797  0.211019  0.319009  1
  Si  Si18  1  0.882914  0.787378  0.817472  1
  Si  Si19  1  0.263816  0.985788  0.055535  1
  Si  Si20  1  0.525608  0.804196  0.314341  1
  Si  Si21  1  0.471846  0.197470  0.815397  1
  Si  Si22  1  0.803493  0.525919  0.685913  1
  Si  Si23  1  0.198042  0.471142  0.184913  1
  Si  Si24  1  0.729571  0.022290  0.557666  1
  Si  Si25  1  0.985310  0.262086  0.944392  1
  Si  Si26  1  0.022710  0.731477  0.442272  1
  Tc  Tc27  1  0.334516  0.333879  0.999902  1
  Tc  Tc28  1  0.183088  0.981088  0.864399  1
  Tc  Tc29  1  0.474383  0.693338  0.132136  1
  Tc  Tc30  1  0.522940  0.314730  0.632693  1
  Tc  Tc31  1  0.692822  0.473532  0.867759  1
  Tc  Tc32  1  0.315643  0.524126  0.367109  1
  Tc  Tc33  1  0.817548  0.012310  0.363794  1
  Tc  Tc34  1  0.981096  0.182521  0.135430  1
  Tc  Tc35  1  0.012350  0.818180  0.636030  1
