# generated using pymatgen
data_Hf2Zr(Tc2W)3
_symmetry_space_group_name_H-M   'P 1'
_cell_length_a   4.51268800
_cell_length_b   6.38449300
_cell_length_c   13.61185400
_cell_angle_alpha   90.00000000
_cell_angle_beta   90.00005914
_cell_angle_gamma   90.00000000
_symmetry_Int_Tables_number   1
_chemical_formula_structural   Hf2Zr(Tc2W)3
_chemical_formula_sum   'Hf4 Zr2 Tc12 W6'
_cell_volume   392.17418754
_cell_formula_units_Z   2
loop_
 _symmetry_equiv_pos_site_id
 _symmetry_equiv_pos_as_xyz
  1  'x, y, z'
loop_
 _atom_site_type_symbol
 _atom_site_label
 _atom_site_symmetry_multiplicity
 _atom_site_fract_x
 _atom_site_fract_y
 _atom_site_fract_z
 _atom_site_occupancy
  Hf  Hf0  1  0.999986  0.500000  0.333411  1
  Hf  Hf1  1  0.500000  0.000000  0.500122  1
  Hf  Hf2  1  0.000014  0.500000  0.666550  1
  Hf  Hf3  1  0.500012  0.000000  0.833245  1
  Zr  Zr4  1  0.000000  0.500000  0.000046  1
  Zr  Zr5  1  0.499989  0.000000  0.166625  1
  Tc  Tc6  1  0.500000  0.249122  0.999565  1
  Tc  Tc7  1  0.500000  0.750879  0.999565  1
  Tc  Tc8  1  0.999988  0.250874  0.167098  1
  Tc  Tc9  1  0.999988  0.749126  0.167098  1
  Tc  Tc10  1  0.499990  0.249994  0.333838  1
  Tc  Tc11  1  0.499990  0.750005  0.333838  1
  Tc  Tc12  1  0.000001  0.250431  0.500097  1
  Tc  Tc13  1  0.000001  0.749570  0.500097  1
  Tc  Tc14  1  0.500011  0.249573  0.666572  1
  Tc  Tc15  1  0.500011  0.750426  0.666572  1
  Tc  Tc16  1  0.000012  0.250007  0.832830  1
  Tc  Tc17  1  0.000012  0.749993  0.832830  1
  W  W18  1  0.000000  0.000000  0.999114  1
  W  W19  1  0.499987  0.500000  0.167549  1
  W  W20  1  0.999992  0.000000  0.334183  1
  W  W21  1  0.500002  0.500000  0.499957  1
  W  W22  1  0.000010  0.000000  0.666703  1
  W  W23  1  0.500013  0.500000  0.832494  1
