# generated using pymatgen
data_Nd7Sc12PaSn16
_symmetry_space_group_name_H-M   'P 1'
_cell_length_a   7.85935217
_cell_length_b   7.99160957
_cell_length_c   15.04374700
_cell_angle_alpha   90.01074707
_cell_angle_beta   90.07739944
_cell_angle_gamma   90.09257226
_symmetry_Int_Tables_number   1
_chemical_formula_structural   Nd7Sc12PaSn16
_chemical_formula_sum   'Nd7 Sc12 Pa1 Sn16'
_cell_volume   944.87869831
_cell_formula_units_Z   1
loop_
 _symmetry_equiv_pos_site_id
 _symmetry_equiv_pos_as_xyz
  1  'x, y, z'
loop_
 _atom_site_type_symbol
 _atom_site_label
 _atom_site_symmetry_multiplicity
 _atom_site_fract_x
 _atom_site_fract_y
 _atom_site_fract_z
 _atom_site_occupancy
  Nd  Nd0  1  0.515847  0.324667  0.904754  1
  Nd  Nd1  1  0.013710  0.174461  0.595517  1
  Nd  Nd2  1  0.486179  0.674740  0.404586  1
  Nd  Nd3  1  0.985780  0.826520  0.095000  1
  Nd  Nd4  1  0.486669  0.675610  0.094667  1
  Nd  Nd5  1  0.986310  0.825382  0.404584  1
  Nd  Nd6  1  0.514297  0.325661  0.595930  1
  Sc  Sc7  1  0.353754  0.838137  0.874738  1
  Sc  Sc8  1  0.854189  0.662371  0.627233  1
  Sc  Sc9  1  0.645697  0.162948  0.373861  1
  Sc  Sc10  1  0.144326  0.336104  0.125638  1
  Sc  Sc11  1  0.644496  0.161825  0.125453  1
  Sc  Sc12  1  0.146287  0.337614  0.373734  1
  Sc  Sc13  1  0.353434  0.837397  0.626491  1
  Sc  Sc14  1  0.853554  0.662606  0.873848  1
  Sc  Sc15  1  0.184168  0.504996  0.750690  1
  Sc  Sc16  1  0.686138  0.994352  0.750522  1
  Sc  Sc17  1  0.814817  0.493568  0.249924  1
  Sc  Sc18  1  0.314509  0.005322  0.249671  1
  Pa  Pa19  1  0.015130  0.175802  0.904569  1
  Sn  Sn20  1  0.308107  0.047814  0.040353  1
  Sn  Sn21  1  0.814545  0.454998  0.457020  1
  Sn  Sn22  1  0.685886  0.954125  0.543757  1
  Sn  Sn23  1  0.184843  0.539505  0.955167  1
  Sn  Sn24  1  0.693434  0.958933  0.955323  1
  Sn  Sn25  1  0.185687  0.545112  0.543928  1
  Sn  Sn26  1  0.314424  0.045484  0.457075  1
  Sn  Sn27  1  0.815724  0.451978  0.041263  1
  Sn  Sn28  1  0.549172  0.632315  0.750734  1
  Sn  Sn29  1  0.049009  0.872410  0.752433  1
  Sn  Sn30  1  0.449825  0.367919  0.249370  1
  Sn  Sn31  1  0.949143  0.130617  0.249990  1
  Sn  Sn32  1  0.321130  0.142779  0.751313  1
  Sn  Sn33  1  0.825123  0.356140  0.751712  1
  Sn  Sn34  1  0.677037  0.858285  0.249735  1
  Sn  Sn35  1  0.177620  0.641500  0.249416  1
