# generated using pymatgen
data_Ho6Zn18Ni5S
_symmetry_space_group_name_H-M   'P 1'
_cell_length_a   8.88292266
_cell_length_b   8.85172691
_cell_length_c   8.88181700
_cell_angle_alpha   60.11772687
_cell_angle_beta   59.46933293
_cell_angle_gamma   60.11107760
_symmetry_Int_Tables_number   1
_chemical_formula_structural   Ho6Zn18Ni5S
_chemical_formula_sum   'Ho6 Zn18 Ni5 S1'
_cell_volume   492.65344869
_cell_formula_units_Z   1
loop_
 _symmetry_equiv_pos_site_id
 _symmetry_equiv_pos_as_xyz
  1  'x, y, z'
loop_
 _atom_site_type_symbol
 _atom_site_label
 _atom_site_symmetry_multiplicity
 _atom_site_fract_x
 _atom_site_fract_y
 _atom_site_fract_z
 _atom_site_occupancy
  Ho  Ho0  1  0.715404  0.279741  0.284664  1
  Ho  Ho1  1  0.284600  0.720248  0.715363  1
  Ho  Ho2  1  0.286310  0.713705  0.286347  1
  Ho  Ho3  1  0.713694  0.286284  0.713668  1
  Ho  Ho4  1  0.284696  0.279781  0.715340  1
  Ho  Ho5  1  0.715311  0.720202  0.284680  1
  Zn  Zn6  1  0.130712  0.115275  0.130652  1
  Zn  Zn7  1  0.869291  0.884714  0.869374  1
  Zn  Zn8  1  0.123672  0.126529  0.623390  1
  Zn  Zn9  1  0.130668  0.623390  0.130704  1
  Zn  Zn10  1  0.876341  0.873462  0.376632  1
  Zn  Zn11  1  0.869340  0.376591  0.869316  1
  Zn  Zn12  1  0.623403  0.126485  0.123636  1
  Zn  Zn13  1  0.376595  0.873514  0.876370  1
  Zn  Zn14  1  0.000005  0.499992  0.000012  1
  Zn  Zn15  1  0.331883  0.329640  0.331841  1
  Zn  Zn16  1  0.668140  0.670356  0.668151  1
  Zn  Zn17  1  0.338331  0.328337  0.005020  1
  Zn  Zn18  1  0.331888  0.006655  0.331852  1
  Zn  Zn19  1  0.661685  0.671631  0.995001  1
  Zn  Zn20  1  0.668127  0.993340  0.668159  1
  Zn  Zn21  1  0.005015  0.328366  0.338320  1
  Zn  Zn22  1  0.994991  0.671630  0.661713  1
  Zn  Zn23  1  0.000003  0.999992  0.000012  1
  Ni  Ni24  1  0.499818  0.999926  0.999940  1
  Ni  Ni25  1  0.999844  0.500143  0.500023  1
  Ni  Ni26  1  0.500260  0.999928  0.499883  1
  Ni  Ni27  1  0.999982  0.000000  0.500023  1
  Ni  Ni28  1  0.499990  0.500145  0.999905  1
  S  S29  1  0.499998  0.499998  0.500013  1
