# generated using pymatgen
data_YbAgAuO4
_symmetry_space_group_name_H-M   'P 1'
_cell_length_a   6.57057309
_cell_length_b   6.57057226
_cell_length_c   6.62726403
_cell_angle_alpha   126.17952796
_cell_angle_beta   125.71893601
_cell_angle_gamma   79.38214167
_symmetry_Int_Tables_number   1
_chemical_formula_structural   YbAgAuO4
_chemical_formula_sum   'Yb2 Ag2 Au2 O8'
_cell_volume   181.79983824
_cell_formula_units_Z   2
loop_
 _symmetry_equiv_pos_site_id
 _symmetry_equiv_pos_as_xyz
  1  'x, y, z'
loop_
 _atom_site_type_symbol
 _atom_site_label
 _atom_site_symmetry_multiplicity
 _atom_site_fract_x
 _atom_site_fract_y
 _atom_site_fract_z
 _atom_site_occupancy
  Yb  Yb0  1  0.000513  0.000513  0.000000  1
  Yb  Yb1  1  0.749487  0.249487  0.500000  1
  Ag  Ag2  1  0.375000  0.125000  0.750000  1
  Ag  Ag3  1  0.375000  0.625000  0.250000  1
  Au  Au4  1  0.875000  0.625000  0.250000  1
  Au  Au5  1  0.375000  0.625000  0.750000  1
  O  O6  1  0.147538  0.597048  0.850729  1
  O  O7  1  0.746319  0.296808  0.149271  1
  O  O8  1  0.602462  0.652952  0.649271  1
  O  O9  1  0.003681  0.953192  0.350729  1
  O  O10  1  0.353049  0.001133  0.960217  1
  O  O11  1  0.040916  0.392832  0.039783  1
  O  O12  1  0.709084  0.857168  0.460217  1
  O  O13  1  0.396951  0.248867  0.539783  1
