# generated using pymatgen
data_HoTm9In8Ir3Pt
_symmetry_space_group_name_H-M   'P 1'
_cell_length_a   3.58810000
_cell_length_b   8.03426681
_cell_length_c   18.13227040
_cell_angle_alpha   89.99659267
_cell_angle_beta   90.00000000
_cell_angle_gamma   90.00000000
_symmetry_Int_Tables_number   1
_chemical_formula_structural   HoTm9In8Ir3Pt
_chemical_formula_sum   'Ho1 Tm9 In8 Ir3 Pt1'
_cell_volume   522.71260694
_cell_formula_units_Z   1
loop_
 _symmetry_equiv_pos_site_id
 _symmetry_equiv_pos_as_xyz
  1  'x, y, z'
loop_
 _atom_site_type_symbol
 _atom_site_label
 _atom_site_symmetry_multiplicity
 _atom_site_fract_x
 _atom_site_fract_y
 _atom_site_fract_z
 _atom_site_occupancy
  Ho  Ho0  1  0.000000  0.499919  0.500336  1
  Tm  Tm1  1  0.000000  0.114236  0.412125  1
  Tm  Tm2  1  0.000000  0.884811  0.590052  1
  Tm  Tm3  1  0.000000  0.384497  0.909848  1
  Tm  Tm4  1  0.000000  0.615768  0.086812  1
  Tm  Tm5  1  0.000000  0.234881  0.222819  1
  Tm  Tm6  1  0.000000  0.757884  0.777367  1
  Tm  Tm7  1  0.000000  0.257641  0.722791  1
  Tm  Tm8  1  0.000000  0.750774  0.279270  1
  Tm  Tm9  1  0.000000  0.998672  0.999201  1
  In  In10  1  0.500000  0.423712  0.351697  1
  In  In11  1  0.500000  0.571436  0.648829  1
  In  In12  1  0.500000  0.071766  0.851427  1
  In  In13  1  0.500000  0.927125  0.148242  1
  In  In14  1  0.500000  0.291347  0.065204  1
  In  In15  1  0.500000  0.706512  0.932406  1
  In  In16  1  0.500000  0.206242  0.567800  1
  In  In17  1  0.500000  0.793600  0.432869  1
  Ir  Ir18  1  0.500000  0.020722  0.304135  1
  Ir  Ir19  1  0.500000  0.983581  0.696431  1
  Ir  Ir20  1  0.500000  0.483829  0.803810  1
  Pt  Pt21  1  0.500000  0.521044  0.196528  1
