# generated using pymatgen
data_SmHo5Co6(NiP)12
_symmetry_space_group_name_H-M   'P 1'
_cell_length_a   3.75527800
_cell_length_b   10.46026600
_cell_length_c   12.27578100
_cell_angle_alpha   90.00000000
_cell_angle_beta   90.00000000
_cell_angle_gamma   90.00000000
_symmetry_Int_Tables_number   1
_chemical_formula_structural   SmHo5Co6(NiP)12
_chemical_formula_sum   'Sm1 Ho5 Co6 Ni12 P12'
_cell_volume   482.20749190
_cell_formula_units_Z   1
loop_
 _symmetry_equiv_pos_site_id
 _symmetry_equiv_pos_as_xyz
  1  'x, y, z'
loop_
 _atom_site_type_symbol
 _atom_site_label
 _atom_site_symmetry_multiplicity
 _atom_site_fract_x
 _atom_site_fract_y
 _atom_site_fract_z
 _atom_site_occupancy
  Sm  Sm0  1  0.000000  0.500000  0.519888  1
  Ho  Ho1  1  0.500000  0.000000  0.480316  1
  Ho  Ho2  1  0.500000  0.815363  0.205864  1
  Ho  Ho3  1  0.500000  0.184637  0.205864  1
  Ho  Ho4  1  0.000000  0.685281  0.794648  1
  Ho  Ho5  1  0.000000  0.314719  0.794648  1
  Co  Co6  1  0.000000  0.500000  0.983728  1
  Co  Co7  1  0.500000  0.000000  0.016748  1
  Co  Co8  1  0.500000  0.334127  0.994851  1
  Co  Co9  1  0.500000  0.665873  0.994851  1
  Co  Co10  1  0.000000  0.165514  0.005098  1
  Co  Co11  1  0.000000  0.834486  0.005098  1
  Ni  Ni12  1  0.500000  0.298515  0.428621  1
  Ni  Ni13  1  0.500000  0.701485  0.428621  1
  Ni  Ni14  1  0.000000  0.198298  0.570761  1
  Ni  Ni15  1  0.000000  0.801702  0.570761  1
  Ni  Ni16  1  0.500000  0.879461  0.714306  1
  Ni  Ni17  1  0.500000  0.120539  0.714306  1
  Ni  Ni18  1  0.000000  0.621459  0.285251  1
  Ni  Ni19  1  0.000000  0.378541  0.285251  1
  Ni  Ni20  1  0.500000  0.500000  0.156288  1
  Ni  Ni21  1  0.000000  0.000000  0.842470  1
  Ni  Ni22  1  0.500000  0.500000  0.704626  1
  Ni  Ni23  1  0.000000  0.000000  0.296986  1
  P  P24  1  0.500000  0.311351  0.617242  1
  P  P25  1  0.500000  0.688649  0.617242  1
  P  P26  1  0.000000  0.186444  0.383911  1
  P  P27  1  0.000000  0.813556  0.383911  1
  P  P28  1  0.500000  0.500000  0.881644  1
  P  P29  1  0.000000  0.000000  0.119177  1
  P  P30  1  0.500000  0.846081  0.897711  1
  P  P31  1  0.500000  0.153919  0.897711  1
  P  P32  1  0.000000  0.654429  0.102118  1
  P  P33  1  0.000000  0.345571  0.102118  1
  P  P34  1  0.500000  0.500000  0.340284  1
  P  P35  1  0.000000  0.000000  0.657078  1
