# generated using pymatgen
data_Y16MgHg3IrPt3
_symmetry_space_group_name_H-M   'P 1'
_cell_length_a   9.69981402
_cell_length_b   9.68610672
_cell_length_c   9.68707390
_cell_angle_alpha   60.00334913
_cell_angle_beta   60.17470328
_cell_angle_gamma   60.04653094
_symmetry_Int_Tables_number   1
_chemical_formula_structural   Y16MgHg3IrPt3
_chemical_formula_sum   'Y16 Mg1 Hg3 Ir1 Pt3'
_cell_volume   644.65050033
_cell_formula_units_Z   1
loop_
 _symmetry_equiv_pos_site_id
 _symmetry_equiv_pos_as_xyz
  1  'x, y, z'
loop_
 _atom_site_type_symbol
 _atom_site_label
 _atom_site_symmetry_multiplicity
 _atom_site_fract_x
 _atom_site_fract_y
 _atom_site_fract_z
 _atom_site_occupancy
  Y  Y0  1  0.604129  0.597043  0.599193  1
  Y  Y1  1  0.607972  0.599330  0.193367  1
  Y  Y2  1  0.604128  0.199639  0.599192  1
  Y  Y3  1  0.174995  0.607206  0.610592  1
  Y  Y4  1  0.056025  0.441043  0.440402  1
  Y  Y5  1  0.438841  0.060496  0.061793  1
  Y  Y6  1  0.439803  0.060594  0.439011  1
  Y  Y7  1  0.055784  0.440128  0.063960  1
  Y  Y8  1  0.438840  0.438870  0.061794  1
  Y  Y9  1  0.056024  0.062529  0.440401  1
  Y  Y10  1  0.186127  0.813975  0.813847  1
  Y  Y11  1  0.813974  0.186465  0.187591  1
  Y  Y12  1  0.815450  0.186013  0.812524  1
  Y  Y13  1  0.186985  0.812350  0.188313  1
  Y  Y14  1  0.813974  0.811971  0.187591  1
  Y  Y15  1  0.186128  0.186049  0.813847  1
  Mg  Mg16  1  0.537567  0.822060  0.818310  1
  Hg  Hg17  1  0.832123  0.839676  0.838082  1
  Hg  Hg18  1  0.831816  0.839615  0.488954  1
  Hg  Hg19  1  0.832125  0.490119  0.838081  1
  Ir  Ir20  1  0.822575  0.392717  0.391988  1
  Pt  Pt21  1  0.388803  0.398684  0.394980  1
  Pt  Pt22  1  0.387007  0.395894  0.821207  1
  Pt  Pt23  1  0.388803  0.817533  0.394981  1
