# generated using pymatgen
data_CsNaHgS2
_symmetry_space_group_name_H-M   'P 1'
_cell_length_a   7.91858488
_cell_length_b   7.91858468
_cell_length_c   7.91858494
_cell_angle_alpha   147.05487134
_cell_angle_beta   147.05487346
_cell_angle_gamma   47.28254584
_symmetry_Int_Tables_number   1
_chemical_formula_structural   CsNaHgS2
_chemical_formula_sum   'Cs1 Na1 Hg1 S2'
_cell_volume   146.28895914
_cell_formula_units_Z   1
loop_
 _symmetry_equiv_pos_site_id
 _symmetry_equiv_pos_as_xyz
  1  'x, y, z'
loop_
 _atom_site_type_symbol
 _atom_site_label
 _atom_site_symmetry_multiplicity
 _atom_site_fract_x
 _atom_site_fract_y
 _atom_site_fract_z
 _atom_site_occupancy
  Cs  Cs0  1  0.000000  0.000000  0.000000  1
  Na  Na1  1  0.250000  0.750000  0.500000  1
  Hg  Hg2  1  0.750000  0.250000  0.500000  1
  S  S3  1  0.645797  0.645797  0.000000  1
  S  S4  1  0.354203  0.354203  0.000000  1
