# generated using pymatgen
data_LaThSc2(Ga3Ir)6
_symmetry_space_group_name_H-M   'P 1'
_cell_length_a   7.62585984
_cell_length_b   7.61555479
_cell_length_c   9.48721300
_cell_angle_alpha   90.00000000
_cell_angle_beta   90.00000000
_cell_angle_gamma   119.88671472
_symmetry_Int_Tables_number   1
_chemical_formula_structural   LaThSc2(Ga3Ir)6
_chemical_formula_sum   'La1 Th1 Sc2 Ga18 Ir6'
_cell_volume   477.69894385
_cell_formula_units_Z   1
loop_
 _symmetry_equiv_pos_site_id
 _symmetry_equiv_pos_as_xyz
  1  'x, y, z'
loop_
 _atom_site_type_symbol
 _atom_site_label
 _atom_site_symmetry_multiplicity
 _atom_site_fract_x
 _atom_site_fract_y
 _atom_site_fract_z
 _atom_site_occupancy
  La  La0  1  0.669684  0.996583  0.250000  1
  Th  Th1  1  0.996505  0.669404  0.250000  1
  Sc  Sc2  1  0.999674  0.329815  0.750000  1
  Sc  Sc3  1  0.328944  0.999765  0.750000  1
  Ga  Ga4  1  0.133957  0.133788  0.250000  1
  Ga  Ga5  1  0.879108  0.880058  0.750000  1
  Ga  Ga6  1  0.004034  0.332986  0.070187  1
  Ga  Ga7  1  0.005443  0.665101  0.907871  1
  Ga  Ga8  1  0.005443  0.665101  0.592129  1
  Ga  Ga9  1  0.337154  0.005738  0.429767  1
  Ga  Ga10  1  0.004034  0.332986  0.429813  1
  Ga  Ga11  1  0.665304  0.005806  0.590584  1
  Ga  Ga12  1  0.665304  0.005806  0.909416  1
  Ga  Ga13  1  0.337154  0.005738  0.070233  1
  Ga  Ga14  1  0.326870  0.326590  0.575333  1
  Ga  Ga15  1  0.662284  0.664371  0.447041  1
  Ga  Ga16  1  0.662284  0.664371  0.052959  1
  Ga  Ga17  1  0.326870  0.326590  0.924667  1
  Ga  Ga18  1  0.338755  0.541865  0.250000  1
  Ga  Ga19  1  0.658037  0.446519  0.750000  1
  Ga  Ga20  1  0.541631  0.339381  0.250000  1
  Ga  Ga21  1  0.445733  0.659060  0.750000  1
  Ir  Ir22  1  0.674957  0.332140  0.998864  1
  Ir  Ir23  1  0.327196  0.671747  0.998700  1
  Ir  Ir24  1  0.327196  0.671747  0.501300  1
  Ir  Ir25  1  0.674957  0.332140  0.501136  1
  Ir  Ir26  1  0.000744  0.997400  0.998882  1
  Ir  Ir27  1  0.000744  0.997400  0.501118  1
