# generated using pymatgen
data_Pr3U3(Bi4Pt3)2
_symmetry_space_group_name_H-M   'P 1'
_cell_length_a   8.72711394
_cell_length_b   8.70093605
_cell_length_c   8.72711363
_cell_angle_alpha   109.81108404
_cell_angle_beta   109.47482378
_cell_angle_gamma   109.25013833
_symmetry_Int_Tables_number   1
_chemical_formula_structural   Pr3U3(Bi4Pt3)2
_chemical_formula_sum   'Pr3 U3 Bi8 Pt6'
_cell_volume   509.35405124
_cell_formula_units_Z   1
loop_
 _symmetry_equiv_pos_site_id
 _symmetry_equiv_pos_as_xyz
  1  'x, y, z'
loop_
 _atom_site_type_symbol
 _atom_site_label
 _atom_site_symmetry_multiplicity
 _atom_site_fract_x
 _atom_site_fract_y
 _atom_site_fract_z
 _atom_site_occupancy
  Pr  Pr0  1  0.624694  0.750000  0.374694  1
  Pr  Pr1  1  0.250529  0.125690  0.874790  1
  Pr  Pr2  1  0.749100  0.374310  0.624840  1
  U  U3  1  0.125873  0.875118  0.250451  1
  U  U4  1  0.375332  0.624882  0.750754  1
  U  U5  1  0.875127  0.250001  0.125123  1
  Bi  Bi6  1  0.322822  0.322890  0.321656  1
  Bi  Bi7  1  0.179810  0.503182  0.001528  1
  Bi  Bi8  1  0.998765  0.177107  0.499930  1
  Bi  Bi9  1  0.823521  0.822033  0.821784  1
  Bi  Bi10  1  0.498345  0.996820  0.176631  1
  Bi  Bi11  1  0.678466  0.502749  0.000629  1
  Bi  Bi12  1  0.497878  0.997252  0.675713  1
  Bi  Bi13  1  0.999749  0.677968  0.501485  1
  Pt  Pt14  1  0.635185  0.365457  0.243140  1
  Pt  Pt15  1  0.877682  0.134543  0.769729  1
  Pt  Pt16  1  0.369589  0.249996  0.619588  1
  Pt  Pt17  1  0.129382  0.750002  0.879387  1
  Pt  Pt18  1  0.234053  0.616066  0.370157  1
  Pt  Pt19  1  0.754098  0.883935  0.117991  1
