# generated using pymatgen
data_Hf13Co8W3N4
_symmetry_space_group_name_H-M   'P 1'
_cell_length_a   8.36434899
_cell_length_b   8.44533524
_cell_length_c   8.44533500
_cell_angle_alpha   60.00000487
_cell_angle_beta   59.67919634
_cell_angle_gamma   59.67919367
_symmetry_Int_Tables_number   1
_chemical_formula_structural   Hf13Co8W3N4
_chemical_formula_sum   'Hf13 Co8 W3 N4'
_cell_volume   419.78600045
_cell_formula_units_Z   1
loop_
 _symmetry_equiv_pos_site_id
 _symmetry_equiv_pos_as_xyz
  1  'x, y, z'
loop_
 _atom_site_type_symbol
 _atom_site_label
 _atom_site_symmetry_multiplicity
 _atom_site_fract_x
 _atom_site_fract_y
 _atom_site_fract_z
 _atom_site_occupancy
  Hf  Hf0  1  0.125000  0.625000  0.625000  1
  Hf  Hf1  1  0.808397  0.809280  0.191162  1
  Hf  Hf2  1  0.191325  0.184810  0.811933  1
  Hf  Hf3  1  0.808397  0.191162  0.809280  1
  Hf  Hf4  1  0.191325  0.811933  0.184810  1
  Hf  Hf5  1  0.191325  0.811933  0.811933  1
  Hf  Hf6  1  0.808397  0.191162  0.191162  1
  Hf  Hf7  1  0.441603  0.440720  0.058838  1
  Hf  Hf8  1  0.058675  0.065190  0.438067  1
  Hf  Hf9  1  0.441603  0.058838  0.440720  1
  Hf  Hf10  1  0.058675  0.438067  0.065190  1
  Hf  Hf11  1  0.058675  0.438067  0.438067  1
  Hf  Hf12  1  0.441603  0.058838  0.058838  1
  Co  Co13  1  0.733981  0.422007  0.422007  1
  Co  Co14  1  0.426829  0.741695  0.415739  1
  Co  Co15  1  0.426829  0.415739  0.741695  1
  Co  Co16  1  0.426829  0.415739  0.415739  1
  Co  Co17  1  0.516019  0.827993  0.827993  1
  Co  Co18  1  0.823171  0.508305  0.834261  1
  Co  Co19  1  0.823171  0.834261  0.508305  1
  Co  Co20  1  0.823171  0.834261  0.834261  1
  W  W21  1  0.625000  0.125000  0.625000  1
  W  W22  1  0.625000  0.625000  0.125000  1
  W  W23  1  0.625000  0.625000  0.625000  1
  N  N24  1  0.625000  0.125000  0.125000  1
  N  N25  1  0.125000  0.625000  0.125000  1
  N  N26  1  0.125000  0.125000  0.625000  1
  N  N27  1  0.125000  0.125000  0.125000  1
