# generated using pymatgen
data_Tb4Ga18(IrPd)3
_symmetry_space_group_name_H-M   'P 1'
_cell_length_a   7.63364677
_cell_length_b   7.63364696
_cell_length_c   9.52676154
_cell_angle_alpha   89.96741835
_cell_angle_beta   89.96742264
_cell_angle_gamma   119.81885691
_symmetry_Int_Tables_number   1
_chemical_formula_structural   Tb4Ga18(IrPd)3
_chemical_formula_sum   'Tb4 Ga18 Ir3 Pd3'
_cell_volume   481.64783531
_cell_formula_units_Z   1
loop_
 _symmetry_equiv_pos_site_id
 _symmetry_equiv_pos_as_xyz
  1  'x, y, z'
loop_
 _atom_site_type_symbol
 _atom_site_label
 _atom_site_symmetry_multiplicity
 _atom_site_fract_x
 _atom_site_fract_y
 _atom_site_fract_z
 _atom_site_occupancy
  Tb  Tb0  1  0.996745  0.668937  0.250470  1
  Tb  Tb1  1  0.003255  0.331063  0.749530  1
  Tb  Tb2  1  0.668937  0.996745  0.250470  1
  Tb  Tb3  1  0.331063  0.003255  0.749530  1
  Ga  Ga4  1  0.128594  0.128594  0.252049  1
  Ga  Ga5  1  0.871406  0.871406  0.747951  1
  Ga  Ga6  1  0.000428  0.334554  0.082097  1
  Ga  Ga7  1  0.999572  0.665446  0.917903  1
  Ga  Ga8  1  0.001544  0.665590  0.576608  1
  Ga  Ga9  1  0.334410  0.998456  0.423392  1
  Ga  Ga10  1  0.998456  0.334410  0.423392  1
  Ga  Ga11  1  0.665590  0.001544  0.576608  1
  Ga  Ga12  1  0.665446  0.999572  0.917903  1
  Ga  Ga13  1  0.334554  0.000428  0.082097  1
  Ga  Ga14  1  0.330503  0.330503  0.562586  1
  Ga  Ga15  1  0.669497  0.669497  0.437414  1
  Ga  Ga16  1  0.666408  0.666408  0.070871  1
  Ga  Ga17  1  0.333592  0.333592  0.929129  1
  Ga  Ga18  1  0.338492  0.544815  0.252928  1
  Ga  Ga19  1  0.661508  0.455185  0.747072  1
  Ga  Ga20  1  0.544815  0.338492  0.252928  1
  Ga  Ga21  1  0.455185  0.661508  0.747072  1
  Ir  Ir22  1  0.328832  0.671168  0.500000  1
  Ir  Ir23  1  0.671168  0.328832  0.500000  1
  Ir  Ir24  1  0.000000  0.000000  0.500000  1
  Pd  Pd25  1  0.670331  0.329669  0.000000  1
  Pd  Pd26  1  0.329669  0.670331  0.000000  1
  Pd  Pd27  1  0.000000  0.000000  0.000000  1
