# generated using pymatgen
data_NaZr(AgTe2)4
_symmetry_space_group_name_H-M   'P 1'
_cell_length_a   12.31422867
_cell_length_b   12.31422904
_cell_length_c   10.82018800
_cell_angle_alpha   83.59593584
_cell_angle_beta   83.59593565
_cell_angle_gamma   14.48718197
_symmetry_Int_Tables_number   1
_chemical_formula_structural   NaZr(AgTe2)4
_chemical_formula_sum   'Na1 Zr1 Ag4 Te8'
_cell_volume   407.85928064
_cell_formula_units_Z   1
loop_
 _symmetry_equiv_pos_site_id
 _symmetry_equiv_pos_as_xyz
  1  'x, y, z'
loop_
 _atom_site_type_symbol
 _atom_site_label
 _atom_site_symmetry_multiplicity
 _atom_site_fract_x
 _atom_site_fract_y
 _atom_site_fract_z
 _atom_site_occupancy
  Na  Na0  1  0.000000  0.000000  0.000000  1
  Zr  Zr1  1  0.500000  0.500000  0.500000  1
  Ag  Ag2  1  0.232216  0.232216  0.114860  1
  Ag  Ag3  1  0.840601  0.840601  0.458038  1
  Ag  Ag4  1  0.159399  0.159399  0.541962  1
  Ag  Ag5  1  0.767784  0.767784  0.885140  1
  Te  Te6  1  0.912098  0.912098  0.651939  1
  Te  Te7  1  0.087902  0.087902  0.348061  1
  Te  Te8  1  0.563715  0.563715  0.725783  1
  Te  Te9  1  0.436285  0.436285  0.274217  1
  Te  Te10  1  0.649169  0.649169  0.991159  1
  Te  Te11  1  0.350831  0.350831  0.008841  1
  Te  Te12  1  0.743349  0.743349  0.341202  1
  Te  Te13  1  0.256651  0.256651  0.658798  1
