# generated using pymatgen
data_Sc6Ta2Nb2Al12Os7
_symmetry_space_group_name_H-M   'P 1'
_cell_length_a   8.88297474
_cell_length_b   8.88399639
_cell_length_c   8.88399702
_cell_angle_alpha   60.00488581
_cell_angle_beta   60.00380787
_cell_angle_gamma   60.00380168
_symmetry_Int_Tables_number   1
_chemical_formula_structural   Sc6Ta2Nb2Al12Os7
_chemical_formula_sum   'Sc6 Ta2 Nb2 Al12 Os7'
_cell_volume   495.79394203
_cell_formula_units_Z   1
loop_
 _symmetry_equiv_pos_site_id
 _symmetry_equiv_pos_as_xyz
  1  'x, y, z'
loop_
 _atom_site_type_symbol
 _atom_site_label
 _atom_site_symmetry_multiplicity
 _atom_site_fract_x
 _atom_site_fract_y
 _atom_site_fract_z
 _atom_site_occupancy
  Sc  Sc0  1  0.710932  0.710728  0.289353  1
  Sc  Sc1  1  0.288987  0.710728  0.289353  1
  Sc  Sc2  1  0.711031  0.288969  0.288969  1
  Sc  Sc3  1  0.288987  0.289353  0.710728  1
  Sc  Sc4  1  0.710932  0.289353  0.710728  1
  Sc  Sc5  1  0.289360  0.710640  0.710640  1
  Ta  Ta6  1  0.362426  0.879134  0.879134  1
  Ta  Ta7  1  0.879304  0.879134  0.879134  1
  Nb  Nb8  1  0.879279  0.879142  0.362298  1
  Nb  Nb9  1  0.879279  0.362298  0.879142  1
  Al  Al10  1  0.121364  0.121066  0.636206  1
  Al  Al11  1  0.121364  0.636206  0.121066  1
  Al  Al12  1  0.636008  0.121241  0.121241  1
  Al  Al13  1  0.121510  0.121241  0.121241  1
  Al  Al14  1  0.661723  0.661828  0.014728  1
  Al  Al15  1  0.661723  0.014728  0.661828  1
  Al  Al16  1  0.014575  0.661861  0.661861  1
  Al  Al17  1  0.661706  0.661861  0.661861  1
  Al  Al18  1  0.335219  0.335200  0.994363  1
  Al  Al19  1  0.335219  0.994363  0.335200  1
  Al  Al20  1  0.994372  0.335191  0.335191  1
  Al  Al21  1  0.335245  0.335191  0.335191  1
  Os  Os22  1  0.000540  0.999460  0.999460  1
  Os  Os23  1  0.997203  0.997154  0.503674  1
  Os  Os24  1  0.501969  0.997154  0.503674  1
  Os  Os25  1  0.997459  0.502541  0.502541  1
  Os  Os26  1  0.501969  0.503674  0.997154  1
  Os  Os27  1  0.997203  0.503674  0.997154  1
  Os  Os28  1  0.503113  0.996887  0.996887  1
