# generated using pymatgen
data_Tb4Al6CuSi4Ni5
_symmetry_space_group_name_H-M   'P 1'
_cell_length_a   8.07394975
_cell_length_b   8.08000329
_cell_length_c   8.08000323
_cell_angle_alpha   138.65061204
_cell_angle_beta   102.78988552
_cell_angle_gamma   91.61111758
_symmetry_Int_Tables_number   1
_chemical_formula_structural   Tb4Al6CuSi4Ni5
_chemical_formula_sum   'Tb4 Al6 Cu1 Si4 Ni5'
_cell_volume   323.78798979
_cell_formula_units_Z   1
loop_
 _symmetry_equiv_pos_site_id
 _symmetry_equiv_pos_as_xyz
  1  'x, y, z'
loop_
 _atom_site_type_symbol
 _atom_site_label
 _atom_site_symmetry_multiplicity
 _atom_site_fract_x
 _atom_site_fract_y
 _atom_site_fract_z
 _atom_site_occupancy
  Tb  Tb0  1  0.624608  0.868775  0.755833  1
  Tb  Tb1  1  0.377326  0.131237  0.246089  1
  Tb  Tb2  1  0.884880  0.631007  0.253874  1
  Tb  Tb3  1  0.115013  0.370034  0.744978  1
  Al  Al4  1  0.000960  0.251501  0.255958  1
  Al  Al5  1  0.000960  0.745002  0.749459  1
  Al  Al6  1  0.261117  0.512575  0.255407  1
  Al  Al7  1  0.742910  0.992425  0.249214  1
  Al  Al8  1  0.742910  0.493696  0.750485  1
  Al  Al9  1  0.261117  0.005709  0.748542  1
  Cu  Cu10  1  0.997646  0.129947  0.867698  1
  Si  Si11  1  0.460203  0.606646  0.853557  1
  Si  Si12  1  0.745818  0.105714  0.640103  1
  Si  Si13  1  0.246050  0.893093  0.352958  1
  Si  Si14  1  0.539709  0.393272  0.146437  1
  Ni  Ni15  1  0.498639  0.747482  0.247571  1
  Ni  Ni16  1  0.260712  0.629724  0.630988  1
  Ni  Ni17  1  0.739539  0.370573  0.368965  1
  Ni  Ni18  1  0.001245  0.870519  0.130725  1
  Ni  Ni19  1  0.498639  0.251068  0.751157  1
