# generated using pymatgen
data_Hf6MnCo17P12
_symmetry_space_group_name_H-M   'P 1'
_cell_length_a   3.60285200
_cell_length_b   10.29559000
_cell_length_c   11.90663000
_cell_angle_alpha   90.00000000
_cell_angle_beta   90.00000000
_cell_angle_gamma   90.00000000
_symmetry_Int_Tables_number   1
_chemical_formula_structural   Hf6MnCo17P12
_chemical_formula_sum   'Hf6 Mn1 Co17 P12'
_cell_volume   441.65842539
_cell_formula_units_Z   1
loop_
 _symmetry_equiv_pos_site_id
 _symmetry_equiv_pos_as_xyz
  1  'x, y, z'
loop_
 _atom_site_type_symbol
 _atom_site_label
 _atom_site_symmetry_multiplicity
 _atom_site_fract_x
 _atom_site_fract_y
 _atom_site_fract_z
 _atom_site_occupancy
  Hf  Hf0  1  0.000000  0.500000  0.528015  1
  Hf  Hf1  1  0.500000  0.000000  0.472713  1
  Hf  Hf2  1  0.500000  0.821552  0.207985  1
  Hf  Hf3  1  0.500000  0.178448  0.207985  1
  Hf  Hf4  1  0.000000  0.678196  0.793314  1
  Hf  Hf5  1  0.000000  0.321804  0.793314  1
  Mn  Mn6  1  0.500000  0.500000  0.159416  1
  Co  Co7  1  0.000000  0.000000  0.835049  1
  Co  Co8  1  0.500000  0.500000  0.703354  1
  Co  Co9  1  0.000000  0.000000  0.296791  1
  Co  Co10  1  0.000000  0.500000  0.988176  1
  Co  Co11  1  0.500000  0.000000  0.013340  1
  Co  Co12  1  0.500000  0.331212  0.992807  1
  Co  Co13  1  0.500000  0.668788  0.992807  1
  Co  Co14  1  0.000000  0.166412  0.005267  1
  Co  Co15  1  0.000000  0.833588  0.005267  1
  Co  Co16  1  0.500000  0.299550  0.433729  1
  Co  Co17  1  0.500000  0.700450  0.433729  1
  Co  Co18  1  0.000000  0.199901  0.567286  1
  Co  Co19  1  0.000000  0.800099  0.567286  1
  Co  Co20  1  0.500000  0.875639  0.706729  1
  Co  Co21  1  0.500000  0.124361  0.706729  1
  Co  Co22  1  0.000000  0.625407  0.293441  1
  Co  Co23  1  0.000000  0.374593  0.293441  1
  P  P24  1  0.500000  0.500000  0.879623  1
  P  P25  1  0.000000  0.000000  0.120730  1
  P  P26  1  0.500000  0.500000  0.355417  1
  P  P27  1  0.000000  0.000000  0.647015  1
  P  P28  1  0.500000  0.317238  0.618144  1
  P  P29  1  0.500000  0.682762  0.618144  1
  P  P30  1  0.000000  0.182524  0.382748  1
  P  P31  1  0.000000  0.817476  0.382748  1
  P  P32  1  0.500000  0.845484  0.887811  1
  P  P33  1  0.500000  0.154516  0.887811  1
  P  P34  1  0.000000  0.658442  0.110919  1
  P  P35  1  0.000000  0.341558  0.110919  1
