# generated using pymatgen
data_Zr3Ti3SiBSe
_symmetry_space_group_name_H-M   'P 1'
_cell_length_a   6.95146500
_cell_length_b   6.95146537
_cell_length_c   3.59329200
_cell_angle_alpha   90.00000000
_cell_angle_beta   90.00000000
_cell_angle_gamma   119.99999348
_symmetry_Int_Tables_number   1
_chemical_formula_structural   Zr3Ti3SiBSe
_chemical_formula_sum   'Zr3 Ti3 Si1 B1 Se1'
_cell_volume   150.37508119
_cell_formula_units_Z   1
loop_
 _symmetry_equiv_pos_site_id
 _symmetry_equiv_pos_as_xyz
  1  'x, y, z'
loop_
 _atom_site_type_symbol
 _atom_site_label
 _atom_site_symmetry_multiplicity
 _atom_site_fract_x
 _atom_site_fract_y
 _atom_site_fract_z
 _atom_site_occupancy
  Zr  Zr0  1  0.604410  0.004786  0.000000  1
  Zr  Zr1  1  0.400375  0.395590  0.000000  1
  Zr  Zr2  1  0.995214  0.599625  0.000000  1
  Ti  Ti3  1  0.231957  0.003490  0.500000  1
  Ti  Ti4  1  0.771534  0.768043  0.500000  1
  Ti  Ti5  1  0.996510  0.228466  0.500000  1
  Si  Si6  1  0.666667  0.333333  0.500000  1
  B  B7  1  0.000000  0.000000  0.000000  1
  Se  Se8  1  0.333333  0.666667  0.500000  1
