# generated using pymatgen
data_Zr2Mn3Fe9P7
_symmetry_space_group_name_H-M   'P 1'
_cell_length_a   8.94094300
_cell_length_b   8.94094345
_cell_length_c   3.58368800
_cell_angle_alpha   90.00000000
_cell_angle_beta   90.00000000
_cell_angle_gamma   120.00000204
_symmetry_Int_Tables_number   1
_chemical_formula_structural   Zr2Mn3Fe9P7
_chemical_formula_sum   'Zr2 Mn3 Fe9 P7'
_cell_volume   248.10041421
_cell_formula_units_Z   1
loop_
 _symmetry_equiv_pos_site_id
 _symmetry_equiv_pos_as_xyz
  1  'x, y, z'
loop_
 _atom_site_type_symbol
 _atom_site_label
 _atom_site_symmetry_multiplicity
 _atom_site_fract_x
 _atom_site_fract_y
 _atom_site_fract_z
 _atom_site_occupancy
  Zr  Zr0  1  0.666667  0.333333  0.000000  1
  Zr  Zr1  1  0.333333  0.666667  0.500000  1
  Mn  Mn2  1  0.102403  0.883339  0.500000  1
  Mn  Mn3  1  0.780935  0.897597  0.500000  1
  Mn  Mn4  1  0.116661  0.219065  0.500000  1
  Fe  Fe5  1  0.061253  0.632443  0.000000  1
  Fe  Fe6  1  0.571190  0.938747  0.000000  1
  Fe  Fe7  1  0.367557  0.428810  0.000000  1
  Fe  Fe8  1  0.277187  0.120834  0.000000  1
  Fe  Fe9  1  0.843646  0.722813  0.000000  1
  Fe  Fe10  1  0.879166  0.156354  0.000000  1
  Fe  Fe11  1  0.437721  0.051915  0.500000  1
  Fe  Fe12  1  0.614194  0.562279  0.500000  1
  Fe  Fe13  1  0.948085  0.385806  0.500000  1
  P  P14  1  0.301822  0.885602  0.000000  1
  P  P15  1  0.583781  0.698178  0.000000  1
  P  P16  1  0.114398  0.416219  0.000000  1
  P  P17  1  0.409570  0.289951  0.500000  1
  P  P18  1  0.880381  0.590430  0.500000  1
  P  P19  1  0.710049  0.119619  0.500000  1
  P  P20  1  0.000000  0.000000  0.000000  1
