# generated using pymatgen
data_Dy4Er(Tm5Bi4)3
_symmetry_space_group_name_H-M   'P 1'
_cell_length_a   8.20223123
_cell_length_b   9.44191300
_cell_length_c   11.93750533
_cell_angle_alpha   90.00000000
_cell_angle_beta   90.02692561
_cell_angle_gamma   90.00000000
_symmetry_Int_Tables_number   1
_chemical_formula_structural   Dy4Er(Tm5Bi4)3
_chemical_formula_sum   'Dy4 Er1 Tm15 Bi12'
_cell_volume   924.49705731
_cell_formula_units_Z   1
loop_
 _symmetry_equiv_pos_site_id
 _symmetry_equiv_pos_as_xyz
  1  'x, y, z'
loop_
 _atom_site_type_symbol
 _atom_site_label
 _atom_site_symmetry_multiplicity
 _atom_site_fract_x
 _atom_site_fract_y
 _atom_site_fract_z
 _atom_site_occupancy
  Dy  Dy0  1  0.312711  0.250000  0.218145  1
  Dy  Dy1  1  0.812344  0.250000  0.282053  1
  Dy  Dy2  1  0.687464  0.750000  0.781902  1
  Dy  Dy3  1  0.187406  0.750000  0.718033  1
  Er  Er4  1  0.352785  0.750000  0.217098  1
  Tm  Tm5  1  0.852409  0.750000  0.282838  1
  Tm  Tm6  1  0.647432  0.250000  0.782837  1
  Tm  Tm7  1  0.147379  0.250000  0.717253  1
  Tm  Tm8  1  0.692532  0.566071  0.059482  1
  Tm  Tm9  1  0.192394  0.934055  0.440680  1
  Tm  Tm10  1  0.307452  0.066050  0.940457  1
  Tm  Tm11  1  0.807565  0.433994  0.559442  1
  Tm  Tm12  1  0.307452  0.433950  0.940457  1
  Tm  Tm13  1  0.807565  0.066006  0.559442  1
  Tm  Tm14  1  0.692532  0.933929  0.059482  1
  Tm  Tm15  1  0.192394  0.565945  0.440680  1
  Tm  Tm16  1  0.476164  0.250000  0.488816  1
  Tm  Tm17  1  0.975923  0.250000  0.011121  1
  Tm  Tm18  1  0.524102  0.750000  0.511334  1
  Tm  Tm19  1  0.023936  0.750000  0.988825  1
  Bi  Bi20  1  0.405188  0.750000  0.958020  1
  Bi  Bi21  1  0.905018  0.750000  0.541459  1
  Bi  Bi22  1  0.594929  0.250000  0.041598  1
  Bi  Bi23  1  0.095012  0.250000  0.458524  1
  Bi  Bi24  1  0.565468  0.994990  0.325845  1
  Bi  Bi25  1  0.065242  0.505198  0.174132  1
  Bi  Bi26  1  0.434641  0.494797  0.674206  1
  Bi  Bi27  1  0.934606  0.005305  0.825828  1
  Bi  Bi28  1  0.434641  0.005203  0.674206  1
  Bi  Bi29  1  0.934606  0.494695  0.825828  1
  Bi  Bi30  1  0.565468  0.505010  0.325845  1
  Bi  Bi31  1  0.065242  0.994802  0.174132  1
