# generated using pymatgen
data_Dy5YLu10(CdPt)4
_symmetry_space_group_name_H-M   'P 1'
_cell_length_a   9.56007123
_cell_length_b   9.56007125
_cell_length_c   9.56183600
_cell_angle_alpha   59.99389343
_cell_angle_beta   59.99389338
_cell_angle_gamma   59.98619714
_symmetry_Int_Tables_number   1
_chemical_formula_structural   Dy5YLu10(CdPt)4
_chemical_formula_sum   'Dy5 Y1 Lu10 Cd4 Pt4'
_cell_volume   617.82167777
_cell_formula_units_Z   1
loop_
 _symmetry_equiv_pos_site_id
 _symmetry_equiv_pos_as_xyz
  1  'x, y, z'
loop_
 _atom_site_type_symbol
 _atom_site_label
 _atom_site_symmetry_multiplicity
 _atom_site_fract_x
 _atom_site_fract_y
 _atom_site_fract_z
 _atom_site_occupancy
  Dy  Dy0  1  0.937155  0.562553  0.562989  1
  Dy  Dy1  1  0.562553  0.937155  0.937303  1
  Dy  Dy2  1  0.562553  0.937155  0.562989  1
  Dy  Dy3  1  0.937155  0.562553  0.937303  1
  Dy  Dy4  1  0.563815  0.563815  0.936185  1
  Y  Y5  1  0.937776  0.937776  0.562224  1
  Lu  Lu6  1  0.351793  0.351793  0.350764  1
  Lu  Lu7  1  0.351793  0.351793  0.945652  1
  Lu  Lu8  1  0.353037  0.943130  0.351917  1
  Lu  Lu9  1  0.943130  0.353037  0.351917  1
  Lu  Lu10  1  0.811768  0.188173  0.188560  1
  Lu  Lu11  1  0.188173  0.811768  0.811499  1
  Lu  Lu12  1  0.188173  0.811768  0.188560  1
  Lu  Lu13  1  0.811768  0.188173  0.811499  1
  Lu  Lu14  1  0.188784  0.188784  0.811216  1
  Lu  Lu15  1  0.811961  0.811961  0.188039  1
  Cd  Cd16  1  0.580913  0.580913  0.581345  1
  Cd  Cd17  1  0.580913  0.580913  0.256829  1
  Cd  Cd18  1  0.581290  0.255762  0.581475  1
  Cd  Cd19  1  0.255762  0.581290  0.581475  1
  Pt  Pt20  1  0.143074  0.143074  0.143345  1
  Pt  Pt21  1  0.143074  0.143074  0.570506  1
  Pt  Pt22  1  0.142749  0.570841  0.143205  1
  Pt  Pt23  1  0.570841  0.142749  0.143205  1
