# generated using pymatgen
data_Ca2PrNd7Sn8
_symmetry_space_group_name_H-M   'P 1'
_cell_length_a   8.10278754
_cell_length_b   8.50394323
_cell_length_c   16.12527163
_cell_angle_alpha   90.05655768
_cell_angle_beta   89.98748290
_cell_angle_gamma   89.90775369
_symmetry_Int_Tables_number   1
_chemical_formula_structural   Ca2PrNd7Sn8
_chemical_formula_sum   'Ca4 Pr2 Nd14 Sn16'
_cell_volume   1111.12023786
_cell_formula_units_Z   2
loop_
 _symmetry_equiv_pos_site_id
 _symmetry_equiv_pos_as_xyz
  1  'x, y, z'
loop_
 _atom_site_type_symbol
 _atom_site_label
 _atom_site_symmetry_multiplicity
 _atom_site_fract_x
 _atom_site_fract_y
 _atom_site_fract_z
 _atom_site_occupancy
  Ca  Ca0  1  0.165344  0.495435  0.249441  1
  Ca  Ca1  1  0.665906  0.007293  0.249816  1
  Ca  Ca2  1  0.334710  0.993352  0.750168  1
  Ca  Ca3  1  0.833892  0.505095  0.750559  1
  Pr  Pr4  1  0.993425  0.184672  0.405118  1
  Pr  Pr5  1  0.336448  0.827746  0.124260  1
  Nd  Nd6  1  0.163972  0.328229  0.624556  1
  Nd  Nd7  1  0.507123  0.681947  0.903669  1
  Nd  Nd8  1  0.835782  0.672097  0.124568  1
  Nd  Nd9  1  0.162997  0.326963  0.875151  1
  Nd  Nd10  1  0.507272  0.682017  0.596739  1
  Nd  Nd11  1  0.664278  0.172366  0.625023  1
  Nd  Nd12  1  0.837142  0.671550  0.375941  1
  Nd  Nd13  1  0.992254  0.182151  0.094739  1
  Nd  Nd14  1  0.006774  0.816698  0.903690  1
  Nd  Nd15  1  0.663855  0.171578  0.874929  1
  Nd  Nd16  1  0.491402  0.316400  0.095772  1
  Nd  Nd17  1  0.336426  0.829789  0.374536  1
  Nd  Nd18  1  0.007663  0.815984  0.596875  1
  Nd  Nd19  1  0.492138  0.318372  0.403653  1
  Sn  Sn20  1  0.822726  0.463942  0.538215  1
  Sn  Sn21  1  0.674478  0.963126  0.462904  1
  Sn  Sn22  1  0.705017  0.858782  0.750411  1
  Sn  Sn23  1  0.180716  0.541158  0.464128  1
  Sn  Sn24  1  0.323776  0.036313  0.961643  1
  Sn  Sn25  1  0.795849  0.359814  0.249562  1
  Sn  Sn26  1  0.822564  0.462171  0.962972  1
  Sn  Sn27  1  0.534124  0.602928  0.250176  1
  Sn  Sn28  1  0.174814  0.536368  0.036676  1
  Sn  Sn29  1  0.466017  0.395916  0.750562  1
  Sn  Sn30  1  0.204384  0.640019  0.750368  1
  Sn  Sn31  1  0.967271  0.103487  0.749397  1
  Sn  Sn32  1  0.325889  0.035775  0.538022  1
  Sn  Sn33  1  0.677294  0.962395  0.036213  1
  Sn  Sn34  1  0.294099  0.142177  0.249457  1
  Sn  Sn35  1  0.032179  0.895899  0.250089  1
