# generated using pymatgen
data_Ho6Er14Ni3Bi8Ru
_symmetry_space_group_name_H-M   'P 1'
_cell_length_a   7.95761337
_cell_length_b   8.91235800
_cell_length_c   12.30090100
_cell_angle_alpha   90.00000000
_cell_angle_beta   90.22921336
_cell_angle_gamma   90.00000000
_symmetry_Int_Tables_number   1
_chemical_formula_structural   Ho6Er14Ni3Bi8Ru
_chemical_formula_sum   'Ho6 Er14 Ni3 Bi8 Ru1'
_cell_volume   872.38643852
_cell_formula_units_Z   1
loop_
 _symmetry_equiv_pos_site_id
 _symmetry_equiv_pos_as_xyz
  1  'x, y, z'
loop_
 _atom_site_type_symbol
 _atom_site_label
 _atom_site_symmetry_multiplicity
 _atom_site_fract_x
 _atom_site_fract_y
 _atom_site_fract_z
 _atom_site_occupancy
  Ho  Ho0  1  0.158192  0.250000  0.204836  1
  Ho  Ho1  1  0.345122  0.250000  0.702440  1
  Ho  Ho2  1  0.619860  0.250000  0.306701  1
  Ho  Ho3  1  0.880242  0.250000  0.808990  1
  Ho  Ho4  1  0.051044  0.250000  0.497699  1
  Ho  Ho5  1  0.450753  0.250000  0.000082  1
  Er  Er6  1  0.838787  0.750000  0.791639  1
  Er  Er7  1  0.654907  0.750000  0.296414  1
  Er  Er8  1  0.378473  0.750000  0.695266  1
  Er  Er9  1  0.118730  0.750000  0.189161  1
  Er  Er10  1  0.949703  0.750000  0.501929  1
  Er  Er11  1  0.549698  0.750000  0.000758  1
  Er  Er12  1  0.676855  0.041015  0.565033  1
  Er  Er13  1  0.324824  0.956499  0.436728  1
  Er  Er14  1  0.175977  0.958538  0.935096  1
  Er  Er15  1  0.324824  0.543501  0.436728  1
  Er  Er16  1  0.823743  0.041801  0.064102  1
  Er  Er17  1  0.676855  0.458985  0.565033  1
  Er  Er18  1  0.823743  0.458199  0.064102  1
  Er  Er19  1  0.175977  0.541462  0.935096  1
  Ni  Ni20  1  0.427082  0.250000  0.488508  1
  Ni  Ni21  1  0.070475  0.250000  0.991314  1
  Ni  Ni22  1  0.928414  0.750000  0.006515  1
  Bi  Bi23  1  0.570933  0.489288  0.828529  1
  Bi  Bi24  1  0.428361  0.510221  0.172860  1
  Bi  Bi25  1  0.070555  0.508036  0.673952  1
  Bi  Bi26  1  0.428361  0.989779  0.172860  1
  Bi  Bi27  1  0.930653  0.491472  0.325959  1
  Bi  Bi28  1  0.570933  0.010712  0.828529  1
  Bi  Bi29  1  0.930653  0.008528  0.325959  1
  Bi  Bi30  1  0.070555  0.991964  0.673952  1
  Ru  Ru31  1  0.574713  0.750000  0.513235  1
