# generated using pymatgen
data_TmZr3(CoB4)4
_symmetry_space_group_name_H-M   'P 1'
_cell_length_a   3.26933500
_cell_length_b   5.79802255
_cell_length_c   11.25854605
_cell_angle_alpha   90.04961663
_cell_angle_beta   90.00000000
_cell_angle_gamma   90.00000000
_symmetry_Int_Tables_number   1
_chemical_formula_structural   TmZr3(CoB4)4
_chemical_formula_sum   'Tm1 Zr3 Co4 B16'
_cell_volume   213.41329412
_cell_formula_units_Z   1
loop_
 _symmetry_equiv_pos_site_id
 _symmetry_equiv_pos_as_xyz
  1  'x, y, z'
loop_
 _atom_site_type_symbol
 _atom_site_label
 _atom_site_symmetry_multiplicity
 _atom_site_fract_x
 _atom_site_fract_y
 _atom_site_fract_z
 _atom_site_occupancy
  Tm  Tm0  1  0.500000  0.871750  0.349820  1
  Zr  Zr1  1  0.500000  0.374564  0.149318  1
  Zr  Zr2  1  0.500000  0.626747  0.849187  1
  Zr  Zr3  1  0.500000  0.128108  0.651598  1
  Co  Co4  1  0.500000  0.363810  0.410907  1
  Co  Co5  1  0.500000  0.634511  0.591028  1
  Co  Co6  1  0.500000  0.136215  0.910019  1
  Co  Co7  1  0.500000  0.864480  0.088415  1
  B  B8  1  0.000000  0.114183  0.046978  1
  B  B9  1  0.000000  0.886004  0.952653  1
  B  B10  1  0.000000  0.386081  0.547508  1
  B  B11  1  0.000000  0.611930  0.453736  1
  B  B12  1  0.000000  0.135959  0.468405  1
  B  B13  1  0.000000  0.865284  0.533204  1
  B  B14  1  0.000000  0.366047  0.966347  1
  B  B15  1  0.000000  0.633570  0.033205  1
  B  B16  1  0.000000  0.024813  0.191476  1
  B  B17  1  0.000000  0.974769  0.807077  1
  B  B18  1  0.000000  0.475762  0.693340  1
  B  B19  1  0.000000  0.522615  0.307349  1
  B  B20  1  0.000000  0.215887  0.313118  1
  B  B21  1  0.000000  0.786876  0.686803  1
  B  B22  1  0.000000  0.287487  0.813363  1
  B  B23  1  0.000000  0.712546  0.185148  1
