# generated using pymatgen
data_Tm3Lu5V(B8Rh)3
_symmetry_space_group_name_H-M   'P 1'
_cell_length_a   3.60222800
_cell_length_b   9.06425495
_cell_length_c   11.40510500
_cell_angle_alpha   89.90314854
_cell_angle_beta   90.00000000
_cell_angle_gamma   90.00000000
_symmetry_Int_Tables_number   1
_chemical_formula_structural   Tm3Lu5V(B8Rh)3
_chemical_formula_sum   'Tm3 Lu5 V1 B24 Rh3'
_cell_volume   372.39340191
_cell_formula_units_Z   1
loop_
 _symmetry_equiv_pos_site_id
 _symmetry_equiv_pos_as_xyz
  1  'x, y, z'
loop_
 _atom_site_type_symbol
 _atom_site_label
 _atom_site_symmetry_multiplicity
 _atom_site_fract_x
 _atom_site_fract_y
 _atom_site_fract_z
 _atom_site_occupancy
  Tm  Tm0  1  0.500000  0.319518  0.411665  1
  Tm  Tm1  1  0.500000  0.678531  0.584835  1
  Tm  Tm2  1  0.500000  0.177085  0.917686  1
  Lu  Lu3  1  0.500000  0.824920  0.086860  1
  Lu  Lu4  1  0.500000  0.442792  0.126643  1
  Lu  Lu5  1  0.500000  0.555721  0.873780  1
  Lu  Lu6  1  0.500000  0.055916  0.627309  1
  Lu  Lu7  1  0.500000  0.946875  0.371702  1
  V  V8  1  0.500000  0.138283  0.179804  1
  B  B9  1  0.000000  0.106459  0.471909  1
  B  B10  1  0.000000  0.895247  0.528388  1
  B  B11  1  0.000000  0.393486  0.970432  1
  B  B12  1  0.000000  0.606697  0.029317  1
  B  B13  1  0.000000  0.132326  0.316478  1
  B  B14  1  0.000000  0.867481  0.681901  1
  B  B15  1  0.000000  0.367607  0.818061  1
  B  B16  1  0.000000  0.632261  0.183859  1
  B  B17  1  0.000000  0.052284  0.065084  1
  B  B18  1  0.000000  0.946722  0.934654  1
  B  B19  1  0.000000  0.446517  0.565335  1
  B  B20  1  0.000000  0.553888  0.433946  1
  B  B21  1  0.000000  0.481406  0.287731  1
  B  B22  1  0.000000  0.518007  0.713182  1
  B  B23  1  0.000000  0.017192  0.787874  1
  B  B24  1  0.000000  0.980919  0.212356  1
  B  B25  1  0.000000  0.249903  0.079684  1
  B  B26  1  0.000000  0.750599  0.921712  1
  B  B27  1  0.000000  0.249614  0.578940  1
  B  B28  1  0.000000  0.752027  0.419458  1
  B  B29  1  0.000000  0.294912  0.236361  1
  B  B30  1  0.000000  0.705233  0.763240  1
  B  B31  1  0.000000  0.206038  0.736420  1
  B  B32  1  0.000000  0.794599  0.263508  1
  Rh  Rh33  1  0.500000  0.858372  0.818813  1
  Rh  Rh34  1  0.500000  0.360919  0.679718  1
  Rh  Rh35  1  0.500000  0.639644  0.321359  1
