# generated using pymatgen
data_CeEr11ZnCo4Sn
_symmetry_space_group_name_H-M   'P 1'
_cell_length_a   8.20346410
_cell_length_b   8.29455085
_cell_length_c   8.20346384
_cell_angle_alpha   112.26358643
_cell_angle_beta   108.79993011
_cell_angle_gamma   106.94328848
_symmetry_Int_Tables_number   1
_chemical_formula_structural   CeEr11ZnCo4Sn
_chemical_formula_sum   'Ce1 Er11 Zn1 Co4 Sn1'
_cell_volume   431.11903512
_cell_formula_units_Z   1
loop_
 _symmetry_equiv_pos_site_id
 _symmetry_equiv_pos_as_xyz
  1  'x, y, z'
loop_
 _atom_site_type_symbol
 _atom_site_label
 _atom_site_symmetry_multiplicity
 _atom_site_fract_x
 _atom_site_fract_y
 _atom_site_fract_z
 _atom_site_occupancy
  Ce  Ce0  1  0.672029  0.008728  0.336698  1
  Er  Er1  1  0.429468  0.232505  0.196797  1
  Er  Er2  1  0.575116  0.778141  0.804174  1
  Er  Er3  1  0.035709  0.232505  0.803037  1
  Er  Er4  1  0.973967  0.778141  0.203025  1
  Er  Er5  1  0.186285  0.285498  0.464764  1
  Er  Er6  1  0.818732  0.716396  0.533796  1
  Er  Er7  1  0.182603  0.716396  0.897665  1
  Er  Er8  1  0.820732  0.285498  0.099213  1
  Er  Er9  1  0.315340  0.625723  0.310383  1
  Er  Er10  1  0.679342  0.379363  0.700021  1
  Er  Er11  1  0.322763  0.007113  0.684350  1
  Zn  Zn12  1  0.002634  0.998250  0.995616  1
  Co  Co13  1  0.354614  0.994024  0.342443  1
  Co  Co14  1  0.651580  0.994024  0.639410  1
  Co  Co15  1  0.104796  0.605094  0.500298  1
  Co  Co16  1  0.872905  0.359321  0.486416  1
  Sn  Sn17  1  0.501385  0.503279  0.001895  1
