# generated using pymatgen
data_YThReC2
_symmetry_space_group_name_H-M   'P 1'
_cell_length_a   5.29213900
_cell_length_b   6.66597300
_cell_length_c   9.88559100
_cell_angle_alpha   90.00000000
_cell_angle_beta   90.00000000
_cell_angle_gamma   90.00000000
_symmetry_Int_Tables_number   1
_chemical_formula_structural   YThReC2
_chemical_formula_sum   'Y4 Th4 Re4 C8'
_cell_volume   348.73652132
_cell_formula_units_Z   4
loop_
 _symmetry_equiv_pos_site_id
 _symmetry_equiv_pos_as_xyz
  1  'x, y, z'
loop_
 _atom_site_type_symbol
 _atom_site_label
 _atom_site_symmetry_multiplicity
 _atom_site_fract_x
 _atom_site_fract_y
 _atom_site_fract_z
 _atom_site_occupancy
  Y  Y0  1  0.250000  0.823652  0.051295  1
  Y  Y1  1  0.750000  0.676348  0.551295  1
  Y  Y2  1  0.250000  0.323652  0.448705  1
  Y  Y3  1  0.750000  0.176348  0.948705  1
  Th  Th4  1  0.250000  0.470835  0.785217  1
  Th  Th5  1  0.750000  0.029165  0.285217  1
  Th  Th6  1  0.250000  0.970835  0.714783  1
  Th  Th7  1  0.750000  0.529165  0.214783  1
  Re  Re8  1  0.250000  0.272667  0.136372  1
  Re  Re9  1  0.750000  0.227333  0.636372  1
  Re  Re10  1  0.250000  0.772667  0.363628  1
  Re  Re11  1  0.750000  0.727333  0.863628  1
  C  C12  1  0.250000  0.171528  0.948162  1
  C  C13  1  0.750000  0.828472  0.051838  1
  C  C14  1  0.250000  0.671528  0.551838  1
  C  C15  1  0.750000  0.328472  0.448162  1
  C  C16  1  0.250000  0.041310  0.261510  1
  C  C17  1  0.750000  0.458690  0.761510  1
  C  C18  1  0.250000  0.541310  0.238490  1
  C  C19  1  0.750000  0.958690  0.738490  1
