# generated using pymatgen
data_Pr20Co3Bi8Rh
_symmetry_space_group_name_H-M   'P 1'
_cell_length_a   8.40156456
_cell_length_b   9.17506700
_cell_length_c   12.93391098
_cell_angle_alpha   90.00000000
_cell_angle_beta   89.76583903
_cell_angle_gamma   90.00000000
_symmetry_Int_Tables_number   1
_chemical_formula_structural   Pr20Co3Bi8Rh
_chemical_formula_sum   'Pr20 Co3 Bi8 Rh1'
_cell_volume   997.00113725
_cell_formula_units_Z   1
loop_
 _symmetry_equiv_pos_site_id
 _symmetry_equiv_pos_as_xyz
  1  'x, y, z'
loop_
 _atom_site_type_symbol
 _atom_site_label
 _atom_site_symmetry_multiplicity
 _atom_site_fract_x
 _atom_site_fract_y
 _atom_site_fract_z
 _atom_site_occupancy
  Pr  Pr0  1  0.350049  0.750000  0.700116  1
  Pr  Pr1  1  0.649248  0.250000  0.301080  1
  Pr  Pr2  1  0.850801  0.250000  0.800123  1
  Pr  Pr3  1  0.150833  0.750000  0.204664  1
  Pr  Pr4  1  0.875381  0.750000  0.804019  1
  Pr  Pr5  1  0.120844  0.250000  0.192886  1
  Pr  Pr6  1  0.379830  0.250000  0.691544  1
  Pr  Pr7  1  0.620526  0.750000  0.307970  1
  Pr  Pr8  1  0.679819  0.533830  0.561834  1
  Pr  Pr9  1  0.319515  0.465478  0.438060  1
  Pr  Pr10  1  0.181889  0.458727  0.935115  1
  Pr  Pr11  1  0.319515  0.034522  0.438060  1
  Pr  Pr12  1  0.818445  0.532206  0.064042  1
  Pr  Pr13  1  0.679819  0.966170  0.561834  1
  Pr  Pr14  1  0.818445  0.967794  0.064042  1
  Pr  Pr15  1  0.181889  0.041273  0.935115  1
  Pr  Pr16  1  0.048508  0.750000  0.498151  1
  Pr  Pr17  1  0.952088  0.250000  0.502732  1
  Pr  Pr18  1  0.546320  0.250000  0.002312  1
  Pr  Pr19  1  0.454832  0.750000  0.997478  1
  Co  Co20  1  0.931741  0.250000  0.008961  1
  Co  Co21  1  0.569277  0.250000  0.509436  1
  Co  Co22  1  0.429749  0.750000  0.490438  1
  Bi  Bi23  1  0.574733  0.506435  0.824764  1
  Bi  Bi24  1  0.425442  0.492649  0.175131  1
  Bi  Bi25  1  0.074926  0.492485  0.674125  1
  Bi  Bi26  1  0.425442  0.007351  0.175131  1
  Bi  Bi27  1  0.924785  0.506903  0.326187  1
  Bi  Bi28  1  0.574733  0.993565  0.824764  1
  Bi  Bi29  1  0.924785  0.993097  0.326187  1
  Bi  Bi30  1  0.074926  0.007515  0.674125  1
  Rh  Rh31  1  0.070865  0.750000  0.989573  1
