# generated using pymatgen
data_DyHo4(In2Rh)2
_symmetry_space_group_name_H-M   'P 1'
_cell_length_a   3.62026200
_cell_length_b   8.01163600
_cell_length_c   18.30773300
_cell_angle_alpha   90.00000000
_cell_angle_beta   90.00000000
_cell_angle_gamma   90.00000000
_symmetry_Int_Tables_number   1
_chemical_formula_structural   DyHo4(In2Rh)2
_chemical_formula_sum   'Dy2 Ho8 In8 Rh4'
_cell_volume   531.00154069
_cell_formula_units_Z   2
loop_
 _symmetry_equiv_pos_site_id
 _symmetry_equiv_pos_as_xyz
  1  'x, y, z'
loop_
 _atom_site_type_symbol
 _atom_site_label
 _atom_site_symmetry_multiplicity
 _atom_site_fract_x
 _atom_site_fract_y
 _atom_site_fract_z
 _atom_site_occupancy
  Dy  Dy0  1  0.500000  0.500000  0.000000  1
  Dy  Dy1  1  0.500000  0.000000  0.500000  1
  Ho  Ho2  1  0.500000  0.382651  0.588978  1
  Ho  Ho3  1  0.500000  0.882651  0.911022  1
  Ho  Ho4  1  0.500000  0.117349  0.088978  1
  Ho  Ho5  1  0.500000  0.752621  0.721644  1
  Ho  Ho6  1  0.500000  0.252621  0.778356  1
  Ho  Ho7  1  0.500000  0.747379  0.221644  1
  Ho  Ho8  1  0.500000  0.247379  0.278356  1
  Ho  Ho9  1  0.500000  0.617349  0.411022  1
  In  In10  1  0.000000  0.793433  0.068242  1
  In  In11  1  0.000000  0.930018  0.349620  1
  In  In12  1  0.000000  0.069982  0.650380  1
  In  In13  1  0.000000  0.569982  0.849620  1
  In  In14  1  0.000000  0.706567  0.568242  1
  In  In15  1  0.000000  0.206567  0.931758  1
  In  In16  1  0.000000  0.293433  0.431758  1
  In  In17  1  0.000000  0.430018  0.150380  1
  Rh  Rh18  1  0.000000  0.976863  0.804981  1
  Rh  Rh19  1  0.000000  0.523137  0.304981  1
  Rh  Rh20  1  0.000000  0.476863  0.695019  1
  Rh  Rh21  1  0.000000  0.023137  0.195019  1
