# generated using pymatgen
data_Mg2Zn3B4(IrRh3)2
_symmetry_space_group_name_H-M   'P 1'
_cell_length_a   9.53995158
_cell_length_b   9.53995030
_cell_length_c   2.89555800
_cell_angle_alpha   90.00000000
_cell_angle_beta   90.00000000
_cell_angle_gamma   125.78617791
_symmetry_Int_Tables_number   1
_chemical_formula_structural   Mg2Zn3B4(IrRh3)2
_chemical_formula_sum   'Mg2 Zn3 B4 Ir2 Rh6'
_cell_volume   213.77411759
_cell_formula_units_Z   1
loop_
 _symmetry_equiv_pos_site_id
 _symmetry_equiv_pos_as_xyz
  1  'x, y, z'
loop_
 _atom_site_type_symbol
 _atom_site_label
 _atom_site_symmetry_multiplicity
 _atom_site_fract_x
 _atom_site_fract_y
 _atom_site_fract_z
 _atom_site_occupancy
  Mg  Mg0  1  0.200058  0.799942  0.500000  1
  Mg  Mg1  1  0.799942  0.200058  0.500000  1
  Zn  Zn2  1  0.357908  0.357908  0.500000  1
  Zn  Zn3  1  0.000000  0.000000  0.500000  1
  Zn  Zn4  1  0.642092  0.642092  0.500000  1
  B  B5  1  0.463465  0.152492  0.500000  1
  B  B6  1  0.152492  0.463465  0.500000  1
  B  B7  1  0.536535  0.847508  0.500000  1
  B  B8  1  0.847508  0.536535  0.500000  1
  Ir  Ir9  1  0.500000  0.000000  0.000000  1
  Ir  Ir10  1  0.000000  0.500000  0.000000  1
  Rh  Rh11  1  0.627476  0.372524  0.000000  1
  Rh  Rh12  1  0.372524  0.627476  0.000000  1
  Rh  Rh13  1  0.911076  0.730554  0.000000  1
  Rh  Rh14  1  0.088924  0.269446  0.000000  1
  Rh  Rh15  1  0.269446  0.088924  0.000000  1
  Rh  Rh16  1  0.730554  0.911076  0.000000  1
