# generated using pymatgen
data_PaTeS
_symmetry_space_group_name_H-M   'P 1'
_cell_length_a   4.23420100
_cell_length_b   7.70859200
_cell_length_c   9.01639900
_cell_angle_alpha   90.00000000
_cell_angle_beta   90.00000000
_cell_angle_gamma   90.00000000
_symmetry_Int_Tables_number   1
_chemical_formula_structural   PaTeS
_chemical_formula_sum   'Pa4 Te4 S4'
_cell_volume   294.29281049
_cell_formula_units_Z   4
loop_
 _symmetry_equiv_pos_site_id
 _symmetry_equiv_pos_as_xyz
  1  'x, y, z'
loop_
 _atom_site_type_symbol
 _atom_site_label
 _atom_site_symmetry_multiplicity
 _atom_site_fract_x
 _atom_site_fract_y
 _atom_site_fract_z
 _atom_site_occupancy
  Pa  Pa0  1  0.250000  0.208199  0.875119  1
  Pa  Pa1  1  0.750000  0.791801  0.124881  1
  Pa  Pa2  1  0.250000  0.708199  0.624881  1
  Pa  Pa3  1  0.750000  0.291801  0.375119  1
  Te  Te4  1  0.250000  0.975027  0.340663  1
  Te  Te5  1  0.750000  0.524973  0.840663  1
  Te  Te6  1  0.250000  0.475027  0.159337  1
  Te  Te7  1  0.750000  0.024973  0.659337  1
  S  S8  1  0.750000  0.146633  0.072269  1
  S  S9  1  0.250000  0.353367  0.572269  1
  S  S10  1  0.750000  0.646633  0.427731  1
  S  S11  1  0.250000  0.853367  0.927731  1
