# generated using pymatgen
data_Hf4In(B7Ir6)2
_symmetry_space_group_name_H-M   'P 1'
_cell_length_a   3.42005335
_cell_length_b   7.88908550
_cell_length_c   13.64099702
_cell_angle_alpha   89.96401781
_cell_angle_beta   90.06649645
_cell_angle_gamma   90.15834438
_symmetry_Int_Tables_number   1
_chemical_formula_structural   Hf4In(B7Ir6)2
_chemical_formula_sum   'Hf4 In1 B14 Ir12'
_cell_volume   368.04728806
_cell_formula_units_Z   1
loop_
 _symmetry_equiv_pos_site_id
 _symmetry_equiv_pos_as_xyz
  1  'x, y, z'
loop_
 _atom_site_type_symbol
 _atom_site_label
 _atom_site_symmetry_multiplicity
 _atom_site_fract_x
 _atom_site_fract_y
 _atom_site_fract_z
 _atom_site_occupancy
  Hf  Hf0  1  0.250613  0.496634  0.837364  1
  Hf  Hf1  1  0.253346  0.002584  0.329243  1
  Hf  Hf2  1  0.746654  0.997416  0.670757  1
  Hf  Hf3  1  0.749387  0.503366  0.162636  1
  In  In4  1  0.500000  0.500000  0.500000  1
  B  B5  1  0.500000  0.000000  0.000000  1
  B  B6  1  0.000000  0.000000  0.000000  1
  B  B7  1  0.746211  0.325578  0.731580  1
  B  B8  1  0.750711  0.831541  0.218354  1
  B  B9  1  0.750164  0.752467  0.806941  1
  B  B10  1  0.748894  0.245146  0.296325  1
  B  B11  1  0.751574  0.424685  0.973930  1
  B  B12  1  0.746188  0.919675  0.472945  1
  B  B13  1  0.249289  0.168459  0.781646  1
  B  B14  1  0.253789  0.674422  0.268420  1
  B  B15  1  0.251106  0.754854  0.703675  1
  B  B16  1  0.249836  0.247533  0.193059  1
  B  B17  1  0.253812  0.080325  0.527055  1
  B  B18  1  0.248426  0.575315  0.026070  1
  Ir  Ir19  1  0.752837  0.592904  0.682485  1
  Ir  Ir20  1  0.749498  0.088188  0.161565  1
  Ir  Ir21  1  0.749553  0.701014  0.962195  1
  Ir  Ir22  1  0.758084  0.189444  0.455298  1
  Ir  Ir23  1  0.750531  0.203751  0.876655  1
  Ir  Ir24  1  0.756023  0.719866  0.360224  1
  Ir  Ir25  1  0.250502  0.911812  0.838435  1
  Ir  Ir26  1  0.247163  0.407096  0.317515  1
  Ir  Ir27  1  0.241916  0.810556  0.544702  1
  Ir  Ir28  1  0.250447  0.298986  0.037805  1
  Ir  Ir29  1  0.243977  0.280134  0.639776  1
  Ir  Ir30  1  0.249469  0.796249  0.123345  1
