# generated using pymatgen
data_Ta16Be2GaFeTe16
_symmetry_space_group_name_H-M   'P 1'
_cell_length_a   4.83080400
_cell_length_b   10.94824435
_cell_length_c   19.25305362
_cell_angle_alpha   89.97102361
_cell_angle_beta   90.00000000
_cell_angle_gamma   90.00000000
_symmetry_Int_Tables_number   1
_chemical_formula_structural   Ta16Be2GaFeTe16
_chemical_formula_sum   'Ta16 Be2 Ga1 Fe1 Te16'
_cell_volume   1018.27120694
_cell_formula_units_Z   1
loop_
 _symmetry_equiv_pos_site_id
 _symmetry_equiv_pos_as_xyz
  1  'x, y, z'
loop_
 _atom_site_type_symbol
 _atom_site_label
 _atom_site_symmetry_multiplicity
 _atom_site_fract_x
 _atom_site_fract_y
 _atom_site_fract_z
 _atom_site_occupancy
  Ta  Ta0  1  0.490792  0.597512  0.608115  1
  Ta  Ta1  1  0.490792  0.402488  0.391885  1
  Ta  Ta2  1  0.505826  0.094443  0.895687  1
  Ta  Ta3  1  0.505826  0.905557  0.104313  1
  Ta  Ta4  1  0.008053  0.298678  0.463355  1
  Ta  Ta5  1  0.008053  0.701322  0.536645  1
  Ta  Ta6  1  0.993388  0.802842  0.035903  1
  Ta  Ta7  1  0.993388  0.197158  0.964097  1
  Ta  Ta8  1  0.492053  0.309472  0.555788  1
  Ta  Ta9  1  0.492053  0.690528  0.444212  1
  Ta  Ta10  1  0.506535  0.815757  0.946210  1
  Ta  Ta11  1  0.506535  0.184243  0.053790  1
  Ta  Ta12  1  0.008257  0.435497  0.614231  1
  Ta  Ta13  1  0.008257  0.564503  0.385769  1
  Ta  Ta14  1  0.994304  0.936669  0.888378  1
  Ta  Ta15  1  0.994304  0.063331  0.111622  1
  Be  Be16  1  0.251176  0.500000  0.500000  1
  Be  Be17  1  0.749847  0.000000  0.000000  1
  Ga  Ga18  1  0.745705  0.500000  0.500000  1
  Fe  Fe19  1  0.250060  0.000000  0.000000  1
  Te  Te20  1  0.998352  0.665915  0.683605  1
  Te  Te21  1  0.998352  0.334085  0.316395  1
  Te  Te22  1  0.005431  0.164996  0.817161  1
  Te  Te23  1  0.005431  0.835004  0.182839  1
  Te  Te24  1  0.502252  0.388642  0.696706  1
  Te  Te25  1  0.502252  0.611358  0.303294  1
  Te  Te26  1  0.494883  0.889521  0.804218  1
  Te  Te27  1  0.494883  0.110479  0.195782  1
  Te  Te28  1  0.502315  0.153917  0.436999  1
  Te  Te29  1  0.502315  0.846083  0.563001  1
  Te  Te30  1  0.494438  0.655034  0.063068  1
  Te  Te31  1  0.494438  0.344966  0.936932  1
  Te  Te32  1  0.005683  0.322525  0.094103  1
  Te  Te33  1  0.005683  0.677475  0.905897  1
  Te  Te34  1  0.999045  0.823511  0.405489  1
  Te  Te35  1  0.999045  0.176489  0.594511  1
