# generated using pymatgen
data_Y10Ho9ErPb16
_symmetry_space_group_name_H-M   'P 1'
_cell_length_a   8.21076300
_cell_length_b   8.27331306
_cell_length_c   15.63054300
_cell_angle_alpha   90.00267827
_cell_angle_beta   89.99914913
_cell_angle_gamma   90.00602097
_symmetry_Int_Tables_number   1
_chemical_formula_structural   Y10Ho9ErPb16
_chemical_formula_sum   'Y10 Ho9 Er1 Pb16'
_cell_volume   1061.78610437
_cell_formula_units_Z   1
loop_
 _symmetry_equiv_pos_site_id
 _symmetry_equiv_pos_as_xyz
  1  'x, y, z'
loop_
 _atom_site_type_symbol
 _atom_site_label
 _atom_site_symmetry_multiplicity
 _atom_site_fract_x
 _atom_site_fract_y
 _atom_site_fract_z
 _atom_site_occupancy
  Y  Y0  1  0.377186  0.841823  0.620842  1
  Y  Y1  1  0.877201  0.658280  0.878947  1
  Y  Y2  1  0.536030  0.324580  0.899971  1
  Y  Y3  1  0.036085  0.175440  0.599888  1
  Y  Y4  1  0.463743  0.675644  0.399790  1
  Y  Y5  1  0.964139  0.824871  0.100196  1
  Y  Y6  1  0.463778  0.675687  0.100118  1
  Y  Y7  1  0.964183  0.824821  0.399891  1
  Y  Y8  1  0.536029  0.324633  0.600038  1
  Y  Y9  1  0.036097  0.175385  0.900107  1
  Ho  Ho10  1  0.377211  0.841779  0.879143  1
  Ho  Ho11  1  0.877220  0.658320  0.621068  1
  Ho  Ho12  1  0.622543  0.158024  0.378727  1
  Ho  Ho13  1  0.122981  0.341656  0.121232  1
  Ho  Ho14  1  0.622558  0.158047  0.121309  1
  Ho  Ho15  1  0.122989  0.341633  0.378731  1
  Ho  Ho16  1  0.209514  0.504012  0.749983  1
  Ho  Ho17  1  0.709489  0.996037  0.750016  1
  Ho  Ho18  1  0.790514  0.495857  0.249999  1
  Er  Er19  1  0.290369  0.004543  0.250005  1
  Pb  Pb20  1  0.281556  0.033419  0.043466  1
  Pb  Pb21  1  0.781442  0.466009  0.457061  1
  Pb  Pb22  1  0.718904  0.966273  0.542706  1
  Pb  Pb23  1  0.218764  0.533636  0.957275  1
  Pb  Pb24  1  0.718477  0.966520  0.957316  1
  Pb  Pb25  1  0.218334  0.533389  0.542709  1
  Pb  Pb26  1  0.281439  0.033580  0.456367  1
  Pb  Pb27  1  0.781326  0.465845  0.043109  1
  Pb  Pb28  1  0.572527  0.625805  0.750049  1
  Pb  Pb29  1  0.072665  0.874372  0.749951  1
  Pb  Pb30  1  0.426995  0.373779  0.250003  1
  Pb  Pb31  1  0.927977  0.125121  0.249993  1
  Pb  Pb32  1  0.348348  0.153243  0.750078  1
  Pb  Pb33  1  0.848455  0.346585  0.749920  1
  Pb  Pb34  1  0.650827  0.846945  0.249996  1
  Pb  Pb35  1  0.152104  0.654408  0.250004  1
