# generated using pymatgen
data_Nd3Tm2Pa(Al3Os)8
_symmetry_space_group_name_H-M   'P 1'
_cell_length_a   8.83473200
_cell_length_b   8.87109370
_cell_length_c   9.60639300
_cell_angle_alpha   90.00000000
_cell_angle_beta   90.00000000
_cell_angle_gamma   119.86450941
_symmetry_Int_Tables_number   1
_chemical_formula_structural   Nd3Tm2Pa(Al3Os)8
_chemical_formula_sum   'Nd3 Tm2 Pa1 Al24 Os8'
_cell_volume   652.90929168
_cell_formula_units_Z   1
loop_
 _symmetry_equiv_pos_site_id
 _symmetry_equiv_pos_as_xyz
  1  'x, y, z'
loop_
 _atom_site_type_symbol
 _atom_site_label
 _atom_site_symmetry_multiplicity
 _atom_site_fract_x
 _atom_site_fract_y
 _atom_site_fract_z
 _atom_site_occupancy
  Nd  Nd0  1  0.809426  0.618851  0.750000  1
  Nd  Nd1  1  0.384805  0.190800  0.750000  1
  Nd  Nd2  1  0.805994  0.190800  0.750000  1
  Tm  Tm3  1  0.607502  0.800823  0.250000  1
  Tm  Tm4  1  0.193322  0.800823  0.250000  1
  Pa  Pa5  1  0.197065  0.394129  0.250000  1
  Al  Al6  1  0.336749  0.673498  0.021346  1
  Al  Al7  1  0.667652  0.335303  0.987132  1
  Al  Al8  1  0.667652  0.335303  0.512868  1
  Al  Al9  1  0.336749  0.673498  0.478654  1
  Al  Al10  1  0.164067  0.328136  0.573088  1
  Al  Al11  1  0.837383  0.674768  0.421357  1
  Al  Al12  1  0.671058  0.835101  0.570003  1
  Al  Al13  1  0.837383  0.674768  0.078643  1
  Al  Al14  1  0.325364  0.161186  0.420602  1
  Al  Al15  1  0.164067  0.328136  0.926912  1
  Al  Al16  1  0.164043  0.835101  0.570003  1
  Al  Al17  1  0.325364  0.161186  0.079398  1
  Al  Al18  1  0.835822  0.161186  0.420602  1
  Al  Al19  1  0.671058  0.835101  0.929997  1
  Al  Al20  1  0.835822  0.161186  0.079398  1
  Al  Al21  1  0.164043  0.835101  0.929997  1
  Al  Al22  1  0.558566  0.117133  0.250000  1
  Al  Al23  1  0.436184  0.872368  0.750000  1
  Al  Al24  1  0.873614  0.438248  0.250000  1
  Al  Al25  1  0.123978  0.561749  0.750000  1
  Al  Al26  1  0.564634  0.438248  0.250000  1
  Al  Al27  1  0.437772  0.561749  0.750000  1
  Al  Al28  1  0.000421  0.000843  0.250000  1
  Al  Al29  1  0.000354  0.000707  0.750000  1
  Os  Os30  1  0.500550  0.001099  0.001315  1
  Os  Os31  1  0.005724  0.501108  0.007876  1
  Os  Os32  1  0.500550  0.001099  0.498685  1
  Os  Os33  1  0.495385  0.501108  0.007876  1
  Os  Os34  1  0.005724  0.501108  0.492124  1
  Os  Os35  1  0.495385  0.501108  0.492124  1
  Os  Os36  1  0.999386  0.998772  0.000347  1
  Os  Os37  1  0.999386  0.998772  0.499653  1
