# generated using pymatgen
data_HoCoCuNiP2
_symmetry_space_group_name_H-M   'P 1'
_cell_length_a   3.76281300
_cell_length_b   10.62308700
_cell_length_c   12.28489600
_cell_angle_alpha   90.00000000
_cell_angle_beta   90.00000000
_cell_angle_gamma   90.00000000
_symmetry_Int_Tables_number   1
_chemical_formula_structural   HoCoCuNiP2
_chemical_formula_sum   'Ho6 Co6 Cu6 Ni6 P12'
_cell_volume   491.06033782
_cell_formula_units_Z   6
loop_
 _symmetry_equiv_pos_site_id
 _symmetry_equiv_pos_as_xyz
  1  'x, y, z'
loop_
 _atom_site_type_symbol
 _atom_site_label
 _atom_site_symmetry_multiplicity
 _atom_site_fract_x
 _atom_site_fract_y
 _atom_site_fract_z
 _atom_site_occupancy
  Ho  Ho0  1  0.000000  0.500000  0.523829  1
  Ho  Ho1  1  0.500000  0.000000  0.476171  1
  Ho  Ho2  1  0.500000  0.816933  0.202750  1
  Ho  Ho3  1  0.500000  0.183067  0.202750  1
  Ho  Ho4  1  0.000000  0.683067  0.797250  1
  Ho  Ho5  1  0.000000  0.316933  0.797250  1
  Co  Co6  1  0.000000  0.500000  0.987659  1
  Co  Co7  1  0.500000  0.000000  0.012341  1
  Co  Co8  1  0.500000  0.334546  0.996022  1
  Co  Co9  1  0.500000  0.665454  0.996022  1
  Co  Co10  1  0.000000  0.165454  0.003978  1
  Co  Co11  1  0.000000  0.834546  0.003978  1
  Cu  Cu12  1  0.500000  0.300346  0.429743  1
  Cu  Cu13  1  0.500000  0.699654  0.429743  1
  Cu  Cu14  1  0.000000  0.199654  0.570257  1
  Cu  Cu15  1  0.000000  0.800346  0.570257  1
  Cu  Cu16  1  0.500000  0.500000  0.155168  1
  Cu  Cu17  1  0.000000  0.000000  0.844832  1
  Ni  Ni18  1  0.500000  0.878452  0.713772  1
  Ni  Ni19  1  0.500000  0.121548  0.713772  1
  Ni  Ni20  1  0.000000  0.621548  0.286228  1
  Ni  Ni21  1  0.000000  0.378452  0.286228  1
  Ni  Ni22  1  0.500000  0.500000  0.706865  1
  Ni  Ni23  1  0.000000  0.000000  0.293135  1
  P  P24  1  0.500000  0.318818  0.621739  1
  P  P25  1  0.500000  0.681182  0.621739  1
  P  P26  1  0.000000  0.181182  0.378261  1
  P  P27  1  0.000000  0.818818  0.378261  1
  P  P28  1  0.500000  0.500000  0.883829  1
  P  P29  1  0.000000  0.000000  0.116171  1
  P  P30  1  0.500000  0.841553  0.898574  1
  P  P31  1  0.500000  0.158447  0.898574  1
  P  P32  1  0.000000  0.658447  0.101426  1
  P  P33  1  0.000000  0.341553  0.101426  1
  P  P34  1  0.500000  0.500000  0.342617  1
  P  P35  1  0.000000  0.000000  0.657383  1
