# generated using pymatgen
data_Rb6Rh2O9
_symmetry_space_group_name_H-M   'P 1'
_cell_length_a   8.73516752
_cell_length_b   8.73516754
_cell_length_c   11.12556170
_cell_angle_alpha   67.98039128
_cell_angle_beta   67.98038629
_cell_angle_gamma   92.50215991
_symmetry_Int_Tables_number   1
_chemical_formula_structural   Rb6Rh2O9
_chemical_formula_sum   'Rb12 Rh4 O18'
_cell_volume   712.62624486
_cell_formula_units_Z   2
loop_
 _symmetry_equiv_pos_site_id
 _symmetry_equiv_pos_as_xyz
  1  'x, y, z'
loop_
 _atom_site_type_symbol
 _atom_site_label
 _atom_site_symmetry_multiplicity
 _atom_site_fract_x
 _atom_site_fract_y
 _atom_site_fract_z
 _atom_site_occupancy
  Rb  Rb0  1  0.496055  0.708149  0.025577  1
  Rb  Rb1  1  0.291851  0.503945  0.474423  1
  Rb  Rb2  1  0.503945  0.291851  0.974423  1
  Rb  Rb3  1  0.708149  0.496055  0.525577  1
  Rb  Rb4  1  0.003330  0.703692  0.033852  1
  Rb  Rb5  1  0.296308  0.996670  0.466148  1
  Rb  Rb6  1  0.996670  0.296308  0.966148  1
  Rb  Rb7  1  0.703692  0.003330  0.533852  1
  Rb  Rb8  1  0.094484  0.315499  0.268616  1
  Rb  Rb9  1  0.684501  0.905516  0.231384  1
  Rb  Rb10  1  0.905516  0.684501  0.731384  1
  Rb  Rb11  1  0.315499  0.094484  0.768616  1
  Rh  Rh12  1  0.374598  0.625402  0.750000  1
  Rh  Rh13  1  0.625402  0.374598  0.250000  1
  Rh  Rh14  1  0.144634  0.855366  0.250000  1
  Rh  Rh15  1  0.855366  0.144634  0.750000  1
  O  O16  1  0.096564  0.631428  0.280783  1
  O  O17  1  0.368572  0.903436  0.219217  1
  O  O18  1  0.903436  0.368572  0.719217  1
  O  O19  1  0.631428  0.096564  0.780783  1
  O  O20  1  0.882665  0.013815  0.910911  1
  O  O21  1  0.986185  0.117335  0.589089  1
  O  O22  1  0.117335  0.986185  0.089089  1
  O  O23  1  0.013815  0.882665  0.410911  1
  O  O24  1  0.670418  0.576804  0.258682  1
  O  O25  1  0.423196  0.329582  0.241318  1
  O  O26  1  0.329582  0.423196  0.741318  1
  O  O27  1  0.576804  0.670418  0.758682  1
  O  O28  1  0.513853  0.262403  0.460547  1
  O  O29  1  0.737597  0.486147  0.039453  1
  O  O30  1  0.486147  0.737597  0.539453  1
  O  O31  1  0.262403  0.513853  0.960547  1
  O  O32  1  0.228190  0.771810  0.750000  1
  O  O33  1  0.771810  0.228190  0.250000  1
