# generated using pymatgen
data_Li4La3SmAu4
_symmetry_space_group_name_H-M   'P 1'
_cell_length_a   4.22538900
_cell_length_b   7.50222262
_cell_length_c   9.13736500
_cell_angle_alpha   90.24506239
_cell_angle_beta   90.00000000
_cell_angle_gamma   90.00000000
_symmetry_Int_Tables_number   1
_chemical_formula_structural   Li4La3SmAu4
_chemical_formula_sum   'Li4 La3 Sm1 Au4'
_cell_volume   289.65007532
_cell_formula_units_Z   1
loop_
 _symmetry_equiv_pos_site_id
 _symmetry_equiv_pos_as_xyz
  1  'x, y, z'
loop_
 _atom_site_type_symbol
 _atom_site_label
 _atom_site_symmetry_multiplicity
 _atom_site_fract_x
 _atom_site_fract_y
 _atom_site_fract_z
 _atom_site_occupancy
  Li  Li0  1  0.750000  0.378571  0.054088  1
  Li  Li1  1  0.250000  0.620874  0.940012  1
  Li  Li2  1  0.750000  0.877751  0.445957  1
  Li  Li3  1  0.250000  0.124560  0.558533  1
  La  La4  1  0.250000  0.046810  0.185309  1
  La  La5  1  0.750000  0.956276  0.810119  1
  La  La6  1  0.250000  0.545027  0.317464  1
  Sm  Sm7  1  0.750000  0.453135  0.685222  1
  Au  Au8  1  0.250000  0.743770  0.618434  1
  Au  Au9  1  0.750000  0.248858  0.390954  1
  Au  Au10  1  0.250000  0.256380  0.880568  1
  Au  Au11  1  0.750000  0.747988  0.113338  1
