# generated using pymatgen
data_Er17Tm3(Ir2Rh)4
_symmetry_space_group_name_H-M   'P 1'
_cell_length_a   10.76419800
_cell_length_b   10.76419800
_cell_length_c   6.33060500
_cell_angle_alpha   90.00000000
_cell_angle_beta   90.00000000
_cell_angle_gamma   90.00000000
_symmetry_Int_Tables_number   1
_chemical_formula_structural   Er17Tm3(Ir2Rh)4
_chemical_formula_sum   'Er17 Tm3 Ir8 Rh4'
_cell_volume   733.51427795
_cell_formula_units_Z   1
loop_
 _symmetry_equiv_pos_site_id
 _symmetry_equiv_pos_as_xyz
  1  'x, y, z'
loop_
 _atom_site_type_symbol
 _atom_site_label
 _atom_site_symmetry_multiplicity
 _atom_site_fract_x
 _atom_site_fract_y
 _atom_site_fract_z
 _atom_site_occupancy
  Er  Er0  1  0.290598  0.088346  0.378036  1
  Er  Er1  1  0.290497  0.911702  0.878238  1
  Er  Er2  1  0.709503  0.088298  0.878238  1
  Er  Er3  1  0.709402  0.911654  0.378036  1
  Er  Er4  1  0.588302  0.790472  0.878212  1
  Er  Er5  1  0.588287  0.209515  0.378093  1
  Er  Er6  1  0.411713  0.790485  0.378093  1
  Er  Er7  1  0.411698  0.209528  0.878212  1
  Er  Er8  1  0.209515  0.411713  0.621907  1
  Er  Er9  1  0.209528  0.588302  0.121788  1
  Er  Er10  1  0.790472  0.411698  0.121788  1
  Er  Er11  1  0.790485  0.588287  0.621907  1
  Er  Er12  1  0.911702  0.709503  0.121762  1
  Er  Er13  1  0.911654  0.290598  0.621964  1
  Er  Er14  1  0.088346  0.709402  0.621964  1
  Er  Er15  1  0.088298  0.290497  0.121762  1
  Er  Er16  1  0.000000  0.000000  0.500000  1
  Tm  Tm17  1  0.000000  0.000000  0.000000  1
  Tm  Tm18  1  0.500000  0.500000  0.000000  1
  Tm  Tm19  1  0.500000  0.500000  0.500000  1
  Ir  Ir20  1  0.846051  0.153958  0.249792  1
  Ir  Ir21  1  0.846042  0.846051  0.750208  1
  Ir  Ir22  1  0.153958  0.153949  0.750208  1
  Ir  Ir23  1  0.153949  0.846042  0.249792  1
  Ir  Ir24  1  0.653808  0.346200  0.750000  1
  Ir  Ir25  1  0.653800  0.653808  0.250000  1
  Ir  Ir26  1  0.346200  0.346192  0.250000  1
  Ir  Ir27  1  0.346192  0.653800  0.750000  1
  Rh  Rh28  1  0.500000  0.000000  0.122922  1
  Rh  Rh29  1  0.500000  0.000000  0.622919  1
  Rh  Rh30  1  0.000000  0.500000  0.877078  1
  Rh  Rh31  1  0.000000  0.500000  0.377081  1
