# generated using pymatgen
data_Tb3Pr4ThTe12
_symmetry_space_group_name_H-M   'P 1'
_cell_length_a   4.48522500
_cell_length_b   11.94636770
_cell_length_c   12.26876000
_cell_angle_alpha   90.32711387
_cell_angle_beta   90.00000000
_cell_angle_gamma   90.00000000
_symmetry_Int_Tables_number   1
_chemical_formula_structural   Tb3Pr4ThTe12
_chemical_formula_sum   'Tb3 Pr4 Th1 Te12'
_cell_volume   657.37578867
_cell_formula_units_Z   1
loop_
 _symmetry_equiv_pos_site_id
 _symmetry_equiv_pos_as_xyz
  1  'x, y, z'
loop_
 _atom_site_type_symbol
 _atom_site_label
 _atom_site_symmetry_multiplicity
 _atom_site_fract_x
 _atom_site_fract_y
 _atom_site_fract_z
 _atom_site_occupancy
  Tb  Tb0  1  0.250000  0.310286  0.985467  1
  Tb  Tb1  1  0.750000  0.808823  0.514924  1
  Tb  Tb2  1  0.750000  0.689487  0.014736  1
  Pr  Pr3  1  0.750000  0.508046  0.699252  1
  Pr  Pr4  1  0.750000  0.992966  0.198725  1
  Pr  Pr5  1  0.250000  0.498797  0.298796  1
  Pr  Pr6  1  0.250000  0.001567  0.805324  1
  Th  Th7  1  0.250000  0.190595  0.485617  1
  Te  Te8  1  0.250000  0.627862  0.540087  1
  Te  Te9  1  0.250000  0.870829  0.041478  1
  Te  Te10  1  0.750000  0.376696  0.455463  1
  Te  Te11  1  0.750000  0.128187  0.959946  1
  Te  Te12  1  0.250000  0.300461  0.726774  1
  Te  Te13  1  0.250000  0.200035  0.227187  1
  Te  Te14  1  0.750000  0.702123  0.271731  1
  Te  Te15  1  0.750000  0.798113  0.771666  1
  Te  Te16  1  0.750000  0.053375  0.616131  1
  Te  Te17  1  0.750000  0.445480  0.111835  1
  Te  Te18  1  0.250000  0.942718  0.387054  1
  Te  Te19  1  0.250000  0.553553  0.887807  1
