# generated using pymatgen
data_Tb2PrNd2P12Ru19
_symmetry_space_group_name_H-M   'P 1'
_cell_length_a   4.01015200
_cell_length_b   12.61285025
_cell_length_c   12.60975201
_cell_angle_alpha   119.99541385
_cell_angle_beta   90.00000000
_cell_angle_gamma   90.00000000
_symmetry_Int_Tables_number   1
_chemical_formula_structural   Tb2PrNd2P12Ru19
_chemical_formula_sum   'Tb2 Pr1 Nd2 P12 Ru19'
_cell_volume   552.37157184
_cell_formula_units_Z   1
loop_
 _symmetry_equiv_pos_site_id
 _symmetry_equiv_pos_as_xyz
  1  'x, y, z'
loop_
 _atom_site_type_symbol
 _atom_site_label
 _atom_site_symmetry_multiplicity
 _atom_site_fract_x
 _atom_site_fract_y
 _atom_site_fract_z
 _atom_site_occupancy
  Tb  Tb0  1  0.000000  0.333054  0.666769  1
  Tb  Tb1  1  0.000000  0.666943  0.333705  1
  Pr  Pr2  1  0.500000  0.999992  0.183884  1
  Nd  Nd3  1  0.500000  0.183945  0.000059  1
  Nd  Nd4  1  0.500000  0.816055  0.816123  1
  P  P5  1  0.000000  0.999995  0.812336  1
  P  P6  1  0.000000  0.811357  0.999259  1
  P  P7  1  0.000000  0.188635  0.187898  1
  P  P8  1  0.500000  0.305100  0.478205  1
  P  P9  1  0.500000  0.172838  0.694832  1
  P  P10  1  0.500000  0.521283  0.826681  1
  P  P11  1  0.500000  0.827157  0.521989  1
  P  P12  1  0.500000  0.478713  0.305387  1
  P  P13  1  0.500000  0.694889  0.173090  1
  P  P14  1  0.000000  0.999999  0.374691  1
  P  P15  1  0.000000  0.374141  0.999897  1
  P  P16  1  0.000000  0.625843  0.625744  1
  Ru  Ru17  1  0.000000  0.999996  0.554505  1
  Ru  Ru18  1  0.000000  0.553713  0.999382  1
  Ru  Ru19  1  0.000000  0.446283  0.445666  1
  Ru  Ru20  1  0.500000  0.000000  0.713850  1
  Ru  Ru21  1  0.500000  0.713054  0.999514  1
  Ru  Ru22  1  0.500000  0.286943  0.286460  1
  Ru  Ru23  1  0.000000  0.195764  0.380707  1
  Ru  Ru24  1  0.000000  0.185030  0.804955  1
  Ru  Ru25  1  0.000000  0.619177  0.814354  1
  Ru  Ru26  1  0.000000  0.814961  0.619920  1
  Ru  Ru27  1  0.000000  0.380814  0.195175  1
  Ru  Ru28  1  0.000000  0.804232  0.184936  1
  Ru  Ru29  1  0.500000  0.125597  0.493115  1
  Ru  Ru30  1  0.500000  0.367075  0.874337  1
  Ru  Ru31  1  0.500000  0.506771  0.632361  1
  Ru  Ru32  1  0.500000  0.632924  0.507260  1
  Ru  Ru33  1  0.500000  0.493228  0.125586  1
  Ru  Ru34  1  0.500000  0.874402  0.367513  1
  Ru  Ru35  1  0.000000  0.999996  0.999855  1
