# generated using pymatgen
data_Ho19ErSi15Rh
_symmetry_space_group_name_H-M   'P 1'
_cell_length_a   7.40059964
_cell_length_b   7.64409674
_cell_length_c   14.50984725
_cell_angle_alpha   89.73094519
_cell_angle_beta   89.70551241
_cell_angle_gamma   90.19132637
_symmetry_Int_Tables_number   1
_chemical_formula_structural   Ho19ErSi15Rh
_chemical_formula_sum   'Ho19 Er1 Si15 Rh1'
_cell_volume   820.81057647
_cell_formula_units_Z   1
loop_
 _symmetry_equiv_pos_site_id
 _symmetry_equiv_pos_as_xyz
  1  'x, y, z'
loop_
 _atom_site_type_symbol
 _atom_site_label
 _atom_site_symmetry_multiplicity
 _atom_site_fract_x
 _atom_site_fract_y
 _atom_site_fract_z
 _atom_site_occupancy
  Ho  Ho0  1  0.149103  0.510624  0.247635  1
  Ho  Ho1  1  0.847123  0.488466  0.757596  1
  Ho  Ho2  1  0.351275  0.010605  0.751802  1
  Ho  Ho3  1  0.974408  0.816493  0.097381  1
  Ho  Ho4  1  0.472686  0.682196  0.401818  1
  Ho  Ho5  1  0.528061  0.322664  0.901046  1
  Ho  Ho6  1  0.027808  0.183602  0.599048  1
  Ho  Ho7  1  0.026722  0.184767  0.902136  1
  Ho  Ho8  1  0.528106  0.318345  0.598404  1
  Ho  Ho9  1  0.475447  0.681259  0.098477  1
  Ho  Ho10  1  0.971741  0.817664  0.401210  1
  Ho  Ho11  1  0.682775  0.812135  0.881916  1
  Ho  Ho12  1  0.178576  0.681061  0.622152  1
  Ho  Ho13  1  0.818033  0.332898  0.118689  1
  Ho  Ho14  1  0.317491  0.178146  0.376040  1
  Ho  Ho15  1  0.321714  0.179126  0.123564  1
  Ho  Ho16  1  0.820041  0.319426  0.377239  1
  Ho  Ho17  1  0.175713  0.675642  0.878210  1
  Ho  Ho18  1  0.682212  0.819289  0.622734  1
  Er  Er19  1  0.649509  0.992081  0.248894  1
  Si  Si20  1  0.766179  0.629675  0.251809  1
  Si  Si21  1  0.267706  0.871905  0.250686  1
  Si  Si22  1  0.731566  0.124660  0.748655  1
  Si  Si23  1  0.233470  0.372414  0.746766  1
  Si  Si24  1  0.020425  0.105888  0.249138  1
  Si  Si25  1  0.523608  0.396178  0.251403  1
  Si  Si26  1  0.472200  0.605616  0.746915  1
  Si  Si27  1  0.976659  0.897395  0.748552  1
  Si  Si28  1  0.352807  0.971486  0.539705  1
  Si  Si29  1  0.647880  0.027985  0.041631  1
  Si  Si30  1  0.148699  0.470216  0.460155  1
  Si  Si31  1  0.155474  0.471717  0.041003  1
  Si  Si32  1  0.645579  0.028591  0.459667  1
  Si  Si33  1  0.352011  0.969579  0.960899  1
  Si  Si34  1  0.853279  0.528917  0.538960  1
  Rh  Rh35  1  0.853917  0.521288  0.958064  1
