# generated using pymatgen
data_Ba2YEr(SbAu)4
_symmetry_space_group_name_H-M   'P 1'
_cell_length_a   4.65856900
_cell_length_b   4.65856880
_cell_length_c   17.98527200
_cell_angle_alpha   90.00000000
_cell_angle_beta   90.00000000
_cell_angle_gamma   120.00002274
_symmetry_Int_Tables_number   1
_chemical_formula_structural   Ba2YEr(SbAu)4
_chemical_formula_sum   'Ba2 Y1 Er1 Sb4 Au4'
_cell_volume   338.02793193
_cell_formula_units_Z   1
loop_
 _symmetry_equiv_pos_site_id
 _symmetry_equiv_pos_as_xyz
  1  'x, y, z'
loop_
 _atom_site_type_symbol
 _atom_site_label
 _atom_site_symmetry_multiplicity
 _atom_site_fract_x
 _atom_site_fract_y
 _atom_site_fract_z
 _atom_site_occupancy
  Ba  Ba0  1  0.000000  0.000000  0.499393  1
  Ba  Ba1  1  0.000000  0.000000  0.000607  1
  Y  Y2  1  0.000000  0.000000  0.750000  1
  Er  Er3  1  0.000000  0.000000  0.250000  1
  Sb  Sb4  1  0.333333  0.666667  0.372306  1
  Sb  Sb5  1  0.666667  0.333333  0.627268  1
  Sb  Sb6  1  0.666667  0.333333  0.872732  1
  Sb  Sb7  1  0.333333  0.666667  0.127694  1
  Au  Au8  1  0.666667  0.333333  0.332153  1
  Au  Au9  1  0.333333  0.666667  0.666389  1
  Au  Au10  1  0.333333  0.666667  0.833611  1
  Au  Au11  1  0.666667  0.333333  0.167847  1
