# generated using pymatgen
data_Pr9NdOsRu3
_symmetry_space_group_name_H-M   'P 1'
_cell_length_a   8.92450654
_cell_length_b   8.93307652
_cell_length_c   7.45584001
_cell_angle_alpha   83.80654774
_cell_angle_beta   83.83901460
_cell_angle_gamma   43.92915000
_symmetry_Int_Tables_number   1
_chemical_formula_structural   Pr9NdOsRu3
_chemical_formula_sum   'Pr9 Nd1 Os1 Ru3'
_cell_volume   409.59354696
_cell_formula_units_Z   1
loop_
 _symmetry_equiv_pos_site_id
 _symmetry_equiv_pos_as_xyz
  1  'x, y, z'
loop_
 _atom_site_type_symbol
 _atom_site_label
 _atom_site_symmetry_multiplicity
 _atom_site_fract_x
 _atom_site_fract_y
 _atom_site_fract_z
 _atom_site_occupancy
  Pr  Pr0  1  0.018705  0.796598  0.915452  1
  Pr  Pr1  1  0.203052  0.979457  0.586530  1
  Pr  Pr2  1  0.980896  0.203196  0.086364  1
  Pr  Pr3  1  0.795842  0.019391  0.414169  1
  Pr  Pr4  1  0.358695  0.209174  0.814103  1
  Pr  Pr5  1  0.794509  0.640188  0.684026  1
  Pr  Pr6  1  0.639316  0.792621  0.185120  1
  Pr  Pr7  1  0.207655  0.358790  0.314426  1
  Pr  Pr8  1  0.574816  0.425030  0.749700  1
  Nd  Nd9  1  0.424905  0.574594  0.251162  1
  Os  Os10  1  0.177982  0.602249  0.574482  1
  Ru  Ru11  1  0.396847  0.824821  0.925619  1
  Ru  Ru12  1  0.825337  0.396821  0.423508  1
  Ru  Ru13  1  0.601441  0.177070  0.075339  1
