# generated using pymatgen
data_Li12Pr12ReTe7O48
_symmetry_space_group_name_H-M   'P 1'
_cell_length_a   11.02465985
_cell_length_b   10.98339098
_cell_length_c   11.02466065
_cell_angle_alpha   109.39541229
_cell_angle_beta   109.54692191
_cell_angle_gamma   109.39540992
_symmetry_Int_Tables_number   1
_chemical_formula_structural   Li12Pr12ReTe7O48
_chemical_formula_sum   'Li12 Pr12 Re1 Te7 O48'
_cell_volume   1028.60932832
_cell_formula_units_Z   1
loop_
 _symmetry_equiv_pos_site_id
 _symmetry_equiv_pos_as_xyz
  1  'x, y, z'
loop_
 _atom_site_type_symbol
 _atom_site_label
 _atom_site_symmetry_multiplicity
 _atom_site_fract_x
 _atom_site_fract_y
 _atom_site_fract_z
 _atom_site_occupancy
  Li  Li0  1  0.874612  0.749901  0.124799  1
  Li  Li1  1  0.249754  0.874027  0.125655  1
  Li  Li2  1  0.875902  0.124272  0.250247  1
  Li  Li3  1  0.375202  0.625102  0.249814  1
  Li  Li4  1  0.749814  0.624712  0.374610  1
  Li  Li5  1  0.625655  0.251630  0.375902  1
  Li  Li6  1  0.374345  0.748371  0.624098  1
  Li  Li7  1  0.250186  0.375289  0.625389  1
  Li  Li8  1  0.124100  0.875728  0.749753  1
  Li  Li9  1  0.624797  0.374898  0.750186  1
  Li  Li10  1  0.125390  0.250101  0.875202  1
  Li  Li11  1  0.750247  0.125975  0.874347  1
  Pr  Pr12  1  0.748751  0.372381  0.124561  1
  Pr  Pr13  1  0.375438  0.247819  0.124190  1
  Pr  Pr14  1  0.624190  0.876370  0.248749  1
  Pr  Pr15  1  0.125272  0.374965  0.249928  1
  Pr  Pr16  1  0.250072  0.125039  0.375344  1
  Pr  Pr17  1  0.124656  0.749693  0.374729  1
  Pr  Pr18  1  0.749926  0.874961  0.624654  1
  Pr  Pr19  1  0.875345  0.250308  0.625272  1
  Pr  Pr20  1  0.375811  0.123628  0.751248  1
  Pr  Pr21  1  0.874728  0.625035  0.750073  1
  Pr  Pr22  1  0.251249  0.627619  0.875438  1
  Pr  Pr23  1  0.624562  0.752181  0.875811  1
  Re  Re24  1  0.500002  0.000000  0.000000  1
  Te  Te25  1  0.000000  0.000000  0.000000  1
  Te  Te26  1  0.500000  0.500001  0.000000  1
  Te  Te27  1  0.000000  0.500002  0.000000  1
  Te  Te28  1  0.000000  0.000000  0.499999  1
  Te  Te29  1  0.499999  0.499999  0.499999  1
  Te  Te30  1  0.500000  0.000000  0.500000  1
  Te  Te31  1  0.000000  0.500001  0.500000  1
  O  O32  1  0.906430  0.328922  0.022361  1
  O  O33  1  0.116462  0.193055  0.022428  1
  O  O34  1  0.407125  0.885498  0.077320  1
  O  O35  1  0.670381  0.693292  0.076468  1
  O  O36  1  0.670196  0.978375  0.092876  1
  O  O37  1  0.423534  0.616824  0.093912  1
  O  O38  1  0.922758  0.593371  0.116005  1
  O  O39  1  0.192936  0.021528  0.115631  1
  O  O40  1  0.577318  0.191822  0.170196  1
  O  O41  1  0.593913  0.477089  0.170380  1
  O  O42  1  0.170811  0.576908  0.192825  1
  O  O43  1  0.022345  0.115952  0.192909  1
  O  O44  1  0.383995  0.477366  0.306751  1
  O  O45  1  0.922695  0.328593  0.307064  1
  O  O46  1  0.307090  0.923043  0.329438  1
  O  O47  1  0.022015  0.906096  0.329189  1
  O  O48  1  0.905967  0.576595  0.383538  1
  O  O49  1  0.477639  0.306561  0.384068  1
  O  O50  1  0.522429  0.829373  0.405966  1
  O  O51  1  0.884067  0.077506  0.406429  1
  O  O52  1  0.806752  0.829387  0.422757  1
  O  O53  1  0.615632  0.094103  0.422696  1
  O  O54  1  0.307174  0.384082  0.477984  1
  O  O55  1  0.170561  0.593607  0.477654  1
  O  O56  1  0.692825  0.615918  0.522014  1
  O  O57  1  0.829438  0.406394  0.522346  1
  O  O58  1  0.193250  0.170615  0.577244  1
  O  O59  1  0.384369  0.905897  0.577305  1
  O  O60  1  0.115933  0.922493  0.593571  1
  O  O61  1  0.477572  0.170628  0.594034  1
  O  O62  1  0.522362  0.693439  0.615933  1
  O  O63  1  0.094034  0.423405  0.616463  1
  O  O64  1  0.977985  0.093904  0.670810  1
  O  O65  1  0.692908  0.076955  0.670561  1
  O  O66  1  0.616005  0.522634  0.693248  1
  O  O67  1  0.077306  0.671409  0.692936  1
  O  O68  1  0.977653  0.884047  0.807090  1
  O  O69  1  0.829188  0.423092  0.807175  1
  O  O70  1  0.406086  0.522912  0.829621  1
  O  O71  1  0.422682  0.808177  0.829804  1
  O  O72  1  0.807064  0.978471  0.884368  1
  O  O73  1  0.077244  0.406630  0.883995  1
  O  O74  1  0.576467  0.383175  0.906087  1
  O  O75  1  0.329804  0.021626  0.907123  1
  O  O76  1  0.329620  0.306708  0.923534  1
  O  O77  1  0.592877  0.114504  0.922681  1
  O  O78  1  0.093571  0.671079  0.977637  1
  O  O79  1  0.883538  0.806944  0.977572  1
