# generated using pymatgen
data_Y6Er2VOs3C8
_symmetry_space_group_name_H-M   'P 1'
_cell_length_a   5.09741400
_cell_length_b   6.53802283
_cell_length_c   9.80218548
_cell_angle_alpha   89.84205874
_cell_angle_beta   90.00000000
_cell_angle_gamma   90.00000000
_symmetry_Int_Tables_number   1
_chemical_formula_structural   Y6Er2VOs3C8
_chemical_formula_sum   'Y6 Er2 V1 Os3 C8'
_cell_volume   326.67628386
_cell_formula_units_Z   1
loop_
 _symmetry_equiv_pos_site_id
 _symmetry_equiv_pos_as_xyz
  1  'x, y, z'
loop_
 _atom_site_type_symbol
 _atom_site_label
 _atom_site_symmetry_multiplicity
 _atom_site_fract_x
 _atom_site_fract_y
 _atom_site_fract_z
 _atom_site_occupancy
  Y  Y0  1  0.250000  0.683629  0.557122  1
  Y  Y1  1  0.250000  0.176106  0.943344  1
  Y  Y2  1  0.250000  0.533207  0.211642  1
  Y  Y3  1  0.750000  0.467370  0.780534  1
  Y  Y4  1  0.750000  0.972957  0.715853  1
  Y  Y5  1  0.250000  0.029763  0.284660  1
  Er  Er6  1  0.750000  0.323140  0.443764  1
  Er  Er7  1  0.750000  0.821526  0.055878  1
  V  V8  1  0.250000  0.724171  0.865842  1
  Os  Os9  1  0.750000  0.276405  0.135824  1
  Os  Os10  1  0.750000  0.775614  0.363677  1
  Os  Os11  1  0.250000  0.226456  0.635172  1
  C  C12  1  0.250000  0.459644  0.762178  1
  C  C13  1  0.750000  0.541527  0.241798  1
  C  C14  1  0.750000  0.041930  0.259736  1
  C  C15  1  0.250000  0.957061  0.741040  1
  C  C16  1  0.250000  0.819291  0.050144  1
  C  C17  1  0.750000  0.173291  0.952726  1
  C  C18  1  0.750000  0.674649  0.549339  1
  C  C19  1  0.250000  0.322264  0.449731  1
