# generated using pymatgen
data_PrDy2Al12Ir3Ru
_symmetry_space_group_name_H-M   'P 1'
_cell_length_a   8.87495146
_cell_length_b   8.83883915
_cell_length_c   9.58336300
_cell_angle_alpha   90.00000000
_cell_angle_beta   90.00000000
_cell_angle_gamma   119.86549442
_symmetry_Int_Tables_number   1
_chemical_formula_structural   PrDy2Al12Ir3Ru
_chemical_formula_sum   'Pr2 Dy4 Al24 Ir6 Ru2'
_cell_volume   651.92377827
_cell_formula_units_Z   2
loop_
 _symmetry_equiv_pos_site_id
 _symmetry_equiv_pos_as_xyz
  1  'x, y, z'
loop_
 _atom_site_type_symbol
 _atom_site_label
 _atom_site_symmetry_multiplicity
 _atom_site_fract_x
 _atom_site_fract_y
 _atom_site_fract_z
 _atom_site_occupancy
  Pr  Pr0  1  0.189904  0.810345  0.250000  1
  Pr  Pr1  1  0.189904  0.379559  0.250000  1
  Dy  Dy2  1  0.614453  0.807226  0.250000  1
  Dy  Dy3  1  0.808490  0.193188  0.750000  1
  Dy  Dy4  1  0.808490  0.615302  0.750000  1
  Dy  Dy5  1  0.385696  0.192848  0.750000  1
  Al  Al6  1  0.564083  0.437660  0.250000  1
  Al  Al7  1  0.564083  0.126423  0.250000  1
  Al  Al8  1  0.871557  0.435779  0.250000  1
  Al  Al9  1  0.439249  0.563250  0.750000  1
  Al  Al10  1  0.439249  0.875999  0.750000  1
  Al  Al11  1  0.124888  0.562444  0.750000  1
  Al  Al12  1  0.328743  0.164372  0.427844  1
  Al  Al13  1  0.834368  0.162025  0.426305  1
  Al  Al14  1  0.834368  0.672344  0.426305  1
  Al  Al15  1  0.674493  0.837246  0.576689  1
  Al  Al16  1  0.163389  0.837351  0.579296  1
  Al  Al17  1  0.163389  0.326037  0.579296  1
  Al  Al18  1  0.674493  0.837246  0.923311  1
  Al  Al19  1  0.163389  0.837351  0.920704  1
  Al  Al20  1  0.163389  0.326037  0.920704  1
  Al  Al21  1  0.328743  0.164372  0.072156  1
  Al  Al22  1  0.834368  0.162025  0.073695  1
  Al  Al23  1  0.834368  0.672344  0.073695  1
  Al  Al24  1  0.667464  0.333731  0.531486  1
  Al  Al25  1  0.334355  0.667178  0.476528  1
  Al  Al26  1  0.334355  0.667178  0.023472  1
  Al  Al27  1  0.667464  0.333731  0.968514  1
  Al  Al28  1  0.993075  0.996538  0.250000  1
  Al  Al29  1  0.000769  0.000384  0.750000  1
  Ir  Ir30  1  0.502159  0.500546  0.501890  1
  Ir  Ir31  1  0.502159  0.001613  0.501890  1
  Ir  Ir32  1  0.998290  0.499145  0.502754  1
  Ir  Ir33  1  0.502159  0.500546  0.998110  1
  Ir  Ir34  1  0.502159  0.001613  0.998110  1
  Ir  Ir35  1  0.998290  0.499145  0.997246  1
  Ru  Ru36  1  0.999879  0.999939  0.500746  1
  Ru  Ru37  1  0.999879  0.999939  0.999254  1
