# generated using pymatgen
data_Ti4Be3SiPt4
_symmetry_space_group_name_H-M   'P 1'
_cell_length_a   3.76930700
_cell_length_b   6.10507449
_cell_length_c   7.23807983
_cell_angle_alpha   90.05051900
_cell_angle_beta   90.00000000
_cell_angle_gamma   90.00000000
_symmetry_Int_Tables_number   1
_chemical_formula_structural   Ti4Be3SiPt4
_chemical_formula_sum   'Ti4 Be3 Si1 Pt4'
_cell_volume   166.56190472
_cell_formula_units_Z   1
loop_
 _symmetry_equiv_pos_site_id
 _symmetry_equiv_pos_as_xyz
  1  'x, y, z'
loop_
 _atom_site_type_symbol
 _atom_site_label
 _atom_site_symmetry_multiplicity
 _atom_site_fract_x
 _atom_site_fract_y
 _atom_site_fract_z
 _atom_site_occupancy
  Ti  Ti0  1  0.250000  0.022780  0.320130  1
  Ti  Ti1  1  0.250000  0.533056  0.181239  1
  Ti  Ti2  1  0.750000  0.971981  0.686707  1
  Ti  Ti3  1  0.750000  0.478943  0.814823  1
  Be  Be4  1  0.250000  0.283293  0.624348  1
  Be  Be5  1  0.250000  0.773949  0.872848  1
  Be  Be6  1  0.750000  0.715893  0.380412  1
  Si  Si7  1  0.750000  0.235999  0.122914  1
  Pt  Pt8  1  0.250000  0.153738  0.921276  1
  Pt  Pt9  1  0.250000  0.667312  0.560100  1
  Pt  Pt10  1  0.750000  0.831826  0.066822  1
  Pt  Pt11  1  0.750000  0.331231  0.448380  1
