# generated using pymatgen
data_RbSe37
_symmetry_space_group_name_H-M   'P 1'
_cell_length_a   12.78763379
_cell_length_b   13.76759013
_cell_length_c   12.98174600
_cell_angle_alpha   103.00376751
_cell_angle_beta   48.80056927
_cell_angle_gamma   81.50743368
_symmetry_Int_Tables_number   1
_chemical_formula_structural   RbSe37
_chemical_formula_sum   'Rb1 Se37'
_cell_volume   1533.02354663
_cell_formula_units_Z   1
loop_
 _symmetry_equiv_pos_site_id
 _symmetry_equiv_pos_as_xyz
  1  'x, y, z'
loop_
 _atom_site_type_symbol
 _atom_site_label
 _atom_site_symmetry_multiplicity
 _atom_site_fract_x
 _atom_site_fract_y
 _atom_site_fract_z
 _atom_site_occupancy
  Rb  Rb0  1  0.500000  0.000000  0.000000  1
  Se  Se1  1  0.847307  0.256847  0.998072  1
  Se  Se2  1  0.152693  0.743153  0.001928  1
  Se  Se3  1  0.740996  0.083086  0.348489  1
  Se  Se4  1  0.259004  0.916914  0.651511  1
  Se  Se5  1  0.160848  0.409707  0.035948  1
  Se  Se6  1  0.839152  0.590293  0.964052  1
  Se  Se7  1  0.775118  0.539086  0.293260  1
  Se  Se8  1  0.224882  0.460914  0.706740  1
  Se  Se9  1  0.628248  0.267827  0.523309  1
  Se  Se10  1  0.371752  0.732173  0.476691  1
  Se  Se11  1  0.131106  0.081770  0.373643  1
  Se  Se12  1  0.868894  0.918230  0.626357  1
  Se  Se13  1  0.006971  0.037695  0.138438  1
  Se  Se14  1  0.993029  0.962305  0.861562  1
  Se  Se15  1  0.025556  0.271420  0.448941  1
  Se  Se16  1  0.974444  0.728580  0.551059  1
  Se  Se17  1  0.649521  0.398922  0.085613  1
  Se  Se18  1  0.350479  0.601078  0.914387  1
  Se  Se19  1  0.238551  0.459652  0.333577  1
  Se  Se20  1  0.761449  0.540348  0.666423  1
  Se  Se21  1  0.000000  0.500000  0.000000  1
  Se  Se22  1  0.646057  0.883067  0.252837  1
  Se  Se23  1  0.353943  0.116933  0.747163  1
  Se  Se24  1  0.220800  0.044420  0.478882  1
  Se  Se25  1  0.779200  0.955580  0.521118  1
  Se  Se26  1  0.472885  0.042238  0.318617  1
  Se  Se27  1  0.527115  0.957762  0.681383  1
  Se  Se28  1  0.154311  0.237829  0.012309  1
  Se  Se29  1  0.845689  0.762171  0.987691  1
  Se  Se30  1  0.593730  0.711124  0.437992  1
  Se  Se31  1  0.406270  0.288876  0.562008  1
  Se  Se32  1  0.861604  0.093576  0.854780  1
  Se  Se33  1  0.138396  0.906424  0.145220  1
  Se  Se34  1  0.210078  0.306316  0.240050  1
  Se  Se35  1  0.789922  0.693684  0.759950  1
  Se  Se36  1  0.578470  0.577576  0.664417  1
  Se  Se37  1  0.421530  0.422424  0.335583  1
