# generated using pymatgen
data_Th3Sn3BiAu3
_symmetry_space_group_name_H-M   'P 1'
_cell_length_a   8.77355673
_cell_length_b   8.81214456
_cell_length_c   8.77355707
_cell_angle_alpha   109.49282106
_cell_angle_beta   109.29074871
_cell_angle_gamma   109.45199869
_symmetry_Int_Tables_number   1
_chemical_formula_structural   Th3Sn3BiAu3
_chemical_formula_sum   'Th6 Sn6 Bi2 Au6'
_cell_volume   523.31220722
_cell_formula_units_Z   2
loop_
 _symmetry_equiv_pos_site_id
 _symmetry_equiv_pos_as_xyz
  1  'x, y, z'
loop_
 _atom_site_type_symbol
 _atom_site_label
 _atom_site_symmetry_multiplicity
 _atom_site_fract_x
 _atom_site_fract_y
 _atom_site_fract_z
 _atom_site_occupancy
  Th  Th0  1  0.882143  0.250000  0.132143  1
  Th  Th1  1  0.625244  0.750000  0.375244  1
  Th  Th2  1  0.245782  0.124710  0.877813  1
  Th  Th3  1  0.753103  0.375290  0.621072  1
  Th  Th4  1  0.128293  0.879649  0.250787  1
  Th  Th5  1  0.371138  0.620351  0.748644  1
  Sn  Sn6  1  0.000016  0.681721  0.500732  1
  Sn  Sn7  1  0.819011  0.818279  0.818294  1
  Sn  Sn8  1  0.497812  0.998187  0.179820  1
  Sn  Sn9  1  0.181633  0.501813  0.999625  1
  Sn  Sn10  1  0.997657  0.179744  0.499675  1
  Sn  Sn11  1  0.319931  0.320256  0.317912  1
  Bi  Bi12  1  0.682877  0.500681  0.000543  1
  Bi  Bi13  1  0.499862  0.999319  0.682196  1
  Au  Au14  1  0.368311  0.250000  0.618311  1
  Au  Au15  1  0.124828  0.750000  0.874828  1
  Au  Au16  1  0.241859  0.616969  0.368729  1
  Au  Au17  1  0.751761  0.883031  0.124891  1
  Au  Au18  1  0.626260  0.373127  0.255608  1
  Au  Au19  1  0.882481  0.126873  0.753133  1
