# generated using pymatgen
data_Nd2GdDy3Ta2O14
_symmetry_space_group_name_H-M   'P 1'
_cell_length_a   6.53143615
_cell_length_b   6.52223890
_cell_length_c   7.62027500
_cell_angle_alpha   90.00000000
_cell_angle_beta   90.00000000
_cell_angle_gamma   109.29438522
_symmetry_Int_Tables_number   1
_chemical_formula_structural   Nd2GdDy3Ta2O14
_chemical_formula_sum   'Nd2 Gd1 Dy3 Ta2 O14'
_cell_volume   306.38771306
_cell_formula_units_Z   1
loop_
 _symmetry_equiv_pos_site_id
 _symmetry_equiv_pos_as_xyz
  1  'x, y, z'
loop_
 _atom_site_type_symbol
 _atom_site_label
 _atom_site_symmetry_multiplicity
 _atom_site_fract_x
 _atom_site_fract_y
 _atom_site_fract_z
 _atom_site_occupancy
  Nd  Nd0  1  0.509346  0.508439  0.501039  1
  Nd  Nd1  1  0.509346  0.508439  0.998961  1
  Gd  Gd2  1  0.468432  0.000759  0.250000  1
  Dy  Dy3  1  0.001757  0.534394  0.250000  1
  Dy  Dy4  1  0.000152  0.465060  0.750000  1
  Dy  Dy5  1  0.533269  0.000874  0.750000  1
  Ta  Ta6  1  0.001479  0.001244  0.500804  1
  Ta  Ta7  1  0.001479  0.001244  0.999196  1
  O  O8  1  0.937208  0.066735  0.750000  1
  O  O9  1  0.059031  0.936076  0.250000  1
  O  O10  1  0.357660  0.640169  0.250000  1
  O  O11  1  0.643480  0.357925  0.750000  1
  O  O12  1  0.363821  0.634704  0.750000  1
  O  O13  1  0.638063  0.368208  0.250000  1
  O  O14  1  0.317128  0.068457  0.964948  1
  O  O15  1  0.677320  0.923718  0.473439  1
  O  O16  1  0.317128  0.068457  0.535052  1
  O  O17  1  0.677320  0.923718  0.026561  1
  O  O18  1  0.061405  0.316070  0.465291  1
  O  O19  1  0.931886  0.679622  0.967763  1
  O  O20  1  0.931886  0.679622  0.532237  1
  O  O21  1  0.061405  0.316070  0.034709  1
