# generated using pymatgen
data_La7Ho2ErSi8O3
_symmetry_space_group_name_H-M   'P 1'
_cell_length_a   10.76187300
_cell_length_b   10.76933283
_cell_length_c   4.53987500
_cell_angle_alpha   90.00000000
_cell_angle_beta   90.00000000
_cell_angle_gamma   119.97709164
_symmetry_Int_Tables_number   1
_chemical_formula_structural   La7Ho2ErSi8O3
_chemical_formula_sum   'La7 Ho2 Er1 Si8 O3'
_cell_volume   455.77593961
_cell_formula_units_Z   1
loop_
 _symmetry_equiv_pos_site_id
 _symmetry_equiv_pos_as_xyz
  1  'x, y, z'
loop_
 _atom_site_type_symbol
 _atom_site_label
 _atom_site_symmetry_multiplicity
 _atom_site_fract_x
 _atom_site_fract_y
 _atom_site_fract_z
 _atom_site_occupancy
  La  La0  1  0.211899  0.788339  0.000000  1
  La  La1  1  0.576440  0.788339  0.000000  1
  La  La2  1  0.788266  0.576532  0.000000  1
  La  La3  1  0.000000  0.000000  0.000000  1
  La  La4  1  0.211734  0.423468  0.000000  1
  La  La5  1  0.423560  0.211661  0.000000  1
  La  La6  1  0.788101  0.211661  0.000000  1
  Ho  Ho7  1  0.000000  0.500000  0.500000  1
  Ho  Ho8  1  0.500000  0.500000  0.500000  1
  Er  Er9  1  0.500000  0.000000  0.500000  1
  Si  Si10  1  0.000062  0.776225  0.500000  1
  Si  Si11  1  0.999938  0.223775  0.500000  1
  Si  Si12  1  0.223837  0.223775  0.500000  1
  Si  Si13  1  0.775963  0.000000  0.500000  1
  Si  Si14  1  0.333604  0.667208  0.500000  1
  Si  Si15  1  0.224037  0.000000  0.500000  1
  Si  Si16  1  0.666396  0.332792  0.500000  1
  Si  Si17  1  0.776163  0.776225  0.500000  1
  O  O18  1  0.000000  0.500000  0.000000  1
  O  O19  1  0.500000  0.500000  0.000000  1
  O  O20  1  0.500000  0.000000  0.000000  1
