# generated using pymatgen
data_LiLa4(Ge2Pt)5
_symmetry_space_group_name_H-M   'P 1'
_cell_length_a   8.61630731
_cell_length_b   8.61630766
_cell_length_c   8.61692931
_cell_angle_alpha   137.11927406
_cell_angle_beta   105.93217437
_cell_angle_gamma   89.57923157
_symmetry_Int_Tables_number   1
_chemical_formula_structural   LiLa4(Ge2Pt)5
_chemical_formula_sum   'Li1 La4 Ge10 Pt5'
_cell_volume   399.81472588
_cell_formula_units_Z   1
loop_
 _symmetry_equiv_pos_site_id
 _symmetry_equiv_pos_as_xyz
  1  'x, y, z'
loop_
 _atom_site_type_symbol
 _atom_site_label
 _atom_site_symmetry_multiplicity
 _atom_site_fract_x
 _atom_site_fract_y
 _atom_site_fract_z
 _atom_site_occupancy
  Li  Li0  1  0.500014  0.750014  0.250000  1
  La  La1  1  0.107013  0.869451  0.230230  1
  La  La2  1  0.893040  0.123335  0.762573  1
  La  La3  1  0.639222  0.376784  0.269770  1
  La  La4  1  0.360762  0.630467  0.737427  1
  Ge  Ge5  1  0.000033  0.750033  0.750000  1
  Ge  Ge6  1  0.999977  0.249977  0.250000  1
  Ge  Ge7  1  0.268389  0.018389  0.750000  1
  Ge  Ge8  1  0.731578  0.481578  0.750000  1
  Ge  Ge9  1  0.731871  0.981871  0.250000  1
  Ge  Ge10  1  0.268118  0.518118  0.250000  1
  Ge  Ge11  1  0.760902  0.609193  0.149304  1
  Ge  Ge12  1  0.239062  0.388450  0.848351  1
  Ge  Ge13  1  0.459888  0.111598  0.350696  1
  Ge  Ge14  1  0.540100  0.890711  0.651649  1
  Pt  Pt15  1  0.500021  0.250021  0.750000  1
  Pt  Pt16  1  0.025346  0.634834  0.385485  1
  Pt  Pt17  1  0.974615  0.360055  0.609358  1
  Pt  Pt18  1  0.249351  0.139861  0.114515  1
  Pt  Pt19  1  0.750696  0.865257  0.890642  1
