# generated using pymatgen
data_Er5Sc7ZnCo4Sn
_symmetry_space_group_name_H-M   'P 1'
_cell_length_a   7.95233125
_cell_length_b   7.97906680
_cell_length_c   7.97906738
_cell_angle_alpha   111.11408753
_cell_angle_beta   110.27047021
_cell_angle_gamma   107.18587742
_symmetry_Int_Tables_number   1
_chemical_formula_structural   Er5Sc7ZnCo4Sn
_chemical_formula_sum   'Er5 Sc7 Zn1 Co4 Sn1'
_cell_volume   388.60898636
_cell_formula_units_Z   1
loop_
 _symmetry_equiv_pos_site_id
 _symmetry_equiv_pos_as_xyz
  1  'x, y, z'
loop_
 _atom_site_type_symbol
 _atom_site_label
 _atom_site_symmetry_multiplicity
 _atom_site_fract_x
 _atom_site_fract_y
 _atom_site_fract_z
 _atom_site_occupancy
  Er  Er0  1  0.977066  0.776148  0.200919  1
  Er  Er1  1  0.191560  0.286166  0.475454  1
  Er  Er2  1  0.807450  0.716675  0.528084  1
  Er  Er3  1  0.191560  0.716104  0.905394  1
  Er  Er4  1  0.807450  0.279368  0.090775  1
  Sc  Sc5  1  0.315523  0.618019  0.307288  1
  Sc  Sc6  1  0.682508  0.376687  0.687657  1
  Sc  Sc7  1  0.315523  0.008234  0.697505  1
  Sc  Sc8  1  0.682508  0.994852  0.305821  1
  Sc  Sc9  1  0.426069  0.221944  0.204124  1
  Sc  Sc10  1  0.568211  0.773556  0.794655  1
  Sc  Sc11  1  0.018518  0.227706  0.790810  1
  Zn  Zn12  1  0.997546  0.006857  0.990689  1
  Co  Co13  1  0.123130  0.619969  0.503161  1
  Co  Co14  1  0.882372  0.381741  0.500630  1
  Co  Co15  1  0.383828  0.003338  0.380490  1
  Co  Co16  1  0.636079  0.997724  0.638354  1
  Sn  Sn17  1  0.493103  0.494913  0.998189  1
