# generated using pymatgen
data_Tb5Yb(ZnSb3)4
_symmetry_space_group_name_H-M   'P 1'
_cell_length_a   4.23776900
_cell_length_b   10.30015100
_cell_length_c   13.12797400
_cell_angle_alpha   90.00000000
_cell_angle_beta   90.00000000
_cell_angle_gamma   90.00000000
_symmetry_Int_Tables_number   1
_chemical_formula_structural   Tb5Yb(ZnSb3)4
_chemical_formula_sum   'Tb5 Yb1 Zn4 Sb12'
_cell_volume   573.03160951
_cell_formula_units_Z   1
loop_
 _symmetry_equiv_pos_site_id
 _symmetry_equiv_pos_as_xyz
  1  'x, y, z'
loop_
 _atom_site_type_symbol
 _atom_site_label
 _atom_site_symmetry_multiplicity
 _atom_site_fract_x
 _atom_site_fract_y
 _atom_site_fract_z
 _atom_site_occupancy
  Tb  Tb0  1  0.750000  0.268445  0.408168  1
  Tb  Tb1  1  0.250000  0.733057  0.907920  1
  Tb  Tb2  1  0.250000  0.733057  0.592080  1
  Tb  Tb3  1  0.250000  0.749434  0.250000  1
  Tb  Tb4  1  0.750000  0.268445  0.091832  1
  Yb  Yb5  1  0.750000  0.241823  0.750000  1
  Zn  Zn6  1  0.250000  0.998627  0.090320  1
  Zn  Zn7  1  0.250000  0.998627  0.409680  1
  Zn  Zn8  1  0.750000  0.002805  0.585399  1
  Zn  Zn9  1  0.750000  0.002805  0.914601  1
  Sb  Sb10  1  0.750000  0.509344  0.250000  1
  Sb  Sb11  1  0.750000  0.492674  0.915883  1
  Sb  Sb12  1  0.750000  0.843663  0.750000  1
  Sb  Sb13  1  0.750000  0.827941  0.420221  1
  Sb  Sb14  1  0.250000  0.168505  0.926213  1
  Sb  Sb15  1  0.250000  0.168505  0.573787  1
  Sb  Sb16  1  0.250000  0.162472  0.250000  1
  Sb  Sb17  1  0.250000  0.509481  0.082982  1
  Sb  Sb18  1  0.250000  0.490196  0.750000  1
  Sb  Sb19  1  0.250000  0.509481  0.417018  1
  Sb  Sb20  1  0.750000  0.492674  0.584117  1
  Sb  Sb21  1  0.750000  0.827941  0.079779  1
