# generated using pymatgen
data_Sc3Pt4Rh
_symmetry_space_group_name_H-M   'P 1'
_cell_length_a   5.60068759
_cell_length_b   5.60068902
_cell_length_c   4.33418300
_cell_angle_alpha   90.00000000
_cell_angle_beta   90.00000000
_cell_angle_gamma   97.69111453
_symmetry_Int_Tables_number   1
_chemical_formula_structural   Sc3Pt4Rh
_chemical_formula_sum   'Sc3 Pt4 Rh1'
_cell_volume   134.73035211
_cell_formula_units_Z   1
loop_
 _symmetry_equiv_pos_site_id
 _symmetry_equiv_pos_as_xyz
  1  'x, y, z'
loop_
 _atom_site_type_symbol
 _atom_site_label
 _atom_site_symmetry_multiplicity
 _atom_site_fract_x
 _atom_site_fract_y
 _atom_site_fract_z
 _atom_site_occupancy
  Sc  Sc0  1  0.007844  0.007844  0.000000  1
  Sc  Sc1  1  0.709427  0.285260  0.500000  1
  Sc  Sc2  1  0.285260  0.709427  0.500000  1
  Pt  Pt3  1  0.496050  0.496050  0.000000  1
  Pt  Pt4  1  0.996496  0.498910  0.000000  1
  Pt  Pt5  1  0.498910  0.996496  0.000000  1
  Pt  Pt6  1  0.785988  0.785988  0.500000  1
  Rh  Rh7  1  0.220026  0.220026  0.500000  1
