# generated using pymatgen
data_Ba5Ta2I2O9
_symmetry_space_group_name_H-M   'P 1'
_cell_length_a   6.07823700
_cell_length_b   6.07823755
_cell_length_c   26.95332400
_cell_angle_alpha   90.00000000
_cell_angle_beta   90.00000000
_cell_angle_gamma   120.00000244
_symmetry_Int_Tables_number   1
_chemical_formula_structural   Ba5Ta2I2O9
_chemical_formula_sum   'Ba10 Ta4 I4 O18'
_cell_volume   862.37915829
_cell_formula_units_Z   2
loop_
 _symmetry_equiv_pos_site_id
 _symmetry_equiv_pos_as_xyz
  1  'x, y, z'
loop_
 _atom_site_type_symbol
 _atom_site_label
 _atom_site_symmetry_multiplicity
 _atom_site_fract_x
 _atom_site_fract_y
 _atom_site_fract_z
 _atom_site_occupancy
  Ba  Ba0  1  0.333333  0.666667  0.906783  1
  Ba  Ba1  1  0.666667  0.333333  0.406783  1
  Ba  Ba2  1  0.666667  0.333333  0.093217  1
  Ba  Ba3  1  0.333333  0.666667  0.178180  1
  Ba  Ba4  1  0.666667  0.333333  0.678180  1
  Ba  Ba5  1  0.333333  0.666667  0.321820  1
  Ba  Ba6  1  0.666667  0.333333  0.821820  1
  Ba  Ba7  1  0.666667  0.333333  0.250000  1
  Ba  Ba8  1  0.333333  0.666667  0.593217  1
  Ba  Ba9  1  0.333333  0.666667  0.750000  1
  Ta  Ta10  1  0.000000  0.000000  0.806336  1
  Ta  Ta11  1  0.000000  0.000000  0.306336  1
  Ta  Ta12  1  0.000000  0.000000  0.693664  1
  Ta  Ta13  1  0.000000  0.000000  0.193664  1
  I  I14  1  0.333333  0.666667  0.452965  1
  I  I15  1  0.333333  0.666667  0.047035  1
  I  I16  1  0.666667  0.333333  0.547035  1
  I  I17  1  0.666667  0.333333  0.952965  1
  O  O18  1  0.161638  0.838362  0.661870  1
  O  O19  1  0.676726  0.838362  0.838130  1
  O  O20  1  0.161638  0.323274  0.661870  1
  O  O21  1  0.852523  0.147477  0.750000  1
  O  O22  1  0.294955  0.147477  0.750000  1
  O  O23  1  0.147477  0.294955  0.250000  1
  O  O24  1  0.147477  0.852523  0.250000  1
  O  O25  1  0.705045  0.852523  0.250000  1
  O  O26  1  0.838362  0.161638  0.338130  1
  O  O27  1  0.323274  0.161638  0.161870  1
  O  O28  1  0.852523  0.705045  0.750000  1
  O  O29  1  0.838362  0.676726  0.161870  1
  O  O30  1  0.323274  0.161638  0.338130  1
  O  O31  1  0.838362  0.161638  0.161870  1
  O  O32  1  0.161638  0.323274  0.838130  1
  O  O33  1  0.838362  0.676726  0.338130  1
  O  O34  1  0.676726  0.838362  0.661870  1
  O  O35  1  0.161638  0.838362  0.838130  1
