# generated using pymatgen
data_Hf3Ti2Ir2Rh
_symmetry_space_group_name_H-M   'P 1'
_cell_length_a   7.91895400
_cell_length_b   7.88670465
_cell_length_c   5.23739900
_cell_angle_alpha   90.00000000
_cell_angle_beta   90.00000000
_cell_angle_gamma   120.13536645
_symmetry_Int_Tables_number   1
_chemical_formula_structural   Hf3Ti2Ir2Rh
_chemical_formula_sum   'Hf6 Ti4 Ir4 Rh2'
_cell_volume   282.88874992
_cell_formula_units_Z   2
loop_
 _symmetry_equiv_pos_site_id
 _symmetry_equiv_pos_as_xyz
  1  'x, y, z'
loop_
 _atom_site_type_symbol
 _atom_site_label
 _atom_site_symmetry_multiplicity
 _atom_site_fract_x
 _atom_site_fract_y
 _atom_site_fract_z
 _atom_site_occupancy
  Hf  Hf0  1  0.244672  0.000000  0.250000  1
  Hf  Hf1  1  0.755328  0.000000  0.750000  1
  Hf  Hf2  1  0.001673  0.245552  0.250000  1
  Hf  Hf3  1  0.998327  0.754448  0.750000  1
  Hf  Hf4  1  0.756120  0.754448  0.250000  1
  Hf  Hf5  1  0.243880  0.245552  0.750000  1
  Ti  Ti6  1  0.332409  0.664818  0.000000  1
  Ti  Ti7  1  0.667591  0.335182  0.000000  1
  Ti  Ti8  1  0.667591  0.335182  0.500000  1
  Ti  Ti9  1  0.332409  0.664818  0.500000  1
  Ir  Ir10  1  0.001371  0.598321  0.250000  1
  Ir  Ir11  1  0.998629  0.401679  0.750000  1
  Ir  Ir12  1  0.403050  0.401679  0.250000  1
  Ir  Ir13  1  0.596950  0.598321  0.750000  1
  Rh  Rh14  1  0.596099  0.000000  0.250000  1
  Rh  Rh15  1  0.403901  0.000000  0.750000  1
