# generated using pymatgen
data_Ho5Tm11(In3Ir)2
_symmetry_space_group_name_H-M   'P 1'
_cell_length_a   10.30345911
_cell_length_b   10.30345884
_cell_length_c   6.99620802
_cell_angle_alpha   89.99334576
_cell_angle_beta   90.00665301
_cell_angle_gamma   119.98467457
_symmetry_Int_Tables_number   1
_chemical_formula_structural   Ho5Tm11(In3Ir)2
_chemical_formula_sum   'Ho5 Tm11 In6 Ir2'
_cell_volume   643.31915238
_cell_formula_units_Z   1
loop_
 _symmetry_equiv_pos_site_id
 _symmetry_equiv_pos_as_xyz
  1  'x, y, z'
loop_
 _atom_site_type_symbol
 _atom_site_label
 _atom_site_symmetry_multiplicity
 _atom_site_fract_x
 _atom_site_fract_y
 _atom_site_fract_z
 _atom_site_occupancy
  Ho  Ho0  1  0.532658  0.065303  0.514760  1
  Ho  Ho1  1  0.934697  0.467342  0.514760  1
  Ho  Ho2  1  0.532560  0.467440  0.514707  1
  Ho  Ho3  1  0.467312  0.934568  0.014697  1
  Ho  Ho4  1  0.065432  0.532688  0.014697  1
  Tm  Tm5  1  0.467003  0.532997  0.014664  1
  Tm  Tm6  1  0.176861  0.353375  0.721518  1
  Tm  Tm7  1  0.646625  0.823139  0.721518  1
  Tm  Tm8  1  0.176555  0.823445  0.721271  1
  Tm  Tm9  1  0.823094  0.646685  0.221044  1
  Tm  Tm10  1  0.353315  0.176906  0.221044  1
  Tm  Tm11  1  0.823410  0.176590  0.221260  1
  Tm  Tm12  1  0.666536  0.333464  0.896127  1
  Tm  Tm13  1  0.333485  0.666515  0.395974  1
  Tm  Tm14  1  0.000035  0.999965  0.500222  1
  Tm  Tm15  1  0.000002  0.999998  0.000294  1
  In  In16  1  0.837310  0.674641  0.761815  1
  In  In17  1  0.325359  0.162690  0.761815  1
  In  In18  1  0.837316  0.162684  0.761705  1
  In  In19  1  0.162938  0.325548  0.261586  1
  In  In20  1  0.674452  0.837062  0.261586  1
  In  In21  1  0.162659  0.837341  0.261782  1
  Ir  Ir22  1  0.666687  0.333313  0.289354  1
  Ir  Ir23  1  0.333699  0.666301  0.789799  1
