# generated using pymatgen
data_Tm2U(AlRu)3
_symmetry_space_group_name_H-M   'P 1'
_cell_length_a   6.81149766
_cell_length_b   6.81149908
_cell_length_c   4.03016600
_cell_angle_alpha   90.00000000
_cell_angle_beta   90.00000000
_cell_angle_gamma   116.32650836
_symmetry_Int_Tables_number   1
_chemical_formula_structural   Tm2U(AlRu)3
_chemical_formula_sum   'Tm2 U1 Al3 Ru3'
_cell_volume   167.59173822
_cell_formula_units_Z   1
loop_
 _symmetry_equiv_pos_site_id
 _symmetry_equiv_pos_as_xyz
  1  'x, y, z'
loop_
 _atom_site_type_symbol
 _atom_site_label
 _atom_site_symmetry_multiplicity
 _atom_site_fract_x
 _atom_site_fract_y
 _atom_site_fract_z
 _atom_site_occupancy
  Tm  Tm0  1  0.416470  0.006219  0.500000  1
  Tm  Tm1  1  0.006219  0.416470  0.500000  1
  U  U2  1  0.605456  0.605456  0.500000  1
  Al  Al3  1  0.752371  0.024816  0.000000  1
  Al  Al4  1  0.024816  0.752371  0.000000  1
  Al  Al5  1  0.211101  0.211101  0.000000  1
  Ru  Ru6  1  0.377276  0.640814  0.000000  1
  Ru  Ru7  1  0.640814  0.377276  0.000000  1
  Ru  Ru8  1  0.965477  0.965477  0.500000  1
