# generated using pymatgen
data_RbZrHgF7
_symmetry_space_group_name_H-M   'P 1'
_cell_length_a   6.72416337
_cell_length_b   6.72416346
_cell_length_c   8.89041900
_cell_angle_alpha   90.00000000
_cell_angle_beta   90.00000000
_cell_angle_gamma   117.18766267
_symmetry_Int_Tables_number   1
_chemical_formula_structural   RbZrHgF7
_chemical_formula_sum   'Rb2 Zr2 Hg2 F14'
_cell_volume   357.56245937
_cell_formula_units_Z   2
loop_
 _symmetry_equiv_pos_site_id
 _symmetry_equiv_pos_as_xyz
  1  'x, y, z'
loop_
 _atom_site_type_symbol
 _atom_site_label
 _atom_site_symmetry_multiplicity
 _atom_site_fract_x
 _atom_site_fract_y
 _atom_site_fract_z
 _atom_site_occupancy
  Rb  Rb0  1  0.000000  0.000000  0.000000  1
  Rb  Rb1  1  0.000000  0.000000  0.500000  1
  Zr  Zr2  1  0.692320  0.307680  0.750000  1
  Zr  Zr3  1  0.307680  0.692320  0.250000  1
  Hg  Hg4  1  0.308326  0.691674  0.750000  1
  Hg  Hg5  1  0.691674  0.308326  0.250000  1
  F  F6  1  0.512672  0.487328  0.750000  1
  F  F7  1  0.487328  0.512672  0.250000  1
  F  F8  1  0.701396  0.298604  0.979156  1
  F  F9  1  0.298604  0.701396  0.020844  1
  F  F10  1  0.298604  0.701396  0.479156  1
  F  F11  1  0.701396  0.298604  0.520844  1
  F  F12  1  0.672653  0.978350  0.750000  1
  F  F13  1  0.327347  0.021650  0.250000  1
  F  F14  1  0.021650  0.327347  0.750000  1
  F  F15  1  0.978350  0.672653  0.250000  1
  F  F16  1  0.349420  0.066891  0.750000  1
  F  F17  1  0.650580  0.933109  0.250000  1
  F  F18  1  0.933109  0.650580  0.750000  1
  F  F19  1  0.066891  0.349420  0.250000  1
