# generated using pymatgen
data_Er4As6Pd2Ru5
_symmetry_space_group_name_H-M   'P 1'
_cell_length_a   7.25642929
_cell_length_b   7.25642844
_cell_length_c   7.24158477
_cell_angle_alpha   109.22694460
_cell_angle_beta   109.22693750
_cell_angle_gamma   110.04304616
_symmetry_Int_Tables_number   1
_chemical_formula_structural   Er4As6Pd2Ru5
_chemical_formula_sum   'Er4 As6 Pd2 Ru5'
_cell_volume   293.21652984
_cell_formula_units_Z   1
loop_
 _symmetry_equiv_pos_site_id
 _symmetry_equiv_pos_as_xyz
  1  'x, y, z'
loop_
 _atom_site_type_symbol
 _atom_site_label
 _atom_site_symmetry_multiplicity
 _atom_site_fract_x
 _atom_site_fract_y
 _atom_site_fract_z
 _atom_site_occupancy
  Er  Er0  1  0.003328  0.003328  0.506556  1
  Er  Er1  1  0.498987  0.998987  0.997974  1
  Er  Er2  1  0.998987  0.498987  0.997974  1
  Er  Er3  1  0.503228  0.503228  0.506556  1
  As  As4  1  0.314299  0.007933  0.322232  1
  As  As5  1  0.007933  0.314299  0.322232  1
  As  As6  1  0.007161  0.681888  0.689049  1
  As  As7  1  0.307000  0.307000  0.990210  1
  As  As8  1  0.683209  0.683209  0.990210  1
  As  As9  1  0.681888  0.007161  0.689049  1
  Pd  Pd10  1  0.748654  0.498382  0.247036  1
  Pd  Pd11  1  0.498382  0.748654  0.247036  1
  Ru  Ru12  1  0.498388  0.250871  0.749259  1
  Ru  Ru13  1  0.750434  0.250434  0.500868  1
  Ru  Ru14  1  0.250434  0.750434  0.500868  1
  Ru  Ru15  1  0.250871  0.498388  0.749259  1
  Ru  Ru16  1  0.996818  0.996818  0.993636  1
