# generated using pymatgen
data_Er6Ti2Co16(Si3P)3
_symmetry_space_group_name_H-M   'P 1'
_cell_length_a   3.73101700
_cell_length_b   10.78620889
_cell_length_c   12.39858103
_cell_angle_alpha   89.95336634
_cell_angle_beta   90.00000000
_cell_angle_gamma   90.00000000
_symmetry_Int_Tables_number   1
_chemical_formula_structural   Er6Ti2Co16(Si3P)3
_chemical_formula_sum   'Er6 Ti2 Co16 Si9 P3'
_cell_volume   498.96248669
_cell_formula_units_Z   1
loop_
 _symmetry_equiv_pos_site_id
 _symmetry_equiv_pos_as_xyz
  1  'x, y, z'
loop_
 _atom_site_type_symbol
 _atom_site_label
 _atom_site_symmetry_multiplicity
 _atom_site_fract_x
 _atom_site_fract_y
 _atom_site_fract_z
 _atom_site_occupancy
  Er  Er0  1  0.750000  0.250669  0.471620  1
  Er  Er1  1  0.250000  0.749124  0.529113  1
  Er  Er2  1  0.250000  0.930107  0.796873  1
  Er  Er3  1  0.250000  0.569539  0.795409  1
  Er  Er4  1  0.750000  0.072695  0.205852  1
  Er  Er5  1  0.750000  0.429791  0.203813  1
  Ti  Ti6  1  0.250000  0.250914  0.852685  1
  Ti  Ti7  1  0.750000  0.746394  0.146726  1
  Co  Co8  1  0.250000  0.250597  0.300535  1
  Co  Co9  1  0.750000  0.749744  0.699482  1
  Co  Co10  1  0.750000  0.251268  0.008551  1
  Co  Co11  1  0.250000  0.746590  0.988970  1
  Co  Co12  1  0.250000  0.420179  0.002783  1
  Co  Co13  1  0.250000  0.082869  0.000381  1
  Co  Co14  1  0.750000  0.578087  0.996232  1
  Co  Co15  1  0.750000  0.920254  0.995251  1
  Co  Co16  1  0.250000  0.448721  0.568743  1
  Co  Co17  1  0.250000  0.051737  0.569918  1
  Co  Co18  1  0.750000  0.551229  0.430978  1
  Co  Co19  1  0.750000  0.948796  0.432593  1
  Co  Co20  1  0.250000  0.868151  0.292695  1
  Co  Co21  1  0.250000  0.630989  0.288150  1
  Co  Co22  1  0.750000  0.131459  0.711355  1
  Co  Co23  1  0.750000  0.369008  0.710930  1
  Si  Si24  1  0.250000  0.249954  0.114578  1
  Si  Si25  1  0.750000  0.749667  0.885202  1
  Si  Si26  1  0.250000  0.250457  0.651312  1
  Si  Si27  1  0.750000  0.749906  0.349162  1
  Si  Si28  1  0.250000  0.446505  0.384270  1
  Si  Si29  1  0.250000  0.054173  0.385351  1
  Si  Si30  1  0.750000  0.553744  0.615338  1
  Si  Si31  1  0.750000  0.946247  0.616758  1
  Si  Si32  1  0.250000  0.909044  0.105889  1
  P  P33  1  0.250000  0.590843  0.105656  1
  P  P34  1  0.750000  0.092048  0.893929  1
  P  P35  1  0.750000  0.408502  0.892918  1
