# generated using pymatgen
data_Th8Ti11Si16Ag
_symmetry_space_group_name_H-M   'P 1'
_cell_length_a   7.21865462
_cell_length_b   7.21865518
_cell_length_c   13.22294922
_cell_angle_alpha   90.17216651
_cell_angle_beta   89.82783228
_cell_angle_gamma   89.53929782
_symmetry_Int_Tables_number   1
_chemical_formula_structural   Th8Ti11Si16Ag
_chemical_formula_sum   'Th8 Ti11 Si16 Ag1'
_cell_volume   689.00583163
_cell_formula_units_Z   1
loop_
 _symmetry_equiv_pos_site_id
 _symmetry_equiv_pos_as_xyz
  1  'x, y, z'
loop_
 _atom_site_type_symbol
 _atom_site_label
 _atom_site_symmetry_multiplicity
 _atom_site_fract_x
 _atom_site_fract_y
 _atom_site_fract_z
 _atom_site_occupancy
  Th  Th0  1  0.339280  0.001335  0.468217  1
  Th  Th1  1  0.495646  0.838744  0.717396  1
  Th  Th2  1  0.501624  0.159773  0.217016  1
  Th  Th3  1  0.838744  0.495646  0.282604  1
  Th  Th4  1  0.159773  0.501624  0.782984  1
  Th  Th5  1  0.657805  0.001863  0.968112  1
  Th  Th6  1  0.001335  0.339280  0.531783  1
  Th  Th7  1  0.001863  0.657805  0.031888  1
  Ti  Ti8  1  0.172846  0.826871  0.250439  1
  Ti  Ti9  1  0.826871  0.172846  0.749561  1
  Ti  Ti10  1  0.670770  0.670770  0.500000  1
  Ti  Ti11  1  0.154601  0.012260  0.878079  1
  Ti  Ti12  1  0.498441  0.655593  0.124084  1
  Ti  Ti13  1  0.506076  0.342952  0.624896  1
  Ti  Ti14  1  0.655593  0.498441  0.875916  1
  Ti  Ti15  1  0.342952  0.506076  0.375104  1
  Ti  Ti16  1  0.841361  0.993302  0.374037  1
  Ti  Ti17  1  0.012260  0.154601  0.121921  1
  Ti  Ti18  1  0.993302  0.841361  0.625963  1
  Si  Si19  1  0.195759  0.124986  0.687173  1
  Si  Si20  1  0.375224  0.716328  0.932577  1
  Si  Si21  1  0.624444  0.298922  0.435611  1
  Si  Si22  1  0.716328  0.375224  0.067423  1
  Si  Si23  1  0.298922  0.624444  0.564389  1
  Si  Si24  1  0.803538  0.874301  0.185259  1
  Si  Si25  1  0.124986  0.195759  0.312827  1
  Si  Si26  1  0.874301  0.803538  0.814741  1
  Si  Si27  1  0.286498  0.939298  0.068149  1
  Si  Si28  1  0.541821  0.785514  0.314650  1
  Si  Si29  1  0.461314  0.214030  0.808842  1
  Si  Si30  1  0.785514  0.541821  0.685350  1
  Si  Si31  1  0.214030  0.461314  0.191158  1
  Si  Si32  1  0.714192  0.041959  0.564765  1
  Si  Si33  1  0.939298  0.286498  0.931851  1
  Si  Si34  1  0.041959  0.714192  0.435235  1
  Ag  Ag35  1  0.330732  0.330732  0.000000  1
