# generated using pymatgen
data_Ca6Ni20As13
_symmetry_space_group_name_H-M   'P 1'
_cell_length_a   13.15643500
_cell_length_b   13.15643481
_cell_length_c   3.91684100
_cell_angle_alpha   90.00000000
_cell_angle_beta   90.00000000
_cell_angle_gamma   119.99999797
_symmetry_Int_Tables_number   1
_chemical_formula_structural   Ca6Ni20As13
_chemical_formula_sum   'Ca6 Ni20 As13'
_cell_volume   587.14183425
_cell_formula_units_Z   1
loop_
 _symmetry_equiv_pos_site_id
 _symmetry_equiv_pos_as_xyz
  1  'x, y, z'
loop_
 _atom_site_type_symbol
 _atom_site_label
 _atom_site_symmetry_multiplicity
 _atom_site_fract_x
 _atom_site_fract_y
 _atom_site_fract_z
 _atom_site_occupancy
  Ca  Ca0  1  0.187374  0.470013  0.000000  1
  Ca  Ca1  1  0.529987  0.717361  0.000000  1
  Ca  Ca2  1  0.282639  0.812626  0.000000  1
  Ca  Ca3  1  0.719989  0.188221  0.500000  1
  Ca  Ca4  1  0.811779  0.531768  0.500000  1
  Ca  Ca5  1  0.468232  0.280011  0.500000  1
  Ni  Ni6  1  0.089073  0.199526  0.000000  1
  Ni  Ni7  1  0.800474  0.889547  0.000000  1
  Ni  Ni8  1  0.110453  0.910927  0.000000  1
  Ni  Ni9  1  0.333333  0.666667  0.500000  1
  Ni  Ni10  1  0.919920  0.064051  0.500000  1
  Ni  Ni11  1  0.935949  0.855869  0.500000  1
  Ni  Ni12  1  0.144131  0.080080  0.500000  1
  Ni  Ni13  1  0.666667  0.333333  0.000000  1
  Ni  Ni14  1  0.417147  0.438978  0.000000  1
  Ni  Ni15  1  0.561022  0.978168  0.000000  1
  Ni  Ni16  1  0.021832  0.582853  0.000000  1
  Ni  Ni17  1  0.244146  0.313214  0.500000  1
  Ni  Ni18  1  0.686786  0.930932  0.500000  1
  Ni  Ni19  1  0.069068  0.755854  0.500000  1
  Ni  Ni20  1  0.438877  0.022263  0.500000  1
  Ni  Ni21  1  0.977737  0.416614  0.500000  1
  Ni  Ni22  1  0.583386  0.561123  0.500000  1
  Ni  Ni23  1  0.924872  0.246156  0.000000  1
  Ni  Ni24  1  0.753844  0.678716  0.000000  1
  Ni  Ni25  1  0.321284  0.075128  0.000000  1
  As  As26  1  0.383428  0.520265  0.500000  1
  As  As27  1  0.479735  0.863164  0.500000  1
  As  As28  1  0.136836  0.616572  0.500000  1
  As  As29  1  0.042033  0.275517  0.500000  1
  As  As30  1  0.724483  0.766516  0.500000  1
  As  As31  1  0.233484  0.957967  0.500000  1
  As  As32  1  0.523318  0.137935  0.000000  1
  As  As33  1  0.862065  0.385383  0.000000  1
  As  As34  1  0.614617  0.476682  0.000000  1
  As  As35  1  0.768589  0.048232  0.000000  1
  As  As36  1  0.951768  0.720357  0.000000  1
  As  As37  1  0.279643  0.231411  0.000000  1
  As  As38  1  0.000000  0.000000  0.000000  1
