# generated using pymatgen
data_Tm4Fe8P12(Ir3Rh)3
_symmetry_space_group_name_H-M   'P 1'
_cell_length_a   3.83291500
_cell_length_b   10.47232194
_cell_length_c   12.30244621
_cell_angle_alpha   89.95027854
_cell_angle_beta   90.00000000
_cell_angle_gamma   90.00000000
_symmetry_Int_Tables_number   1
_chemical_formula_structural   Tm4Fe8P12(Ir3Rh)3
_chemical_formula_sum   'Tm4 Fe8 P12 Ir9 Rh3'
_cell_volume   493.81409802
_cell_formula_units_Z   1
loop_
 _symmetry_equiv_pos_site_id
 _symmetry_equiv_pos_as_xyz
  1  'x, y, z'
loop_
 _atom_site_type_symbol
 _atom_site_label
 _atom_site_symmetry_multiplicity
 _atom_site_fract_x
 _atom_site_fract_y
 _atom_site_fract_z
 _atom_site_occupancy
  Tm  Tm0  1  0.250000  0.578726  0.713065  1
  Tm  Tm1  1  0.250000  0.921631  0.212848  1
  Tm  Tm2  1  0.750000  0.421598  0.286892  1
  Tm  Tm3  1  0.750000  0.078893  0.787568  1
  Fe  Fe4  1  0.250000  0.874665  0.697785  1
  Fe  Fe5  1  0.250000  0.625013  0.197641  1
  Fe  Fe6  1  0.750000  0.124746  0.302682  1
  Fe  Fe7  1  0.750000  0.374623  0.802233  1
  Fe  Fe8  1  0.250000  0.458151  0.934423  1
  Fe  Fe9  1  0.250000  0.044024  0.435725  1
  Fe  Fe10  1  0.750000  0.542018  0.065320  1
  Fe  Fe11  1  0.750000  0.959383  0.564923  1
  P  P12  1  0.250000  0.441491  0.111341  1
  P  P13  1  0.250000  0.057638  0.612334  1
  P  P14  1  0.750000  0.558569  0.888315  1
  P  P15  1  0.750000  0.940656  0.388214  1
  P  P16  1  0.250000  0.271367  0.862722  1
  P  P17  1  0.250000  0.229058  0.362519  1
  P  P18  1  0.750000  0.728904  0.136935  1
  P  P19  1  0.750000  0.771175  0.636913  1
  P  P20  1  0.250000  0.600586  0.376972  1
  P  P21  1  0.250000  0.899403  0.877403  1
  P  P22  1  0.750000  0.399668  0.623320  1
  P  P23  1  0.750000  0.100486  0.122676  1
  Ir  Ir24  1  0.750000  0.217451  0.509717  1
  Ir  Ir25  1  0.250000  0.408850  0.473363  1
  Ir  Ir26  1  0.250000  0.090679  0.973856  1
  Ir  Ir27  1  0.750000  0.590208  0.525981  1
  Ir  Ir28  1  0.750000  0.909629  0.026059  1
  Ir  Ir29  1  0.250000  0.231666  0.173876  1
  Ir  Ir30  1  0.250000  0.267377  0.672888  1
  Ir  Ir31  1  0.750000  0.768426  0.826281  1
  Ir  Ir32  1  0.750000  0.731251  0.326235  1
  Rh  Rh33  1  0.250000  0.717930  0.990652  1
  Rh  Rh34  1  0.250000  0.781760  0.490681  1
  Rh  Rh35  1  0.750000  0.282304  0.009644  1
