# generated using pymatgen
data_Tb16Er4Sn3Pb13
_symmetry_space_group_name_H-M   'P 1'
_cell_length_a   8.19514934
_cell_length_b   8.27436896
_cell_length_c   15.71572800
_cell_angle_alpha   90.00000000
_cell_angle_beta   90.00000000
_cell_angle_gamma   89.87609566
_symmetry_Int_Tables_number   1
_chemical_formula_structural   Tb16Er4Sn3Pb13
_chemical_formula_sum   'Tb16 Er4 Sn3 Pb13'
_cell_volume   1065.67614152
_cell_formula_units_Z   1
loop_
 _symmetry_equiv_pos_site_id
 _symmetry_equiv_pos_as_xyz
  1  'x, y, z'
loop_
 _atom_site_type_symbol
 _atom_site_label
 _atom_site_symmetry_multiplicity
 _atom_site_fract_x
 _atom_site_fract_y
 _atom_site_fract_z
 _atom_site_occupancy
  Tb  Tb0  1  0.379404  0.838579  0.877206  1
  Tb  Tb1  1  0.878795  0.661926  0.622712  1
  Tb  Tb2  1  0.618759  0.161936  0.378101  1
  Tb  Tb3  1  0.123192  0.340609  0.120856  1
  Tb  Tb4  1  0.618759  0.161936  0.121899  1
  Tb  Tb5  1  0.123192  0.340609  0.379144  1
  Tb  Tb6  1  0.379404  0.838579  0.622794  1
  Tb  Tb7  1  0.878795  0.661926  0.877288  1
  Tb  Tb8  1  0.537007  0.327054  0.898382  1
  Tb  Tb9  1  0.036549  0.172711  0.601682  1
  Tb  Tb10  1  0.463490  0.672802  0.399323  1
  Tb  Tb11  1  0.963402  0.823958  0.100052  1
  Tb  Tb12  1  0.463490  0.672802  0.100677  1
  Tb  Tb13  1  0.963402  0.823958  0.399948  1
  Tb  Tb14  1  0.537007  0.327054  0.601618  1
  Tb  Tb15  1  0.036549  0.172711  0.898318  1
  Er  Er16  1  0.212094  0.507419  0.750000  1
  Er  Er17  1  0.712355  0.993068  0.750000  1
  Er  Er18  1  0.787239  0.494559  0.250000  1
  Er  Er19  1  0.290491  0.006416  0.250000  1
  Sn  Sn20  1  0.575301  0.623388  0.750000  1
  Sn  Sn21  1  0.075167  0.876556  0.750000  1
  Sn  Sn22  1  0.424366  0.377095  0.250000  1
  Pb  Pb23  1  0.281642  0.031601  0.042525  1
  Pb  Pb24  1  0.782214  0.466833  0.457638  1
  Pb  Pb25  1  0.717485  0.967869  0.542768  1
  Pb  Pb26  1  0.217699  0.533180  0.956591  1
  Pb  Pb27  1  0.717485  0.967869  0.957232  1
  Pb  Pb28  1  0.217699  0.533180  0.543409  1
  Pb  Pb29  1  0.281642  0.031601  0.457475  1
  Pb  Pb30  1  0.782214  0.466833  0.042362  1
  Pb  Pb31  1  0.926052  0.124303  0.250000  1
  Pb  Pb32  1  0.347473  0.153548  0.750000  1
  Pb  Pb33  1  0.847017  0.346628  0.750000  1
  Pb  Pb34  1  0.651067  0.845475  0.250000  1
  Pb  Pb35  1  0.152099  0.653430  0.250000  1
