# generated using pymatgen
data_Li3Ti(MnPt3)2
_symmetry_space_group_name_H-M   'P 1'
_cell_length_a   4.13421000
_cell_length_b   6.69415414
_cell_length_c   12.39152426
_cell_angle_alpha   90.02343343
_cell_angle_beta   89.99656102
_cell_angle_gamma   90.00415905
_symmetry_Int_Tables_number   1
_chemical_formula_structural   Li3Ti(MnPt3)2
_chemical_formula_sum   'Li6 Ti2 Mn4 Pt12'
_cell_volume   342.93588754
_cell_formula_units_Z   2
loop_
 _symmetry_equiv_pos_site_id
 _symmetry_equiv_pos_as_xyz
  1  'x, y, z'
loop_
 _atom_site_type_symbol
 _atom_site_label
 _atom_site_symmetry_multiplicity
 _atom_site_fract_x
 _atom_site_fract_y
 _atom_site_fract_z
 _atom_site_occupancy
  Li  Li0  1  0.000068  0.500055  0.996374  1
  Li  Li1  1  0.500140  0.000007  0.170310  1
  Li  Li2  1  0.000077  0.500003  0.339364  1
  Li  Li3  1  0.500031  0.999982  0.500725  1
  Li  Li4  1  0.999954  0.500000  0.665938  1
  Li  Li5  1  0.499971  0.000007  0.827298  1
  Ti  Ti6  1  0.000160  0.000075  0.997927  1
  Ti  Ti7  1  0.500126  0.500038  0.168732  1
  Mn  Mn8  1  0.000191  0.000020  0.335608  1
  Mn  Mn9  1  0.499878  0.499909  0.500244  1
  Mn  Mn10  1  0.000062  0.999963  0.666422  1
  Mn  Mn11  1  0.499204  0.500113  0.831066  1
  Pt  Pt12  1  0.500099  0.248811  0.000008  1
  Pt  Pt13  1  0.500112  0.751313  0.999995  1
  Pt  Pt14  1  0.000118  0.251289  0.166659  1
  Pt  Pt15  1  0.000115  0.748743  0.166655  1
  Pt  Pt16  1  0.500082  0.252622  0.332065  1
  Pt  Pt17  1  0.500090  0.747235  0.332108  1
  Pt  Pt18  1  0.000048  0.249316  0.500288  1
  Pt  Pt19  1  0.000043  0.750488  0.500297  1
  Pt  Pt20  1  0.499979  0.250565  0.666415  1
  Pt  Pt21  1  0.500005  0.749367  0.666346  1
  Pt  Pt22  1  0.999733  0.247365  0.834579  1
  Pt  Pt23  1  0.999719  0.752714  0.834579  1
