# generated using pymatgen
data_Tb4TlIr
_symmetry_space_group_name_H-M   'P 1'
_cell_length_a   9.73162571
_cell_length_b   9.73162587
_cell_length_c   9.73162600
_cell_angle_alpha   59.99999956
_cell_angle_beta   59.99999901
_cell_angle_gamma   59.99999596
_symmetry_Int_Tables_number   1
_chemical_formula_structural   Tb4TlIr
_chemical_formula_sum   'Tb16 Tl4 Ir4'
_cell_volume   651.69020795
_cell_formula_units_Z   4
loop_
 _symmetry_equiv_pos_site_id
 _symmetry_equiv_pos_as_xyz
  1  'x, y, z'
loop_
 _atom_site_type_symbol
 _atom_site_label
 _atom_site_symmetry_multiplicity
 _atom_site_fract_x
 _atom_site_fract_y
 _atom_site_fract_z
 _atom_site_occupancy
  Tb  Tb0  1  0.939964  0.560036  0.560036  1
  Tb  Tb1  1  0.560036  0.939964  0.939964  1
  Tb  Tb2  1  0.560036  0.939964  0.560036  1
  Tb  Tb3  1  0.560036  0.560036  0.939964  1
  Tb  Tb4  1  0.939964  0.560036  0.939964  1
  Tb  Tb5  1  0.939964  0.939964  0.560036  1
  Tb  Tb6  1  0.348664  0.348664  0.348664  1
  Tb  Tb7  1  0.348664  0.348664  0.954009  1
  Tb  Tb8  1  0.954009  0.348664  0.348664  1
  Tb  Tb9  1  0.348664  0.954009  0.348664  1
  Tb  Tb10  1  0.810357  0.189642  0.189642  1
  Tb  Tb11  1  0.189641  0.810358  0.810358  1
  Tb  Tb12  1  0.189642  0.810357  0.189642  1
  Tb  Tb13  1  0.189642  0.189642  0.810357  1
  Tb  Tb14  1  0.810358  0.189641  0.810358  1
  Tb  Tb15  1  0.810358  0.810358  0.189641  1
  Tl  Tl16  1  0.585437  0.585437  0.585437  1
  Tl  Tl17  1  0.585437  0.585437  0.243688  1
  Tl  Tl18  1  0.243688  0.585437  0.585437  1
  Tl  Tl19  1  0.585437  0.243688  0.585437  1
  Ir  Ir20  1  0.141376  0.141376  0.141376  1
  Ir  Ir21  1  0.141376  0.141376  0.575875  1
  Ir  Ir22  1  0.575875  0.141376  0.141376  1
  Ir  Ir23  1  0.141376  0.575875  0.141376  1
