# generated using pymatgen
data_LaNd3HgPt
_symmetry_space_group_name_H-M   'P 1'
_cell_length_a   10.05287377
_cell_length_b   10.05287358
_cell_length_c   10.05287300
_cell_angle_alpha   59.99999861
_cell_angle_beta   59.99999924
_cell_angle_gamma   60.00000266
_symmetry_Int_Tables_number   1
_chemical_formula_structural   LaNd3HgPt
_chemical_formula_sum   'La4 Nd12 Hg4 Pt4'
_cell_volume   718.38234463
_cell_formula_units_Z   4
loop_
 _symmetry_equiv_pos_site_id
 _symmetry_equiv_pos_as_xyz
  1  'x, y, z'
loop_
 _atom_site_type_symbol
 _atom_site_label
 _atom_site_symmetry_multiplicity
 _atom_site_fract_x
 _atom_site_fract_y
 _atom_site_fract_z
 _atom_site_occupancy
  La  La0  1  0.352539  0.352539  0.352539  1
  La  La1  1  0.352539  0.352539  0.942385  1
  La  La2  1  0.352539  0.942385  0.352539  1
  La  La3  1  0.942385  0.352539  0.352539  1
  Nd  Nd4  1  0.809309  0.190691  0.190691  1
  Nd  Nd5  1  0.190691  0.809309  0.809309  1
  Nd  Nd6  1  0.190691  0.809309  0.190691  1
  Nd  Nd7  1  0.809309  0.190691  0.809309  1
  Nd  Nd8  1  0.190691  0.190691  0.809309  1
  Nd  Nd9  1  0.809309  0.809309  0.190691  1
  Nd  Nd10  1  0.935116  0.564884  0.564884  1
  Nd  Nd11  1  0.564884  0.935116  0.935116  1
  Nd  Nd12  1  0.564884  0.935116  0.564884  1
  Nd  Nd13  1  0.935116  0.564884  0.935116  1
  Nd  Nd14  1  0.564884  0.564884  0.935116  1
  Nd  Nd15  1  0.935116  0.935116  0.564884  1
  Hg  Hg16  1  0.585656  0.585656  0.585656  1
  Hg  Hg17  1  0.585656  0.585656  0.243034  1
  Hg  Hg18  1  0.585656  0.243034  0.585656  1
  Hg  Hg19  1  0.243034  0.585656  0.585656  1
  Pt  Pt20  1  0.143047  0.143047  0.143047  1
  Pt  Pt21  1  0.143047  0.143047  0.570861  1
  Pt  Pt22  1  0.143047  0.570861  0.143047  1
  Pt  Pt23  1  0.570861  0.143047  0.143047  1
