# generated using pymatgen
data_CsAl11O17
_symmetry_space_group_name_H-M   'P 1'
_cell_length_a   12.12505347
_cell_length_b   12.12505365
_cell_length_c   12.12505389
_cell_angle_alpha   26.96878215
_cell_angle_beta   26.96878090
_cell_angle_gamma   26.96877954
_symmetry_Int_Tables_number   1
_chemical_formula_structural   CsAl11O17
_chemical_formula_sum   'Cs1 Al11 O17'
_cell_volume   323.35786543
_cell_formula_units_Z   1
loop_
 _symmetry_equiv_pos_site_id
 _symmetry_equiv_pos_as_xyz
  1  'x, y, z'
loop_
 _atom_site_type_symbol
 _atom_site_label
 _atom_site_symmetry_multiplicity
 _atom_site_fract_x
 _atom_site_fract_y
 _atom_site_fract_z
 _atom_site_occupancy
  Cs  Cs0  1  0.831422  0.831422  0.831422  1
  Al  Al1  1  0.592067  0.099612  0.099612  1
  Al  Al2  1  0.999674  0.999674  0.999674  1
  Al  Al3  1  0.099612  0.099612  0.592067  1
  Al  Al4  1  0.099612  0.592067  0.099612  1
  Al  Al5  1  0.449557  0.449557  0.449557  1
  Al  Al6  1  0.549930  0.549930  0.549930  1
  Al  Al7  1  0.349681  0.349681  0.349681  1
  Al  Al8  1  0.650293  0.650293  0.650293  1
  Al  Al9  1  0.901966  0.403708  0.901966  1
  Al  Al10  1  0.901966  0.901966  0.403708  1
  Al  Al11  1  0.403708  0.901966  0.901966  1
  O  O12  1  0.296923  0.296923  0.296923  1
  O  O13  1  0.092039  0.092039  0.092039  1
  O  O14  1  0.810251  0.282728  0.810251  1
  O  O15  1  0.718373  0.189197  0.189197  1
  O  O16  1  0.595025  0.093672  0.595025  1
  O  O17  1  0.906271  0.403894  0.403894  1
  O  O18  1  0.595025  0.595025  0.093672  1
  O  O19  1  0.499616  0.499616  0.499616  1
  O  O20  1  0.189197  0.189197  0.718373  1
  O  O21  1  0.810251  0.810251  0.282728  1
  O  O22  1  0.403894  0.403894  0.906271  1
  O  O23  1  0.093672  0.595025  0.595025  1
  O  O24  1  0.403894  0.906271  0.403894  1
  O  O25  1  0.282728  0.810251  0.810251  1
  O  O26  1  0.189197  0.718373  0.189197  1
  O  O27  1  0.702984  0.702984  0.702984  1
  O  O28  1  0.909495  0.909495  0.909495  1
