# generated using pymatgen
data_NdHo7Cd2OsPt
_symmetry_space_group_name_H-M   'P 1'
_cell_length_a   9.66511622
_cell_length_b   9.66511578
_cell_length_c   9.71256600
_cell_angle_alpha   59.83745715
_cell_angle_beta   59.83745868
_cell_angle_gamma   59.54283629
_symmetry_Int_Tables_number   1
_chemical_formula_structural   NdHo7Cd2OsPt
_chemical_formula_sum   'Nd2 Ho14 Cd4 Os2 Pt2'
_cell_volume   637.74362292
_cell_formula_units_Z   2
loop_
 _symmetry_equiv_pos_site_id
 _symmetry_equiv_pos_as_xyz
  1  'x, y, z'
loop_
 _atom_site_type_symbol
 _atom_site_label
 _atom_site_symmetry_multiplicity
 _atom_site_fract_x
 _atom_site_fract_y
 _atom_site_fract_z
 _atom_site_occupancy
  Nd  Nd0  1  0.565952  0.565952  0.934048  1
  Nd  Nd1  1  0.937148  0.937148  0.562852  1
  Ho  Ho2  1  0.349752  0.349752  0.350927  1
  Ho  Ho3  1  0.349752  0.349752  0.949570  1
  Ho  Ho4  1  0.345263  0.955977  0.349380  1
  Ho  Ho5  1  0.955977  0.345263  0.349380  1
  Ho  Ho6  1  0.815295  0.187188  0.189738  1
  Ho  Ho7  1  0.187188  0.815295  0.807780  1
  Ho  Ho8  1  0.187188  0.815295  0.189738  1
  Ho  Ho9  1  0.815295  0.187188  0.807780  1
  Ho  Ho10  1  0.188229  0.188229  0.811771  1
  Ho  Ho11  1  0.808392  0.808392  0.191608  1
  Ho  Ho12  1  0.940506  0.553607  0.564515  1
  Ho  Ho13  1  0.553607  0.940506  0.941372  1
  Ho  Ho14  1  0.553607  0.940506  0.564515  1
  Ho  Ho15  1  0.940506  0.553607  0.941372  1
  Cd  Cd16  1  0.580769  0.580769  0.579141  1
  Cd  Cd17  1  0.580769  0.580769  0.259322  1
  Cd  Cd18  1  0.578364  0.257330  0.582154  1
  Cd  Cd19  1  0.257330  0.578364  0.582154  1
  Os  Os20  1  0.146114  0.146114  0.133227  1
  Os  Os21  1  0.146114  0.146114  0.574543  1
  Pt  Pt22  1  0.142098  0.574787  0.141557  1
  Pt  Pt23  1  0.574787  0.142098  0.141557  1
