# generated using pymatgen
data_RbSm2Ag3Te5
_symmetry_space_group_name_H-M   'P 1'
_cell_length_a   4.62386900
_cell_length_b   8.50509425
_cell_length_c   18.67332300
_cell_angle_alpha   90.00000000
_cell_angle_beta   90.00000000
_cell_angle_gamma   74.22684882
_symmetry_Int_Tables_number   1
_chemical_formula_structural   RbSm2Ag3Te5
_chemical_formula_sum   'Rb2 Sm4 Ag6 Te10'
_cell_volume   706.70354843
_cell_formula_units_Z   2
loop_
 _symmetry_equiv_pos_site_id
 _symmetry_equiv_pos_as_xyz
  1  'x, y, z'
loop_
 _atom_site_type_symbol
 _atom_site_label
 _atom_site_symmetry_multiplicity
 _atom_site_fract_x
 _atom_site_fract_y
 _atom_site_fract_z
 _atom_site_occupancy
  Rb  Rb0  1  0.558973  0.882055  0.250000  1
  Rb  Rb1  1  0.441027  0.117945  0.750000  1
  Sm  Sm2  1  0.310589  0.378819  0.093209  1
  Sm  Sm3  1  0.310589  0.378819  0.406791  1
  Sm  Sm4  1  0.689410  0.621182  0.593209  1
  Sm  Sm5  1  0.689410  0.621182  0.906790  1
  Ag  Ag6  1  0.087103  0.825791  0.028360  1
  Ag  Ag7  1  0.837749  0.324503  0.250000  1
  Ag  Ag8  1  0.087103  0.825791  0.471640  1
  Ag  Ag9  1  0.912896  0.174209  0.528360  1
  Ag  Ag10  1  0.162250  0.675497  0.750000  1
  Ag  Ag11  1  0.912896  0.174209  0.971640  1
  Te  Te12  1  0.674485  0.651031  0.074667  1
  Te  Te13  1  0.940553  0.118895  0.121613  1
  Te  Te14  1  0.242179  0.515637  0.250000  1
  Te  Te15  1  0.940553  0.118895  0.378386  1
  Te  Te16  1  0.674485  0.651031  0.425334  1
  Te  Te17  1  0.325514  0.348969  0.574666  1
  Te  Te18  1  0.059447  0.881105  0.621614  1
  Te  Te19  1  0.757820  0.484362  0.750000  1
  Te  Te20  1  0.059447  0.881105  0.878387  1
  Te  Te21  1  0.325514  0.348969  0.925334  1
