# generated using pymatgen
data_Li7Cd4
_symmetry_space_group_name_H-M   'P 1'
_cell_length_a   16.50708057
_cell_length_b   16.50708120
_cell_length_c   5.92918862
_cell_angle_alpha   90.26198718
_cell_angle_beta   90.26198809
_cell_angle_gamma   14.49659797
_symmetry_Int_Tables_number   1
_chemical_formula_structural   Li7Cd4
_chemical_formula_sum   'Li14 Cd8'
_cell_volume   404.41860878
_cell_formula_units_Z   2
loop_
 _symmetry_equiv_pos_site_id
 _symmetry_equiv_pos_as_xyz
  1  'x, y, z'
loop_
 _atom_site_type_symbol
 _atom_site_label
 _atom_site_symmetry_multiplicity
 _atom_site_fract_x
 _atom_site_fract_y
 _atom_site_fract_z
 _atom_site_occupancy
  Li  Li0  1  0.046355  0.046355  0.446462  1
  Li  Li1  1  0.046397  0.046397  0.952001  1
  Li  Li2  1  0.498281  0.498281  0.454946  1
  Li  Li3  1  0.498209  0.498209  0.973536  1
  Li  Li4  1  0.770905  0.770905  0.951706  1
  Li  Li5  1  0.863897  0.863897  0.958027  1
  Li  Li6  1  0.411576  0.411576  0.968135  1
  Li  Li7  1  0.130872  0.130872  0.952627  1
  Li  Li8  1  0.679495  0.679495  0.449202  1
  Li  Li9  1  0.863071  0.863071  0.453601  1
  Li  Li10  1  0.411875  0.411875  0.450732  1
  Li  Li11  1  0.130838  0.130838  0.454535  1
  Li  Li12  1  0.678335  0.678335  0.947944  1
  Li  Li13  1  0.955011  0.955011  0.710203  1
  Cd  Cd14  1  0.589290  0.589290  0.202719  1
  Cd  Cd15  1  0.770892  0.770892  0.455427  1
  Cd  Cd16  1  0.323630  0.323630  0.201703  1
  Cd  Cd17  1  0.218080  0.218080  0.704032  1
  Cd  Cd18  1  0.587371  0.587371  0.702137  1
  Cd  Cd19  1  0.954617  0.954617  0.209234  1
  Cd  Cd20  1  0.325338  0.325338  0.707616  1
  Cd  Cd21  1  0.218221  0.218221  0.197168  1
