# generated using pymatgen
data_La9TbIr4
_symmetry_space_group_name_H-M   'P 1'
_cell_length_a   6.75115280
_cell_length_b   7.37203385
_cell_length_c   9.15809685
_cell_angle_alpha   95.93445883
_cell_angle_beta   111.62863947
_cell_angle_gamma   90.00000258
_symmetry_Int_Tables_number   1
_chemical_formula_structural   La9TbIr4
_chemical_formula_sum   'La9 Tb1 Ir4'
_cell_volume   421.07564089
_cell_formula_units_Z   1
loop_
 _symmetry_equiv_pos_site_id
 _symmetry_equiv_pos_as_xyz
  1  'x, y, z'
loop_
 _atom_site_type_symbol
 _atom_site_label
 _atom_site_symmetry_multiplicity
 _atom_site_fract_x
 _atom_site_fract_y
 _atom_site_fract_z
 _atom_site_occupancy
  La  La0  1  0.980756  0.917434  0.182771  1
  La  La1  1  0.797984  0.582566  0.817229  1
  La  La2  1  0.014664  0.086522  0.818384  1
  La  La3  1  0.196281  0.413478  0.181616  1
  La  La4  1  0.651554  0.815070  0.432537  1
  La  La5  1  0.219017  0.684930  0.567463  1
  La  La6  1  0.356978  0.184557  0.572950  1
  La  La7  1  0.784027  0.315443  0.427050  1
  La  La8  1  0.425729  0.750000  0.000000  1
  Tb  Tb9  1  0.566486  0.250000  0.000000  1
  Ir  Ir10  1  0.816065  0.573685  0.217520  1
  Ir  Ir11  1  0.598544  0.926315  0.782480  1
  Ir  Ir12  1  0.185690  0.422406  0.779464  1
  Ir  Ir13  1  0.406226  0.077594  0.220536  1
