# generated using pymatgen
data_Sc10GaSb5
_symmetry_space_group_name_H-M   'P 1'
_cell_length_a   8.38515100
_cell_length_b   8.38476123
_cell_length_c   5.96637700
_cell_angle_alpha   90.00000000
_cell_angle_beta   90.00000000
_cell_angle_gamma   120.00153379
_symmetry_Int_Tables_number   1
_chemical_formula_structural   Sc10GaSb5
_chemical_formula_sum   'Sc10 Ga1 Sb5'
_cell_volume   363.27557499
_cell_formula_units_Z   1
loop_
 _symmetry_equiv_pos_site_id
 _symmetry_equiv_pos_as_xyz
  1  'x, y, z'
loop_
 _atom_site_type_symbol
 _atom_site_label
 _atom_site_symmetry_multiplicity
 _atom_site_fract_x
 _atom_site_fract_y
 _atom_site_fract_z
 _atom_site_occupancy
  Sc  Sc0  1  0.334719  0.674093  0.997672  1
  Sc  Sc1  1  0.660627  0.325907  0.502328  1
  Sc  Sc2  1  0.660627  0.325907  0.997672  1
  Sc  Sc3  1  0.334719  0.674093  0.502328  1
  Sc  Sc4  1  0.241942  0.000000  0.250000  1
  Sc  Sc5  1  0.244501  0.232314  0.750000  1
  Sc  Sc6  1  0.012188  0.767686  0.750000  1
  Sc  Sc7  1  0.998635  0.240672  0.250000  1
  Sc  Sc8  1  0.757963  0.759328  0.250000  1
  Sc  Sc9  1  0.752407  0.000000  0.750000  1
  Ga  Ga10  1  0.393761  0.000000  0.750000  1
  Sb  Sb11  1  0.607141  0.000000  0.250000  1
  Sb  Sb12  1  0.612437  0.610809  0.750000  1
  Sb  Sb13  1  0.001628  0.389191  0.750000  1
  Sb  Sb14  1  0.997554  0.608401  0.250000  1
  Sb  Sb15  1  0.389153  0.391599  0.250000  1
