# generated using pymatgen
data_ScMn3VCoP3
_symmetry_space_group_name_H-M   'P 1'
_cell_length_a   3.54026500
_cell_length_b   10.46824500
_cell_length_c   12.14933900
_cell_angle_alpha   90.00000000
_cell_angle_beta   90.00000000
_cell_angle_gamma   90.00000000
_symmetry_Int_Tables_number   1
_chemical_formula_structural   ScMn3VCoP3
_chemical_formula_sum   'Sc4 Mn12 V4 Co4 P12'
_cell_volume   450.25889393
_cell_formula_units_Z   4
loop_
 _symmetry_equiv_pos_site_id
 _symmetry_equiv_pos_as_xyz
  1  'x, y, z'
loop_
 _atom_site_type_symbol
 _atom_site_label
 _atom_site_symmetry_multiplicity
 _atom_site_fract_x
 _atom_site_fract_y
 _atom_site_fract_z
 _atom_site_occupancy
  Sc  Sc0  1  0.250000  0.582768  0.709319  1
  Sc  Sc1  1  0.250000  0.917232  0.209319  1
  Sc  Sc2  1  0.750000  0.417232  0.290681  1
  Sc  Sc3  1  0.750000  0.082768  0.790681  1
  Mn  Mn4  1  0.250000  0.408699  0.491768  1
  Mn  Mn5  1  0.250000  0.091301  0.991768  1
  Mn  Mn6  1  0.750000  0.591301  0.508232  1
  Mn  Mn7  1  0.750000  0.908699  0.008232  1
  Mn  Mn8  1  0.250000  0.216770  0.178495  1
  Mn  Mn9  1  0.250000  0.283231  0.678495  1
  Mn  Mn10  1  0.750000  0.783231  0.821505  1
  Mn  Mn11  1  0.750000  0.716769  0.321505  1
  Mn  Mn12  1  0.250000  0.879361  0.697296  1
  Mn  Mn13  1  0.250000  0.620639  0.197296  1
  Mn  Mn14  1  0.750000  0.120639  0.302704  1
  Mn  Mn15  1  0.750000  0.379361  0.802704  1
  V  V16  1  0.250000  0.706230  0.987631  1
  V  V17  1  0.250000  0.793770  0.487631  1
  V  V18  1  0.750000  0.293770  0.012369  1
  V  V19  1  0.750000  0.206230  0.512369  1
  Co  Co20  1  0.250000  0.463503  0.935161  1
  Co  Co21  1  0.250000  0.036497  0.435161  1
  Co  Co22  1  0.750000  0.536497  0.064839  1
  Co  Co23  1  0.750000  0.963503  0.564839  1
  P  P24  1  0.250000  0.420638  0.116376  1
  P  P25  1  0.250000  0.079362  0.616376  1
  P  P26  1  0.750000  0.579362  0.883624  1
  P  P27  1  0.750000  0.920638  0.383624  1
  P  P28  1  0.250000  0.260174  0.869323  1
  P  P29  1  0.250000  0.239826  0.369323  1
  P  P30  1  0.750000  0.739826  0.130677  1
  P  P31  1  0.750000  0.760174  0.630677  1
  P  P32  1  0.250000  0.589697  0.383895  1
  P  P33  1  0.250000  0.910303  0.883895  1
  P  P34  1  0.750000  0.410303  0.616105  1
  P  P35  1  0.750000  0.089697  0.116105  1
