# generated using pymatgen
data_La9NdCoRu3
_symmetry_space_group_name_H-M   'P 1'
_cell_length_a   9.14299009
_cell_length_b   9.13841371
_cell_length_c   7.31250021
_cell_angle_alpha   86.00856762
_cell_angle_beta   85.98813822
_cell_angle_gamma   42.95112819
_symmetry_Int_Tables_number   1
_chemical_formula_structural   La9NdCoRu3
_chemical_formula_sum   'La9 Nd1 Co1 Ru3'
_cell_volume   415.13181727
_cell_formula_units_Z   1
loop_
 _symmetry_equiv_pos_site_id
 _symmetry_equiv_pos_as_xyz
  1  'x, y, z'
loop_
 _atom_site_type_symbol
 _atom_site_label
 _atom_site_symmetry_multiplicity
 _atom_site_fract_x
 _atom_site_fract_y
 _atom_site_fract_z
 _atom_site_occupancy
  La  La0  1  0.018764  0.796376  0.898939  1
  La  La1  1  0.200214  0.985374  0.590709  1
  La  La2  1  0.987651  0.196205  0.093852  1
  La  La3  1  0.806425  0.009953  0.404824  1
  La  La4  1  0.359390  0.213932  0.821220  1
  La  La5  1  0.785164  0.641379  0.680267  1
  La  La6  1  0.640298  0.788599  0.179689  1
  La  La7  1  0.211796  0.364039  0.327855  1
  La  La8  1  0.570096  0.427847  0.748565  1
  Nd  Nd9  1  0.425498  0.573001  0.251033  1
  Co  Co10  1  0.170226  0.604587  0.586101  1
  Ru  Ru11  1  0.392186  0.830169  0.916652  1
  Ru  Ru12  1  0.827933  0.398264  0.419863  1
  Ru  Ru13  1  0.604360  0.170274  0.080431  1
