# generated using pymatgen
data_Na7Pd6
_symmetry_space_group_name_H-M   'P 1'
_cell_length_a   5.55334074
_cell_length_b   5.55334262
_cell_length_c   10.40748985
_cell_angle_alpha   74.52633206
_cell_angle_beta   74.52633590
_cell_angle_gamma   59.99999235
_symmetry_Int_Tables_number   1
_chemical_formula_structural   Na7Pd6
_chemical_formula_sum   'Na7 Pd6'
_cell_volume   264.44303310
_cell_formula_units_Z   1
loop_
 _symmetry_equiv_pos_site_id
 _symmetry_equiv_pos_as_xyz
  1  'x, y, z'
loop_
 _atom_site_type_symbol
 _atom_site_label
 _atom_site_symmetry_multiplicity
 _atom_site_fract_x
 _atom_site_fract_y
 _atom_site_fract_z
 _atom_site_occupancy
  Na  Na0  1  0.000000  0.000000  0.000000  1
  Na  Na1  1  0.833559  0.833559  0.499321  1
  Na  Na2  1  0.166441  0.166441  0.500679  1
  Na  Na3  1  0.651287  0.651287  0.046140  1
  Na  Na4  1  0.348713  0.348713  0.953860  1
  Na  Na5  1  0.553554  0.553554  0.339340  1
  Na  Na6  1  0.446446  0.446446  0.660660  1
  Pd  Pd7  1  0.911512  0.911512  0.761646  1
  Pd  Pd8  1  0.415329  0.911512  0.761646  1
  Pd  Pd9  1  0.911512  0.415329  0.761646  1
  Pd  Pd10  1  0.088488  0.088488  0.238354  1
  Pd  Pd11  1  0.584671  0.088488  0.238354  1
  Pd  Pd12  1  0.088488  0.584671  0.238354  1
