# generated using pymatgen
data_Ca2Yb(PrPb2)2
_symmetry_space_group_name_H-M   'P 1'
_cell_length_a   8.09959600
_cell_length_b   8.67384900
_cell_length_c   16.34411600
_cell_angle_alpha   90.00000000
_cell_angle_beta   90.00000000
_cell_angle_gamma   90.00000000
_symmetry_Int_Tables_number   1
_chemical_formula_structural   Ca2Yb(PrPb2)2
_chemical_formula_sum   'Ca8 Yb4 Pr8 Pb16'
_cell_volume   1148.25051958
_cell_formula_units_Z   4
loop_
 _symmetry_equiv_pos_site_id
 _symmetry_equiv_pos_as_xyz
  1  'x, y, z'
loop_
 _atom_site_type_symbol
 _atom_site_label
 _atom_site_symmetry_multiplicity
 _atom_site_fract_x
 _atom_site_fract_y
 _atom_site_fract_z
 _atom_site_occupancy
  Ca  Ca0  1  0.665244  0.166570  0.622646  1
  Ca  Ca1  1  0.165244  0.333430  0.877354  1
  Ca  Ca2  1  0.334756  0.833430  0.122646  1
  Ca  Ca3  1  0.834756  0.666570  0.377354  1
  Ca  Ca4  1  0.834533  0.496382  0.749968  1
  Ca  Ca5  1  0.334533  0.003618  0.750032  1
  Ca  Ca6  1  0.165467  0.503618  0.249968  1
  Ca  Ca7  1  0.665467  0.996382  0.250032  1
  Yb  Yb8  1  0.334761  0.833217  0.377211  1
  Yb  Yb9  1  0.834761  0.666783  0.122789  1
  Yb  Yb10  1  0.665239  0.166783  0.877211  1
  Yb  Yb11  1  0.165239  0.333217  0.622789  1
  Pr  Pr12  1  0.501297  0.686134  0.595408  1
  Pr  Pr13  1  0.001297  0.813866  0.904592  1
  Pr  Pr14  1  0.498703  0.313866  0.095408  1
  Pr  Pr15  1  0.998703  0.186134  0.404592  1
  Pr  Pr16  1  0.498797  0.313792  0.404547  1
  Pr  Pr17  1  0.998797  0.186208  0.095453  1
  Pr  Pr18  1  0.501203  0.686208  0.904547  1
  Pr  Pr19  1  0.001203  0.813792  0.595453  1
  Pb  Pb20  1  0.677126  0.962178  0.459398  1
  Pb  Pb21  1  0.177126  0.537822  0.040602  1
  Pb  Pb22  1  0.322874  0.037822  0.959398  1
  Pb  Pb23  1  0.822874  0.462178  0.540602  1
  Pb  Pb24  1  0.322282  0.038014  0.540395  1
  Pb  Pb25  1  0.822282  0.461986  0.959605  1
  Pb  Pb26  1  0.677718  0.961986  0.040395  1
  Pb  Pb27  1  0.177718  0.538014  0.459605  1
  Pb  Pb28  1  0.467008  0.392605  0.750141  1
  Pb  Pb29  1  0.967008  0.107395  0.749859  1
  Pb  Pb30  1  0.532992  0.607395  0.250141  1
  Pb  Pb31  1  0.032992  0.892605  0.249859  1
  Pb  Pb32  1  0.703113  0.853964  0.750180  1
  Pb  Pb33  1  0.203113  0.646036  0.749820  1
  Pb  Pb34  1  0.296887  0.146036  0.250180  1
  Pb  Pb35  1  0.796887  0.353964  0.249820  1
