# generated using pymatgen
data_Tb(Zn5Rh)2
_symmetry_space_group_name_H-M   'P 1'
_cell_length_a   6.85866983
_cell_length_b   6.78368797
_cell_length_c   6.78368766
_cell_angle_alpha   97.74009610
_cell_angle_beta   98.21069384
_cell_angle_gamma   135.48334797
_symmetry_Int_Tables_number   1
_chemical_formula_structural   Tb(Zn5Rh)2
_chemical_formula_sum   'Tb1 Zn10 Rh2'
_cell_volume   205.90771877
_cell_formula_units_Z   1
loop_
 _symmetry_equiv_pos_site_id
 _symmetry_equiv_pos_as_xyz
  1  'x, y, z'
loop_
 _atom_site_type_symbol
 _atom_site_label
 _atom_site_symmetry_multiplicity
 _atom_site_fract_x
 _atom_site_fract_y
 _atom_site_fract_z
 _atom_site_occupancy
  Tb  Tb0  1  0.000000  0.000000  0.000000  1
  Zn  Zn1  1  0.500000  0.500000  0.500000  1
  Zn  Zn2  1  0.500000  0.000000  0.000000  1
  Zn  Zn3  1  0.000000  0.349254  0.349254  1
  Zn  Zn4  1  0.000000  0.650746  0.650746  1
  Zn  Zn5  1  0.679451  0.031726  0.647725  1
  Zn  Zn6  1  0.320549  0.968274  0.352275  1
  Zn  Zn7  1  0.500000  0.280196  0.780196  1
  Zn  Zn8  1  0.500000  0.719804  0.219804  1
  Zn  Zn9  1  0.715606  0.497330  0.218276  1
  Zn  Zn10  1  0.284394  0.502670  0.781724  1
  Rh  Rh11  1  0.000000  0.000000  0.500000  1
  Rh  Rh12  1  0.000000  0.500000  0.000000  1
