# generated using pymatgen
data_Pa3Ni(Bi2Rh)2
_symmetry_space_group_name_H-M   'P 1'
_cell_length_a   8.45389531
_cell_length_b   8.45389553
_cell_length_c   8.45389500
_cell_angle_alpha   109.00215893
_cell_angle_beta   109.00215731
_cell_angle_gamma   110.41347664
_symmetry_Int_Tables_number   1
_chemical_formula_structural   Pa3Ni(Bi2Rh)2
_chemical_formula_sum   'Pa6 Ni2 Bi8 Rh4'
_cell_volume   465.00799730
_cell_formula_units_Z   2
loop_
 _symmetry_equiv_pos_site_id
 _symmetry_equiv_pos_as_xyz
  1  'x, y, z'
loop_
 _atom_site_type_symbol
 _atom_site_label
 _atom_site_symmetry_multiplicity
 _atom_site_fract_x
 _atom_site_fract_y
 _atom_site_fract_z
 _atom_site_occupancy
  Pa  Pa0  1  0.625000  0.375000  0.750000  1
  Pa  Pa1  1  0.875000  0.125000  0.250000  1
  Pa  Pa2  1  0.377575  0.750000  0.627575  1
  Pa  Pa3  1  0.122425  0.250000  0.872425  1
  Pa  Pa4  1  0.750000  0.622425  0.372425  1
  Pa  Pa5  1  0.250000  0.877575  0.127575  1
  Ni  Ni6  1  0.125000  0.875000  0.750000  1
  Ni  Ni7  1  0.375000  0.625000  0.250000  1
  Bi  Bi8  1  0.830470  0.824830  0.821917  1
  Bi  Bi9  1  0.669530  0.991448  0.494361  1
  Bi  Bi10  1  0.497087  0.675170  0.005639  1
  Bi  Bi11  1  0.324830  0.330470  0.321917  1
  Bi  Bi12  1  0.002913  0.508552  0.678083  1
  Bi  Bi13  1  0.175170  0.997087  0.505639  1
  Bi  Bi14  1  0.008552  0.502913  0.178083  1
  Bi  Bi15  1  0.491448  0.169530  0.994361  1
  Rh  Rh16  1  0.876059  0.750000  0.126059  1
  Rh  Rh17  1  0.623941  0.250000  0.373941  1
  Rh  Rh18  1  0.750000  0.123941  0.873941  1
  Rh  Rh19  1  0.250000  0.376059  0.626059  1
