# generated using pymatgen
data_Nd9Sm(Si2Hg)2
_symmetry_space_group_name_H-M   'P 1'
_cell_length_a   7.78450621
_cell_length_b   7.78450410
_cell_length_c   9.30325600
_cell_angle_alpha   114.75086362
_cell_angle_beta   114.75086455
_cell_angle_gamma   90.08774707
_symmetry_Int_Tables_number   1
_chemical_formula_structural   Nd9Sm(Si2Hg)2
_chemical_formula_sum   'Nd9 Sm1 Si4 Hg2'
_cell_volume   454.13100298
_cell_formula_units_Z   1
loop_
 _symmetry_equiv_pos_site_id
 _symmetry_equiv_pos_as_xyz
  1  'x, y, z'
loop_
 _atom_site_type_symbol
 _atom_site_label
 _atom_site_symmetry_multiplicity
 _atom_site_fract_x
 _atom_site_fract_y
 _atom_site_fract_z
 _atom_site_occupancy
  Nd  Nd0  1  0.499933  0.499734  0.999748  1
  Nd  Nd1  1  0.999734  0.999933  0.999748  1
  Nd  Nd2  1  0.963589  0.814940  0.278127  1
  Nd  Nd3  1  0.314940  0.463589  0.278127  1
  Nd  Nd4  1  0.814724  0.314724  0.277938  1
  Nd  Nd5  1  0.463095  0.963095  0.278056  1
  Nd  Nd6  1  0.036908  0.184676  0.721887  1
  Nd  Nd7  1  0.684676  0.536908  0.721887  1
  Nd  Nd8  1  0.185640  0.685640  0.721944  1
  Sm  Sm9  1  0.537581  0.037581  0.724399  1
  Si  Si10  1  0.615738  0.884533  0.998933  1
  Si  Si11  1  0.384533  0.115738  0.998933  1
  Si  Si12  1  0.882914  0.382914  0.998627  1
  Si  Si13  1  0.115726  0.615726  0.000109  1
  Hg  Hg14  1  0.749251  0.751019  0.500766  1
  Hg  Hg15  1  0.251019  0.249251  0.500766  1
