# generated using pymatgen
data_Dy3Zn2B4Rh9
_symmetry_space_group_name_H-M   'P 1'
_cell_length_a   5.50807400
_cell_length_b   5.50807449
_cell_length_c   10.07991200
_cell_angle_alpha   90.00000000
_cell_angle_beta   90.00000000
_cell_angle_gamma   120.00000906
_symmetry_Int_Tables_number   1
_chemical_formula_structural   Dy3Zn2B4Rh9
_chemical_formula_sum   'Dy3 Zn2 B4 Rh9'
_cell_volume   264.84202753
_cell_formula_units_Z   1
loop_
 _symmetry_equiv_pos_site_id
 _symmetry_equiv_pos_as_xyz
  1  'x, y, z'
loop_
 _atom_site_type_symbol
 _atom_site_label
 _atom_site_symmetry_multiplicity
 _atom_site_fract_x
 _atom_site_fract_y
 _atom_site_fract_z
 _atom_site_occupancy
  Dy  Dy0  1  0.000000  0.000000  0.661296  1
  Dy  Dy1  1  0.000000  0.000000  0.338704  1
  Dy  Dy2  1  0.000000  0.000000  0.000000  1
  Zn  Zn3  1  0.333333  0.666667  0.000000  1
  Zn  Zn4  1  0.666667  0.333333  0.000000  1
  B  B5  1  0.333333  0.666667  0.653521  1
  B  B6  1  0.666667  0.333333  0.653521  1
  B  B7  1  0.666667  0.333333  0.346479  1
  B  B8  1  0.333333  0.666667  0.346479  1
  Rh  Rh9  1  0.500000  0.500000  0.500000  1
  Rh  Rh10  1  0.000000  0.500000  0.500000  1
  Rh  Rh11  1  0.500000  0.000000  0.208892  1
  Rh  Rh12  1  0.500000  0.500000  0.208892  1
  Rh  Rh13  1  0.000000  0.500000  0.208892  1
  Rh  Rh14  1  0.500000  0.000000  0.791108  1
  Rh  Rh15  1  0.500000  0.500000  0.791108  1
  Rh  Rh16  1  0.000000  0.500000  0.791108  1
  Rh  Rh17  1  0.500000  0.000000  0.500000  1
