# generated using pymatgen
data_Sr3Er(NiAs)4
_symmetry_space_group_name_H-M   'P 1'
_cell_length_a   4.08561100
_cell_length_b   4.08561046
_cell_length_c   17.39302900
_cell_angle_alpha   90.00000000
_cell_angle_beta   90.00000000
_cell_angle_gamma   120.00001250
_symmetry_Int_Tables_number   1
_chemical_formula_structural   Sr3Er(NiAs)4
_chemical_formula_sum   'Sr3 Er1 Ni4 As4'
_cell_volume   251.43154764
_cell_formula_units_Z   1
loop_
 _symmetry_equiv_pos_site_id
 _symmetry_equiv_pos_as_xyz
  1  'x, y, z'
loop_
 _atom_site_type_symbol
 _atom_site_label
 _atom_site_symmetry_multiplicity
 _atom_site_fract_x
 _atom_site_fract_y
 _atom_site_fract_z
 _atom_site_occupancy
  Sr  Sr0  1  0.000000  0.000000  0.250000  1
  Sr  Sr1  1  0.000000  0.000000  0.991535  1
  Sr  Sr2  1  0.000000  0.000000  0.508465  1
  Er  Er3  1  0.000000  0.000000  0.750000  1
  Ni  Ni4  1  0.333333  0.666667  0.120875  1
  Ni  Ni5  1  0.666667  0.333333  0.853085  1
  Ni  Ni6  1  0.666667  0.333333  0.646915  1
  Ni  Ni7  1  0.333333  0.666667  0.379125  1
  As  As8  1  0.333333  0.666667  0.636948  1
  As  As9  1  0.666667  0.333333  0.379549  1
  As  As10  1  0.666667  0.333333  0.120451  1
  As  As11  1  0.333333  0.666667  0.863052  1
