# generated using pymatgen
data_Ho11ScPb10
_symmetry_space_group_name_H-M   'P 1'
_cell_length_a   11.70598327
_cell_length_b   11.70598347
_cell_length_c   11.71663330
_cell_angle_alpha   147.49187678
_cell_angle_beta   132.67747254
_cell_angle_gamma   58.49520594
_symmetry_Int_Tables_number   1
_chemical_formula_structural   Ho11ScPb10
_chemical_formula_sum   'Ho11 Sc1 Pb10'
_cell_volume   629.43087673
_cell_formula_units_Z   1
loop_
 _symmetry_equiv_pos_site_id
 _symmetry_equiv_pos_as_xyz
  1  'x, y, z'
loop_
 _atom_site_type_symbol
 _atom_site_label
 _atom_site_symmetry_multiplicity
 _atom_site_fract_x
 _atom_site_fract_y
 _atom_site_fract_z
 _atom_site_occupancy
  Ho  Ho0  1  0.696050  0.946050  0.250000  1
  Ho  Ho1  1  0.252190  0.640246  0.610936  1
  Ho  Ho2  1  0.674337  0.940758  0.733017  1
  Ho  Ho3  1  0.029310  0.141252  0.889064  1
  Ho  Ho4  1  0.969942  0.857828  0.110649  1
  Ho  Ho5  1  0.792460  0.559753  0.232985  1
  Ho  Ho6  1  0.207741  0.441319  0.766983  1
  Ho  Ho7  1  0.303918  0.053918  0.750000  1
  Ho  Ho8  1  0.326767  0.059475  0.267015  1
  Ho  Ho9  1  0.304193  0.554193  0.250000  1
  Ho  Ho10  1  0.747178  0.359293  0.389351  1
  Sc  Sc11  1  0.694585  0.444585  0.750000  1
  Pb  Pb12  1  0.479206  0.570478  0.896252  1
  Pb  Pb13  1  0.598766  0.787732  0.800406  1
  Pb  Pb14  1  0.674227  0.082955  0.603748  1
  Pb  Pb15  1  0.000230  0.750230  0.750000  1
  Pb  Pb16  1  0.987326  0.298360  0.699594  1
  Pb  Pb17  1  0.524012  0.424791  0.099026  1
  Pb  Pb18  1  0.006752  0.702657  0.297626  1
  Pb  Pb19  1  0.405031  0.209127  0.202374  1
  Pb  Pb20  1  0.325765  0.924986  0.400974  1
  Pb  Pb21  1  0.000013  0.250013  0.250000  1
