# generated using pymatgen
data_BaVTeO6
_symmetry_space_group_name_H-M   'P 1'
_cell_length_a   5.27970601
_cell_length_b   5.27970666
_cell_length_c   5.81370501
_cell_angle_alpha   89.99933558
_cell_angle_beta   89.99933940
_cell_angle_gamma   120.00172732
_symmetry_Int_Tables_number   1
_chemical_formula_structural   BaVTeO6
_chemical_formula_sum   'Ba1 V1 Te1 O6'
_cell_volume   140.34456461
_cell_formula_units_Z   1
loop_
 _symmetry_equiv_pos_site_id
 _symmetry_equiv_pos_as_xyz
  1  'x, y, z'
loop_
 _atom_site_type_symbol
 _atom_site_label
 _atom_site_symmetry_multiplicity
 _atom_site_fract_x
 _atom_site_fract_y
 _atom_site_fract_z
 _atom_site_occupancy
  Ba  Ba0  1  0.999993  0.000007  0.000000  1
  V  V1  1  0.333363  0.666638  0.500001  1
  Te  Te2  1  0.666682  0.333319  0.500001  1
  O  O3  1  0.604386  0.001499  0.308349  1
  O  O4  1  0.998484  0.602897  0.308353  1
  O  O5  1  0.397092  0.395608  0.308346  1
  O  O6  1  0.604393  0.602910  0.691654  1
  O  O7  1  0.397105  0.001518  0.691648  1
  O  O8  1  0.998503  0.395616  0.691651  1
