# generated using pymatgen
data_Nd3Th(Ga8Pt3)3
_symmetry_space_group_name_H-M   'P 1'
_cell_length_a   7.59440942
_cell_length_b   7.64629961
_cell_length_c   13.37639145
_cell_angle_alpha   84.65111738
_cell_angle_beta   79.27611123
_cell_angle_gamma   60.14007238
_symmetry_Int_Tables_number   1
_chemical_formula_structural   Nd3Th(Ga8Pt3)3
_chemical_formula_sum   'Nd3 Th1 Ga24 Pt9'
_cell_volume   661.87235715
_cell_formula_units_Z   1
loop_
 _symmetry_equiv_pos_site_id
 _symmetry_equiv_pos_as_xyz
  1  'x, y, z'
loop_
 _atom_site_type_symbol
 _atom_site_label
 _atom_site_symmetry_multiplicity
 _atom_site_fract_x
 _atom_site_fract_y
 _atom_site_fract_z
 _atom_site_occupancy
  Nd  Nd0  1  0.605962  0.831488  0.189771  1
  Nd  Nd1  1  0.732324  0.497606  0.810562  1
  Nd  Nd2  1  0.267704  0.502246  0.189564  1
  Th  Th3  1  0.394735  0.168710  0.808434  1
  Ga  Ga4  1  0.688192  0.831605  0.940911  1
  Ga  Ga5  1  0.312702  0.166579  0.060517  1
  Ga  Ga6  1  0.145529  0.833162  0.559286  1
  Ga  Ga7  1  0.854441  0.166975  0.440458  1
  Ga  Ga8  1  0.479807  0.166941  0.555307  1
  Ga  Ga9  1  0.520440  0.832470  0.443625  1
  Ga  Ga10  1  0.219329  0.165626  0.327823  1
  Ga  Ga11  1  0.784838  0.830639  0.671365  1
  Ga  Ga12  1  0.439259  0.507728  0.670641  1
  Ga  Ga13  1  0.561218  0.496507  0.328371  1
  Ga  Ga14  1  0.104857  0.163104  0.669072  1
  Ga  Ga15  1  0.892077  0.836415  0.329533  1
  Ga  Ga16  1  0.353503  0.501887  0.941472  1
  Ga  Ga17  1  0.646131  0.499993  0.059320  1
  Ga  Ga18  1  0.016098  0.167272  0.948027  1
  Ga  Ga19  1  0.981958  0.832600  0.053494  1
  Ga  Ga20  1  0.186058  0.499905  0.442773  1
  Ga  Ga21  1  0.813441  0.500452  0.557323  1
  Ga  Ga22  1  0.735363  0.164294  0.182588  1
  Ga  Ga23  1  0.263727  0.834828  0.817635  1
  Ga  Ga24  1  0.061141  0.633673  0.816517  1
  Ga  Ga25  1  0.937088  0.368343  0.183886  1
  Ga  Ga26  1  0.860740  0.037551  0.816582  1
  Ga  Ga27  1  0.140531  0.961540  0.183973  1
  Pt  Pt28  1  0.122036  0.494282  0.638185  1
  Pt  Pt29  1  0.881298  0.502327  0.362900  1
  Pt  Pt30  1  0.658701  0.169677  0.998828  1
  Pt  Pt31  1  0.340567  0.831211  0.000204  1
  Pt  Pt32  1  0.541994  0.166252  0.361513  1
  Pt  Pt33  1  0.457578  0.836898  0.638977  1
  Pt  Pt34  1  0.779561  0.170004  0.637047  1
  Pt  Pt35  1  0.217608  0.830233  0.364017  1
  Pt  Pt36  1  0.001463  0.498978  0.999500  1
