# generated using pymatgen
data_TbTm5(Lu2Pb3)2
_symmetry_space_group_name_H-M   'P 1'
_cell_length_a   8.94076048
_cell_length_b   8.93202294
_cell_length_c   6.49320900
_cell_angle_alpha   90.00000000
_cell_angle_beta   90.00000000
_cell_angle_gamma   119.96767960
_symmetry_Int_Tables_number   1
_chemical_formula_structural   TbTm5(Lu2Pb3)2
_chemical_formula_sum   'Tb1 Tm5 Lu4 Pb6'
_cell_volume   449.21645235
_cell_formula_units_Z   1
loop_
 _symmetry_equiv_pos_site_id
 _symmetry_equiv_pos_as_xyz
  1  'x, y, z'
loop_
 _atom_site_type_symbol
 _atom_site_label
 _atom_site_symmetry_multiplicity
 _atom_site_fract_x
 _atom_site_fract_y
 _atom_site_fract_z
 _atom_site_occupancy
  Tb  Tb0  1  0.000000  0.763386  0.250000  1
  Tm  Tm1  1  0.762489  0.763300  0.750000  1
  Tm  Tm2  1  0.237511  0.000811  0.750000  1
  Tm  Tm3  1  0.000000  0.235458  0.750000  1
  Tm  Tm4  1  0.237074  0.236847  0.250000  1
  Tm  Tm5  1  0.762926  0.999775  0.250000  1
  Lu  Lu6  1  0.667208  0.333738  0.999882  1
  Lu  Lu7  1  0.332792  0.666532  0.999882  1
  Lu  Lu8  1  0.332792  0.666532  0.500118  1
  Lu  Lu9  1  0.667208  0.333738  0.500118  1
  Pb  Pb10  1  0.395340  0.395512  0.750000  1
  Pb  Pb11  1  0.604660  0.000172  0.750000  1
  Pb  Pb12  1  0.000000  0.605253  0.750000  1
  Pb  Pb13  1  0.602442  0.603806  0.250000  1
  Pb  Pb14  1  0.397558  0.001363  0.250000  1
  Pb  Pb15  1  0.000000  0.393778  0.250000  1
