# generated using pymatgen
data_SrCd(BrO3)4
_symmetry_space_group_name_H-M   'P 1'
_cell_length_a   7.37315005
_cell_length_b   6.89525666
_cell_length_c   7.27609595
_cell_angle_alpha   81.57129723
_cell_angle_beta   71.98280751
_cell_angle_gamma   118.49158386
_symmetry_Int_Tables_number   1
_chemical_formula_structural   SrCd(BrO3)4
_chemical_formula_sum   'Sr1 Cd1 Br4 O12'
_cell_volume   289.39439640
_cell_formula_units_Z   1
loop_
 _symmetry_equiv_pos_site_id
 _symmetry_equiv_pos_as_xyz
  1  'x, y, z'
loop_
 _atom_site_type_symbol
 _atom_site_label
 _atom_site_symmetry_multiplicity
 _atom_site_fract_x
 _atom_site_fract_y
 _atom_site_fract_z
 _atom_site_occupancy
  Sr  Sr0  1  0.385101  0.615910  0.488627  1
  Cd  Cd1  1  0.595880  0.420165  0.962308  1
  Br  Br2  1  0.443207  0.844643  0.945927  1
  Br  Br3  1  0.736662  0.376730  0.431098  1
  Br  Br4  1  0.009331  0.112360  0.033356  1
  Br  Br5  1  0.077178  0.924122  0.538538  1
  O  O6  1  0.480355  0.661577  0.093499  1
  O  O7  1  0.596308  0.442665  0.622741  1
  O  O8  1  0.713152  0.513470  0.233507  1
  O  O9  1  0.560288  0.849774  0.707036  1
  O  O10  1  0.641880  0.111092  0.936729  1
  O  O11  1  0.010628  0.545102  0.387242  1
  O  O12  1  0.126745  0.397663  0.906505  1
  O  O13  1  0.338623  0.969452  0.431874  1
  O  O14  1  0.966634  0.732052  0.781663  1
  O  O15  1  0.810570  0.038455  0.268873  1
  O  O16  1  0.221667  0.112498  0.086476  1
  O  O17  1  0.128392  0.174871  0.576605  1
