# generated using pymatgen
data_Ac4RhAu3
_symmetry_space_group_name_H-M   'P 1'
_cell_length_a   4.86899800
_cell_length_b   6.20415715
_cell_length_c   7.91360001
_cell_angle_alpha   91.20895032
_cell_angle_beta   90.00000000
_cell_angle_gamma   90.00000000
_symmetry_Int_Tables_number   1
_chemical_formula_structural   Ac4RhAu3
_chemical_formula_sum   'Ac4 Rh1 Au3'
_cell_volume   239.00104317
_cell_formula_units_Z   1
loop_
 _symmetry_equiv_pos_site_id
 _symmetry_equiv_pos_as_xyz
  1  'x, y, z'
loop_
 _atom_site_type_symbol
 _atom_site_label
 _atom_site_symmetry_multiplicity
 _atom_site_fract_x
 _atom_site_fract_y
 _atom_site_fract_z
 _atom_site_occupancy
  Ac  Ac0  1  0.250000  0.633286  0.180430  1
  Ac  Ac1  1  0.750000  0.346473  0.826028  1
  Ac  Ac2  1  0.750000  0.142107  0.301459  1
  Ac  Ac3  1  0.250000  0.857372  0.690817  1
  Rh  Rh4  1  0.250000  0.171661  0.041750  1
  Au  Au5  1  0.750000  0.850199  0.958691  1
  Au  Au6  1  0.750000  0.651199  0.460008  1
  Au  Au7  1  0.250000  0.347704  0.540818  1
