# generated using pymatgen
data_LaTm9(FeSb2)2
_symmetry_space_group_name_H-M   'P 1'
_cell_length_a   7.80411900
_cell_length_b   8.89959500
_cell_length_c   11.97886600
_cell_angle_alpha   90.00000000
_cell_angle_beta   90.00000000
_cell_angle_gamma   90.00000000
_symmetry_Int_Tables_number   1
_chemical_formula_structural   LaTm9(FeSb2)2
_chemical_formula_sum   'La2 Tm18 Fe4 Sb8'
_cell_volume   831.97415095
_cell_formula_units_Z   2
loop_
 _symmetry_equiv_pos_site_id
 _symmetry_equiv_pos_as_xyz
  1  'x, y, z'
loop_
 _atom_site_type_symbol
 _atom_site_label
 _atom_site_symmetry_multiplicity
 _atom_site_fract_x
 _atom_site_fract_y
 _atom_site_fract_z
 _atom_site_occupancy
  La  La0  1  0.396213  0.250000  0.678182  1
  La  La1  1  0.896213  0.750000  0.821818  1
  Tm  Tm2  1  0.150167  0.750000  0.202272  1
  Tm  Tm3  1  0.650167  0.250000  0.297728  1
  Tm  Tm4  1  0.845929  0.250000  0.794539  1
  Tm  Tm5  1  0.345929  0.750000  0.705461  1
  Tm  Tm6  1  0.442522  0.750000  0.997466  1
  Tm  Tm7  1  0.942522  0.250000  0.502534  1
  Tm  Tm8  1  0.553030  0.250000  0.004347  1
  Tm  Tm9  1  0.053030  0.750000  0.495653  1
  Tm  Tm10  1  0.620241  0.750000  0.306516  1
  Tm  Tm11  1  0.120241  0.250000  0.193484  1
  Tm  Tm12  1  0.822918  0.973283  0.069557  1
  Tm  Tm13  1  0.322918  0.026717  0.430443  1
  Tm  Tm14  1  0.178940  0.453216  0.935000  1
  Tm  Tm15  1  0.678940  0.546784  0.565000  1
  Tm  Tm16  1  0.178940  0.046784  0.935000  1
  Tm  Tm17  1  0.678940  0.953216  0.565000  1
  Tm  Tm18  1  0.822918  0.526717  0.069557  1
  Tm  Tm19  1  0.322918  0.473283  0.430443  1
  Fe  Fe20  1  0.428763  0.750000  0.488953  1
  Fe  Fe21  1  0.928763  0.250000  0.011047  1
  Fe  Fe22  1  0.561732  0.250000  0.515237  1
  Fe  Fe23  1  0.061732  0.750000  0.984763  1
  Sb  Sb24  1  0.926872  0.992972  0.328644  1
  Sb  Sb25  1  0.426872  0.007028  0.171356  1
  Sb  Sb26  1  0.071972  0.490374  0.667385  1
  Sb  Sb27  1  0.571972  0.509626  0.832615  1
  Sb  Sb28  1  0.071972  0.009626  0.667385  1
  Sb  Sb29  1  0.571972  0.990374  0.832615  1
  Sb  Sb30  1  0.926872  0.507028  0.328644  1
  Sb  Sb31  1  0.426872  0.492972  0.171356  1
