# generated using pymatgen
data_Sr12ZnCo11Te7SeO48
_symmetry_space_group_name_H-M   'P 1'
_cell_length_a   11.25545464
_cell_length_b   11.26495150
_cell_length_c   11.25545300
_cell_angle_alpha   109.48830753
_cell_angle_beta   109.45411547
_cell_angle_gamma   109.48832013
_symmetry_Int_Tables_number   1
_chemical_formula_structural   Sr12ZnCo11Te7SeO48
_chemical_formula_sum   'Sr12 Zn1 Co11 Te7 Se1 O48'
_cell_volume   1098.35272646
_cell_formula_units_Z   1
loop_
 _symmetry_equiv_pos_site_id
 _symmetry_equiv_pos_as_xyz
  1  'x, y, z'
loop_
 _atom_site_type_symbol
 _atom_site_label
 _atom_site_symmetry_multiplicity
 _atom_site_fract_x
 _atom_site_fract_y
 _atom_site_fract_z
 _atom_site_occupancy
  Sr  Sr0  1  0.374844  0.749499  0.124834  1
  Sr  Sr1  1  0.250010  0.374624  0.125126  1
  Sr  Sr2  1  0.875392  0.628853  0.252157  1
  Sr  Sr3  1  0.375071  0.124645  0.249877  1
  Sr  Sr4  1  0.123239  0.246535  0.375341  1
  Sr  Sr5  1  0.752135  0.123296  0.376714  1
  Sr  Sr6  1  0.876834  0.753521  0.624635  1
  Sr  Sr7  1  0.247847  0.876734  0.623299  1
  Sr  Sr8  1  0.124656  0.371168  0.747925  1
  Sr  Sr9  1  0.624878  0.875377  0.750075  1
  Sr  Sr10  1  0.625093  0.250428  0.875149  1
  Sr  Sr11  1  0.749985  0.625357  0.874865  1
  Zn  Zn12  1  0.246597  0.124203  0.870071  1
  Co  Co13  1  0.753560  0.876026  0.130041  1
  Co  Co14  1  0.875270  0.250281  0.125020  1
  Co  Co15  1  0.625005  0.374732  0.249750  1
  Co  Co16  1  0.123500  0.877553  0.253576  1
  Co  Co17  1  0.630085  0.754016  0.376471  1
  Co  Co18  1  0.250238  0.624974  0.375279  1
  Co  Co19  1  0.369931  0.245934  0.623518  1
  Co  Co20  1  0.749755  0.375019  0.624722  1
  Co  Co21  1  0.876532  0.122478  0.746477  1
  Co  Co22  1  0.374969  0.625269  0.750241  1
  Co  Co23  1  0.124740  0.749723  0.874940  1
  Te  Te24  1  0.999944  0.999994  0.000027  1
  Te  Te25  1  0.500050  0.999992  0.000004  1
  Te  Te26  1  0.999988  0.499975  0.999982  1
  Te  Te27  1  0.500078  0.500087  0.000051  1
  Te  Te28  1  0.499993  0.499971  0.499972  1
  Te  Te29  1  0.500012  0.000032  0.500043  1
  Te  Te30  1  0.999990  0.500025  0.500010  1
  Se  Se31  1  0.000005  0.999995  0.499998  1
  O  O32  1  0.330237  0.905820  0.018251  1
  O  O33  1  0.187054  0.110529  0.015683  1
  O  O34  1  0.688038  0.669569  0.075841  1
  O  O35  1  0.888626  0.406572  0.076504  1
  O  O36  1  0.983282  0.671231  0.095697  1
  O  O37  1  0.612165  0.424202  0.093893  1
  O  O38  1  0.595675  0.924438  0.112416  1
  O  O39  1  0.018211  0.187927  0.112094  1
  O  O40  1  0.187977  0.575554  0.169720  1
  O  O41  1  0.484813  0.595261  0.171750  1
  O  O42  1  0.576517  0.169920  0.187834  1
  O  O43  1  0.112173  0.018389  0.187931  1
  O  O44  1  0.328293  0.923568  0.313047  1
  O  O45  1  0.481752  0.387611  0.312049  1
  O  O46  1  0.910374  0.015756  0.337562  1
  O  O47  1  0.923844  0.311761  0.330043  1
  O  O48  1  0.575820  0.906252  0.387791  1
  O  O49  1  0.312106  0.482051  0.388605  1
  O  O50  1  0.830021  0.518233  0.406177  1
  O  O51  1  0.072838  0.894734  0.410375  1
  O  O52  1  0.837625  0.821976  0.427315  1
  O  O53  1  0.093822  0.612087  0.423846  1
  O  O54  1  0.593886  0.169670  0.481720  1
  O  O55  1  0.387603  0.312070  0.483319  1
  O  O56  1  0.612416  0.687951  0.516722  1
  O  O57  1  0.406103  0.830332  0.518272  1
  O  O58  1  0.162356  0.178072  0.572740  1
  O  O59  1  0.906192  0.387927  0.576168  1
  O  O60  1  0.927259  0.105248  0.589557  1
  O  O61  1  0.169972  0.481733  0.593819  1
  O  O62  1  0.687892  0.517942  0.611380  1
  O  O63  1  0.424199  0.093749  0.612187  1
  O  O64  1  0.089123  0.983757  0.662021  1
  O  O65  1  0.076147  0.688202  0.669946  1
  O  O66  1  0.518261  0.612411  0.687981  1
  O  O67  1  0.671716  0.076429  0.686920  1
  O  O68  1  0.887783  0.981568  0.811956  1
  O  O69  1  0.423427  0.829982  0.812119  1
  O  O70  1  0.515197  0.404766  0.828320  1
  O  O71  1  0.812025  0.424428  0.830275  1
  O  O72  1  0.981748  0.812101  0.887901  1
  O  O73  1  0.404691  0.075595  0.887526  1
  O  O74  1  0.016706  0.328782  0.904295  1
  O  O75  1  0.387855  0.575692  0.906082  1
  O  O76  1  0.111355  0.593439  0.923481  1
  O  O77  1  0.311895  0.330717  0.924124  1
  O  O78  1  0.669677  0.094186  0.981808  1
  O  O79  1  0.813022  0.889488  0.984743  1
