# generated using pymatgen
data_Tb3Dy2P12Ru16Pt3
_symmetry_space_group_name_H-M   'P 1'
_cell_length_a   12.62412900
_cell_length_b   12.62412839
_cell_length_c   3.97124000
_cell_angle_alpha   90.00000000
_cell_angle_beta   90.00000000
_cell_angle_gamma   119.99999898
_symmetry_Int_Tables_number   1
_chemical_formula_structural   Tb3Dy2P12Ru16Pt3
_chemical_formula_sum   'Tb3 Dy2 P12 Ru16 Pt3'
_cell_volume   548.09974111
_cell_formula_units_Z   1
loop_
 _symmetry_equiv_pos_site_id
 _symmetry_equiv_pos_as_xyz
  1  'x, y, z'
loop_
 _atom_site_type_symbol
 _atom_site_label
 _atom_site_symmetry_multiplicity
 _atom_site_fract_x
 _atom_site_fract_y
 _atom_site_fract_z
 _atom_site_occupancy
  Tb  Tb0  1  0.816106  0.999210  0.500000  1
  Tb  Tb1  1  0.183104  0.183894  0.500000  1
  Tb  Tb2  1  0.000790  0.816896  0.500000  1
  Dy  Dy3  1  0.666667  0.333333  0.000000  1
  Dy  Dy4  1  0.333333  0.666667  0.000000  1
  P  P5  1  0.627601  0.986969  0.000000  1
  P  P6  1  0.359368  0.372399  0.000000  1
  P  P7  1  0.013031  0.640632  0.000000  1
  P  P8  1  0.695874  0.528564  0.500000  1
  P  P9  1  0.832691  0.304126  0.500000  1
  P  P10  1  0.308425  0.829309  0.500000  1
  P  P11  1  0.520883  0.691575  0.500000  1
  P  P12  1  0.183671  0.001086  0.000000  1
  P  P13  1  0.817417  0.816329  0.000000  1
  P  P14  1  0.998914  0.182583  0.000000  1
  P  P15  1  0.471436  0.167309  0.500000  1
  P  P16  1  0.170691  0.479117  0.500000  1
  Ru  Ru17  1  0.620621  0.799299  0.000000  1
  Ru  Ru18  1  0.178678  0.379379  0.000000  1
  Ru  Ru19  1  0.378674  0.188004  0.000000  1
  Ru  Ru20  1  0.200701  0.821322  0.000000  1
  Ru  Ru21  1  0.809330  0.621326  0.000000  1
  Ru  Ru22  1  0.126479  0.636073  0.500000  1
  Ru  Ru23  1  0.363927  0.490406  0.500000  1
  Ru  Ru24  1  0.509594  0.873521  0.500000  1
  Ru  Ru25  1  0.000000  0.000000  0.000000  1
  Ru  Ru26  1  0.716912  0.715487  0.500000  1
  Ru  Ru27  1  0.998575  0.283088  0.500000  1
  Ru  Ru28  1  0.453349  0.005732  0.000000  1
  Ru  Ru29  1  0.552383  0.546651  0.000000  1
  Ru  Ru30  1  0.994268  0.447617  0.000000  1
  Ru  Ru31  1  0.811996  0.190670  0.000000  1
  Ru  Ru32  1  0.284513  0.001425  0.500000  1
  Pt  Pt33  1  0.868071  0.501817  0.500000  1
  Pt  Pt34  1  0.498183  0.366253  0.500000  1
  Pt  Pt35  1  0.633747  0.131929  0.500000  1
