# generated using pymatgen
data_Nd2TmSi6(Pd9Pt)2
_symmetry_space_group_name_H-M   'P 1'
_cell_length_a   8.79287101
_cell_length_b   8.79287158
_cell_length_c   8.79287100
_cell_angle_alpha   59.77102004
_cell_angle_beta   59.77101033
_cell_angle_gamma   59.77101924
_symmetry_Int_Tables_number   1
_chemical_formula_structural   Nd2TmSi6(Pd9Pt)2
_chemical_formula_sum   'Nd2 Tm1 Si6 Pd18 Pt2'
_cell_volume   478.20413338
_cell_formula_units_Z   1
loop_
 _symmetry_equiv_pos_site_id
 _symmetry_equiv_pos_as_xyz
  1  'x, y, z'
loop_
 _atom_site_type_symbol
 _atom_site_label
 _atom_site_symmetry_multiplicity
 _atom_site_fract_x
 _atom_site_fract_y
 _atom_site_fract_z
 _atom_site_occupancy
  Nd  Nd0  1  0.250657  0.250657  0.250657  1
  Nd  Nd1  1  0.749343  0.749343  0.749343  1
  Tm  Tm2  1  0.000000  0.000000  0.000000  1
  Si  Si3  1  0.731774  0.266894  0.266894  1
  Si  Si4  1  0.268226  0.733106  0.733106  1
  Si  Si5  1  0.266894  0.731774  0.266894  1
  Si  Si6  1  0.733106  0.268226  0.733106  1
  Si  Si7  1  0.266894  0.266894  0.731774  1
  Si  Si8  1  0.733106  0.733106  0.268226  1
  Pd  Pd9  1  0.383332  0.383332  0.845759  1
  Pd  Pd10  1  0.383332  0.845759  0.383332  1
  Pd  Pd11  1  0.616668  0.616668  0.154241  1
  Pd  Pd12  1  0.616668  0.154241  0.616668  1
  Pd  Pd13  1  0.845759  0.383332  0.383332  1
  Pd  Pd14  1  0.154241  0.616668  0.616668  1
  Pd  Pd15  1  0.344873  0.999665  0.999665  1
  Pd  Pd16  1  0.655127  0.000335  0.000335  1
  Pd  Pd17  1  0.000000  0.344439  0.655561  1
  Pd  Pd18  1  0.000000  0.655561  0.344439  1
  Pd  Pd19  1  0.999665  0.344873  0.999665  1
  Pd  Pd20  1  0.655561  0.000000  0.344439  1
  Pd  Pd21  1  0.000335  0.655127  0.000335  1
  Pd  Pd22  1  0.344439  0.000000  0.655561  1
  Pd  Pd23  1  0.999665  0.999665  0.344873  1
  Pd  Pd24  1  0.000335  0.000335  0.655127  1
  Pd  Pd25  1  0.655561  0.344439  0.000000  1
  Pd  Pd26  1  0.344439  0.655561  0.000000  1
  Pt  Pt27  1  0.386836  0.386836  0.386836  1
  Pt  Pt28  1  0.613164  0.613164  0.613164  1
