# generated using pymatgen
data_Tb5Y(B7Os)2
_symmetry_space_group_name_H-M   'P 1'
_cell_length_a   8.10445318
_cell_length_b   8.10445308
_cell_length_c   9.36839300
_cell_angle_alpha   90.00000000
_cell_angle_beta   90.00000000
_cell_angle_gamma   154.81064821
_symmetry_Int_Tables_number   1
_chemical_formula_structural   Tb5Y(B7Os)2
_chemical_formula_sum   'Tb5 Y1 B14 Os2'
_cell_volume   261.89397243
_cell_formula_units_Z   1
loop_
 _symmetry_equiv_pos_site_id
 _symmetry_equiv_pos_as_xyz
  1  'x, y, z'
loop_
 _atom_site_type_symbol
 _atom_site_label
 _atom_site_symmetry_multiplicity
 _atom_site_fract_x
 _atom_site_fract_y
 _atom_site_fract_z
 _atom_site_occupancy
  Tb  Tb0  1  0.894196  0.105804  0.439783  1
  Tb  Tb1  1  0.105808  0.894192  0.560518  1
  Tb  Tb2  1  0.894196  0.105804  0.060217  1
  Tb  Tb3  1  0.105808  0.894192  0.939482  1
  Tb  Tb4  1  0.244272  0.755728  0.250000  1
  Y  Y5  1  0.755873  0.244127  0.750000  1
  B  B6  1  0.727327  0.272673  0.466388  1
  B  B7  1  0.272652  0.727348  0.534439  1
  B  B8  1  0.727327  0.272673  0.033612  1
  B  B9  1  0.272652  0.727348  0.965561  1
  B  B10  1  0.632099  0.367901  0.150869  1
  B  B11  1  0.367904  0.632096  0.849039  1
  B  B12  1  0.632099  0.367901  0.349131  1
  B  B13  1  0.367904  0.632096  0.650961  1
  B  B14  1  0.521467  0.478533  0.096866  1
  B  B15  1  0.478509  0.521491  0.903187  1
  B  B16  1  0.521467  0.478533  0.403134  1
  B  B17  1  0.478509  0.521491  0.596813  1
  B  B18  1  0.458343  0.541657  0.250000  1
  B  B19  1  0.541569  0.458431  0.750000  1
  Os  Os20  1  0.054626  0.945374  0.250000  1
  Os  Os21  1  0.945388  0.054612  0.750000  1
