# generated using pymatgen
data_CaTlPt2O7
_symmetry_space_group_name_H-M   'P 1'
_cell_length_a   7.29951239
_cell_length_b   7.29950993
_cell_length_c   7.29951200
_cell_angle_alpha   120.03572619
_cell_angle_beta   120.03343928
_cell_angle_gamma   89.94010889
_symmetry_Int_Tables_number   1
_chemical_formula_structural   CaTlPt2O7
_chemical_formula_sum   'Ca2 Tl2 Pt4 O14'
_cell_volume   274.87741780
_cell_formula_units_Z   2
loop_
 _symmetry_equiv_pos_site_id
 _symmetry_equiv_pos_as_xyz
  1  'x, y, z'
loop_
 _atom_site_type_symbol
 _atom_site_label
 _atom_site_symmetry_multiplicity
 _atom_site_fract_x
 _atom_site_fract_y
 _atom_site_fract_z
 _atom_site_occupancy
  Ca  Ca0  1  0.500000  0.500000  0.500000  1
  Ca  Ca1  1  0.500000  0.000000  0.000000  1
  Tl  Tl2  1  0.500000  0.500000  0.000000  1
  Tl  Tl3  1  0.000000  0.500000  0.500000  1
  Pt  Pt4  1  0.000000  0.000000  0.500000  1
  Pt  Pt5  1  0.000000  0.500000  0.000000  1
  Pt  Pt6  1  0.000000  0.000000  0.000000  1
  Pt  Pt7  1  0.500000  0.000000  0.500000  1
  O  O8  1  0.364384  0.614384  0.750000  1
  O  O9  1  0.635616  0.385616  0.250000  1
  O  O10  1  0.332924  0.082924  0.250000  1
  O  O11  1  0.918783  0.668783  0.250000  1
  O  O12  1  0.331483  0.667981  0.249201  1
  O  O13  1  0.918780  0.082282  0.250799  1
  O  O14  1  0.331483  0.082282  0.663503  1
  O  O15  1  0.918780  0.667981  0.836497  1
  O  O16  1  0.667076  0.917076  0.750000  1
  O  O17  1  0.081217  0.331217  0.750000  1
  O  O18  1  0.668517  0.332019  0.750799  1
  O  O19  1  0.081220  0.917718  0.749201  1
  O  O20  1  0.668517  0.917718  0.336497  1
  O  O21  1  0.081220  0.332019  0.163503  1
