# generated using pymatgen
data_NdSi2Tc3Os
_symmetry_space_group_name_H-M   'P 1'
_cell_length_a   4.11577000
_cell_length_b   7.35098900
_cell_length_c   15.36997500
_cell_angle_alpha   90.00000000
_cell_angle_beta   90.00000000
_cell_angle_gamma   90.00000000
_symmetry_Int_Tables_number   1
_chemical_formula_structural   NdSi2Tc3Os
_chemical_formula_sum   'Nd4 Si8 Tc12 Os4'
_cell_volume   465.01828617
_cell_formula_units_Z   4
loop_
 _symmetry_equiv_pos_site_id
 _symmetry_equiv_pos_as_xyz
  1  'x, y, z'
loop_
 _atom_site_type_symbol
 _atom_site_label
 _atom_site_symmetry_multiplicity
 _atom_site_fract_x
 _atom_site_fract_y
 _atom_site_fract_z
 _atom_site_occupancy
  Nd  Nd0  1  0.000000  0.578682  0.117848  1
  Nd  Nd1  1  0.000000  0.421318  0.882152  1
  Nd  Nd2  1  0.500000  0.078682  0.382152  1
  Nd  Nd3  1  0.500000  0.921318  0.617848  1
  Si  Si4  1  0.000000  0.824775  0.474781  1
  Si  Si5  1  0.000000  0.175225  0.525219  1
  Si  Si6  1  0.500000  0.324775  0.025219  1
  Si  Si7  1  0.500000  0.675225  0.974781  1
  Si  Si8  1  0.000000  0.294702  0.273524  1
  Si  Si9  1  0.000000  0.705298  0.726476  1
  Si  Si10  1  0.500000  0.794702  0.226476  1
  Si  Si11  1  0.500000  0.205298  0.773524  1
  Tc  Tc12  1  0.000000  0.730235  0.320899  1
  Tc  Tc13  1  0.000000  0.269765  0.679101  1
  Tc  Tc14  1  0.500000  0.230235  0.179101  1
  Tc  Tc15  1  0.500000  0.769765  0.820899  1
  Tc  Tc16  1  0.000000  0.431548  0.419468  1
  Tc  Tc17  1  0.000000  0.568452  0.580532  1
  Tc  Tc18  1  0.500000  0.931548  0.080532  1
  Tc  Tc19  1  0.500000  0.068452  0.919468  1
  Tc  Tc20  1  0.000000  0.991829  0.206345  1
  Tc  Tc21  1  0.000000  0.008171  0.793655  1
  Tc  Tc22  1  0.500000  0.491829  0.293655  1
  Tc  Tc23  1  0.500000  0.508171  0.706345  1
  Os  Os24  1  0.000000  0.142240  0.049931  1
  Os  Os25  1  0.000000  0.857760  0.950069  1
  Os  Os26  1  0.500000  0.642240  0.450069  1
  Os  Os27  1  0.500000  0.357760  0.549931  1
