# generated using pymatgen
data_TbTm4B4P8Ir19
_symmetry_space_group_name_H-M   'P 1'
_cell_length_a   12.41047850
_cell_length_b   12.37792307
_cell_length_c   3.95364700
_cell_angle_alpha   90.00000000
_cell_angle_beta   90.00000000
_cell_angle_gamma   119.61387984
_symmetry_Int_Tables_number   1
_chemical_formula_structural   TbTm4B4P8Ir19
_chemical_formula_sum   'Tb1 Tm4 B4 P8 Ir19'
_cell_volume   528.00917275
_cell_formula_units_Z   1
loop_
 _symmetry_equiv_pos_site_id
 _symmetry_equiv_pos_as_xyz
  1  'x, y, z'
loop_
 _atom_site_type_symbol
 _atom_site_label
 _atom_site_symmetry_multiplicity
 _atom_site_fract_x
 _atom_site_fract_y
 _atom_site_fract_z
 _atom_site_occupancy
  Tb  Tb0  1  0.182766  0.187471  0.000000  1
  Tm  Tm1  1  0.332760  0.666650  0.500000  1
  Tm  Tm2  1  0.674988  0.331177  0.500000  1
  Tm  Tm3  1  0.815101  0.002720  0.000000  1
  Tm  Tm4  1  0.001869  0.816295  0.000000  1
  B  B5  1  0.305149  0.814909  0.000000  1
  B  B6  1  0.178300  0.487274  0.000000  1
  B  B7  1  0.510032  0.692139  0.000000  1
  B  B8  1  0.823198  0.303142  0.000000  1
  P  P9  1  0.486981  0.173949  0.000000  1
  P  P10  1  0.692594  0.513588  0.000000  1
  P  P11  1  0.359254  0.365198  0.500000  1
  P  P12  1  0.640527  0.001148  0.500000  1
  P  P13  1  0.006086  0.640274  0.500000  1
  P  P14  1  0.816313  0.820072  0.500000  1
  P  P15  1  0.180049  0.997908  0.500000  1
  P  P16  1  0.001687  0.185667  0.500000  1
  Ir  Ir17  1  0.199343  0.817892  0.500000  1
  Ir  Ir18  1  0.181711  0.383308  0.500000  1
  Ir  Ir19  1  0.619631  0.804223  0.500000  1
  Ir  Ir20  1  0.821553  0.200799  0.500000  1
  Ir  Ir21  1  0.376836  0.181263  0.500000  1
  Ir  Ir22  1  0.807657  0.624231  0.500000  1
  Ir  Ir23  1  0.135266  0.637480  0.000000  1
  Ir  Ir24  1  0.359993  0.501222  0.000000  1
  Ir  Ir25  1  0.496699  0.858416  0.000000  1
  Ir  Ir26  1  0.642948  0.130034  0.000000  1
  Ir  Ir27  1  0.491404  0.363726  0.000000  1
  Ir  Ir28  1  0.868594  0.497118  0.000000  1
  Ir  Ir29  1  0.539770  0.549355  0.500000  1
  Ir  Ir30  1  0.454100  0.994758  0.500000  1
  Ir  Ir31  1  0.002980  0.455900  0.500000  1
  Ir  Ir32  1  0.701472  0.707137  0.000000  1
  Ir  Ir33  1  0.292739  0.993886  0.000000  1
  Ir  Ir34  1  0.001458  0.299909  0.000000  1
  Ir  Ir35  1  0.998191  0.999763  0.500000  1
