# generated using pymatgen
data_YbThTc3Ge4
_symmetry_space_group_name_H-M   'P 1'
_cell_length_a   8.32151400
_cell_length_b   5.80466026
_cell_length_c   7.05113969
_cell_angle_alpha   76.06680972
_cell_angle_beta   90.00000000
_cell_angle_gamma   90.00000000
_symmetry_Int_Tables_number   1
_chemical_formula_structural   YbThTc3Ge4
_chemical_formula_sum   'Yb2 Th2 Tc6 Ge8'
_cell_volume   330.57388339
_cell_formula_units_Z   2
loop_
 _symmetry_equiv_pos_site_id
 _symmetry_equiv_pos_as_xyz
  1  'x, y, z'
loop_
 _atom_site_type_symbol
 _atom_site_label
 _atom_site_symmetry_multiplicity
 _atom_site_fract_x
 _atom_site_fract_y
 _atom_site_fract_z
 _atom_site_occupancy
  Yb  Yb0  1  0.437652  0.928898  0.751501  1
  Yb  Yb1  1  0.937652  0.571102  0.248499  1
  Th  Th2  1  0.553744  0.077286  0.245004  1
  Th  Th3  1  0.053744  0.422714  0.754996  1
  Tc  Tc4  1  0.215489  0.112654  0.110964  1
  Tc  Tc5  1  0.715489  0.387346  0.889036  1
  Tc  Tc6  1  0.795579  0.885131  0.890379  1
  Tc  Tc7  1  0.295579  0.614869  0.109621  1
  Tc  Tc8  1  0.000792  0.999473  0.499831  1
  Tc  Tc9  1  0.500792  0.500527  0.500169  1
  Ge  Ge10  1  0.906652  0.109541  0.135617  1
  Ge  Ge11  1  0.406652  0.390459  0.864383  1
  Ge  Ge12  1  0.097826  0.877266  0.878775  1
  Ge  Ge13  1  0.597826  0.622734  0.121225  1
  Ge  Ge14  1  0.743259  0.212175  0.586700  1
  Ge  Ge15  1  0.243259  0.287825  0.413300  1
  Ge  Ge16  1  0.249007  0.772648  0.418889  1
  Ge  Ge17  1  0.749007  0.727352  0.581111  1
