# generated using pymatgen
data_La5In11Ir6
_symmetry_space_group_name_H-M   'P 1'
_cell_length_a   10.74441983
_cell_length_b   10.74441996
_cell_length_c   4.51199000
_cell_angle_alpha   90.00000000
_cell_angle_beta   90.00000000
_cell_angle_gamma   89.90291410
_symmetry_Int_Tables_number   1
_chemical_formula_structural   La5In11Ir6
_chemical_formula_sum   'La5 In11 Ir6'
_cell_volume   520.87492370
_cell_formula_units_Z   1
loop_
 _symmetry_equiv_pos_site_id
 _symmetry_equiv_pos_as_xyz
  1  'x, y, z'
loop_
 _atom_site_type_symbol
 _atom_site_label
 _atom_site_symmetry_multiplicity
 _atom_site_fract_x
 _atom_site_fract_y
 _atom_site_fract_z
 _atom_site_occupancy
  La  La0  1  0.044695  0.309651  0.000000  1
  La  La1  1  0.955305  0.690349  0.000000  1
  La  La2  1  0.690349  0.955305  0.000000  1
  La  La3  1  0.309651  0.044695  0.000000  1
  La  La4  1  0.500000  0.500000  0.500000  1
  In  In5  1  0.153113  0.541517  0.500000  1
  In  In6  1  0.846887  0.458483  0.500000  1
  In  In7  1  0.458483  0.846887  0.500000  1
  In  In8  1  0.541517  0.153113  0.500000  1
  In  In9  1  0.703935  0.296065  0.000000  1
  In  In10  1  0.296065  0.703935  0.000000  1
  In  In11  1  0.156844  0.843156  0.500000  1
  In  In12  1  0.843156  0.156844  0.500000  1
  In  In13  1  0.279826  0.279826  0.500000  1
  In  In14  1  0.720174  0.720174  0.500000  1
  In  In15  1  0.000000  0.000000  0.000000  1
  Ir  Ir16  1  0.273648  0.448814  0.000000  1
  Ir  Ir17  1  0.726352  0.551186  0.000000  1
  Ir  Ir18  1  0.551186  0.726352  0.000000  1
  Ir  Ir19  1  0.448814  0.273648  0.000000  1
  Ir  Ir20  1  0.100474  0.100474  0.500000  1
  Ir  Ir21  1  0.899526  0.899526  0.500000  1
