# generated using pymatgen
data_ZnIn5CoIr
_symmetry_space_group_name_H-M   'P 1'
_cell_length_a   6.86205260
_cell_length_b   6.91070750
_cell_length_c   7.21296700
_cell_angle_alpha   90.00000000
_cell_angle_beta   90.00000000
_cell_angle_gamma   90.07693292
_symmetry_Int_Tables_number   1
_chemical_formula_structural   ZnIn5CoIr
_chemical_formula_sum   'Zn2 In10 Co2 Ir2'
_cell_volume   342.05040451
_cell_formula_units_Z   2
loop_
 _symmetry_equiv_pos_site_id
 _symmetry_equiv_pos_as_xyz
  1  'x, y, z'
loop_
 _atom_site_type_symbol
 _atom_site_label
 _atom_site_symmetry_multiplicity
 _atom_site_fract_x
 _atom_site_fract_y
 _atom_site_fract_z
 _atom_site_occupancy
  Zn  Zn0  1  0.500000  0.500000  0.000000  1
  Zn  Zn1  1  0.500000  0.500000  0.500000  1
  In  In2  1  0.000000  0.000000  0.000000  1
  In  In3  1  0.824501  0.347198  0.245437  1
  In  In4  1  0.175499  0.652803  0.245437  1
  In  In5  1  0.356862  0.168944  0.269620  1
  In  In6  1  0.643139  0.831056  0.269620  1
  In  In7  1  0.000000  0.000000  0.500000  1
  In  In8  1  0.356862  0.168944  0.730380  1
  In  In9  1  0.643139  0.831056  0.730380  1
  In  In10  1  0.824501  0.347198  0.754563  1
  In  In11  1  0.175499  0.652803  0.754563  1
  Co  Co12  1  0.652510  0.152229  0.500000  1
  Co  Co13  1  0.347490  0.847770  0.500000  1
  Ir  Ir14  1  0.157287  0.349107  0.000000  1
  Ir  Ir15  1  0.842712  0.650893  0.000000  1
