# generated using pymatgen
data_EuLuMnGa6
_symmetry_space_group_name_H-M   'P 1'
_cell_length_a   6.21313324
_cell_length_b   6.21313337
_cell_length_c   6.21313300
_cell_angle_alpha   59.99999665
_cell_angle_beta   59.99999594
_cell_angle_gamma   59.99999800
_symmetry_Int_Tables_number   1
_chemical_formula_structural   EuLuMnGa6
_chemical_formula_sum   'Eu1 Lu1 Mn1 Ga6'
_cell_volume   169.59653097
_cell_formula_units_Z   1
loop_
 _symmetry_equiv_pos_site_id
 _symmetry_equiv_pos_as_xyz
  1  'x, y, z'
loop_
 _atom_site_type_symbol
 _atom_site_label
 _atom_site_symmetry_multiplicity
 _atom_site_fract_x
 _atom_site_fract_y
 _atom_site_fract_z
 _atom_site_occupancy
  Eu  Eu0  1  0.750000  0.750000  0.750000  1
  Lu  Lu1  1  0.250000  0.250000  0.250000  1
  Mn  Mn2  1  0.500000  0.500000  0.500000  1
  Ga  Ga3  1  0.780266  0.780266  0.219734  1
  Ga  Ga4  1  0.219734  0.780266  0.219734  1
  Ga  Ga5  1  0.780266  0.219734  0.219734  1
  Ga  Ga6  1  0.219734  0.219734  0.780266  1
  Ga  Ga7  1  0.780266  0.219734  0.780266  1
  Ga  Ga8  1  0.219734  0.780266  0.780266  1
