# generated using pymatgen
data_Sm3Tm(TcB4)4
_symmetry_space_group_name_H-M   'P 1'
_cell_length_a   3.62519100
_cell_length_b   5.99996181
_cell_length_c   11.61807523
_cell_angle_alpha   90.12010071
_cell_angle_beta   90.00000000
_cell_angle_gamma   90.00000000
_symmetry_Int_Tables_number   1
_chemical_formula_structural   Sm3Tm(TcB4)4
_chemical_formula_sum   'Sm3 Tm1 Tc4 B16'
_cell_volume   252.70428676
_cell_formula_units_Z   1
loop_
 _symmetry_equiv_pos_site_id
 _symmetry_equiv_pos_as_xyz
  1  'x, y, z'
loop_
 _atom_site_type_symbol
 _atom_site_label
 _atom_site_symmetry_multiplicity
 _atom_site_fract_x
 _atom_site_fract_y
 _atom_site_fract_z
 _atom_site_occupancy
  Sm  Sm0  1  0.500000  0.126865  0.150321  1
  Sm  Sm1  1  0.500000  0.873086  0.848959  1
  Sm  Sm2  1  0.500000  0.626976  0.350276  1
  Tm  Tm3  1  0.500000  0.373097  0.649722  1
  Tc  Tc4  1  0.500000  0.133691  0.414909  1
  Tc  Tc5  1  0.500000  0.867033  0.587887  1
  Tc  Tc6  1  0.500000  0.631815  0.086151  1
  Tc  Tc7  1  0.500000  0.367735  0.911029  1
  B  B8  1  0.000000  0.476712  0.190878  1
  B  B9  1  0.000000  0.521419  0.806391  1
  B  B10  1  0.000000  0.977062  0.309954  1
  B  B11  1  0.000000  0.025068  0.691409  1
  B  B12  1  0.000000  0.285286  0.316759  1
  B  B13  1  0.000000  0.711296  0.684045  1
  B  B14  1  0.000000  0.785247  0.184186  1
  B  B15  1  0.000000  0.214782  0.813725  1
  B  B16  1  0.000000  0.363661  0.470518  1
  B  B17  1  0.000000  0.636389  0.533034  1
  B  B18  1  0.000000  0.862187  0.031062  1
  B  B19  1  0.000000  0.137737  0.967219  1
  B  B20  1  0.000000  0.387503  0.045671  1
  B  B21  1  0.000000  0.611430  0.952301  1
  B  B22  1  0.000000  0.888663  0.455062  1
  B  B23  1  0.000000  0.115260  0.548531  1
