# generated using pymatgen
data_CaZrSb2Pt
_symmetry_space_group_name_H-M   'P 1'
_cell_length_a   8.15040606
_cell_length_b   8.15040545
_cell_length_c   8.15040500
_cell_angle_alpha   31.50578544
_cell_angle_beta   31.50579239
_cell_angle_gamma   31.50578540
_symmetry_Int_Tables_number   1
_chemical_formula_structural   CaZrSb2Pt
_chemical_formula_sum   'Ca1 Zr1 Sb2 Pt1'
_cell_volume   131.27135823
_cell_formula_units_Z   1
loop_
 _symmetry_equiv_pos_site_id
 _symmetry_equiv_pos_as_xyz
  1  'x, y, z'
loop_
 _atom_site_type_symbol
 _atom_site_label
 _atom_site_symmetry_multiplicity
 _atom_site_fract_x
 _atom_site_fract_y
 _atom_site_fract_z
 _atom_site_occupancy
  Ca  Ca0  1  0.506159  0.506159  0.506159  1
  Zr  Zr1  1  0.991847  0.991847  0.991847  1
  Sb  Sb2  1  0.749388  0.749388  0.749388  1
  Sb  Sb3  1  0.254562  0.254562  0.254562  1
  Pt  Pt4  1  0.373045  0.373045  0.373045  1
