# generated using pymatgen
data_Ho7Er3(Ir2Ru)2
_symmetry_space_group_name_H-M   'P 1'
_cell_length_a   10.76474701
_cell_length_b   10.76454001
_cell_length_c   6.39524300
_cell_angle_alpha   89.99738261
_cell_angle_beta   90.00052057
_cell_angle_gamma   89.99596548
_symmetry_Int_Tables_number   1
_chemical_formula_structural   Ho7Er3(Ir2Ru)2
_chemical_formula_sum   'Ho14 Er6 Ir8 Ru4'
_cell_volume   741.06508707
_cell_formula_units_Z   2
loop_
 _symmetry_equiv_pos_site_id
 _symmetry_equiv_pos_as_xyz
  1  'x, y, z'
loop_
 _atom_site_type_symbol
 _atom_site_label
 _atom_site_symmetry_multiplicity
 _atom_site_fract_x
 _atom_site_fract_y
 _atom_site_fract_z
 _atom_site_occupancy
  Ho  Ho0  1  0.293333  0.086423  0.377065  1
  Ho  Ho1  1  0.293327  0.913579  0.877059  1
  Ho  Ho2  1  0.706692  0.086361  0.877095  1
  Ho  Ho3  1  0.706678  0.913635  0.377108  1
  Ho  Ho4  1  0.586390  0.793319  0.877102  1
  Ho  Ho5  1  0.586368  0.206666  0.377169  1
  Ho  Ho6  1  0.413626  0.793337  0.377178  1
  Ho  Ho7  1  0.413606  0.206680  0.877124  1
  Ho  Ho8  1  0.206575  0.413638  0.622903  1
  Ho  Ho9  1  0.206553  0.586339  0.122848  1
  Ho  Ho10  1  0.793406  0.413592  0.122822  1
  Ho  Ho11  1  0.793403  0.586428  0.622893  1
  Ho  Ho12  1  0.913650  0.706612  0.122904  1
  Ho  Ho13  1  0.913662  0.293368  0.622921  1
  Er  Er14  1  0.086364  0.706568  0.622741  1
  Er  Er15  1  0.086385  0.293424  0.122724  1
  Er  Er16  1  0.000027  0.999968  0.499950  1
  Er  Er17  1  0.000033  0.000027  0.999945  1
  Er  Er18  1  0.499996  0.499968  0.999929  1
  Er  Er19  1  0.499972  0.500037  0.499997  1
  Ir  Ir20  1  0.847762  0.152409  0.250008  1
  Ir  Ir21  1  0.847771  0.847581  0.749962  1
  Ir  Ir22  1  0.152264  0.152472  0.750253  1
  Ir  Ir23  1  0.152270  0.847525  0.250272  1
  Ir  Ir24  1  0.652367  0.347642  0.750045  1
  Ir  Ir25  1  0.652348  0.652360  0.250045  1
  Ir  Ir26  1  0.347496  0.347657  0.249964  1
  Ir  Ir27  1  0.347492  0.652349  0.749924  1
  Ru  Ru28  1  0.500000  0.999987  0.122051  1
  Ru  Ru29  1  0.499988  0.000026  0.622050  1
  Ru  Ru30  1  0.000092  0.499975  0.877969  1
  Ru  Ru31  1  0.000103  0.500051  0.377981  1
