# generated using pymatgen
data_Tb9Pr7Cd4Os3Pt
_symmetry_space_group_name_H-M   'P 1'
_cell_length_a   9.83788550
_cell_length_b   9.86952765
_cell_length_c   9.88961400
_cell_angle_alpha   59.93264693
_cell_angle_beta   59.82590403
_cell_angle_gamma   59.91517894
_symmetry_Int_Tables_number   1
_chemical_formula_structural   Tb9Pr7Cd4Os3Pt
_chemical_formula_sum   'Tb9 Pr7 Cd4 Os3 Pt1'
_cell_volume   677.31184863
_cell_formula_units_Z   1
loop_
 _symmetry_equiv_pos_site_id
 _symmetry_equiv_pos_as_xyz
  1  'x, y, z'
loop_
 _atom_site_type_symbol
 _atom_site_label
 _atom_site_symmetry_multiplicity
 _atom_site_fract_x
 _atom_site_fract_y
 _atom_site_fract_z
 _atom_site_occupancy
  Tb  Tb0  1  0.342628  0.348665  0.348197  1
  Tb  Tb1  1  0.342628  0.348665  0.960511  1
  Tb  Tb2  1  0.341878  0.962387  0.347868  1
  Tb  Tb3  1  0.970421  0.341102  0.344238  1
  Tb  Tb4  1  0.815324  0.190656  0.188285  1
  Tb  Tb5  1  0.189541  0.811342  0.810861  1
  Tb  Tb6  1  0.189541  0.811342  0.188256  1
  Tb  Tb7  1  0.815324  0.190656  0.805734  1
  Tb  Tb8  1  0.186925  0.187642  0.812717  1
  Pr  Pr9  1  0.816709  0.805574  0.188858  1
  Pr  Pr10  1  0.941241  0.556580  0.559722  1
  Pr  Pr11  1  0.552989  0.942685  0.940976  1
  Pr  Pr12  1  0.552989  0.942685  0.563350  1
  Pr  Pr13  1  0.941241  0.556580  0.942455  1
  Pr  Pr14  1  0.554067  0.563015  0.941459  1
  Pr  Pr15  1  0.940512  0.943341  0.558073  1
  Cd  Cd16  1  0.577966  0.577608  0.580319  1
  Cd  Cd17  1  0.577966  0.577608  0.264106  1
  Cd  Cd18  1  0.578670  0.263297  0.579016  1
  Cd  Cd19  1  0.261530  0.579522  0.579474  1
  Os  Os20  1  0.143742  0.137237  0.138550  1
  Os  Os21  1  0.143742  0.137237  0.580472  1
  Os  Os22  1  0.147424  0.577998  0.137289  1
  Pt  Pt23  1  0.574995  0.146577  0.139214  1
