# generated using pymatgen
data_Sr4Lu2NbSbO12
_symmetry_space_group_name_H-M   'P 1'
_cell_length_a   5.79429667
_cell_length_b   5.84239226
_cell_length_c   8.20355700
_cell_angle_alpha   90.17305289
_cell_angle_beta   90.09910065
_cell_angle_gamma   90.02595373
_symmetry_Int_Tables_number   1
_chemical_formula_structural   Sr4Lu2NbSbO12
_chemical_formula_sum   'Sr4 Lu2 Nb1 Sb1 O12'
_cell_volume   277.70964516
_cell_formula_units_Z   1
loop_
 _symmetry_equiv_pos_site_id
 _symmetry_equiv_pos_as_xyz
  1  'x, y, z'
loop_
 _atom_site_type_symbol
 _atom_site_label
 _atom_site_symmetry_multiplicity
 _atom_site_fract_x
 _atom_site_fract_y
 _atom_site_fract_z
 _atom_site_occupancy
  Sr  Sr0  1  0.991230  0.466131  0.250817  1
  Sr  Sr1  1  0.506037  0.966308  0.251152  1
  Sr  Sr2  1  0.493963  0.033692  0.748848  1
  Sr  Sr3  1  0.008769  0.533869  0.749183  1
  Lu  Lu4  1  0.000000  0.000000  0.000000  1
  Lu  Lu5  1  0.500000  0.500000  0.500000  1
  Nb  Nb6  1  0.000001  0.000000  0.500000  1
  Sb  Sb7  1  0.500001  0.500000  0.000000  1
  O  O8  1  0.774864  0.704280  0.039971  1
  O  O9  1  0.701522  0.224232  0.042004  1
  O  O10  1  0.422646  0.520005  0.238883  1
  O  O11  1  0.072859  0.018783  0.259989  1
  O  O12  1  0.797117  0.723182  0.460351  1
  O  O13  1  0.723921  0.204204  0.463078  1
  O  O14  1  0.276081  0.795796  0.536922  1
  O  O15  1  0.202884  0.276818  0.539648  1
  O  O16  1  0.927141  0.981217  0.740011  1
  O  O17  1  0.577354  0.479995  0.761117  1
  O  O18  1  0.298479  0.775768  0.957995  1
  O  O19  1  0.225138  0.295720  0.960029  1
