# generated using pymatgen
data_Er12Os2PdPt
_symmetry_space_group_name_H-M   'P 1'
_cell_length_a   6.39192403
_cell_length_b   7.23669409
_cell_length_c   9.07902200
_cell_angle_alpha   90.00000000
_cell_angle_beta   90.00000000
_cell_angle_gamma   90.52756547
_symmetry_Int_Tables_number   1
_chemical_formula_structural   Er12Os2PdPt
_chemical_formula_sum   'Er12 Os2 Pd1 Pt1'
_cell_volume   419.94505988
_cell_formula_units_Z   1
loop_
 _symmetry_equiv_pos_site_id
 _symmetry_equiv_pos_as_xyz
  1  'x, y, z'
loop_
 _atom_site_type_symbol
 _atom_site_label
 _atom_site_symmetry_multiplicity
 _atom_site_fract_x
 _atom_site_fract_y
 _atom_site_fract_z
 _atom_site_occupancy
  Er  Er0  1  0.336331  0.674016  0.057712  1
  Er  Er1  1  0.178405  0.185243  0.440021  1
  Er  Er2  1  0.667010  0.323453  0.559272  1
  Er  Er3  1  0.820412  0.816843  0.937852  1
  Er  Er4  1  0.667010  0.323453  0.940728  1
  Er  Er5  1  0.820412  0.816843  0.562148  1
  Er  Er6  1  0.336331  0.674016  0.442288  1
  Er  Er7  1  0.178405  0.185243  0.059979  1
  Er  Er8  1  0.878137  0.524710  0.250000  1
  Er  Er9  1  0.620405  0.041182  0.250000  1
  Er  Er10  1  0.119599  0.475240  0.750000  1
  Er  Er11  1  0.376026  0.959380  0.750000  1
  Os  Os12  1  0.462132  0.386218  0.250000  1
  Os  Os13  1  0.536891  0.612807  0.750000  1
  Pd  Pd14  1  0.043664  0.888159  0.250000  1
  Pt  Pt15  1  0.958830  0.113193  0.750000  1
