# generated using pymatgen
data_Ho12Fe3Ag2
_symmetry_space_group_name_H-M   'P 1'
_cell_length_a   8.24897327
_cell_length_b   8.24897369
_cell_length_c   8.24897380
_cell_angle_alpha   108.37225259
_cell_angle_beta   108.37225325
_cell_angle_gamma   111.69225027
_symmetry_Int_Tables_number   1
_chemical_formula_structural   Ho12Fe3Ag2
_chemical_formula_sum   'Ho12 Fe3 Ag2'
_cell_volume   431.60453652
_cell_formula_units_Z   1
loop_
 _symmetry_equiv_pos_site_id
 _symmetry_equiv_pos_as_xyz
  1  'x, y, z'
loop_
 _atom_site_type_symbol
 _atom_site_label
 _atom_site_symmetry_multiplicity
 _atom_site_fract_x
 _atom_site_fract_y
 _atom_site_fract_z
 _atom_site_occupancy
  Ho  Ho0  1  0.188899  0.430060  0.241161  1
  Ho  Ho1  1  0.811101  0.569940  0.758839  1
  Ho  Ho2  1  0.188899  0.947739  0.758839  1
  Ho  Ho3  1  0.947739  0.188899  0.758839  1
  Ho  Ho4  1  0.811101  0.052261  0.241161  1
  Ho  Ho5  1  0.052261  0.811101  0.241161  1
  Ho  Ho6  1  0.430060  0.188899  0.241161  1
  Ho  Ho7  1  0.569940  0.811101  0.758839  1
  Ho  Ho8  1  0.310840  0.310840  0.621681  1
  Ho  Ho9  1  0.689160  0.689160  0.378319  1
  Ho  Ho10  1  0.689160  0.310840  0.000000  1
  Ho  Ho11  1  0.310840  0.689160  0.000000  1
  Fe  Fe12  1  0.379783  0.379783  0.000000  1
  Fe  Fe13  1  0.620217  0.620217  0.000000  1
  Fe  Fe14  1  0.000000  0.000000  0.000000  1
  Ag  Ag15  1  0.000000  0.500000  0.500000  1
  Ag  Ag16  1  0.500000  0.000000  0.500000  1
