# generated using pymatgen
data_Nd16MgIn3Rh4
_symmetry_space_group_name_H-M   'P 1'
_cell_length_a   9.95281487
_cell_length_b   9.97300661
_cell_length_c   9.97300700
_cell_angle_alpha   60.00000204
_cell_angle_beta   59.93286890
_cell_angle_gamma   59.93287105
_symmetry_Int_Tables_number   1
_chemical_formula_structural   Nd16MgIn3Rh4
_chemical_formula_sum   'Nd16 Mg1 In3 Rh4'
_cell_volume   699.26494008
_cell_formula_units_Z   1
loop_
 _symmetry_equiv_pos_site_id
 _symmetry_equiv_pos_as_xyz
  1  'x, y, z'
loop_
 _atom_site_type_symbol
 _atom_site_label
 _atom_site_symmetry_multiplicity
 _atom_site_fract_x
 _atom_site_fract_y
 _atom_site_fract_z
 _atom_site_occupancy
  Nd  Nd0  1  0.600088  0.598192  0.598192  1
  Nd  Nd1  1  0.600088  0.598192  0.203529  1
  Nd  Nd2  1  0.600088  0.203529  0.598192  1
  Nd  Nd3  1  0.202090  0.599303  0.599303  1
  Nd  Nd4  1  0.057929  0.442210  0.442210  1
  Nd  Nd5  1  0.439179  0.060481  0.060481  1
  Nd  Nd6  1  0.439179  0.060481  0.439859  1
  Nd  Nd7  1  0.057929  0.442210  0.057651  1
  Nd  Nd8  1  0.439179  0.439859  0.060481  1
  Nd  Nd9  1  0.057929  0.057651  0.442210  1
  Nd  Nd10  1  0.185565  0.813141  0.813141  1
  Nd  Nd11  1  0.812355  0.188003  0.188003  1
  Nd  Nd12  1  0.812355  0.188003  0.811639  1
  Nd  Nd13  1  0.185565  0.813141  0.188154  1
  Nd  Nd14  1  0.812355  0.811639  0.188003  1
  Nd  Nd15  1  0.185565  0.188154  0.813141  1
  Mg  Mg16  1  0.520892  0.826370  0.826370  1
  In  In17  1  0.830139  0.830831  0.830831  1
  In  In18  1  0.830139  0.830831  0.508201  1
  In  In19  1  0.830139  0.508201  0.830831  1
  Rh  Rh20  1  0.392514  0.391542  0.391542  1
  Rh  Rh21  1  0.392514  0.391542  0.824401  1
  Rh  Rh22  1  0.392514  0.824401  0.391542  1
  Rh  Rh23  1  0.823713  0.392095  0.392095  1
