# generated using pymatgen
data_Y4HoTa3(Co4P3)4
_symmetry_space_group_name_H-M   'P 1'
_cell_length_a   12.18596110
_cell_length_b   12.18872533
_cell_length_c   3.70231300
_cell_angle_alpha   90.00000000
_cell_angle_beta   90.00000000
_cell_angle_gamma   120.00751131
_symmetry_Int_Tables_number   1
_chemical_formula_structural   Y4HoTa3(Co4P3)4
_chemical_formula_sum   'Y4 Ho1 Ta3 Co16 P12'
_cell_volume   476.19953316
_cell_formula_units_Z   1
loop_
 _symmetry_equiv_pos_site_id
 _symmetry_equiv_pos_as_xyz
  1  'x, y, z'
loop_
 _atom_site_type_symbol
 _atom_site_label
 _atom_site_symmetry_multiplicity
 _atom_site_fract_x
 _atom_site_fract_y
 _atom_site_fract_z
 _atom_site_occupancy
  Y  Y0  1  0.666683  0.333366  0.000000  1
  Y  Y1  1  0.333317  0.666684  0.000000  1
  Y  Y2  1  0.816290  0.816327  0.500000  1
  Y  Y3  1  0.183710  0.000038  0.500000  1
  Ho  Ho4  1  0.000000  0.183781  0.500000  1
  Ta  Ta5  1  0.443412  0.443403  0.000000  1
  Ta  Ta6  1  0.556588  0.999990  0.000000  1
  Ta  Ta7  1  0.000000  0.556460  0.000000  1
  Co  Co8  1  0.873725  0.354913  0.500000  1
  Co  Co9  1  0.645006  0.518652  0.500000  1
  Co  Co10  1  0.481360  0.126318  0.500000  1
  Co  Co11  1  0.354994  0.873646  0.500000  1
  Co  Co12  1  0.518640  0.644958  0.500000  1
  Co  Co13  1  0.126275  0.481188  0.500000  1
  Co  Co14  1  0.802537  0.176656  0.000000  1
  Co  Co15  1  0.823276  0.625550  0.000000  1
  Co  Co16  1  0.374348  0.197755  0.000000  1
  Co  Co17  1  0.176724  0.802275  0.000000  1
  Co  Co18  1  0.625652  0.823408  0.000000  1
  Co  Co19  1  0.197463  0.374120  0.000000  1
  Co  Co20  1  0.280044  0.280207  0.500000  1
  Co  Co21  1  0.719956  0.000163  0.500000  1
  Co  Co22  1  0.000000  0.719709  0.500000  1
  Co  Co23  1  0.000000  0.000404  0.000000  1
  P  P24  1  0.688485  0.167967  0.500000  1
  P  P25  1  0.831980  0.520496  0.500000  1
  P  P26  1  0.479492  0.311518  0.500000  1
  P  P27  1  0.168020  0.688517  0.500000  1
  P  P28  1  0.520508  0.832027  0.500000  1
  P  P29  1  0.311515  0.479483  0.500000  1
  P  P30  1  0.177525  0.177921  0.000000  1
  P  P31  1  0.822475  0.000397  0.000000  1
  P  P32  1  0.000000  0.822193  0.000000  1
  P  P33  1  0.643895  0.643886  0.000000  1
  P  P34  1  0.356105  0.999991  0.000000  1
  P  P35  1  0.000000  0.355635  0.000000  1
