# generated using pymatgen
data_Tb15HoCd4IrRu3
_symmetry_space_group_name_H-M   'P 1'
_cell_length_a   9.67638730
_cell_length_b   9.68719878
_cell_length_c   9.68719944
_cell_angle_alpha   59.77739678
_cell_angle_beta   59.72466432
_cell_angle_gamma   59.72466489
_symmetry_Int_Tables_number   1
_chemical_formula_structural   Tb15HoCd4IrRu3
_chemical_formula_sum   'Tb15 Ho1 Cd4 Ir1 Ru3'
_cell_volume   638.32943724
_cell_formula_units_Z   1
loop_
 _symmetry_equiv_pos_site_id
 _symmetry_equiv_pos_as_xyz
  1  'x, y, z'
loop_
 _atom_site_type_symbol
 _atom_site_label
 _atom_site_symmetry_multiplicity
 _atom_site_fract_x
 _atom_site_fract_y
 _atom_site_fract_z
 _atom_site_occupancy
  Tb  Tb0  1  0.595499  0.597736  0.209084  1
  Tb  Tb1  1  0.595499  0.209084  0.597736  1
  Tb  Tb2  1  0.213295  0.595425  0.595425  1
  Tb  Tb3  1  0.061518  0.439274  0.439274  1
  Tb  Tb4  1  0.438417  0.060689  0.060689  1
  Tb  Tb5  1  0.438838  0.060314  0.439172  1
  Tb  Tb6  1  0.061626  0.439122  0.059463  1
  Tb  Tb7  1  0.438838  0.439172  0.060314  1
  Tb  Tb8  1  0.061626  0.059463  0.439122  1
  Tb  Tb9  1  0.187705  0.811853  0.811853  1
  Tb  Tb10  1  0.810384  0.188846  0.188846  1
  Tb  Tb11  1  0.810546  0.188694  0.812475  1
  Tb  Tb12  1  0.188099  0.811482  0.189057  1
  Tb  Tb13  1  0.810546  0.812475  0.188694  1
  Tb  Tb14  1  0.188099  0.189057  0.811482  1
  Ho  Ho15  1  0.595861  0.598436  0.598436  1
  Cd  Cd16  1  0.830411  0.829900  0.829900  1
  Cd  Cd17  1  0.830383  0.829638  0.508770  1
  Cd  Cd18  1  0.830383  0.508770  0.829638  1
  Cd  Cd19  1  0.507940  0.830055  0.830055  1
  Ir  Ir20  1  0.826777  0.392431  0.392431  1
  Ru  Ru21  1  0.391358  0.387931  0.387931  1
  Ru  Ru22  1  0.393176  0.389686  0.830472  1
  Ru  Ru23  1  0.393176  0.830472  0.389686  1
