# generated using pymatgen
data_Tb3Y(Al3Rh)6
_symmetry_space_group_name_H-M   'P 1'
_cell_length_a   7.55969527
_cell_length_b   7.56009667
_cell_length_c   9.49074500
_cell_angle_alpha   90.00000000
_cell_angle_beta   90.00000000
_cell_angle_gamma   119.35656917
_symmetry_Int_Tables_number   1
_chemical_formula_structural   Tb3Y(Al3Rh)6
_chemical_formula_sum   'Tb3 Y1 Al18 Rh6'
_cell_volume   472.76141642
_cell_formula_units_Z   1
loop_
 _symmetry_equiv_pos_site_id
 _symmetry_equiv_pos_as_xyz
  1  'x, y, z'
loop_
 _atom_site_type_symbol
 _atom_site_label
 _atom_site_symmetry_multiplicity
 _atom_site_fract_x
 _atom_site_fract_y
 _atom_site_fract_z
 _atom_site_occupancy
  Tb  Tb0  1  0.994563  0.670440  0.250000  1
  Tb  Tb1  1  0.005420  0.329546  0.750000  1
  Tb  Tb2  1  0.670437  0.994615  0.250000  1
  Y  Y3  1  0.329533  0.005416  0.750000  1
  Al  Al4  1  0.127816  0.127769  0.250000  1
  Al  Al5  1  0.872123  0.872135  0.750000  1
  Al  Al6  1  0.001337  0.335158  0.073938  1
  Al  Al7  1  0.998735  0.664961  0.926293  1
  Al  Al8  1  0.998735  0.664961  0.573707  1
  Al  Al9  1  0.335157  0.001306  0.426184  1
  Al  Al10  1  0.001337  0.335158  0.426062  1
  Al  Al11  1  0.664730  0.998662  0.573715  1
  Al  Al12  1  0.664730  0.998662  0.926285  1
  Al  Al13  1  0.335157  0.001306  0.073816  1
  Al  Al14  1  0.333446  0.333347  0.550555  1
  Al  Al15  1  0.666554  0.666555  0.449388  1
  Al  Al16  1  0.666554  0.666555  0.050612  1
  Al  Al17  1  0.333446  0.333347  0.949445  1
  Al  Al18  1  0.338735  0.548621  0.250000  1
  Al  Al19  1  0.661371  0.451527  0.750000  1
  Al  Al20  1  0.548533  0.338705  0.250000  1
  Al  Al21  1  0.451555  0.661402  0.750000  1
  Rh  Rh22  1  0.671853  0.328190  0.999904  1
  Rh  Rh23  1  0.328089  0.671728  0.999901  1
  Rh  Rh24  1  0.328089  0.671728  0.500099  1
  Rh  Rh25  1  0.671853  0.328190  0.500096  1
  Rh  Rh26  1  0.000056  0.000004  0.999936  1
  Rh  Rh27  1  0.000056  0.000004  0.500064  1
