# generated using pymatgen
data_SmHo2P4Pd7
_symmetry_space_group_name_H-M   'P 1'
_cell_length_a   7.94482874
_cell_length_b   7.94482913
_cell_length_c   9.46265744
_cell_angle_alpha   55.86307836
_cell_angle_beta   55.86307647
_cell_angle_gamma   29.17067526
_symmetry_Int_Tables_number   1
_chemical_formula_structural   SmHo2P4Pd7
_chemical_formula_sum   'Sm1 Ho2 P4 Pd7'
_cell_volume   237.18420962
_cell_formula_units_Z   1
loop_
 _symmetry_equiv_pos_site_id
 _symmetry_equiv_pos_as_xyz
  1  'x, y, z'
loop_
 _atom_site_type_symbol
 _atom_site_label
 _atom_site_symmetry_multiplicity
 _atom_site_fract_x
 _atom_site_fract_y
 _atom_site_fract_z
 _atom_site_occupancy
  Sm  Sm0  1  0.000000  0.000000  0.000000  1
  Ho  Ho1  1  0.679720  0.679720  0.324244  1
  Ho  Ho2  1  0.320280  0.320280  0.675756  1
  P  P3  1  0.339411  0.339411  0.255165  1
  P  P4  1  0.660589  0.660589  0.744835  1
  P  P5  1  0.893355  0.893355  0.818578  1
  P  P6  1  0.106645  0.106645  0.181422  1
  Pd  Pd7  1  0.304261  0.304261  0.030901  1
  Pd  Pd8  1  0.695739  0.695739  0.969099  1
  Pd  Pd9  1  0.509462  0.509462  0.713421  1
  Pd  Pd10  1  0.830430  0.830430  0.424213  1
  Pd  Pd11  1  0.490538  0.490538  0.286579  1
  Pd  Pd12  1  0.169570  0.169570  0.575787  1
  Pd  Pd13  1  0.000000  0.000000  0.500000  1
