# generated using pymatgen
data_Pr2NdTh11Ru6
_symmetry_space_group_name_H-M   'P 1'
_cell_length_a   9.87685285
_cell_length_b   9.98598406
_cell_length_c   6.41375216
_cell_angle_alpha   89.79449605
_cell_angle_beta   90.19105974
_cell_angle_gamma   120.14973790
_symmetry_Int_Tables_number   1
_chemical_formula_structural   Pr2NdTh11Ru6
_chemical_formula_sum   'Pr2 Nd1 Th11 Ru6'
_cell_volume   547.00527309
_cell_formula_units_Z   1
loop_
 _symmetry_equiv_pos_site_id
 _symmetry_equiv_pos_as_xyz
  1  'x, y, z'
loop_
 _atom_site_type_symbol
 _atom_site_label
 _atom_site_symmetry_multiplicity
 _atom_site_fract_x
 _atom_site_fract_y
 _atom_site_fract_z
 _atom_site_occupancy
  Pr  Pr0  1  0.462485  0.537432  0.293875  1
  Pr  Pr1  1  0.073763  0.536909  0.294006  1
  Nd  Nd2  1  0.924712  0.460316  0.794704  1
  Th  Th3  1  0.248817  0.125657  0.509256  1
  Th  Th4  1  0.541293  0.080426  0.801407  1
  Th  Th5  1  0.750140  0.873763  0.008420  1
  Th  Th6  1  0.665488  0.333223  0.281270  1
  Th  Th7  1  0.126116  0.873282  0.002875  1
  Th  Th8  1  0.461572  0.922495  0.302272  1
  Th  Th9  1  0.539476  0.460824  0.796167  1
  Th  Th10  1  0.875551  0.125774  0.507703  1
  Th  Th11  1  0.123954  0.248136  0.005810  1
  Th  Th12  1  0.874844  0.751072  0.507347  1
  Th  Th13  1  0.334798  0.667152  0.780056  1
  Ru  Ru14  1  0.809911  0.634397  0.044940  1
  Ru  Ru15  1  0.807276  0.174944  0.050878  1
  Ru  Ru16  1  0.633102  0.822611  0.552513  1
  Ru  Ru17  1  0.371146  0.185921  0.043039  1
  Ru  Ru18  1  0.182717  0.360128  0.560301  1
  Ru  Ru19  1  0.192839  0.825536  0.547159  1
