# generated using pymatgen
data_ReOs6W
_symmetry_space_group_name_H-M   'P 1'
_cell_length_a   5.56847800
_cell_length_b   5.56847851
_cell_length_c   4.37337700
_cell_angle_alpha   90.00000000
_cell_angle_beta   90.00000000
_cell_angle_gamma   119.99999696
_symmetry_Int_Tables_number   1
_chemical_formula_structural   ReOs6W
_chemical_formula_sum   'Re1 Os6 W1'
_cell_volume   117.44123726
_cell_formula_units_Z   1
loop_
 _symmetry_equiv_pos_site_id
 _symmetry_equiv_pos_as_xyz
  1  'x, y, z'
loop_
 _atom_site_type_symbol
 _atom_site_label
 _atom_site_symmetry_multiplicity
 _atom_site_fract_x
 _atom_site_fract_y
 _atom_site_fract_z
 _atom_site_occupancy
  Re  Re0  1  0.666667  0.333333  0.250000  1
  Os  Os1  1  0.166049  0.332097  0.250000  1
  Os  Os2  1  0.667903  0.833951  0.250000  1
  Os  Os3  1  0.166049  0.833951  0.250000  1
  Os  Os4  1  0.832102  0.664205  0.750000  1
  Os  Os5  1  0.335795  0.167898  0.750000  1
  Os  Os6  1  0.832102  0.167898  0.750000  1
  W  W7  1  0.333333  0.666667  0.750000  1
