# generated using pymatgen
data_Rb8Nb3BiBr24
_symmetry_space_group_name_H-M   'P 1'
_cell_length_a   13.40454139
_cell_length_b   13.44399127
_cell_length_c   13.41865100
_cell_angle_alpha   131.53774853
_cell_angle_beta   131.51037139
_cell_angle_gamma   70.93175935
_symmetry_Int_Tables_number   1
_chemical_formula_structural   Rb8Nb3BiBr24
_chemical_formula_sum   'Rb8 Nb3 Bi1 Br24'
_cell_volume   1327.70995410
_cell_formula_units_Z   1
loop_
 _symmetry_equiv_pos_site_id
 _symmetry_equiv_pos_as_xyz
  1  'x, y, z'
loop_
 _atom_site_type_symbol
 _atom_site_label
 _atom_site_symmetry_multiplicity
 _atom_site_fract_x
 _atom_site_fract_y
 _atom_site_fract_z
 _atom_site_occupancy
  Rb  Rb0  1  0.116863  0.641229  0.998269  1
  Rb  Rb1  1  0.358774  0.882918  0.001447  1
  Rb  Rb2  1  0.642986  0.641276  0.524401  1
  Rb  Rb3  1  0.358777  0.357135  0.475666  1
  Rb  Rb4  1  0.881504  0.357169  0.998479  1
  Rb  Rb5  1  0.881480  0.882945  0.524267  1
  Rb  Rb6  1  0.116797  0.118707  0.475749  1
  Rb  Rb7  1  0.642828  0.118686  0.001740  1
  Nb  Nb8  1  0.750126  0.249962  0.499929  1
  Nb  Nb9  1  0.499968  0.499940  0.000021  1
  Nb  Nb10  1  0.250148  0.750044  0.500082  1
  Bi  Bi11  1  0.999959  0.999959  0.999994  1
  Br  Br12  1  0.260541  0.999573  0.260776  1
  Br  Br13  1  0.000420  0.739706  0.739381  1
  Br  Br14  1  0.251737  0.986393  0.734537  1
  Br  Br15  1  0.748514  0.482936  0.734583  1
  Br  Br16  1  0.482717  0.748032  0.734442  1
  Br  Br17  1  0.131460  0.131341  0.999926  1
  Br  Br18  1  0.499443  0.733644  0.234025  1
  Br  Br19  1  0.868126  0.367926  0.499899  1
  Br  Br20  1  0.000174  0.260918  0.260561  1
  Br  Br21  1  0.381628  0.381971  0.000223  1
  Br  Br22  1  0.618408  0.618055  0.999845  1
  Br  Br23  1  0.499813  0.265653  0.765957  1
  Br  Br24  1  0.265816  0.500408  0.765600  1
  Br  Br25  1  0.516904  0.251467  0.265577  1
  Br  Br26  1  0.367940  0.867500  0.499801  1
  Br  Br27  1  0.631849  0.132061  0.500080  1
  Br  Br28  1  0.252178  0.517449  0.265521  1
  Br  Br29  1  0.131998  0.632434  0.500125  1
  Br  Br30  1  0.013377  0.748060  0.265389  1
  Br  Br31  1  0.985940  0.251610  0.734526  1
  Br  Br32  1  0.738751  0.999711  0.739184  1
  Br  Br33  1  0.734879  0.500352  0.234447  1
  Br  Br34  1  0.748626  0.014156  0.265487  1
  Br  Br35  1  0.868557  0.868672  0.000063  1
