# generated using pymatgen
data_Na2Dy3P12Rh19
_symmetry_space_group_name_H-M   'P 1'
_cell_length_a   12.61665400
_cell_length_b   12.68180460
_cell_length_c   3.93454400
_cell_angle_alpha   90.00000000
_cell_angle_beta   90.00000000
_cell_angle_gamma   119.83020355
_symmetry_Int_Tables_number   1
_chemical_formula_structural   Na2Dy3P12Rh19
_chemical_formula_sum   'Na2 Dy3 P12 Rh19'
_cell_volume   546.12344155
_cell_formula_units_Z   1
loop_
 _symmetry_equiv_pos_site_id
 _symmetry_equiv_pos_as_xyz
  1  'x, y, z'
loop_
 _atom_site_type_symbol
 _atom_site_label
 _atom_site_symmetry_multiplicity
 _atom_site_fract_x
 _atom_site_fract_y
 _atom_site_fract_z
 _atom_site_occupancy
  Na  Na0  1  0.000036  0.815848  0.000000  1
  Na  Na1  1  0.184188  0.184152  0.000000  1
  Dy  Dy2  1  0.334098  0.666740  0.500000  1
  Dy  Dy3  1  0.667359  0.333260  0.500000  1
  Dy  Dy4  1  0.817000  0.000000  0.000000  1
  P  P5  1  0.999541  0.634982  0.500000  1
  P  P6  1  0.364560  0.365018  0.500000  1
  P  P7  1  0.636947  0.000000  0.500000  1
  P  P8  1  0.518761  0.685250  0.000000  1
  P  P9  1  0.312136  0.832248  0.000000  1
  P  P10  1  0.166613  0.480300  0.000000  1
  P  P11  1  0.479887  0.167752  0.000000  1
  P  P12  1  0.686314  0.519700  0.000000  1
  P  P13  1  0.833511  0.314750  0.000000  1
  P  P14  1  0.000568  0.179260  0.500000  1
  P  P15  1  0.821308  0.820740  0.500000  1
  P  P16  1  0.180774  0.000000  0.500000  1
  Rh  Rh17  1  0.508741  0.867945  0.000000  1
  Rh  Rh18  1  0.130321  0.640363  0.000000  1
  Rh  Rh19  1  0.358568  0.490038  0.000000  1
  Rh  Rh20  1  0.489959  0.359637  0.000000  1
  Rh  Rh21  1  0.868531  0.509962  0.000000  1
  Rh  Rh22  1  0.640798  0.132055  0.000000  1
  Rh  Rh23  1  0.998318  0.453317  0.500000  1
  Rh  Rh24  1  0.545001  0.546683  0.500000  1
  Rh  Rh25  1  0.455151  0.000000  0.500000  1
  Rh  Rh26  1  0.999691  0.280744  0.000000  1
  Rh  Rh27  1  0.718947  0.719256  0.000000  1
  Rh  Rh28  1  0.282089  0.000000  0.000000  1
  Rh  Rh29  1  0.625862  0.806136  0.500000  1
  Rh  Rh30  1  0.194564  0.818499  0.500000  1
  Rh  Rh31  1  0.180932  0.376397  0.500000  1
  Rh  Rh32  1  0.376065  0.181501  0.500000  1
  Rh  Rh33  1  0.804536  0.623603  0.500000  1
  Rh  Rh34  1  0.819726  0.193864  0.500000  1
  Rh  Rh35  1  0.998599  0.000000  0.500000  1
