# generated using pymatgen
data_La3Nd2P12Pd3Ru16
_symmetry_space_group_name_H-M   'P 1'
_cell_length_a   12.74371300
_cell_length_b   12.74371271
_cell_length_c   4.03264800
_cell_angle_alpha   90.00000000
_cell_angle_beta   90.00000000
_cell_angle_gamma   120.00000853
_symmetry_Int_Tables_number   1
_chemical_formula_structural   La3Nd2P12Pd3Ru16
_chemical_formula_sum   'La3 Nd2 P12 Pd3 Ru16'
_cell_volume   567.16949464
_cell_formula_units_Z   1
loop_
 _symmetry_equiv_pos_site_id
 _symmetry_equiv_pos_as_xyz
  1  'x, y, z'
loop_
 _atom_site_type_symbol
 _atom_site_label
 _atom_site_symmetry_multiplicity
 _atom_site_fract_x
 _atom_site_fract_y
 _atom_site_fract_z
 _atom_site_occupancy
  La  La0  1  0.000000  0.181026  0.500000  1
  La  La1  1  0.818974  0.818974  0.500000  1
  La  La2  1  0.181026  0.000000  0.500000  1
  Nd  Nd3  1  0.666667  0.333333  0.000000  1
  Nd  Nd4  1  0.333333  0.666667  0.000000  1
  P  P5  1  0.000000  0.809658  0.000000  1
  P  P6  1  0.190342  0.190342  0.000000  1
  P  P7  1  0.809658  0.000000  0.000000  1
  P  P8  1  0.700993  0.179395  0.500000  1
  P  P9  1  0.820605  0.521598  0.500000  1
  P  P10  1  0.478402  0.299007  0.500000  1
  P  P11  1  0.179395  0.700993  0.500000  1
  P  P12  1  0.521598  0.820605  0.500000  1
  P  P13  1  0.299007  0.478402  0.500000  1
  P  P14  1  0.000000  0.369947  0.000000  1
  P  P15  1  0.630053  0.630053  0.000000  1
  P  P16  1  0.369947  0.000000  0.000000  1
  Pd  Pd17  1  0.000000  0.553577  0.000000  1
  Pd  Pd18  1  0.446423  0.446423  0.000000  1
  Pd  Pd19  1  0.553577  0.000000  0.000000  1
  Ru  Ru20  1  0.000000  0.709096  0.500000  1
  Ru  Ru21  1  0.290904  0.290904  0.500000  1
  Ru  Ru22  1  0.709096  0.000000  0.500000  1
  Ru  Ru23  1  0.804996  0.185903  0.000000  1
  Ru  Ru24  1  0.814097  0.619093  0.000000  1
  Ru  Ru25  1  0.380907  0.195004  0.000000  1
  Ru  Ru26  1  0.185903  0.804996  0.000000  1
  Ru  Ru27  1  0.619093  0.814097  0.000000  1
  Ru  Ru28  1  0.195004  0.380907  0.000000  1
  Ru  Ru29  1  0.877343  0.369963  0.500000  1
  Ru  Ru30  1  0.630037  0.507380  0.500000  1
  Ru  Ru31  1  0.492620  0.122657  0.500000  1
  Ru  Ru32  1  0.369963  0.877343  0.500000  1
  Ru  Ru33  1  0.507380  0.630037  0.500000  1
  Ru  Ru34  1  0.122657  0.492620  0.500000  1
  Ru  Ru35  1  0.000000  0.000000  0.000000  1
