# generated using pymatgen
data_Be6Si6Os5Rh7
_symmetry_space_group_name_H-M   'P 1'
_cell_length_a   4.06742700
_cell_length_b   5.76401966
_cell_length_c   12.21763141
_cell_angle_alpha   90.05500054
_cell_angle_beta   90.00131859
_cell_angle_gamma   90.00008170
_symmetry_Int_Tables_number   1
_chemical_formula_structural   Be6Si6Os5Rh7
_chemical_formula_sum   'Be6 Si6 Os5 Rh7'
_cell_volume   286.43892791
_cell_formula_units_Z   1
loop_
 _symmetry_equiv_pos_site_id
 _symmetry_equiv_pos_as_xyz
  1  'x, y, z'
loop_
 _atom_site_type_symbol
 _atom_site_label
 _atom_site_symmetry_multiplicity
 _atom_site_fract_x
 _atom_site_fract_y
 _atom_site_fract_z
 _atom_site_occupancy
  Be  Be0  1  0.000001  0.498882  0.003162  1
  Be  Be1  1  0.499696  0.003535  0.165091  1
  Be  Be2  1  0.999666  0.496466  0.330408  1
  Be  Be3  1  0.500002  0.002926  0.497961  1
  Be  Be4  1  0.000335  0.499874  0.666936  1
  Be  Be5  1  0.500372  0.999014  0.836300  1
  Si  Si6  1  0.000009  0.001453  0.002796  1
  Si  Si7  1  0.499764  0.497486  0.164796  1
  Si  Si8  1  0.999759  0.003939  0.330861  1
  Si  Si9  1  0.499996  0.496458  0.498607  1
  Si  Si10  1  0.000263  0.999484  0.666620  1
  Si  Si11  1  0.500246  0.500826  0.836147  1
  Os  Os12  1  0.500005  0.249162  0.996542  1
  Os  Os13  1  0.500004  0.751285  0.997801  1
  Os  Os14  1  0.999761  0.251827  0.168134  1
  Os  Os15  1  0.999819  0.749089  0.167902  1
  Os  Os16  1  0.499799  0.249178  0.336641  1
  Rh  Rh17  1  0.499785  0.749398  0.337512  1
  Rh  Rh18  1  0.999988  0.249413  0.504739  1
  Rh  Rh19  1  0.999996  0.750117  0.501608  1
  Rh  Rh20  1  0.500177  0.250967  0.667002  1
  Rh  Rh21  1  0.500188  0.749490  0.665079  1
  Rh  Rh22  1  0.000184  0.249508  0.828565  1
  Rh  Rh23  1  0.000184  0.750228  0.828789  1
