# generated using pymatgen
data_TbPr2BiO7
_symmetry_space_group_name_H-M   'P 1'
_cell_length_a   6.73040647
_cell_length_b   6.74520423
_cell_length_c   7.91196840
_cell_angle_alpha   106.92109888
_cell_angle_beta   89.87286085
_cell_angle_gamma   98.89368356
_symmetry_Int_Tables_number   1
_chemical_formula_structural   TbPr2BiO7
_chemical_formula_sum   'Tb2 Pr4 Bi2 O14'
_cell_volume   339.15732722
_cell_formula_units_Z   2
loop_
 _symmetry_equiv_pos_site_id
 _symmetry_equiv_pos_as_xyz
  1  'x, y, z'
loop_
 _atom_site_type_symbol
 _atom_site_label
 _atom_site_symmetry_multiplicity
 _atom_site_fract_x
 _atom_site_fract_y
 _atom_site_fract_z
 _atom_site_occupancy
  Tb  Tb0  1  0.462280  0.005292  0.254034  1
  Tb  Tb1  1  0.537720  0.994708  0.745966  1
  Pr  Pr2  1  0.268928  0.539950  0.883515  1
  Pr  Pr3  1  0.731072  0.460050  0.116485  1
  Pr  Pr4  1  0.739114  0.478331  0.616391  1
  Pr  Pr5  1  0.260886  0.521669  0.383609  1
  Bi  Bi6  1  0.000000  0.000000  0.500000  1
  Bi  Bi7  1  0.000000  0.000000  0.000000  1
  O  O8  1  0.446171  0.655359  0.169265  1
  O  O9  1  0.553829  0.344641  0.830735  1
  O  O10  1  0.301389  0.936868  0.953629  1
  O  O11  1  0.698611  0.063132  0.046371  1
  O  O12  1  0.298132  0.935707  0.515776  1
  O  O13  1  0.701868  0.064293  0.484224  1
  O  O14  1  0.544156  0.354209  0.343170  1
  O  O15  1  0.455844  0.645791  0.656830  1
  O  O16  1  0.927519  0.670242  0.950418  1
  O  O17  1  0.072481  0.329758  0.049582  1
  O  O18  1  0.070196  0.338919  0.613076  1
  O  O19  1  0.929804  0.661081  0.386924  1
  O  O20  1  0.879514  0.920680  0.729484  1
  O  O21  1  0.120486  0.079320  0.270516  1
