# generated using pymatgen
data_Sc6Ta2Al15Ir7
_symmetry_space_group_name_H-M   'P 1'
_cell_length_a   8.82226182
_cell_length_b   8.82226074
_cell_length_c   8.82226100
_cell_angle_alpha   120.21391659
_cell_angle_beta   119.65438712
_cell_angle_gamma   90.11477187
_symmetry_Int_Tables_number   1
_chemical_formula_structural   Sc6Ta2Al15Ir7
_chemical_formula_sum   'Sc6 Ta2 Al15 Ir7'
_cell_volume   486.00743825
_cell_formula_units_Z   1
loop_
 _symmetry_equiv_pos_site_id
 _symmetry_equiv_pos_as_xyz
  1  'x, y, z'
loop_
 _atom_site_type_symbol
 _atom_site_label
 _atom_site_symmetry_multiplicity
 _atom_site_fract_x
 _atom_site_fract_y
 _atom_site_fract_z
 _atom_site_occupancy
  Sc  Sc0  1  0.791042  0.283420  0.065194  1
  Sc  Sc1  1  0.218225  0.283420  0.492378  1
  Sc  Sc2  1  0.211594  0.711594  0.500000  1
  Sc  Sc3  1  0.218225  0.725848  0.934806  1
  Sc  Sc4  1  0.791042  0.725848  0.507622  1
  Sc  Sc5  1  0.775831  0.275831  0.500000  1
  Ta  Ta6  1  0.379758  0.125898  0.746140  1
  Ta  Ta7  1  0.379758  0.633618  0.253860  1
  Al  Al8  1  0.992638  0.492638  0.500000  1
  Al  Al9  1  0.157951  0.337598  0.179644  1
  Al  Al10  1  0.157951  0.978307  0.820356  1
  Al  Al11  1  0.147848  0.344962  0.802886  1
  Al  Al12  1  0.542076  0.344962  0.197114  1
  Al  Al13  1  0.838549  0.657032  0.818483  1
  Al  Al14  1  0.838549  0.020067  0.181517  1
  Al  Al15  1  0.836033  0.660662  0.175371  1
  Al  Al16  1  0.485290  0.660662  0.824629  1
  Al  Al17  1  0.380005  0.122594  0.257413  1
  Al  Al18  1  0.865183  0.122594  0.742587  1
  Al  Al19  1  0.621830  0.876621  0.254792  1
  Al  Al20  1  0.621830  0.367038  0.745208  1
  Al  Al21  1  0.622382  0.877522  0.744859  1
  Al  Al22  1  0.132663  0.877522  0.255141  1
  Ir  Ir23  1  0.003919  0.999779  0.503246  1
  Ir  Ir24  1  0.496533  0.999779  0.995860  1
  Ir  Ir25  1  0.495568  0.495568  0.000000  1
  Ir  Ir26  1  0.496533  0.500672  0.496754  1
  Ir  Ir27  1  0.003919  0.500672  0.004140  1
  Ir  Ir28  1  0.000042  0.000042  0.000000  1
  Ir  Ir29  1  0.497225  0.997225  0.500000  1
