# generated using pymatgen
data_Y3Er5B24OsRu3
_symmetry_space_group_name_H-M   'P 1'
_cell_length_a   3.64308000
_cell_length_b   9.11597692
_cell_length_c   11.49878901
_cell_angle_alpha   90.03488860
_cell_angle_beta   90.00000000
_cell_angle_gamma   90.00000000
_symmetry_Int_Tables_number   1
_chemical_formula_structural   Y3Er5B24OsRu3
_chemical_formula_sum   'Y3 Er5 B24 Os1 Ru3'
_cell_volume   381.87739362
_cell_formula_units_Z   1
loop_
 _symmetry_equiv_pos_site_id
 _symmetry_equiv_pos_as_xyz
  1  'x, y, z'
loop_
 _atom_site_type_symbol
 _atom_site_label
 _atom_site_symmetry_multiplicity
 _atom_site_fract_x
 _atom_site_fract_y
 _atom_site_fract_z
 _atom_site_occupancy
  Y  Y0  1  0.000000  0.322419  0.414022  1
  Y  Y1  1  0.000000  0.678146  0.586359  1
  Y  Y2  1  0.000000  0.822091  0.085862  1
  Er  Er3  1  0.000000  0.177778  0.914061  1
  Er  Er4  1  0.000000  0.943892  0.372235  1
  Er  Er5  1  0.000000  0.056446  0.627030  1
  Er  Er6  1  0.000000  0.443620  0.127520  1
  Er  Er7  1  0.000000  0.555348  0.872862  1
  B  B8  1  0.500000  0.554326  0.432923  1
  B  B9  1  0.500000  0.445770  0.567267  1
  B  B10  1  0.500000  0.054523  0.066679  1
  B  B11  1  0.500000  0.946553  0.932971  1
  B  B12  1  0.500000  0.748755  0.419593  1
  B  B13  1  0.500000  0.251544  0.580473  1
  B  B14  1  0.500000  0.248460  0.079788  1
  B  B15  1  0.500000  0.751420  0.919532  1
  B  B16  1  0.500000  0.791223  0.266261  1
  B  B17  1  0.500000  0.208462  0.734085  1
  B  B18  1  0.500000  0.291163  0.233477  1
  B  B19  1  0.500000  0.708610  0.766455  1
  B  B20  1  0.500000  0.631355  0.185064  1
  B  B21  1  0.500000  0.367794  0.815348  1
  B  B22  1  0.500000  0.131556  0.314777  1
  B  B23  1  0.500000  0.868847  0.685331  1
  B  B24  1  0.500000  0.983557  0.213025  1
  B  B25  1  0.500000  0.017445  0.787053  1
  B  B26  1  0.500000  0.483377  0.286778  1
  B  B27  1  0.500000  0.516291  0.713428  1
  B  B28  1  0.500000  0.606410  0.029560  1
  B  B29  1  0.500000  0.392165  0.970403  1
  B  B30  1  0.500000  0.106809  0.470371  1
  B  B31  1  0.500000  0.893717  0.529271  1
  Os  Os32  1  0.000000  0.862409  0.821070  1
  Ru  Ru33  1  0.000000  0.638101  0.320856  1
  Ru  Ru34  1  0.000000  0.361611  0.679570  1
  Ru  Ru35  1  0.000000  0.138013  0.178642  1
