# generated using pymatgen
data_Na3Sr(SnPt)4
_symmetry_space_group_name_H-M   'P 1'
_cell_length_a   4.54169700
_cell_length_b   7.74936527
_cell_length_c   7.87896584
_cell_angle_alpha   88.73088850
_cell_angle_beta   90.00000000
_cell_angle_gamma   90.00000000
_symmetry_Int_Tables_number   1
_chemical_formula_structural   Na3Sr(SnPt)4
_chemical_formula_sum   'Na3 Sr1 Sn4 Pt4'
_cell_volume   277.23429850
_cell_formula_units_Z   1
loop_
 _symmetry_equiv_pos_site_id
 _symmetry_equiv_pos_as_xyz
  1  'x, y, z'
loop_
 _atom_site_type_symbol
 _atom_site_label
 _atom_site_symmetry_multiplicity
 _atom_site_fract_x
 _atom_site_fract_y
 _atom_site_fract_z
 _atom_site_occupancy
  Na  Na0  1  0.750000  0.982235  0.668195  1
  Na  Na1  1  0.250000  0.015494  0.335513  1
  Na  Na2  1  0.750000  0.484725  0.817107  1
  Sr  Sr3  1  0.250000  0.515063  0.167051  1
  Sn  Sn4  1  0.750000  0.331454  0.431632  1
  Sn  Sn5  1  0.250000  0.154243  0.922977  1
  Sn  Sn6  1  0.250000  0.661660  0.580540  1
  Sn  Sn7  1  0.750000  0.849336  0.074277  1
  Pt  Pt8  1  0.250000  0.805853  0.887378  1
  Pt  Pt9  1  0.250000  0.307667  0.611922  1
  Pt  Pt10  1  0.750000  0.693668  0.390769  1
  Pt  Pt11  1  0.750000  0.198601  0.112640  1
