# generated using pymatgen
data_Hf5Sc17Os8
_symmetry_space_group_name_H-M   'P 1'
_cell_length_a   9.42624646
_cell_length_b   9.42624654
_cell_length_c   9.43714541
_cell_angle_alpha   60.59774226
_cell_angle_beta   60.59774000
_cell_angle_gamma   60.50181932
_symmetry_Int_Tables_number   1
_chemical_formula_structural   Hf5Sc17Os8
_chemical_formula_sum   'Hf5 Sc17 Os8'
_cell_volume   600.50673773
_cell_formula_units_Z   1
loop_
 _symmetry_equiv_pos_site_id
 _symmetry_equiv_pos_as_xyz
  1  'x, y, z'
loop_
 _atom_site_type_symbol
 _atom_site_label
 _atom_site_symmetry_multiplicity
 _atom_site_fract_x
 _atom_site_fract_y
 _atom_site_fract_z
 _atom_site_occupancy
  Hf  Hf0  1  0.842980  0.842980  0.842862  1
  Hf  Hf1  1  0.526970  0.158008  0.157197  1
  Hf  Hf2  1  0.157695  0.157695  0.526866  1
  Hf  Hf3  1  0.158008  0.526970  0.157197  1
  Hf  Hf4  1  0.843848  0.843848  0.471737  1
  Sc  Sc5  1  0.844675  0.469344  0.844857  1
  Sc  Sc6  1  0.469344  0.844675  0.844857  1
  Sc  Sc7  1  0.157217  0.157217  0.155507  1
  Sc  Sc8  1  0.198224  0.802024  0.198054  1
  Sc  Sc9  1  0.198913  0.800512  0.801036  1
  Sc  Sc10  1  0.802024  0.198224  0.198054  1
  Sc  Sc11  1  0.800095  0.800095  0.199640  1
  Sc  Sc12  1  0.197305  0.197305  0.802891  1
  Sc  Sc13  1  0.800512  0.198913  0.801036  1
  Sc  Sc14  1  0.383543  0.383543  0.382432  1
  Sc  Sc15  1  0.148857  0.615759  0.617631  1
  Sc  Sc16  1  0.615759  0.148857  0.617631  1
  Sc  Sc17  1  0.616678  0.616678  0.147865  1
  Sc  Sc18  1  0.383351  0.851211  0.382383  1
  Sc  Sc19  1  0.383173  0.383173  0.850249  1
  Sc  Sc20  1  0.851211  0.383351  0.382383  1
  Sc  Sc21  1  0.617301  0.617301  0.619055  1
  Os  Os22  1  0.495918  0.495918  0.003835  1
  Os  Os23  1  0.997987  0.997987  0.504456  1
  Os  Os24  1  0.500717  0.001795  0.495622  1
  Os  Os25  1  0.001795  0.500717  0.495622  1
  Os  Os26  1  0.505903  0.000102  0.999742  1
  Os  Os27  1  0.000102  0.505903  0.999742  1
  Os  Os28  1  0.500781  0.500781  0.499635  1
  Os  Os29  1  0.999112  0.999112  0.999929  1
