# generated using pymatgen
data_La3MgCd2IrAu2
_symmetry_space_group_name_H-M   'P 1'
_cell_length_a   7.99796485
_cell_length_b   7.96674332
_cell_length_c   4.08707600
_cell_angle_alpha   90.00000000
_cell_angle_beta   90.00000000
_cell_angle_gamma   120.65944012
_symmetry_Int_Tables_number   1
_chemical_formula_structural   La3MgCd2IrAu2
_chemical_formula_sum   'La3 Mg1 Cd2 Ir1 Au2'
_cell_volume   224.01611928
_cell_formula_units_Z   1
loop_
 _symmetry_equiv_pos_site_id
 _symmetry_equiv_pos_as_xyz
  1  'x, y, z'
loop_
 _atom_site_type_symbol
 _atom_site_label
 _atom_site_symmetry_multiplicity
 _atom_site_fract_x
 _atom_site_fract_y
 _atom_site_fract_z
 _atom_site_occupancy
  La  La0  1  0.571620  0.980916  0.000000  1
  La  La1  1  0.023987  0.592558  0.000000  1
  La  La2  1  0.402103  0.424318  0.000000  1
  Mg  Mg3  1  0.755088  0.757165  0.500000  1
  Cd  Cd4  1  0.250695  0.000138  0.500000  1
  Cd  Cd5  1  0.998893  0.249614  0.500000  1
  Ir  Ir6  1  0.342911  0.667948  0.500000  1
  Au  Au7  1  0.668309  0.341857  0.500000  1
  Au  Au8  1  0.986393  0.985488  0.000000  1
