# generated using pymatgen
data_LaTh3(Si5Tc3)2
_symmetry_space_group_name_H-M   'P 1'
_cell_length_a   8.46211707
_cell_length_b   8.46972360
_cell_length_c   8.46972253
_cell_angle_alpha   140.24078123
_cell_angle_beta   108.74828168
_cell_angle_gamma   84.83971892
_symmetry_Int_Tables_number   1
_chemical_formula_structural   LaTh3(Si5Tc3)2
_chemical_formula_sum   'La1 Th3 Si10 Tc6'
_cell_volume   355.04941051
_cell_formula_units_Z   1
loop_
 _symmetry_equiv_pos_site_id
 _symmetry_equiv_pos_as_xyz
  1  'x, y, z'
loop_
 _atom_site_type_symbol
 _atom_site_label
 _atom_site_symmetry_multiplicity
 _atom_site_fract_x
 _atom_site_fract_y
 _atom_site_fract_z
 _atom_site_occupancy
  La  La0  1  0.101766  0.367683  0.734083  1
  Th  Th1  1  0.633067  0.866696  0.766373  1
  Th  Th2  1  0.366345  0.132275  0.234069  1
  Th  Th3  1  0.901076  0.634888  0.266188  1
  Si  Si4  1  0.999646  0.251278  0.251506  1
  Si  Si5  1  0.999646  0.748141  0.748368  1
  Si  Si6  1  0.291570  0.544370  0.250892  1
  Si  Si7  1  0.707422  0.958339  0.250256  1
  Si  Si8  1  0.707422  0.457166  0.749083  1
  Si  Si9  1  0.291570  0.040678  0.747200  1
  Si  Si10  1  0.431965  0.598299  0.833666  1
  Si  Si11  1  0.767743  0.098374  0.669369  1
  Si  Si12  1  0.232095  0.900432  0.331663  1
  Si  Si13  1  0.569424  0.402476  0.166949  1
  Tc  Tc14  1  0.057573  0.147508  0.910063  1
  Tc  Tc15  1  0.502601  0.751242  0.252622  1
  Tc  Tc16  1  0.241984  0.648573  0.593413  1
  Tc  Tc17  1  0.755019  0.350669  0.404349  1
  Tc  Tc18  1  0.939464  0.850936  0.088529  1
  Tc  Tc19  1  0.502601  0.249979  0.751360  1
