# generated using pymatgen
data_Mg2Ti3Re17Tc7
_symmetry_space_group_name_H-M   'P 1'
_cell_length_a   8.37999376
_cell_length_b   8.37392812
_cell_length_c   8.35914694
_cell_angle_alpha   109.46610888
_cell_angle_beta   109.49260354
_cell_angle_gamma   109.60794223
_symmetry_Int_Tables_number   1
_chemical_formula_structural   Mg2Ti3Re17Tc7
_chemical_formula_sum   'Mg2 Ti3 Re17 Tc7'
_cell_volume   450.70222714
_cell_formula_units_Z   1
loop_
 _symmetry_equiv_pos_site_id
 _symmetry_equiv_pos_as_xyz
  1  'x, y, z'
loop_
 _atom_site_type_symbol
 _atom_site_label
 _atom_site_symmetry_multiplicity
 _atom_site_fract_x
 _atom_site_fract_y
 _atom_site_fract_z
 _atom_site_occupancy
  Mg  Mg0  1  0.998011  0.999015  0.999569  1
  Mg  Mg1  1  0.638481  0.999529  0.999709  1
  Ti  Ti2  1  0.999989  0.635430  0.999532  1
  Ti  Ti3  1  0.001237  0.000486  0.636687  1
  Ti  Ti4  1  0.363755  0.363073  0.363752  1
  Re  Re5  1  0.998274  0.679888  0.399260  1
  Re  Re6  1  0.681450  0.000192  0.399312  1
  Re  Re7  1  0.598035  0.600320  0.279611  1
  Re  Re8  1  0.281803  0.600903  0.600730  1
  Re  Re9  1  0.599117  0.280279  0.600949  1
  Re  Re10  1  0.377541  0.193446  0.000879  1
  Re  Re11  1  0.184373  0.808425  0.807424  1
  Re  Re12  1  0.376574  0.000470  0.192242  1
  Re  Re13  1  0.195532  0.376254  0.000853  1
  Re  Re14  1  0.001020  0.376696  0.192869  1
  Re  Re15  1  0.808269  0.183707  0.807016  1
  Re  Re16  1  0.808638  0.808144  0.185292  1
  Re  Re17  1  0.001225  0.193017  0.378486  1
  Re  Re18  1  0.195175  0.000901  0.376782  1
  Re  Re19  1  0.621710  0.621244  0.813263  1
  Re  Re20  1  0.817792  0.623550  0.623152  1
  Re  Re21  1  0.622176  0.813718  0.621194  1
  Tc  Tc22  1  0.396720  0.676450  0.000281  1
  Tc  Tc23  1  0.721031  0.323731  0.323465  1
  Tc  Tc24  1  0.397726  0.001216  0.677134  1
  Tc  Tc25  1  0.682565  0.399773  0.000042  1
  Tc  Tc26  1  0.998372  0.400649  0.681515  1
  Tc  Tc27  1  0.316588  0.719893  0.319111  1
  Tc  Tc28  1  0.316822  0.319601  0.719892  1
