# generated using pymatgen
data_Ac2Yb5Co2Ni2Sn13
_symmetry_space_group_name_H-M   'P 1'
_cell_length_a   11.35619522
_cell_length_b   11.25642503
_cell_length_c   4.63415900
_cell_angle_alpha   90.00000000
_cell_angle_beta   90.00000000
_cell_angle_gamma   89.37600148
_symmetry_Int_Tables_number   1
_chemical_formula_structural   Ac2Yb5Co2Ni2Sn13
_chemical_formula_sum   'Ac2 Yb5 Co2 Ni2 Sn13'
_cell_volume   592.35015613
_cell_formula_units_Z   1
loop_
 _symmetry_equiv_pos_site_id
 _symmetry_equiv_pos_as_xyz
  1  'x, y, z'
loop_
 _atom_site_type_symbol
 _atom_site_label
 _atom_site_symmetry_multiplicity
 _atom_site_fract_x
 _atom_site_fract_y
 _atom_site_fract_z
 _atom_site_occupancy
  Ac  Ac0  1  0.500000  0.000000  0.500000  1
  Ac  Ac1  1  0.000000  0.500000  0.500000  1
  Yb  Yb2  1  0.000000  0.000000  0.000000  1
  Yb  Yb3  1  0.338143  0.670879  0.500000  1
  Yb  Yb4  1  0.661857  0.329121  0.500000  1
  Yb  Yb5  1  0.328940  0.337157  0.500000  1
  Yb  Yb6  1  0.671060  0.662843  0.500000  1
  Co  Co7  1  0.116346  0.724711  0.000000  1
  Co  Co8  1  0.883654  0.275289  0.000000  1
  Ni  Ni9  1  0.279066  0.119177  0.000000  1
  Ni  Ni10  1  0.720934  0.880823  0.000000  1
  Sn  Sn11  1  0.280468  0.884485  0.000000  1
  Sn  Sn12  1  0.719532  0.115515  0.000000  1
  Sn  Sn13  1  0.112862  0.282299  0.000000  1
  Sn  Sn14  1  0.887138  0.717701  0.000000  1
  Sn  Sn15  1  0.078284  0.810414  0.500000  1
  Sn  Sn16  1  0.921716  0.189586  0.500000  1
  Sn  Sn17  1  0.189563  0.077634  0.500000  1
  Sn  Sn18  1  0.810437  0.922366  0.500000  1
  Sn  Sn19  1  0.518400  0.777388  0.000000  1
  Sn  Sn20  1  0.481600  0.222612  0.000000  1
  Sn  Sn21  1  0.221550  0.521626  0.000000  1
  Sn  Sn22  1  0.778450  0.478374  0.000000  1
  Sn  Sn23  1  0.500000  0.500000  0.000000  1
