# generated using pymatgen
data_PaTlCoS3
_symmetry_space_group_name_H-M   'P 1'
_cell_length_a   7.42041200
_cell_length_b   7.42041324
_cell_length_c   10.05896900
_cell_angle_alpha   90.00000000
_cell_angle_beta   90.00000000
_cell_angle_gamma   149.42630418
_symmetry_Int_Tables_number   1
_chemical_formula_structural   PaTlCoS3
_chemical_formula_sum   'Pa2 Tl2 Co2 S6'
_cell_volume   281.72499841
_cell_formula_units_Z   2
loop_
 _symmetry_equiv_pos_site_id
 _symmetry_equiv_pos_as_xyz
  1  'x, y, z'
loop_
 _atom_site_type_symbol
 _atom_site_label
 _atom_site_symmetry_multiplicity
 _atom_site_fract_x
 _atom_site_fract_y
 _atom_site_fract_z
 _atom_site_occupancy
  Pa  Pa0  1  0.000000  0.000000  0.000000  1
  Pa  Pa1  1  0.000000  0.000000  0.500000  1
  Tl  Tl2  1  0.745352  0.254648  0.250000  1
  Tl  Tl3  1  0.254648  0.745352  0.750000  1
  Co  Co4  1  0.472539  0.527461  0.250000  1
  Co  Co5  1  0.527461  0.472539  0.750000  1
  S  S6  1  0.378410  0.621590  0.068912  1
  S  S7  1  0.064117  0.935883  0.250000  1
  S  S8  1  0.378410  0.621590  0.431089  1
  S  S9  1  0.621590  0.378410  0.568912  1
  S  S10  1  0.935883  0.064117  0.750000  1
  S  S11  1  0.621590  0.378410  0.931088  1
