# generated using pymatgen
data_Er6MgNi17As12
_symmetry_space_group_name_H-M   'P 1'
_cell_length_a   3.89351100
_cell_length_b   10.93733100
_cell_length_c   12.73244500
_cell_angle_alpha   90.00000000
_cell_angle_beta   90.00000000
_cell_angle_gamma   90.00000000
_symmetry_Int_Tables_number   1
_chemical_formula_structural   Er6MgNi17As12
_chemical_formula_sum   'Er6 Mg1 Ni17 As12'
_cell_volume   542.20631365
_cell_formula_units_Z   1
loop_
 _symmetry_equiv_pos_site_id
 _symmetry_equiv_pos_as_xyz
  1  'x, y, z'
loop_
 _atom_site_type_symbol
 _atom_site_label
 _atom_site_symmetry_multiplicity
 _atom_site_fract_x
 _atom_site_fract_y
 _atom_site_fract_z
 _atom_site_occupancy
  Er  Er0  1  0.750000  0.250000  0.471946  1
  Er  Er1  1  0.250000  0.750000  0.524641  1
  Er  Er2  1  0.250000  0.928780  0.790743  1
  Er  Er3  1  0.250000  0.571220  0.790743  1
  Er  Er4  1  0.750000  0.068723  0.203461  1
  Er  Er5  1  0.750000  0.431277  0.203461  1
  Mg  Mg6  1  0.250000  0.250000  0.850500  1
  Ni  Ni7  1  0.750000  0.750000  0.160946  1
  Ni  Ni8  1  0.250000  0.250000  0.298223  1
  Ni  Ni9  1  0.750000  0.750000  0.698050  1
  Ni  Ni10  1  0.750000  0.250000  0.012979  1
  Ni  Ni11  1  0.250000  0.750000  0.981528  1
  Ni  Ni12  1  0.250000  0.425340  0.006459  1
  Ni  Ni13  1  0.250000  0.074660  0.006459  1
  Ni  Ni14  1  0.750000  0.591746  0.002064  1
  Ni  Ni15  1  0.750000  0.908254  0.002064  1
  Ni  Ni16  1  0.250000  0.449196  0.569712  1
  Ni  Ni17  1  0.250000  0.050804  0.569712  1
  Ni  Ni18  1  0.750000  0.552328  0.426591  1
  Ni  Ni19  1  0.750000  0.947672  0.426591  1
  Ni  Ni20  1  0.250000  0.870288  0.294871  1
  Ni  Ni21  1  0.250000  0.629712  0.294871  1
  Ni  Ni22  1  0.750000  0.129328  0.707670  1
  Ni  Ni23  1  0.750000  0.370672  0.707670  1
  As  As24  1  0.250000  0.250000  0.120038  1
  As  As25  1  0.750000  0.750000  0.875197  1
  As  As26  1  0.250000  0.250000  0.643741  1
  As  As27  1  0.750000  0.750000  0.348835  1
  As  As28  1  0.250000  0.435049  0.383292  1
  As  As29  1  0.250000  0.064951  0.383292  1
  As  As30  1  0.750000  0.564404  0.612735  1
  As  As31  1  0.750000  0.935596  0.612735  1
  As  As32  1  0.250000  0.899521  0.113938  1
  As  As33  1  0.250000  0.600479  0.113938  1
  As  As34  1  0.750000  0.083753  0.895154  1
  As  As35  1  0.750000  0.416247  0.895154  1
