# generated using pymatgen
data_Ti5ZnSn2Bi
_symmetry_space_group_name_H-M   'P 1'
_cell_length_a   8.28937729
_cell_length_b   8.28937628
_cell_length_c   5.58619800
_cell_angle_alpha   90.00000000
_cell_angle_beta   90.00000000
_cell_angle_gamma   119.55091035
_symmetry_Int_Tables_number   1
_chemical_formula_structural   Ti5ZnSn2Bi
_chemical_formula_sum   'Ti10 Zn2 Sn4 Bi2'
_cell_volume   333.91682908
_cell_formula_units_Z   2
loop_
 _symmetry_equiv_pos_site_id
 _symmetry_equiv_pos_as_xyz
  1  'x, y, z'
loop_
 _atom_site_type_symbol
 _atom_site_label
 _atom_site_symmetry_multiplicity
 _atom_site_fract_x
 _atom_site_fract_y
 _atom_site_fract_z
 _atom_site_occupancy
  Ti  Ti0  1  0.265193  0.989633  0.750000  1
  Ti  Ti1  1  0.734807  0.010367  0.250000  1
  Ti  Ti2  1  0.989633  0.265193  0.750000  1
  Ti  Ti3  1  0.010367  0.734807  0.250000  1
  Ti  Ti4  1  0.733683  0.733683  0.750000  1
  Ti  Ti5  1  0.266317  0.266317  0.250000  1
  Ti  Ti6  1  0.329647  0.670353  0.500000  1
  Ti  Ti7  1  0.670353  0.329647  0.500000  1
  Ti  Ti8  1  0.670353  0.329647  0.000000  1
  Ti  Ti9  1  0.329647  0.670353  0.000000  1
  Zn  Zn10  1  0.000000  0.000000  0.500000  1
  Zn  Zn11  1  0.000000  0.000000  0.000000  1
  Sn  Sn12  1  0.612514  0.997061  0.750000  1
  Sn  Sn13  1  0.387486  0.002939  0.250000  1
  Sn  Sn14  1  0.997061  0.612514  0.750000  1
  Sn  Sn15  1  0.002939  0.387486  0.250000  1
  Bi  Bi16  1  0.380328  0.380328  0.750000  1
  Bi  Bi17  1  0.619672  0.619672  0.250000  1
