# generated using pymatgen
data_Sr2Cd(BrO)2
_symmetry_space_group_name_H-M   'P 1'
_cell_length_a   6.49766813
_cell_length_b   6.49766874
_cell_length_c   7.87236645
_cell_angle_alpha   120.04291239
_cell_angle_beta   120.04291501
_cell_angle_gamma   36.72017834
_symmetry_Int_Tables_number   1
_chemical_formula_structural   Sr2Cd(BrO)2
_chemical_formula_sum   'Sr2 Cd1 Br2 O2'
_cell_volume   168.82848163
_cell_formula_units_Z   1
loop_
 _symmetry_equiv_pos_site_id
 _symmetry_equiv_pos_as_xyz
  1  'x, y, z'
loop_
 _atom_site_type_symbol
 _atom_site_label
 _atom_site_symmetry_multiplicity
 _atom_site_fract_x
 _atom_site_fract_y
 _atom_site_fract_z
 _atom_site_occupancy
  Sr  Sr0  1  0.800367  0.800367  0.230110  1
  Sr  Sr1  1  0.199633  0.199633  0.769891  1
  Cd  Cd2  1  0.000000  0.000000  0.000000  1
  Br  Br3  1  0.571044  0.571044  0.352696  1
  Br  Br4  1  0.428956  0.428956  0.647305  1
  O  O5  1  0.186681  0.186681  0.070578  1
  O  O6  1  0.813319  0.813319  0.929421  1
