# generated using pymatgen
data_Li8Nd8SnBi7
_symmetry_space_group_name_H-M   'P 1'
_cell_length_a   9.85278600
_cell_length_b   9.85278602
_cell_length_c   7.40007400
_cell_angle_alpha   90.00000000
_cell_angle_beta   90.00000000
_cell_angle_gamma   119.99999992
_symmetry_Int_Tables_number   1
_chemical_formula_structural   Li8Nd8SnBi7
_chemical_formula_sum   'Li8 Nd8 Sn1 Bi7'
_cell_volume   622.13523122
_cell_formula_units_Z   1
loop_
 _symmetry_equiv_pos_site_id
 _symmetry_equiv_pos_as_xyz
  1  'x, y, z'
loop_
 _atom_site_type_symbol
 _atom_site_label
 _atom_site_symmetry_multiplicity
 _atom_site_fract_x
 _atom_site_fract_y
 _atom_site_fract_z
 _atom_site_occupancy
  Li  Li0  1  0.167822  0.335643  0.278125  1
  Li  Li1  1  0.167822  0.832178  0.278125  1
  Li  Li2  1  0.664357  0.832178  0.278125  1
  Li  Li3  1  0.831216  0.662432  0.777144  1
  Li  Li4  1  0.831216  0.168784  0.777144  1
  Li  Li5  1  0.337568  0.168784  0.777144  1
  Li  Li6  1  0.333333  0.666667  0.681090  1
  Li  Li7  1  0.666667  0.333333  0.181825  1
  Nd  Nd8  1  0.512650  0.025302  0.496098  1
  Nd  Nd9  1  0.512650  0.487350  0.496098  1
  Nd  Nd10  1  0.974698  0.487350  0.496098  1
  Nd  Nd11  1  0.493399  0.986797  0.992433  1
  Nd  Nd12  1  0.493399  0.506601  0.992433  1
  Nd  Nd13  1  0.013203  0.506601  0.992433  1
  Nd  Nd14  1  0.000000  0.000000  0.502472  1
  Nd  Nd15  1  0.000000  0.000000  0.001326  1
  Sn  Sn16  1  0.666667  0.333333  0.761337  1
  Bi  Bi17  1  0.166617  0.333235  0.736973  1
  Bi  Bi18  1  0.166617  0.833383  0.736973  1
  Bi  Bi19  1  0.666765  0.833383  0.736973  1
  Bi  Bi20  1  0.833525  0.667050  0.237460  1
  Bi  Bi21  1  0.833525  0.166475  0.237460  1
  Bi  Bi22  1  0.332950  0.166475  0.237460  1
  Bi  Bi23  1  0.333333  0.666667  0.259228  1
