# generated using pymatgen
data_Er5Cd2(InPd)2
_symmetry_space_group_name_H-M   'P 1'
_cell_length_a   3.61135800
_cell_length_b   7.99666000
_cell_length_c   18.28080200
_cell_angle_alpha   90.00000000
_cell_angle_beta   90.00000000
_cell_angle_gamma   90.00000000
_symmetry_Int_Tables_number   1
_chemical_formula_structural   Er5Cd2(InPd)2
_chemical_formula_sum   'Er10 Cd4 In4 Pd4'
_cell_volume   527.92766253
_cell_formula_units_Z   2
loop_
 _symmetry_equiv_pos_site_id
 _symmetry_equiv_pos_as_xyz
  1  'x, y, z'
loop_
 _atom_site_type_symbol
 _atom_site_label
 _atom_site_symmetry_multiplicity
 _atom_site_fract_x
 _atom_site_fract_y
 _atom_site_fract_z
 _atom_site_occupancy
  Er  Er0  1  0.000000  0.500000  0.500000  1
  Er  Er1  1  0.000000  0.000000  0.000000  1
  Er  Er2  1  0.000000  0.744365  0.279705  1
  Er  Er3  1  0.000000  0.255635  0.720295  1
  Er  Er4  1  0.000000  0.755635  0.779705  1
  Er  Er5  1  0.000000  0.244365  0.220295  1
  Er  Er6  1  0.000000  0.615083  0.084251  1
  Er  Er7  1  0.000000  0.384917  0.915749  1
  Er  Er8  1  0.000000  0.884917  0.584251  1
  Er  Er9  1  0.000000  0.115083  0.415749  1
  Cd  Cd10  1  0.500000  0.711781  0.931603  1
  Cd  Cd11  1  0.500000  0.288219  0.068397  1
  Cd  Cd12  1  0.500000  0.788219  0.431603  1
  Cd  Cd13  1  0.500000  0.211781  0.568397  1
  In  In14  1  0.500000  0.572375  0.647418  1
  In  In15  1  0.500000  0.427625  0.352582  1
  In  In16  1  0.500000  0.927625  0.147418  1
  In  In17  1  0.500000  0.072375  0.852582  1
  Pd  Pd18  1  0.500000  0.526751  0.196318  1
  Pd  Pd19  1  0.500000  0.473249  0.803682  1
  Pd  Pd20  1  0.500000  0.973249  0.696318  1
  Pd  Pd21  1  0.500000  0.026751  0.303682  1
