# generated using pymatgen
data_Sm3Al8GaTc3Os4
_symmetry_space_group_name_H-M   'P 1'
_cell_length_a   8.87460000
_cell_length_b   8.87459859
_cell_length_c   9.68061400
_cell_angle_alpha   90.00000000
_cell_angle_beta   90.00000000
_cell_angle_gamma   119.99999779
_symmetry_Int_Tables_number   1
_chemical_formula_structural   Sm3Al8GaTc3Os4
_chemical_formula_sum   'Sm6 Al16 Ga2 Tc6 Os8'
_cell_volume   660.28442175
_cell_formula_units_Z   2
loop_
 _symmetry_equiv_pos_site_id
 _symmetry_equiv_pos_as_xyz
  1  'x, y, z'
loop_
 _atom_site_type_symbol
 _atom_site_label
 _atom_site_symmetry_multiplicity
 _atom_site_fract_x
 _atom_site_fract_y
 _atom_site_fract_z
 _atom_site_occupancy
  Sm  Sm0  1  0.194231  0.388460  0.250000  1
  Sm  Sm1  1  0.805769  0.611540  0.750000  1
  Sm  Sm2  1  0.611540  0.805769  0.250000  1
  Sm  Sm3  1  0.388460  0.194231  0.750000  1
  Sm  Sm4  1  0.194231  0.805769  0.250000  1
  Sm  Sm5  1  0.805769  0.194231  0.750000  1
  Al  Al6  1  0.333333  0.666667  0.010193  1
  Al  Al7  1  0.666667  0.333333  0.989807  1
  Al  Al8  1  0.666667  0.333333  0.510193  1
  Al  Al9  1  0.333333  0.666667  0.489807  1
  Al  Al10  1  0.166186  0.332375  0.574613  1
  Al  Al11  1  0.833814  0.667625  0.425387  1
  Al  Al12  1  0.667625  0.833814  0.574613  1
  Al  Al13  1  0.833814  0.667625  0.074613  1
  Al  Al14  1  0.332375  0.166186  0.425387  1
  Al  Al15  1  0.166186  0.332375  0.925387  1
  Al  Al16  1  0.166186  0.833814  0.574613  1
  Al  Al17  1  0.332375  0.166186  0.074613  1
  Al  Al18  1  0.833814  0.166186  0.425387  1
  Al  Al19  1  0.667625  0.833814  0.925387  1
  Al  Al20  1  0.833814  0.166186  0.074613  1
  Al  Al21  1  0.166186  0.833814  0.925387  1
  Ga  Ga22  1  0.000000  0.000000  0.250000  1
  Ga  Ga23  1  0.000000  0.000000  0.750000  1
  Tc  Tc24  1  0.573994  0.147987  0.250000  1
  Tc  Tc25  1  0.426006  0.852013  0.750000  1
  Tc  Tc26  1  0.852013  0.426006  0.250000  1
  Tc  Tc27  1  0.147987  0.573994  0.750000  1
  Tc  Tc28  1  0.573994  0.426006  0.250000  1
  Tc  Tc29  1  0.426006  0.573994  0.750000  1
  Os  Os30  1  0.500000  0.000000  0.000000  1
  Os  Os31  1  0.000000  0.500000  0.000000  1
  Os  Os32  1  0.500000  0.000000  0.500000  1
  Os  Os33  1  0.500000  0.500000  0.000000  1
  Os  Os34  1  0.000000  0.500000  0.500000  1
  Os  Os35  1  0.500000  0.500000  0.500000  1
  Os  Os36  1  0.000000  0.000000  0.000000  1
  Os  Os37  1  0.000000  0.000000  0.500000  1
