# generated using pymatgen
data_La3CoGe2
_symmetry_space_group_name_H-M   'P 1'
_cell_length_a   4.27535400
_cell_length_b   11.62208700
_cell_length_c   12.08107900
_cell_angle_alpha   90.00000000
_cell_angle_beta   90.00000000
_cell_angle_gamma   90.00000000
_symmetry_Int_Tables_number   1
_chemical_formula_structural   La3CoGe2
_chemical_formula_sum   'La12 Co4 Ge8'
_cell_volume   600.29113055
_cell_formula_units_Z   4
loop_
 _symmetry_equiv_pos_site_id
 _symmetry_equiv_pos_as_xyz
  1  'x, y, z'
loop_
 _atom_site_type_symbol
 _atom_site_label
 _atom_site_symmetry_multiplicity
 _atom_site_fract_x
 _atom_site_fract_y
 _atom_site_fract_z
 _atom_site_occupancy
  La  La0  1  0.250000  0.373084  0.050895  1
  La  La1  1  0.750000  0.626916  0.949105  1
  La  La2  1  0.750000  0.873084  0.449105  1
  La  La3  1  0.250000  0.126916  0.550895  1
  La  La4  1  0.250000  0.700562  0.226313  1
  La  La5  1  0.750000  0.299438  0.773687  1
  La  La6  1  0.750000  0.200562  0.273687  1
  La  La7  1  0.250000  0.799438  0.726313  1
  La  La8  1  0.250000  0.444482  0.382394  1
  La  La9  1  0.750000  0.555518  0.617606  1
  La  La10  1  0.750000  0.944482  0.117606  1
  La  La11  1  0.250000  0.055518  0.882394  1
  Co  Co12  1  0.250000  0.132367  0.130236  1
  Co  Co13  1  0.750000  0.867633  0.869764  1
  Co  Co14  1  0.750000  0.632367  0.369764  1
  Co  Co15  1  0.250000  0.367633  0.630236  1
  Ge  Ge16  1  0.250000  0.687010  0.477667  1
  Ge  Ge17  1  0.750000  0.312990  0.522333  1
  Ge  Ge18  1  0.750000  0.187010  0.022333  1
  Ge  Ge19  1  0.250000  0.812990  0.977667  1
  Ge  Ge20  1  0.250000  0.001411  0.301024  1
  Ge  Ge21  1  0.750000  0.998589  0.698976  1
  Ge  Ge22  1  0.750000  0.501411  0.198976  1
  Ge  Ge23  1  0.250000  0.498589  0.801024  1
