# generated using pymatgen
data_Zn3Co(TeO4)4
_symmetry_space_group_name_H-M   'P 1'
_cell_length_a   4.78839148
_cell_length_b   10.55407884
_cell_length_c   5.64567478
_cell_angle_alpha   84.05803161
_cell_angle_beta   90.00914198
_cell_angle_gamma   89.86342680
_symmetry_Int_Tables_number   1
_chemical_formula_structural   Zn3Co(TeO4)4
_chemical_formula_sum   'Zn3 Co1 Te4 O16'
_cell_volume   283.78205358
_cell_formula_units_Z   1
loop_
 _symmetry_equiv_pos_site_id
 _symmetry_equiv_pos_as_xyz
  1  'x, y, z'
loop_
 _atom_site_type_symbol
 _atom_site_label
 _atom_site_symmetry_multiplicity
 _atom_site_fract_x
 _atom_site_fract_y
 _atom_site_fract_z
 _atom_site_occupancy
  Zn  Zn0  1  0.499993  0.624958  0.125127  1
  Zn  Zn1  1  0.000027  0.124952  0.125105  1
  Zn  Zn2  1  0.499974  0.124962  0.625057  1
  Co  Co3  1  0.000020  0.624973  0.625114  1
  Te  Te4  1  0.999381  0.375590  0.373137  1
  Te  Te5  1  0.000635  0.874447  0.876652  1
  Te  Te6  1  0.498865  0.376142  0.872248  1
  Te  Te7  1  0.501191  0.873892  0.377579  1
  O  O8  1  0.326070  0.035859  0.354217  1
  O  O9  1  0.321226  0.538296  0.849562  1
  O  O10  1  0.173519  0.036353  0.853796  1
  O  O11  1  0.171683  0.537802  0.352696  1
  O  O12  1  0.826495  0.213655  0.396272  1
  O  O13  1  0.828331  0.712204  0.897419  1
  O  O14  1  0.673819  0.214129  0.895859  1
  O  O15  1  0.678714  0.711705  0.400605  1
  O  O16  1  0.779218  0.448884  0.629642  1
  O  O17  1  0.779278  0.946220  0.132846  1
  O  O18  1  0.718680  0.447723  0.128961  1
  O  O19  1  0.721142  0.946448  0.632714  1
  O  O20  1  0.278912  0.303582  0.617169  1
  O  O21  1  0.281411  0.802294  0.120917  1
  O  O22  1  0.220681  0.303799  0.117056  1
  O  O23  1  0.220734  0.801129  0.620250  1
