# generated using pymatgen
data_Ac8Lu12Sn3Pb13
_symmetry_space_group_name_H-M   'P 1'
_cell_length_a   8.48761231
_cell_length_b   16.17162500
_cell_length_c   8.55437600
_cell_angle_alpha   90.00000000
_cell_angle_beta   89.87464953
_cell_angle_gamma   90.00000000
_symmetry_Int_Tables_number   1
_chemical_formula_structural   Ac8Lu12Sn3Pb13
_chemical_formula_sum   'Ac8 Lu12 Sn3 Pb13'
_cell_volume   1174.15786674
_cell_formula_units_Z   1
loop_
 _symmetry_equiv_pos_site_id
 _symmetry_equiv_pos_as_xyz
  1  'x, y, z'
loop_
 _atom_site_type_symbol
 _atom_site_label
 _atom_site_symmetry_multiplicity
 _atom_site_fract_x
 _atom_site_fract_y
 _atom_site_fract_z
 _atom_site_occupancy
  Ac  Ac0  1  0.478235  0.596645  0.674972  1
  Ac  Ac1  1  0.978767  0.903719  0.824965  1
  Ac  Ac2  1  0.521217  0.095941  0.325226  1
  Ac  Ac3  1  0.021927  0.404396  0.176824  1
  Ac  Ac4  1  0.521217  0.404059  0.325226  1
  Ac  Ac5  1  0.021927  0.095604  0.176824  1
  Ac  Ac6  1  0.478235  0.903355  0.674972  1
  Ac  Ac7  1  0.978767  0.596281  0.824965  1
  Lu  Lu8  1  0.638842  0.626995  0.159063  1
  Lu  Lu9  1  0.139134  0.873386  0.341379  1
  Lu  Lu10  1  0.363936  0.126177  0.841118  1
  Lu  Lu11  1  0.857926  0.375096  0.655885  1
  Lu  Lu12  1  0.363936  0.373823  0.841118  1
  Lu  Lu13  1  0.857926  0.124904  0.655885  1
  Lu  Lu14  1  0.638842  0.873005  0.159063  1
  Lu  Lu15  1  0.139134  0.626614  0.341379  1
  Lu  Lu16  1  0.803745  0.750000  0.487121  1
  Lu  Lu17  1  0.303455  0.750000  0.013431  1
  Lu  Lu18  1  0.197508  0.250000  0.510400  1
  Lu  Lu19  1  0.693530  0.250000  0.988669  1
  Sn  Sn20  1  0.443962  0.750000  0.364175  1
  Sn  Sn21  1  0.944884  0.750000  0.136005  1
  Sn  Sn22  1  0.556079  0.250000  0.636255  1
  Pb  Pb23  1  0.693182  0.454732  0.952183  1
  Pb  Pb24  1  0.193159  0.045911  0.548963  1
  Pb  Pb25  1  0.307361  0.954226  0.047644  1
  Pb  Pb26  1  0.806967  0.546374  0.451301  1
  Pb  Pb27  1  0.307361  0.545774  0.047644  1
  Pb  Pb28  1  0.806967  0.953626  0.451301  1
  Pb  Pb29  1  0.693182  0.045268  0.952183  1
  Pb  Pb30  1  0.193159  0.454089  0.548963  1
  Pb  Pb31  1  0.053671  0.250000  0.863700  1
  Pb  Pb32  1  0.668867  0.750000  0.855984  1
  Pb  Pb33  1  0.168757  0.750000  0.644099  1
  Pb  Pb34  1  0.332743  0.250000  0.145669  1
  Pb  Pb35  1  0.831491  0.250000  0.355446  1
