# generated using pymatgen
data_DyNi4P3Ru
_symmetry_space_group_name_H-M   'P 1'
_cell_length_a   3.71525400
_cell_length_b   10.57006700
_cell_length_c   11.82849000
_cell_angle_alpha   90.00000000
_cell_angle_beta   90.00000000
_cell_angle_gamma   90.00000000
_symmetry_Int_Tables_number   1
_chemical_formula_structural   DyNi4P3Ru
_chemical_formula_sum   'Dy4 Ni16 P12 Ru4'
_cell_volume   464.51052376
_cell_formula_units_Z   4
loop_
 _symmetry_equiv_pos_site_id
 _symmetry_equiv_pos_as_xyz
  1  'x, y, z'
loop_
 _atom_site_type_symbol
 _atom_site_label
 _atom_site_symmetry_multiplicity
 _atom_site_fract_x
 _atom_site_fract_y
 _atom_site_fract_z
 _atom_site_occupancy
  Dy  Dy0  1  0.250000  0.589681  0.704295  1
  Dy  Dy1  1  0.250000  0.910319  0.204295  1
  Dy  Dy2  1  0.750000  0.410319  0.295705  1
  Dy  Dy3  1  0.750000  0.089681  0.795705  1
  Ni  Ni4  1  0.250000  0.409427  0.489118  1
  Ni  Ni5  1  0.250000  0.090573  0.989118  1
  Ni  Ni6  1  0.750000  0.590573  0.510882  1
  Ni  Ni7  1  0.750000  0.909427  0.010882  1
  Ni  Ni8  1  0.250000  0.219507  0.181831  1
  Ni  Ni9  1  0.250000  0.280493  0.681831  1
  Ni  Ni10  1  0.750000  0.780493  0.818169  1
  Ni  Ni11  1  0.750000  0.719507  0.318169  1
  Ni  Ni12  1  0.250000  0.889884  0.702047  1
  Ni  Ni13  1  0.250000  0.610116  0.202047  1
  Ni  Ni14  1  0.750000  0.110116  0.297953  1
  Ni  Ni15  1  0.750000  0.389884  0.797953  1
  Ni  Ni16  1  0.250000  0.466975  0.929619  1
  Ni  Ni17  1  0.250000  0.033025  0.429619  1
  Ni  Ni18  1  0.750000  0.533025  0.070381  1
  Ni  Ni19  1  0.750000  0.966975  0.570381  1
  P  P20  1  0.250000  0.414238  0.111700  1
  P  P21  1  0.250000  0.085762  0.611700  1
  P  P22  1  0.750000  0.585762  0.888300  1
  P  P23  1  0.750000  0.914238  0.388300  1
  P  P24  1  0.250000  0.270092  0.874228  1
  P  P25  1  0.250000  0.229908  0.374228  1
  P  P26  1  0.750000  0.729908  0.125772  1
  P  P27  1  0.750000  0.770092  0.625772  1
  P  P28  1  0.250000  0.595358  0.389598  1
  P  P29  1  0.250000  0.904642  0.889598  1
  P  P30  1  0.750000  0.404642  0.610402  1
  P  P31  1  0.750000  0.095358  0.110402  1
  Ru  Ru32  1  0.250000  0.713418  0.985936  1
  Ru  Ru33  1  0.250000  0.786582  0.485936  1
  Ru  Ru34  1  0.750000  0.286582  0.014064  1
  Ru  Ru35  1  0.750000  0.213418  0.514064  1
