# generated using pymatgen
data_Co2(ReTc)3
_symmetry_space_group_name_H-M   'P 1'
_cell_length_a   5.41660800
_cell_length_b   5.41660616
_cell_length_c   4.31618100
_cell_angle_alpha   90.00000000
_cell_angle_beta   90.00000000
_cell_angle_gamma   120.00001127
_symmetry_Int_Tables_number   1
_chemical_formula_structural   Co2(ReTc)3
_chemical_formula_sum   'Co2 Re3 Tc3'
_cell_volume   109.66925588
_cell_formula_units_Z   1
loop_
 _symmetry_equiv_pos_site_id
 _symmetry_equiv_pos_as_xyz
  1  'x, y, z'
loop_
 _atom_site_type_symbol
 _atom_site_label
 _atom_site_symmetry_multiplicity
 _atom_site_fract_x
 _atom_site_fract_y
 _atom_site_fract_z
 _atom_site_occupancy
  Co  Co0  1  0.666667  0.333333  0.250000  1
  Co  Co1  1  0.333333  0.666667  0.750000  1
  Re  Re2  1  0.833555  0.166445  0.750000  1
  Re  Re3  1  0.332890  0.166445  0.750000  1
  Re  Re4  1  0.833555  0.667110  0.750000  1
  Tc  Tc5  1  0.166861  0.833139  0.250000  1
  Tc  Tc6  1  0.666277  0.833139  0.250000  1
  Tc  Tc7  1  0.166861  0.333723  0.250000  1
