# generated using pymatgen
data_AcPr(BeCu12)2
_symmetry_space_group_name_H-M   'P 1'
_cell_length_a   8.09568176
_cell_length_b   8.09568114
_cell_length_c   8.09568100
_cell_angle_alpha   59.99999647
_cell_angle_beta   59.99999903
_cell_angle_gamma   60.00000387
_symmetry_Int_Tables_number   1
_chemical_formula_structural   AcPr(BeCu12)2
_chemical_formula_sum   'Ac1 Pr1 Be2 Cu24'
_cell_volume   375.18477756
_cell_formula_units_Z   1
loop_
 _symmetry_equiv_pos_site_id
 _symmetry_equiv_pos_as_xyz
  1  'x, y, z'
loop_
 _atom_site_type_symbol
 _atom_site_label
 _atom_site_symmetry_multiplicity
 _atom_site_fract_x
 _atom_site_fract_y
 _atom_site_fract_z
 _atom_site_occupancy
  Ac  Ac0  1  0.250000  0.250000  0.250000  1
  Pr  Pr1  1  0.750000  0.750000  0.750000  1
  Be  Be2  1  0.500000  0.500000  0.500000  1
  Be  Be3  1  0.000000  0.000000  0.000000  1
  Cu  Cu4  1  0.791647  0.562133  0.207737  1
  Cu  Cu5  1  0.207737  0.438483  0.791647  1
  Cu  Cu6  1  0.562133  0.791647  0.438483  1
  Cu  Cu7  1  0.438483  0.207737  0.562133  1
  Cu  Cu8  1  0.292263  0.937867  0.708353  1
  Cu  Cu9  1  0.708353  0.061517  0.292263  1
  Cu  Cu10  1  0.937867  0.292263  0.061517  1
  Cu  Cu11  1  0.061517  0.708353  0.937867  1
  Cu  Cu12  1  0.207737  0.791647  0.562133  1
  Cu  Cu13  1  0.791647  0.207737  0.438483  1
  Cu  Cu14  1  0.438483  0.562133  0.791647  1
  Cu  Cu15  1  0.562133  0.438483  0.207737  1
  Cu  Cu16  1  0.708353  0.292263  0.937867  1
  Cu  Cu17  1  0.292263  0.708353  0.061517  1
  Cu  Cu18  1  0.061517  0.937867  0.292263  1
  Cu  Cu19  1  0.937867  0.061517  0.708353  1
  Cu  Cu20  1  0.562133  0.207737  0.791647  1
  Cu  Cu21  1  0.438483  0.791647  0.207737  1
  Cu  Cu22  1  0.791647  0.438483  0.562133  1
  Cu  Cu23  1  0.207737  0.562133  0.438483  1
  Cu  Cu24  1  0.937867  0.708353  0.292263  1
  Cu  Cu25  1  0.061517  0.292263  0.708353  1
  Cu  Cu26  1  0.292263  0.061517  0.937867  1
  Cu  Cu27  1  0.708353  0.937867  0.061517  1
