# generated using pymatgen
data_Ca9Nd11Sn16
_symmetry_space_group_name_H-M   'P 1'
_cell_length_a   8.02157190
_cell_length_b   8.53502578
_cell_length_c   16.20615660
_cell_angle_alpha   90.02094136
_cell_angle_beta   90.09645455
_cell_angle_gamma   90.04835770
_symmetry_Int_Tables_number   1
_chemical_formula_structural   Ca9Nd11Sn16
_chemical_formula_sum   'Ca9 Nd11 Sn16'
_cell_volume   1109.54149652
_cell_formula_units_Z   1
loop_
 _symmetry_equiv_pos_site_id
 _symmetry_equiv_pos_as_xyz
  1  'x, y, z'
loop_
 _atom_site_type_symbol
 _atom_site_label
 _atom_site_symmetry_multiplicity
 _atom_site_fract_x
 _atom_site_fract_y
 _atom_site_fract_z
 _atom_site_occupancy
  Ca  Ca0  1  0.000359  0.184259  0.406729  1
  Ca  Ca1  1  0.333388  0.827940  0.123067  1
  Ca  Ca2  1  0.165556  0.327743  0.622310  1
  Ca  Ca3  1  0.499018  0.682105  0.906317  1
  Ca  Ca4  1  0.832668  0.673255  0.123279  1
  Ca  Ca5  1  0.162982  0.495461  0.248641  1
  Ca  Ca6  1  0.666489  0.004694  0.248976  1
  Ca  Ca7  1  0.337089  0.994626  0.749305  1
  Ca  Ca8  1  0.832742  0.506980  0.750593  1
  Nd  Nd9  1  0.167298  0.328899  0.875476  1
  Nd  Nd10  1  0.505600  0.682285  0.593289  1
  Nd  Nd11  1  0.667709  0.174471  0.624498  1
  Nd  Nd12  1  0.835114  0.673390  0.375821  1
  Nd  Nd13  1  0.991229  0.185496  0.093635  1
  Nd  Nd14  1  0.007217  0.812936  0.904172  1
  Nd  Nd15  1  0.667017  0.171378  0.876925  1
  Nd  Nd16  1  0.491855  0.314011  0.096671  1
  Nd  Nd17  1  0.333892  0.828481  0.374700  1
  Nd  Nd18  1  0.008769  0.813540  0.596483  1
  Nd  Nd19  1  0.494089  0.315887  0.403991  1
  Sn  Sn20  1  0.827348  0.467820  0.539073  1
  Sn  Sn21  1  0.673409  0.965607  0.461885  1
  Sn  Sn22  1  0.709009  0.863208  0.749586  1
  Sn  Sn23  1  0.175677  0.539135  0.462648  1
  Sn  Sn24  1  0.325969  0.037331  0.962554  1
  Sn  Sn25  1  0.789402  0.361596  0.250653  1
  Sn  Sn26  1  0.828691  0.466222  0.961946  1
  Sn  Sn27  1  0.533504  0.603276  0.250064  1
  Sn  Sn28  1  0.168009  0.531627  0.039367  1
  Sn  Sn29  1  0.463903  0.389901  0.749027  1
  Sn  Sn30  1  0.208366  0.640019  0.749072  1
  Sn  Sn31  1  0.968210  0.100711  0.750576  1
  Sn  Sn32  1  0.331495  0.031046  0.539543  1
  Sn  Sn33  1  0.670593  0.969908  0.040670  1
  Sn  Sn34  1  0.291229  0.139018  0.249047  1
  Sn  Sn35  1  0.035106  0.895740  0.249412  1
