# generated using pymatgen
data_Tb3Al9Re3Tc4
_symmetry_space_group_name_H-M   'P 1'
_cell_length_a   8.92106600
_cell_length_b   8.92106705
_cell_length_c   9.57449900
_cell_angle_alpha   90.00000000
_cell_angle_beta   90.00000000
_cell_angle_gamma   119.99999610
_symmetry_Int_Tables_number   1
_chemical_formula_structural   Tb3Al9Re3Tc4
_chemical_formula_sum   'Tb6 Al18 Re6 Tc8'
_cell_volume   659.90324339
_cell_formula_units_Z   2
loop_
 _symmetry_equiv_pos_site_id
 _symmetry_equiv_pos_as_xyz
  1  'x, y, z'
loop_
 _atom_site_type_symbol
 _atom_site_label
 _atom_site_symmetry_multiplicity
 _atom_site_fract_x
 _atom_site_fract_y
 _atom_site_fract_z
 _atom_site_occupancy
  Tb  Tb0  1  0.193498  0.386998  0.250000  1
  Tb  Tb1  1  0.806502  0.613002  0.750000  1
  Tb  Tb2  1  0.613002  0.806502  0.250000  1
  Tb  Tb3  1  0.386998  0.193498  0.750000  1
  Tb  Tb4  1  0.193498  0.806502  0.250000  1
  Tb  Tb5  1  0.806502  0.193498  0.750000  1
  Al  Al6  1  0.333333  0.666667  0.003109  1
  Al  Al7  1  0.666667  0.333333  0.996891  1
  Al  Al8  1  0.666667  0.333333  0.503109  1
  Al  Al9  1  0.333333  0.666667  0.496891  1
  Al  Al10  1  0.162884  0.325767  0.583199  1
  Al  Al11  1  0.837116  0.674233  0.416801  1
  Al  Al12  1  0.674233  0.837116  0.583199  1
  Al  Al13  1  0.837116  0.674233  0.083199  1
  Al  Al14  1  0.325767  0.162884  0.416801  1
  Al  Al15  1  0.162884  0.325767  0.916801  1
  Al  Al16  1  0.162884  0.837116  0.583199  1
  Al  Al17  1  0.325767  0.162884  0.083199  1
  Al  Al18  1  0.837116  0.162884  0.416801  1
  Al  Al19  1  0.674233  0.837116  0.916801  1
  Al  Al20  1  0.837116  0.162884  0.083199  1
  Al  Al21  1  0.162884  0.837116  0.916801  1
  Al  Al22  1  0.000000  0.000000  0.250000  1
  Al  Al23  1  0.000000  0.000000  0.750000  1
  Re  Re24  1  0.567945  0.135891  0.250000  1
  Re  Re25  1  0.432055  0.864109  0.750000  1
  Re  Re26  1  0.864109  0.432055  0.250000  1
  Re  Re27  1  0.135891  0.567945  0.750000  1
  Re  Re28  1  0.567945  0.432055  0.250000  1
  Re  Re29  1  0.432055  0.567945  0.750000  1
  Tc  Tc30  1  0.500000  0.000000  0.000000  1
  Tc  Tc31  1  0.000000  0.500000  0.000000  1
  Tc  Tc32  1  0.500000  0.000000  0.500000  1
  Tc  Tc33  1  0.500000  0.500000  0.000000  1
  Tc  Tc34  1  0.000000  0.500000  0.500000  1
  Tc  Tc35  1  0.500000  0.500000  0.500000  1
  Tc  Tc36  1  0.000000  0.000000  0.000000  1
  Tc  Tc37  1  0.000000  0.000000  0.500000  1
