# generated using pymatgen
data_HoEr4ThRh18
_symmetry_space_group_name_H-M   'P 1'
_cell_length_a   5.26632400
_cell_length_b   5.26632368
_cell_length_c   17.55582900
_cell_angle_alpha   90.00000000
_cell_angle_beta   90.00000000
_cell_angle_gamma   120.00000200
_symmetry_Int_Tables_number   1
_chemical_formula_structural   HoEr4ThRh18
_chemical_formula_sum   'Ho1 Er4 Th1 Rh18'
_cell_volume   421.66454733
_cell_formula_units_Z   1
loop_
 _symmetry_equiv_pos_site_id
 _symmetry_equiv_pos_as_xyz
  1  'x, y, z'
loop_
 _atom_site_type_symbol
 _atom_site_label
 _atom_site_symmetry_multiplicity
 _atom_site_fract_x
 _atom_site_fract_y
 _atom_site_fract_z
 _atom_site_occupancy
  Ho  Ho0  1  0.333333  0.666667  0.750000  1
  Er  Er1  1  0.333333  0.666667  0.542642  1
  Er  Er2  1  0.666667  0.333333  0.039715  1
  Er  Er3  1  0.666667  0.333333  0.460285  1
  Er  Er4  1  0.333333  0.666667  0.957358  1
  Th  Th5  1  0.666667  0.333333  0.250000  1
  Rh  Rh6  1  0.167380  0.334761  0.124308  1
  Rh  Rh7  1  0.832585  0.665170  0.625534  1
  Rh  Rh8  1  0.665239  0.832620  0.124308  1
  Rh  Rh9  1  0.167380  0.832620  0.124308  1
  Rh  Rh10  1  0.832585  0.167415  0.625534  1
  Rh  Rh11  1  0.334830  0.167415  0.625534  1
  Rh  Rh12  1  0.832585  0.665170  0.874466  1
  Rh  Rh13  1  0.832585  0.167415  0.874466  1
  Rh  Rh14  1  0.334830  0.167415  0.874466  1
  Rh  Rh15  1  0.665239  0.832620  0.375692  1
  Rh  Rh16  1  0.167380  0.832620  0.375692  1
  Rh  Rh17  1  0.167380  0.334761  0.375692  1
  Rh  Rh18  1  0.000000  0.000000  0.250000  1
  Rh  Rh19  1  0.000000  0.000000  0.750000  1
  Rh  Rh20  1  0.333333  0.666667  0.250000  1
  Rh  Rh21  1  0.666667  0.333333  0.750000  1
  Rh  Rh22  1  0.000000  0.000000  0.999580  1
  Rh  Rh23  1  0.000000  0.000000  0.500420  1
