# generated using pymatgen
data_Dy4Al4Ru3Rh
_symmetry_space_group_name_H-M   'P 1'
_cell_length_a   4.04404100
_cell_length_b   7.02490602
_cell_length_c   8.07824001
_cell_angle_alpha   90.00094913
_cell_angle_beta   90.00000000
_cell_angle_gamma   90.00000000
_symmetry_Int_Tables_number   1
_chemical_formula_structural   Dy4Al4Ru3Rh
_chemical_formula_sum   'Dy4 Al4 Ru3 Rh1'
_cell_volume   229.49478492
_cell_formula_units_Z   1
loop_
 _symmetry_equiv_pos_site_id
 _symmetry_equiv_pos_as_xyz
  1  'x, y, z'
loop_
 _atom_site_type_symbol
 _atom_site_label
 _atom_site_symmetry_multiplicity
 _atom_site_fract_x
 _atom_site_fract_y
 _atom_site_fract_z
 _atom_site_occupancy
  Dy  Dy0  1  0.250000  0.532844  0.178594  1
  Dy  Dy1  1  0.750000  0.468641  0.822475  1
  Dy  Dy2  1  0.750000  0.964220  0.679811  1
  Dy  Dy3  1  0.250000  0.032132  0.319236  1
  Al  Al4  1  0.250000  0.638972  0.559027  1
  Al  Al5  1  0.750000  0.363598  0.439646  1
  Al  Al6  1  0.750000  0.862862  0.058682  1
  Al  Al7  1  0.250000  0.136472  0.942098  1
  Ru  Ru8  1  0.250000  0.767440  0.875771  1
  Ru  Ru9  1  0.750000  0.231866  0.124427  1
  Ru  Ru10  1  0.750000  0.730940  0.376958  1
  Rh  Rh11  1  0.250000  0.270013  0.623274  1
