# generated using pymatgen
data_NdLuCr2(TeO6)2
_symmetry_space_group_name_H-M   'P 1'
_cell_length_a   5.19669712
_cell_length_b   5.19669466
_cell_length_c   9.87992501
_cell_angle_alpha   90.00105473
_cell_angle_beta   90.00145499
_cell_angle_gamma   120.00206045
_symmetry_Int_Tables_number   1
_chemical_formula_structural   NdLuCr2(TeO6)2
_chemical_formula_sum   'Nd1 Lu1 Cr2 Te2 O12'
_cell_volume   231.06271248
_cell_formula_units_Z   1
loop_
 _symmetry_equiv_pos_site_id
 _symmetry_equiv_pos_as_xyz
  1  'x, y, z'
loop_
 _atom_site_type_symbol
 _atom_site_label
 _atom_site_symmetry_multiplicity
 _atom_site_fract_x
 _atom_site_fract_y
 _atom_site_fract_z
 _atom_site_occupancy
  Nd  Nd0  1  0.999998  0.000000  0.500001  1
  Lu  Lu1  1  0.999991  0.000001  0.999995  1
  Cr  Cr2  1  0.666639  0.333334  0.758056  1
  Cr  Cr3  1  0.333361  0.666660  0.241942  1
  Te  Te4  1  0.666681  0.333328  0.241811  1
  Te  Te5  1  0.333319  0.666676  0.758195  1
  O  O6  1  0.643985  0.988189  0.865862  1
  O  O7  1  0.344178  0.356033  0.865866  1
  O  O8  1  0.011836  0.655842  0.865860  1
  O  O9  1  0.356018  0.011815  0.134140  1
  O  O10  1  0.655820  0.643961  0.134136  1
  O  O11  1  0.988164  0.344165  0.134141  1
  O  O12  1  0.368776  0.992204  0.646031  1
  O  O13  1  0.623391  0.631200  0.646029  1
  O  O14  1  0.007754  0.376563  0.646039  1
  O  O15  1  0.631231  0.007794  0.353968  1
  O  O16  1  0.376613  0.368801  0.353972  1
  O  O17  1  0.992247  0.623433  0.353962  1
