# generated using pymatgen
data_Y4BeCo(SiI)2
_symmetry_space_group_name_H-M   'P 1'
_cell_length_a   3.98154000
_cell_length_b   3.98153895
_cell_length_c   16.78374600
_cell_angle_alpha   90.00000000
_cell_angle_beta   90.00000000
_cell_angle_gamma   120.00002531
_symmetry_Int_Tables_number   1
_chemical_formula_structural   Y4BeCo(SiI)2
_chemical_formula_sum   'Y4 Be1 Co1 Si2 I2'
_cell_volume   230.42068930
_cell_formula_units_Z   1
loop_
 _symmetry_equiv_pos_site_id
 _symmetry_equiv_pos_as_xyz
  1  'x, y, z'
loop_
 _atom_site_type_symbol
 _atom_site_label
 _atom_site_symmetry_multiplicity
 _atom_site_fract_x
 _atom_site_fract_y
 _atom_site_fract_z
 _atom_site_occupancy
  Y  Y0  1  0.000000  0.000000  0.106328  1
  Y  Y1  1  0.000000  0.000000  0.895447  1
  Y  Y2  1  0.000000  0.000000  0.610998  1
  Y  Y3  1  0.000000  0.000000  0.387820  1
  Be  Be4  1  0.333333  0.666667  0.503887  1
  Co  Co5  1  0.333333  0.666667  0.994305  1
  Si  Si6  1  0.666667  0.333333  0.496815  1
  Si  Si7  1  0.666667  0.333333  0.004132  1
  I  I8  1  0.333333  0.666667  0.252367  1
  I  I9  1  0.666667  0.333333  0.747902  1
