# generated using pymatgen
data_Ta16FeCo3Te16
_symmetry_space_group_name_H-M   'P 1'
_cell_length_a   4.81213700
_cell_length_b   11.00276706
_cell_length_c   19.30597609
_cell_angle_alpha   89.98839955
_cell_angle_beta   90.00000000
_cell_angle_gamma   90.00000000
_symmetry_Int_Tables_number   1
_chemical_formula_structural   Ta16FeCo3Te16
_chemical_formula_sum   'Ta16 Fe1 Co3 Te16'
_cell_volume   1022.19006792
_cell_formula_units_Z   1
loop_
 _symmetry_equiv_pos_site_id
 _symmetry_equiv_pos_as_xyz
  1  'x, y, z'
loop_
 _atom_site_type_symbol
 _atom_site_label
 _atom_site_symmetry_multiplicity
 _atom_site_fract_x
 _atom_site_fract_y
 _atom_site_fract_z
 _atom_site_occupancy
  Ta  Ta0  1  0.501154  0.562659  0.386189  1
  Ta  Ta1  1  0.501154  0.437341  0.613811  1
  Ta  Ta2  1  0.500178  0.063049  0.113960  1
  Ta  Ta3  1  0.500178  0.936951  0.886040  1
  Ta  Ta4  1  0.500815  0.699603  0.536059  1
  Ta  Ta5  1  0.500815  0.300397  0.463941  1
  Ta  Ta6  1  0.499958  0.200516  0.964148  1
  Ta  Ta7  1  0.499958  0.799484  0.035852  1
  Ta  Ta8  1  0.999401  0.685845  0.444731  1
  Ta  Ta9  1  0.999401  0.314155  0.555269  1
  Ta  Ta10  1  0.000114  0.186467  0.055399  1
  Ta  Ta11  1  0.000114  0.813533  0.944601  1
  Ta  Ta12  1  0.998701  0.403302  0.394087  1
  Ta  Ta13  1  0.998701  0.596698  0.605913  1
  Ta  Ta14  1  0.999787  0.902883  0.105922  1
  Ta  Ta15  1  0.999787  0.097117  0.894078  1
  Fe  Fe16  1  0.249252  0.500000  0.500000  1
  Co  Co17  1  0.750094  0.000000  0.000000  1
  Co  Co18  1  0.749935  0.500000  0.500000  1
  Co  Co19  1  0.249861  0.000000  0.000000  1
  Te  Te20  1  0.999358  0.845645  0.561865  1
  Te  Te21  1  0.999358  0.154355  0.438135  1
  Te  Te22  1  0.999997  0.346200  0.937853  1
  Te  Te23  1  0.999997  0.653800  0.062147  1
  Te  Te24  1  0.500013  0.332847  0.316667  1
  Te  Te25  1  0.500013  0.667153  0.683333  1
  Te  Te26  1  0.499799  0.832810  0.183049  1
  Te  Te27  1  0.499799  0.167190  0.816951  1
  Te  Te28  1  0.500920  0.821114  0.404691  1
  Te  Te29  1  0.500920  0.178886  0.595309  1
  Te  Te30  1  0.500118  0.321954  0.095617  1
  Te  Te31  1  0.500118  0.678046  0.904383  1
  Te  Te32  1  0.999971  0.609429  0.303191  1
  Te  Te33  1  0.999971  0.390571  0.696809  1
  Te  Te34  1  0.000144  0.108612  0.196908  1
  Te  Te35  1  0.000144  0.891388  0.803092  1
