# generated using pymatgen
data_GdF37
_symmetry_space_group_name_H-M   'P 1'
_cell_length_a   6.31484468
_cell_length_b   10.75330057
_cell_length_c   10.71749046
_cell_angle_alpha   87.15395226
_cell_angle_beta   97.67820720
_cell_angle_gamma   72.62406214
_symmetry_Int_Tables_number   1
_chemical_formula_structural   GdF37
_chemical_formula_sum   'Gd1 F37'
_cell_volume   685.24440468
_cell_formula_units_Z   1
loop_
 _symmetry_equiv_pos_site_id
 _symmetry_equiv_pos_as_xyz
  1  'x, y, z'
loop_
 _atom_site_type_symbol
 _atom_site_label
 _atom_site_symmetry_multiplicity
 _atom_site_fract_x
 _atom_site_fract_y
 _atom_site_fract_z
 _atom_site_occupancy
  Gd  Gd0  1  0.211193  0.197076  0.181004  1
  F  F1  1  0.722185  0.861218  0.739007  1
  F  F2  1  0.305721  0.382826  0.888140  1
  F  F3  1  0.690327  0.626817  0.089990  1
  F  F4  1  0.320938  0.243337  0.567403  1
  F  F5  1  0.688518  0.754901  0.444822  1
  F  F6  1  0.868883  0.195826  0.823211  1
  F  F7  1  0.119932  0.785065  0.192294  1
  F  F8  1  0.671164  0.892207  0.011428  1
  F  F9  1  0.296518  0.151617  0.993432  1
  F  F10  1  0.781885  0.590851  0.830656  1
  F  F11  1  0.192954  0.401091  0.126253  1
  F  F12  1  0.445701  0.440243  0.827280  1
  F  F13  1  0.561376  0.569181  0.160077  1
  F  F14  1  0.771698  0.586821  0.697167  1
  F  F15  1  0.250374  0.348534  0.313884  1
  F  F16  1  0.780490  0.022273  0.519687  1
  F  F17  1  0.243699  0.025453  0.417339  1
  F  F18  1  0.298208  0.190589  0.687870  1
  F  F19  1  0.696854  0.793146  0.316714  1
  F  F20  1  0.832226  0.087207  0.627654  1
  F  F21  1  0.184763  0.920965  0.356633  1
  F  F22  1  0.800815  0.975458  0.984181  1
  F  F23  1  0.207569  0.012706  0.089720  1
  F  F24  1  0.900366  0.320682  0.804000  1
  F  F25  1  0.119571  0.653167  0.212783  1
  F  F26  1  0.170538  0.713986  0.922981  1
  F  F27  1  0.829827  0.261280  0.114100  1
  F  F28  1  0.483300  0.912243  0.717735  1
  F  F29  1  0.568133  0.077322  0.272427  1
  F  F30  1  0.121948  0.767906  0.584611  1
  F  F31  1  0.913340  0.249293  0.405057  1
  F  F32  1  0.200238  0.642940  0.655985  1
  F  F33  1  0.787772  0.380127  0.354609  1
  F  F34  1  0.284436  0.798276  0.875830  1
  F  F35  1  0.698067  0.168958  0.191555  1
  F  F36  1  0.493314  0.440643  0.537035  1
  F  F37  1  0.485160  0.557770  0.465445  1
