# generated using pymatgen
data_Ho3Tm9Co5Pb
_symmetry_space_group_name_H-M   'P 1'
_cell_length_a   8.20269387
_cell_length_b   8.20269351
_cell_length_c   8.19918021
_cell_angle_alpha   110.96638768
_cell_angle_beta   110.71110534
_cell_angle_gamma   106.78782539
_symmetry_Int_Tables_number   1
_chemical_formula_structural   Ho3Tm9Co5Pb
_chemical_formula_sum   'Ho3 Tm9 Co5 Pb1'
_cell_volume   423.88273097
_cell_formula_units_Z   1
loop_
 _symmetry_equiv_pos_site_id
 _symmetry_equiv_pos_as_xyz
  1  'x, y, z'
loop_
 _atom_site_type_symbol
 _atom_site_label
 _atom_site_symmetry_multiplicity
 _atom_site_fract_x
 _atom_site_fract_y
 _atom_site_fract_z
 _atom_site_occupancy
  Ho  Ho0  1  0.288761  0.185305  0.474066  1
  Ho  Ho1  1  0.711773  0.815455  0.527229  1
  Ho  Ho2  1  0.288466  0.814255  0.102720  1
  Tm  Tm3  1  0.711953  0.185334  0.897289  1
  Tm  Tm4  1  0.620607  0.312858  0.306835  1
  Tm  Tm5  1  0.379532  0.687377  0.692736  1
  Tm  Tm6  1  0.005359  0.313203  0.692736  1
  Tm  Tm7  1  0.993976  0.686228  0.306835  1
  Tm  Tm8  1  0.209094  0.403021  0.193067  1
  Tm  Tm9  1  0.789908  0.595798  0.806231  1
  Tm  Tm10  1  0.210434  0.016323  0.806231  1
  Tm  Tm11  1  0.790044  0.983973  0.193067  1
  Co  Co12  1  0.999375  0.376139  0.375514  1
  Co  Co13  1  0.999784  0.623849  0.623633  1
  Co  Co14  1  0.387911  0.888340  0.501236  1
  Co  Co15  1  0.612896  0.113325  0.501236  1
  Co  Co16  1  0.999100  0.999914  0.999014  1
  Pb  Pb17  1  0.501025  0.499302  0.000327  1
