# generated using pymatgen
data_Ho2CoNiOs2
_symmetry_space_group_name_H-M   'P 1'
_cell_length_a   5.19248295
_cell_length_b   5.28349572
_cell_length_c   5.19248351
_cell_angle_alpha   120.05198799
_cell_angle_beta   121.46815863
_cell_angle_gamma   88.22103820
_symmetry_Int_Tables_number   1
_chemical_formula_structural   Ho2CoNiOs2
_chemical_formula_sum   'Ho2 Co1 Ni1 Os2'
_cell_volume   99.91748652
_cell_formula_units_Z   1
loop_
 _symmetry_equiv_pos_site_id
 _symmetry_equiv_pos_as_xyz
  1  'x, y, z'
loop_
 _atom_site_type_symbol
 _atom_site_label
 _atom_site_symmetry_multiplicity
 _atom_site_fract_x
 _atom_site_fract_y
 _atom_site_fract_z
 _atom_site_occupancy
  Ho  Ho0  1  0.379081  0.132515  0.253433  1
  Ho  Ho1  1  0.620919  0.867485  0.746567  1
  Co  Co2  1  0.000000  0.500000  0.000000  1
  Ni  Ni3  1  0.000000  0.000000  0.500000  1
  Os  Os4  1  0.000000  0.500000  0.500000  1
  Os  Os5  1  0.500000  0.500000  0.000000  1
