# generated using pymatgen
data_HoTa9S16
_symmetry_space_group_name_H-M   'P 1'
_cell_length_a   6.67003400
_cell_length_b   6.67003373
_cell_length_c   13.09280700
_cell_angle_alpha   90.00000000
_cell_angle_beta   90.00000000
_cell_angle_gamma   120.00001125
_symmetry_Int_Tables_number   1
_chemical_formula_structural   HoTa9S16
_chemical_formula_sum   'Ho1 Ta9 S16'
_cell_volume   504.45150999
_cell_formula_units_Z   1
loop_
 _symmetry_equiv_pos_site_id
 _symmetry_equiv_pos_as_xyz
  1  'x, y, z'
loop_
 _atom_site_type_symbol
 _atom_site_label
 _atom_site_symmetry_multiplicity
 _atom_site_fract_x
 _atom_site_fract_y
 _atom_site_fract_z
 _atom_site_occupancy
  Ho  Ho0  1  0.000000  0.000000  0.000000  1
  Ta  Ta1  1  0.504972  0.495028  0.736198  1
  Ta  Ta2  1  0.009944  0.504972  0.263802  1
  Ta  Ta3  1  0.495028  0.990056  0.263802  1
  Ta  Ta4  1  0.504972  0.009944  0.736198  1
  Ta  Ta5  1  0.990056  0.495028  0.736198  1
  Ta  Ta6  1  0.495028  0.504972  0.263802  1
  Ta  Ta7  1  0.000000  0.000000  0.737954  1
  Ta  Ta8  1  0.000000  0.000000  0.262046  1
  Ta  Ta9  1  0.000000  0.000000  0.500000  1
  S  S10  1  0.832619  0.167381  0.383861  1
  S  S11  1  0.832619  0.665238  0.383861  1
  S  S12  1  0.334762  0.167381  0.383861  1
  S  S13  1  0.661398  0.830700  0.856915  1
  S  S14  1  0.167381  0.334762  0.616139  1
  S  S15  1  0.169300  0.830700  0.856915  1
  S  S16  1  0.169300  0.338602  0.856915  1
  S  S17  1  0.830700  0.169300  0.143085  1
  S  S18  1  0.338602  0.169300  0.143085  1
  S  S19  1  0.665238  0.832619  0.616139  1
  S  S20  1  0.333333  0.666667  0.140816  1
  S  S21  1  0.666667  0.333333  0.614432  1
  S  S22  1  0.666667  0.333333  0.859184  1
  S  S23  1  0.333333  0.666667  0.385568  1
  S  S24  1  0.830700  0.661398  0.143085  1
  S  S25  1  0.167381  0.832619  0.616139  1
