# generated using pymatgen
data_Dy6Ho10In4OsRh3
_symmetry_space_group_name_H-M   'P 1'
_cell_length_a   9.63566120
_cell_length_b   9.66479585
_cell_length_c   9.62645416
_cell_angle_alpha   60.08178675
_cell_angle_beta   59.95989285
_cell_angle_gamma   60.10703926
_symmetry_Int_Tables_number   1
_chemical_formula_structural   Dy6Ho10In4OsRh3
_chemical_formula_sum   'Dy6 Ho10 In4 Os1 Rh3'
_cell_volume   634.61687493
_cell_formula_units_Z   1
loop_
 _symmetry_equiv_pos_site_id
 _symmetry_equiv_pos_as_xyz
  1  'x, y, z'
loop_
 _atom_site_type_symbol
 _atom_site_label
 _atom_site_symmetry_multiplicity
 _atom_site_fract_x
 _atom_site_fract_y
 _atom_site_fract_z
 _atom_site_occupancy
  Dy  Dy0  1  0.187437  0.189003  0.812159  1
  Dy  Dy1  1  0.599151  0.600945  0.201277  1
  Dy  Dy2  1  0.441237  0.057323  0.439267  1
  Dy  Dy3  1  0.440371  0.439841  0.058980  1
  Dy  Dy4  1  0.812017  0.188209  0.812270  1
  Dy  Dy5  1  0.190203  0.813539  0.190781  1
  Ho  Ho6  1  0.440054  0.057892  0.061655  1
  Ho  Ho7  1  0.189962  0.813194  0.806062  1
  Ho  Ho8  1  0.060445  0.439731  0.059346  1
  Ho  Ho9  1  0.805348  0.813183  0.190651  1
  Ho  Ho10  1  0.203241  0.599904  0.599386  1
  Ho  Ho11  1  0.059586  0.440952  0.439271  1
  Ho  Ho12  1  0.061927  0.057587  0.439082  1
  Ho  Ho13  1  0.811334  0.189219  0.188565  1
  Ho  Ho14  1  0.599545  0.200460  0.601053  1
  Ho  Ho15  1  0.597680  0.599495  0.599047  1
  In  In16  1  0.832950  0.833272  0.832498  1
  In  In17  1  0.832621  0.833292  0.501322  1
  In  In18  1  0.501693  0.833275  0.832223  1
  In  In19  1  0.832724  0.502744  0.832101  1
  Os  Os20  1  0.391600  0.824375  0.392698  1
  Rh  Rh21  1  0.391781  0.390765  0.392816  1
  Rh  Rh22  1  0.825398  0.390634  0.392355  1
  Rh  Rh23  1  0.391697  0.391168  0.825135  1
