# generated using pymatgen
data_MgBeB14
_symmetry_space_group_name_H-M   'P 1'
_cell_length_a   7.12057491
_cell_length_b   7.12057387
_cell_length_c   7.12057284
_cell_angle_alpha   132.10296910
_cell_angle_beta   110.68292595
_cell_angle_gamma   88.64418345
_symmetry_Int_Tables_number   1
_chemical_formula_structural   MgBeB14
_chemical_formula_sum   'Mg2 Be2 B28'
_cell_volume   238.49274696
_cell_formula_units_Z   2
loop_
 _symmetry_equiv_pos_site_id
 _symmetry_equiv_pos_as_xyz
  1  'x, y, z'
loop_
 _atom_site_type_symbol
 _atom_site_label
 _atom_site_symmetry_multiplicity
 _atom_site_fract_x
 _atom_site_fract_y
 _atom_site_fract_z
 _atom_site_occupancy
  Mg  Mg0  1  0.612955  0.250000  0.362955  1
  Mg  Mg1  1  0.387045  0.750000  0.637045  1
  Be  Be2  1  0.000000  0.000000  0.500000  1
  Be  Be3  1  0.000000  0.500000  0.000000  1
  B  B4  1  0.638051  0.666490  0.971562  1
  B  B5  1  0.361949  0.333510  0.028438  1
  B  B6  1  0.194928  0.166490  0.028438  1
  B  B7  1  0.805072  0.833510  0.971562  1
  B  B8  1  0.784553  0.156120  0.628431  1
  B  B9  1  0.215447  0.843880  0.371569  1
  B  B10  1  0.027690  0.656120  0.371569  1
  B  B11  1  0.972310  0.343880  0.628431  1
  B  B12  1  0.917006  0.088915  0.828091  1
  B  B13  1  0.082994  0.911085  0.171909  1
  B  B14  1  0.760828  0.588915  0.171909  1
  B  B15  1  0.239172  0.411085  0.828091  1
  B  B16  1  0.400187  0.402457  0.677933  1
  B  B17  1  0.599813  0.277746  0.002271  1
  B  B18  1  0.224524  0.902457  0.002271  1
  B  B19  1  0.775476  0.777746  0.677933  1
  B  B20  1  0.599813  0.597543  0.322067  1
  B  B21  1  0.400187  0.722254  0.997729  1
  B  B22  1  0.775476  0.097543  0.997729  1
  B  B23  1  0.224524  0.222254  0.322067  1
  B  B24  1  0.034731  0.828863  0.700929  1
  B  B25  1  0.965269  0.666198  0.794131  1
  B  B26  1  0.627933  0.328863  0.794131  1
  B  B27  1  0.372067  0.166198  0.700929  1
  B  B28  1  0.965269  0.171137  0.299071  1
  B  B29  1  0.034731  0.333802  0.205869  1
  B  B30  1  0.372067  0.671137  0.205869  1
  B  B31  1  0.627933  0.833802  0.299071  1
