# generated using pymatgen
data_Ca6Si4Ir3Pd
_symmetry_space_group_name_H-M   'P 1'
_cell_length_a   5.80138000
_cell_length_b   7.69993712
_cell_length_c   13.40993879
_cell_angle_alpha   89.72357909
_cell_angle_beta   90.00000000
_cell_angle_gamma   90.00000000
_symmetry_Int_Tables_number   1
_chemical_formula_structural   Ca6Si4Ir3Pd
_chemical_formula_sum   'Ca12 Si8 Ir6 Pd2'
_cell_volume   599.01849707
_cell_formula_units_Z   2
loop_
 _symmetry_equiv_pos_site_id
 _symmetry_equiv_pos_as_xyz
  1  'x, y, z'
loop_
 _atom_site_type_symbol
 _atom_site_label
 _atom_site_symmetry_multiplicity
 _atom_site_fract_x
 _atom_site_fract_y
 _atom_site_fract_z
 _atom_site_occupancy
  Ca  Ca0  1  0.134056  0.610502  0.100969  1
  Ca  Ca1  1  0.134056  0.889498  0.899031  1
  Ca  Ca2  1  0.864290  0.105414  0.395608  1
  Ca  Ca3  1  0.864290  0.394586  0.604392  1
  Ca  Ca4  1  0.869495  0.392818  0.899120  1
  Ca  Ca5  1  0.869495  0.107182  0.100880  1
  Ca  Ca6  1  0.127478  0.885947  0.601445  1
  Ca  Ca7  1  0.127478  0.614053  0.398555  1
  Ca  Ca8  1  0.365317  0.266648  0.246625  1
  Ca  Ca9  1  0.365317  0.233352  0.753375  1
  Ca  Ca10  1  0.639984  0.765348  0.248085  1
  Ca  Ca11  1  0.639984  0.734652  0.751915  1
  Si  Si12  1  0.424286  0.250000  0.000000  1
  Si  Si13  1  0.584369  0.750000  0.500000  1
  Si  Si14  1  0.580123  0.750000  0.000000  1
  Si  Si15  1  0.383313  0.250000  0.500000  1
  Si  Si16  1  0.845764  0.412370  0.246778  1
  Si  Si17  1  0.845764  0.087630  0.753222  1
  Si  Si18  1  0.169043  0.918188  0.251324  1
  Si  Si19  1  0.169043  0.581812  0.748676  1
  Ir  Ir20  1  0.637046  0.476407  0.090474  1
  Ir  Ir21  1  0.637046  0.023593  0.909526  1
  Ir  Ir22  1  0.366881  0.976212  0.411612  1
  Ir  Ir23  1  0.366881  0.523788  0.588388  1
  Ir  Ir24  1  0.363188  0.524455  0.908721  1
  Ir  Ir25  1  0.363188  0.975545  0.091279  1
  Pd  Pd26  1  0.631412  0.031916  0.592578  1
  Pd  Pd27  1  0.631412  0.468084  0.407422  1
