# generated using pymatgen
data_Dy2YEr5(CdPt)2
_symmetry_space_group_name_H-M   'P 1'
_cell_length_a   9.63378015
_cell_length_b   9.63378006
_cell_length_c   9.63489900
_cell_angle_alpha   59.99615437
_cell_angle_beta   59.99615468
_cell_angle_gamma   60.00768146
_symmetry_Int_Tables_number   1
_chemical_formula_structural   Dy2YEr5(CdPt)2
_chemical_formula_sum   'Dy4 Y2 Er10 Cd4 Pt4'
_cell_volume   632.30349779
_cell_formula_units_Z   2
loop_
 _symmetry_equiv_pos_site_id
 _symmetry_equiv_pos_as_xyz
  1  'x, y, z'
loop_
 _atom_site_type_symbol
 _atom_site_label
 _atom_site_symmetry_multiplicity
 _atom_site_fract_x
 _atom_site_fract_y
 _atom_site_fract_z
 _atom_site_occupancy
  Dy  Dy0  1  0.936024  0.563976  0.563976  1
  Dy  Dy1  1  0.563976  0.936024  0.936024  1
  Dy  Dy2  1  0.563976  0.936024  0.563976  1
  Dy  Dy3  1  0.936024  0.563976  0.936024  1
  Y  Y4  1  0.564050  0.564050  0.935950  1
  Y  Y5  1  0.935950  0.935950  0.564050  1
  Er  Er6  1  0.352230  0.352230  0.352291  1
  Er  Er7  1  0.352230  0.352230  0.943248  1
  Er  Er8  1  0.352291  0.943248  0.352230  1
  Er  Er9  1  0.943248  0.352291  0.352230  1
  Er  Er10  1  0.810992  0.189008  0.189008  1
  Er  Er11  1  0.189008  0.810992  0.810992  1
  Er  Er12  1  0.189008  0.810992  0.189008  1
  Er  Er13  1  0.810992  0.189008  0.810992  1
  Er  Er14  1  0.189030  0.189030  0.810970  1
  Er  Er15  1  0.810970  0.810970  0.189030  1
  Cd  Cd16  1  0.581688  0.581688  0.581710  1
  Cd  Cd17  1  0.581688  0.581688  0.254914  1
  Cd  Cd18  1  0.581710  0.254914  0.581688  1
  Cd  Cd19  1  0.254914  0.581710  0.581688  1
  Pt  Pt20  1  0.143335  0.143335  0.143315  1
  Pt  Pt21  1  0.143335  0.143335  0.570014  1
  Pt  Pt22  1  0.143315  0.570014  0.143335  1
  Pt  Pt23  1  0.570014  0.143315  0.143335  1
