# generated using pymatgen
data_Hf6V4Ge6C
_symmetry_space_group_name_H-M   'P 1'
_cell_length_a   7.74096900
_cell_length_b   7.74096942
_cell_length_c   5.24056300
_cell_angle_alpha   90.00000000
_cell_angle_beta   90.00000000
_cell_angle_gamma   120.00000248
_symmetry_Int_Tables_number   1
_chemical_formula_structural   Hf6V4Ge6C
_chemical_formula_sum   'Hf6 V4 Ge6 C1'
_cell_volume   271.95637719
_cell_formula_units_Z   1
loop_
 _symmetry_equiv_pos_site_id
 _symmetry_equiv_pos_as_xyz
  1  'x, y, z'
loop_
 _atom_site_type_symbol
 _atom_site_label
 _atom_site_symmetry_multiplicity
 _atom_site_fract_x
 _atom_site_fract_y
 _atom_site_fract_z
 _atom_site_occupancy
  Hf  Hf0  1  0.000000  0.756809  0.253667  1
  Hf  Hf1  1  0.243191  0.243191  0.253667  1
  Hf  Hf2  1  0.756809  0.000000  0.253667  1
  Hf  Hf3  1  0.000000  0.243191  0.746333  1
  Hf  Hf4  1  0.756809  0.756809  0.746333  1
  Hf  Hf5  1  0.243191  0.000000  0.746333  1
  V  V6  1  0.333333  0.666667  0.000000  1
  V  V7  1  0.666667  0.333333  0.000000  1
  V  V8  1  0.666667  0.333333  0.500000  1
  V  V9  1  0.333333  0.666667  0.500000  1
  Ge  Ge10  1  0.000000  0.403317  0.244980  1
  Ge  Ge11  1  0.596683  0.596683  0.244980  1
  Ge  Ge12  1  0.403317  0.000000  0.244980  1
  Ge  Ge13  1  0.000000  0.596683  0.755020  1
  Ge  Ge14  1  0.403317  0.403317  0.755020  1
  Ge  Ge15  1  0.596683  0.000000  0.755020  1
  C  C16  1  0.000000  0.000000  0.500000  1
