# generated using pymatgen
data_Tb3Ho2Pa(Al3Os)8
_symmetry_space_group_name_H-M   'P 1'
_cell_length_a   8.79193700
_cell_length_b   8.83493961
_cell_length_c   9.57081100
_cell_angle_alpha   90.00000000
_cell_angle_beta   90.00000000
_cell_angle_gamma   119.83911630
_symmetry_Int_Tables_number   1
_chemical_formula_structural   Tb3Ho2Pa(Al3Os)8
_chemical_formula_sum   'Tb3 Ho2 Pa1 Al24 Os8'
_cell_volume   644.86574756
_cell_formula_units_Z   1
loop_
 _symmetry_equiv_pos_site_id
 _symmetry_equiv_pos_as_xyz
  1  'x, y, z'
loop_
 _atom_site_type_symbol
 _atom_site_label
 _atom_site_symmetry_multiplicity
 _atom_site_fract_x
 _atom_site_fract_y
 _atom_site_fract_z
 _atom_site_occupancy
  Tb  Tb0  1  0.808115  0.616231  0.750000  1
  Tb  Tb1  1  0.387446  0.191852  0.750000  1
  Tb  Tb2  1  0.804405  0.191852  0.750000  1
  Ho  Ho3  1  0.609681  0.802650  0.250000  1
  Ho  Ho4  1  0.192969  0.802650  0.250000  1
  Pa  Pa5  1  0.197024  0.394046  0.250000  1
  Al  Al6  1  0.336389  0.672778  0.018689  1
  Al  Al7  1  0.667752  0.335501  0.980839  1
  Al  Al8  1  0.667752  0.335501  0.519161  1
  Al  Al9  1  0.336389  0.672778  0.481311  1
  Al  Al10  1  0.163199  0.326398  0.577120  1
  Al  Al11  1  0.836650  0.673300  0.424700  1
  Al  Al12  1  0.672301  0.835346  0.574612  1
  Al  Al13  1  0.836650  0.673300  0.075300  1
  Al  Al14  1  0.326360  0.162106  0.423510  1
  Al  Al15  1  0.163199  0.326398  0.922880  1
  Al  Al16  1  0.163044  0.835346  0.574612  1
  Al  Al17  1  0.326360  0.162106  0.076490  1
  Al  Al18  1  0.835745  0.162106  0.423510  1
  Al  Al19  1  0.672301  0.835346  0.925388  1
  Al  Al20  1  0.835745  0.162106  0.076490  1
  Al  Al21  1  0.163044  0.835346  0.925388  1
  Al  Al22  1  0.559829  0.119658  0.250000  1
  Al  Al23  1  0.437562  0.875122  0.750000  1
  Al  Al24  1  0.873033  0.437606  0.250000  1
  Al  Al25  1  0.120855  0.559959  0.750000  1
  Al  Al26  1  0.564572  0.437606  0.250000  1
  Al  Al27  1  0.439104  0.559959  0.750000  1
  Al  Al28  1  0.001020  0.002039  0.250000  1
  Al  Al29  1  0.000439  0.000879  0.750000  1
  Os  Os30  1  0.501426  0.002852  0.998535  1
  Os  Os31  1  0.003671  0.499836  0.005132  1
  Os  Os32  1  0.501426  0.002852  0.501465  1
  Os  Os33  1  0.496165  0.499836  0.005132  1
  Os  Os34  1  0.003671  0.499836  0.494868  1
  Os  Os35  1  0.496165  0.499836  0.494868  1
  Os  Os36  1  0.999269  0.998539  0.999350  1
  Os  Os37  1  0.999269  0.998539  0.500650  1
