# generated using pymatgen
data_Tb3Y5(LuSn4)2
_symmetry_space_group_name_H-M   'P 1'
_cell_length_a   8.00270200
_cell_length_b   8.15484403
_cell_length_c   15.45041606
_cell_angle_alpha   90.01018913
_cell_angle_beta   90.00000000
_cell_angle_gamma   90.00000000
_symmetry_Int_Tables_number   1
_chemical_formula_structural   Tb3Y5(LuSn4)2
_chemical_formula_sum   'Tb6 Y10 Lu4 Sn16'
_cell_volume   1008.30629022
_cell_formula_units_Z   2
loop_
 _symmetry_equiv_pos_site_id
 _symmetry_equiv_pos_as_xyz
  1  'x, y, z'
loop_
 _atom_site_type_symbol
 _atom_site_label
 _atom_site_symmetry_multiplicity
 _atom_site_fract_x
 _atom_site_fract_y
 _atom_site_fract_z
 _atom_site_occupancy
  Tb  Tb0  1  0.479763  0.679736  0.402584  1
  Tb  Tb1  1  0.979763  0.820264  0.097416  1
  Tb  Tb2  1  0.479759  0.679751  0.097392  1
  Tb  Tb3  1  0.979759  0.820249  0.402608  1
  Tb  Tb4  1  0.520158  0.320215  0.597368  1
  Tb  Tb5  1  0.020158  0.179785  0.902632  1
  Y  Y6  1  0.367205  0.836615  0.877860  1
  Y  Y7  1  0.867205  0.663385  0.622140  1
  Y  Y8  1  0.632864  0.163445  0.377903  1
  Y  Y9  1  0.132864  0.336555  0.122097  1
  Y  Y10  1  0.632875  0.163389  0.122137  1
  Y  Y11  1  0.132875  0.336611  0.377863  1
  Y  Y12  1  0.367164  0.836677  0.622153  1
  Y  Y13  1  0.867164  0.663323  0.877847  1
  Y  Y14  1  0.520380  0.320318  0.902554  1
  Y  Y15  1  0.020380  0.179682  0.597446  1
  Lu  Lu16  1  0.198310  0.502655  0.750055  1
  Lu  Lu17  1  0.698310  0.997345  0.749945  1
  Lu  Lu18  1  0.801596  0.497308  0.250034  1
  Lu  Lu19  1  0.301596  0.002692  0.249966  1
  Sn  Sn20  1  0.292877  0.034957  0.042745  1
  Sn  Sn21  1  0.792877  0.465043  0.457255  1
  Sn  Sn22  1  0.707177  0.965029  0.542771  1
  Sn  Sn23  1  0.207177  0.534971  0.957229  1
  Sn  Sn24  1  0.707009  0.965005  0.957269  1
  Sn  Sn25  1  0.207009  0.534995  0.542731  1
  Sn  Sn26  1  0.292781  0.035071  0.457324  1
  Sn  Sn27  1  0.792781  0.464929  0.042676  1
  Sn  Sn28  1  0.563692  0.618652  0.749950  1
  Sn  Sn29  1  0.063692  0.881348  0.750050  1
  Sn  Sn30  1  0.436308  0.381343  0.249987  1
  Sn  Sn31  1  0.936308  0.118657  0.250013  1
  Sn  Sn32  1  0.329110  0.148209  0.750042  1
  Sn  Sn33  1  0.829110  0.351791  0.749958  1
  Sn  Sn34  1  0.670972  0.851878  0.249997  1
  Sn  Sn35  1  0.170972  0.648122  0.250003  1
