# generated using pymatgen
data_Al7(GaTc)4
_symmetry_space_group_name_H-M   'P 1'
_cell_length_a   5.17567900
_cell_length_b   5.18985324
_cell_length_c   9.07537356
_cell_angle_alpha   105.26691265
_cell_angle_beta   90.59714054
_cell_angle_gamma   99.82220365
_symmetry_Int_Tables_number   1
_chemical_formula_structural   Al7(GaTc)4
_chemical_formula_sum   'Al7 Ga4 Tc4'
_cell_volume   231.33066702
_cell_formula_units_Z   1
loop_
 _symmetry_equiv_pos_site_id
 _symmetry_equiv_pos_as_xyz
  1  'x, y, z'
loop_
 _atom_site_type_symbol
 _atom_site_label
 _atom_site_symmetry_multiplicity
 _atom_site_fract_x
 _atom_site_fract_y
 _atom_site_fract_z
 _atom_site_occupancy
  Al  Al0  1  0.848397  0.534555  0.127644  1
  Al  Al1  1  0.151886  0.467436  0.873393  1
  Al  Al2  1  0.500673  0.897785  0.126718  1
  Al  Al3  1  0.497995  0.102039  0.874824  1
  Al  Al4  1  0.566496  0.323442  0.376608  1
  Al  Al5  1  0.434448  0.679947  0.623501  1
  Al  Al6  1  0.199790  0.736905  0.362626  1
  Ga  Ga7  1  0.999480  0.000245  0.999970  1
  Ga  Ga8  1  0.944370  0.802867  0.668854  1
  Ga  Ga9  1  0.056456  0.192705  0.327761  1
  Ga  Ga10  1  0.800473  0.259246  0.639325  1
  Tc  Tc11  1  0.283292  0.152890  0.602389  1
  Tc  Tc12  1  0.717063  0.847587  0.396901  1
  Tc  Tc13  1  0.661373  0.612805  0.867935  1
  Tc  Tc14  1  0.337810  0.389547  0.131553  1
