# generated using pymatgen
data_Sc3Sn3Pd2Rh
_symmetry_space_group_name_H-M   'P 1'
_cell_length_a   7.55209300
_cell_length_b   7.55209291
_cell_length_c   7.14590700
_cell_angle_alpha   90.00000000
_cell_angle_beta   90.00000000
_cell_angle_gamma   120.00000476
_symmetry_Int_Tables_number   1
_chemical_formula_structural   Sc3Sn3Pd2Rh
_chemical_formula_sum   'Sc6 Sn6 Pd4 Rh2'
_cell_volume   352.95767052
_cell_formula_units_Z   2
loop_
 _symmetry_equiv_pos_site_id
 _symmetry_equiv_pos_as_xyz
  1  'x, y, z'
loop_
 _atom_site_type_symbol
 _atom_site_label
 _atom_site_symmetry_multiplicity
 _atom_site_fract_x
 _atom_site_fract_y
 _atom_site_fract_z
 _atom_site_occupancy
  Sc  Sc0  1  0.391603  0.004259  0.246404  1
  Sc  Sc1  1  0.612656  0.608397  0.246404  1
  Sc  Sc2  1  0.995741  0.387344  0.246404  1
  Sc  Sc3  1  0.388450  0.980611  0.754371  1
  Sc  Sc4  1  0.592161  0.611550  0.754371  1
  Sc  Sc5  1  0.019389  0.407839  0.754371  1
  Sn  Sn6  1  0.725225  0.999693  0.003645  1
  Sn  Sn7  1  0.274707  0.272491  0.497878  1
  Sn  Sn8  1  0.997785  0.725293  0.497878  1
  Sn  Sn9  1  0.000307  0.725532  0.003645  1
  Sn  Sn10  1  0.274468  0.274775  0.003645  1
  Sn  Sn11  1  0.727509  0.002215  0.497878  1
  Pd  Pd12  1  0.333333  0.666667  0.473986  1
  Pd  Pd13  1  0.666667  0.333333  0.976096  1
  Pd  Pd14  1  0.666667  0.333333  0.525044  1
  Pd  Pd15  1  0.000000  0.000000  0.751669  1
  Rh  Rh16  1  0.333333  0.666667  0.016561  1
  Rh  Rh17  1  0.000000  0.000000  0.249747  1
