# generated using pymatgen
data_Tb5Nd6Dy5(CdIr)4
_symmetry_space_group_name_H-M   'P 1'
_cell_length_a   9.75100745
_cell_length_b   9.75447995
_cell_length_c   9.75447948
_cell_angle_alpha   60.03345737
_cell_angle_beta   60.01177013
_cell_angle_gamma   60.01177635
_symmetry_Int_Tables_number   1
_chemical_formula_structural   Tb5Nd6Dy5(CdIr)4
_chemical_formula_sum   'Tb5 Nd6 Dy5 Cd4 Ir4'
_cell_volume   656.34125466
_cell_formula_units_Z   1
loop_
 _symmetry_equiv_pos_site_id
 _symmetry_equiv_pos_as_xyz
  1  'x, y, z'
loop_
 _atom_site_type_symbol
 _atom_site_label
 _atom_site_symmetry_multiplicity
 _atom_site_fract_x
 _atom_site_fract_y
 _atom_site_fract_z
 _atom_site_occupancy
  Tb  Tb0  1  0.346984  0.348145  0.348145  1
  Tb  Tb1  1  0.347990  0.348570  0.955449  1
  Tb  Tb2  1  0.347990  0.955449  0.348570  1
  Tb  Tb3  1  0.956725  0.348145  0.348145  1
  Tb  Tb4  1  0.812301  0.187699  0.187699  1
  Nd  Nd5  1  0.940309  0.559691  0.559691  1
  Nd  Nd6  1  0.559082  0.940918  0.940918  1
  Nd  Nd7  1  0.559254  0.940616  0.559268  1
  Nd  Nd8  1  0.940863  0.559268  0.940616  1
  Nd  Nd9  1  0.559254  0.559268  0.940616  1
  Nd  Nd10  1  0.940863  0.940616  0.559268  1
  Dy  Dy11  1  0.187581  0.812419  0.812419  1
  Dy  Dy12  1  0.188594  0.811698  0.187029  1
  Dy  Dy13  1  0.812679  0.187029  0.811698  1
  Dy  Dy14  1  0.188594  0.187029  0.811698  1
  Dy  Dy15  1  0.812679  0.811698  0.187029  1
  Cd  Cd16  1  0.579703  0.579572  0.579572  1
  Cd  Cd17  1  0.579722  0.579829  0.260725  1
  Cd  Cd18  1  0.579722  0.260725  0.579829  1
  Cd  Cd19  1  0.261152  0.579572  0.579572  1
  Ir  Ir20  1  0.140590  0.141605  0.141605  1
  Ir  Ir21  1  0.140582  0.142254  0.576581  1
  Ir  Ir22  1  0.140582  0.576581  0.142254  1
  Ir  Ir23  1  0.576201  0.141605  0.141605  1
