# generated using pymatgen
data_DyY7Re3OsC8
_symmetry_space_group_name_H-M   'P 1'
_cell_length_a   5.13380500
_cell_length_b   6.57493744
_cell_length_c   9.86239614
_cell_angle_alpha   89.84063035
_cell_angle_beta   90.00000000
_cell_angle_gamma   90.00000000
_symmetry_Int_Tables_number   1
_chemical_formula_structural   DyY7Re3OsC8
_chemical_formula_sum   'Dy1 Y7 Re3 Os1 C8'
_cell_volume   332.89843698
_cell_formula_units_Z   1
loop_
 _symmetry_equiv_pos_site_id
 _symmetry_equiv_pos_as_xyz
  1  'x, y, z'
loop_
 _atom_site_type_symbol
 _atom_site_label
 _atom_site_symmetry_multiplicity
 _atom_site_fract_x
 _atom_site_fract_y
 _atom_site_fract_z
 _atom_site_occupancy
  Dy  Dy0  1  0.750000  0.969940  0.713144  1
  Y  Y1  1  0.250000  0.678275  0.554881  1
  Y  Y2  1  0.750000  0.318458  0.444092  1
  Y  Y3  1  0.750000  0.819764  0.055531  1
  Y  Y4  1  0.250000  0.180586  0.944225  1
  Y  Y5  1  0.250000  0.530587  0.216593  1
  Y  Y6  1  0.750000  0.467435  0.784540  1
  Y  Y7  1  0.250000  0.030636  0.283875  1
  Re  Re8  1  0.250000  0.723405  0.864321  1
  Re  Re9  1  0.750000  0.276846  0.134272  1
  Re  Re10  1  0.750000  0.775947  0.365692  1
  Os  Os11  1  0.250000  0.223870  0.635787  1
  C  C12  1  0.250000  0.457035  0.759425  1
  C  C13  1  0.750000  0.543771  0.240576  1
  C  C14  1  0.750000  0.043325  0.259625  1
  C  C15  1  0.250000  0.957246  0.741676  1
  C  C16  1  0.250000  0.822559  0.048757  1
  C  C17  1  0.750000  0.178137  0.949896  1
  C  C18  1  0.750000  0.678651  0.550792  1
  C  C19  1  0.250000  0.323529  0.452296  1
