# generated using pymatgen
data_EuDy2Ta(Co4P3)2
_symmetry_space_group_name_H-M   'P 1'
_cell_length_a   3.72858600
_cell_length_b   10.69370800
_cell_length_c   12.35479500
_cell_angle_alpha   90.00000000
_cell_angle_beta   90.00000000
_cell_angle_gamma   90.00000000
_symmetry_Int_Tables_number   1
_chemical_formula_structural   EuDy2Ta(Co4P3)2
_chemical_formula_sum   'Eu2 Dy4 Ta2 Co16 P12'
_cell_volume   492.61545093
_cell_formula_units_Z   2
loop_
 _symmetry_equiv_pos_site_id
 _symmetry_equiv_pos_as_xyz
  1  'x, y, z'
loop_
 _atom_site_type_symbol
 _atom_site_label
 _atom_site_symmetry_multiplicity
 _atom_site_fract_x
 _atom_site_fract_y
 _atom_site_fract_z
 _atom_site_occupancy
  Eu  Eu0  1  0.000000  0.500000  0.528693  1
  Eu  Eu1  1  0.500000  0.000000  0.471307  1
  Dy  Dy2  1  0.500000  0.820799  0.203996  1
  Dy  Dy3  1  0.500000  0.179201  0.203996  1
  Dy  Dy4  1  0.000000  0.679201  0.796004  1
  Dy  Dy5  1  0.000000  0.320799  0.796004  1
  Ta  Ta6  1  0.500000  0.500000  0.155092  1
  Ta  Ta7  1  0.000000  0.000000  0.844908  1
  Co  Co8  1  0.500000  0.500000  0.704916  1
  Co  Co9  1  0.000000  0.000000  0.295084  1
  Co  Co10  1  0.000000  0.500000  0.987115  1
  Co  Co11  1  0.500000  0.000000  0.012885  1
  Co  Co12  1  0.500000  0.332334  0.992458  1
  Co  Co13  1  0.500000  0.667666  0.992458  1
  Co  Co14  1  0.000000  0.167666  0.007542  1
  Co  Co15  1  0.000000  0.832334  0.007542  1
  Co  Co16  1  0.500000  0.294839  0.431104  1
  Co  Co17  1  0.500000  0.705161  0.431104  1
  Co  Co18  1  0.000000  0.205161  0.568896  1
  Co  Co19  1  0.000000  0.794839  0.568896  1
  Co  Co20  1  0.500000  0.878258  0.707174  1
  Co  Co21  1  0.500000  0.121742  0.707174  1
  Co  Co22  1  0.000000  0.621742  0.292826  1
  Co  Co23  1  0.000000  0.378258  0.292826  1
  P  P24  1  0.500000  0.500000  0.883427  1
  P  P25  1  0.000000  0.000000  0.116573  1
  P  P26  1  0.500000  0.500000  0.354778  1
  P  P27  1  0.000000  0.000000  0.645222  1
  P  P28  1  0.500000  0.307625  0.616377  1
  P  P29  1  0.500000  0.692375  0.616377  1
  P  P30  1  0.000000  0.192375  0.383623  1
  P  P31  1  0.000000  0.807625  0.383623  1
  P  P32  1  0.500000  0.841347  0.893280  1
  P  P33  1  0.500000  0.158653  0.893280  1
  P  P34  1  0.000000  0.658653  0.106720  1
  P  P35  1  0.000000  0.341347  0.106720  1
