# generated using pymatgen
data_CeHo7(ErRu2)2
_symmetry_space_group_name_H-M   'P 1'
_cell_length_a   6.34471642
_cell_length_b   7.20598985
_cell_length_c   8.51440368
_cell_angle_alpha   97.07607862
_cell_angle_beta   111.75133073
_cell_angle_gamma   88.75578889
_symmetry_Int_Tables_number   1
_chemical_formula_structural   CeHo7(ErRu2)2
_chemical_formula_sum   'Ce1 Ho7 Er2 Ru4'
_cell_volume   358.68710828
_cell_formula_units_Z   1
loop_
 _symmetry_equiv_pos_site_id
 _symmetry_equiv_pos_as_xyz
  1  'x, y, z'
loop_
 _atom_site_type_symbol
 _atom_site_label
 _atom_site_symmetry_multiplicity
 _atom_site_fract_x
 _atom_site_fract_y
 _atom_site_fract_z
 _atom_site_occupancy
  Ce  Ce0  1  0.802135  0.598685  0.810316  1
  Ho  Ho1  1  0.982733  0.916759  0.191266  1
  Ho  Ho2  1  0.207793  0.415888  0.185257  1
  Ho  Ho3  1  0.025814  0.083279  0.816457  1
  Ho  Ho4  1  0.202712  0.683376  0.563463  1
  Ho  Ho5  1  0.638875  0.814339  0.430320  1
  Ho  Ho6  1  0.786383  0.311999  0.430523  1
  Ho  Ho7  1  0.356667  0.187008  0.565015  1
  Er  Er8  1  0.428260  0.751005  0.002625  1
  Er  Er9  1  0.579338  0.251653  0.998809  1
  Ru  Ru10  1  0.616175  0.903206  0.780358  1
  Ru  Ru11  1  0.826064  0.573746  0.221460  1
  Ru  Ru12  1  0.398162  0.075037  0.221154  1
  Ru  Ru13  1  0.148890  0.434020  0.782976  1
