# generated using pymatgen
data_K(HfSe2)4
_symmetry_space_group_name_H-M   'P 1'
_cell_length_a   9.52404865
_cell_length_b   9.52404873
_cell_length_c   9.52404867
_cell_angle_alpha   46.55944011
_cell_angle_beta   46.55944242
_cell_angle_gamma   46.55943899
_symmetry_Int_Tables_number   1
_chemical_formula_structural   K(HfSe2)4
_chemical_formula_sum   'K1 Hf4 Se8'
_cell_volume   415.93351027
_cell_formula_units_Z   1
loop_
 _symmetry_equiv_pos_site_id
 _symmetry_equiv_pos_as_xyz
  1  'x, y, z'
loop_
 _atom_site_type_symbol
 _atom_site_label
 _atom_site_symmetry_multiplicity
 _atom_site_fract_x
 _atom_site_fract_y
 _atom_site_fract_z
 _atom_site_occupancy
  K  K0  1  0.500000  0.500000  0.500000  1
  Hf  Hf1  1  0.000000  0.500000  0.500000  1
  Hf  Hf2  1  0.500000  0.000000  0.500000  1
  Hf  Hf3  1  0.500000  0.500000  0.000000  1
  Hf  Hf4  1  0.000000  0.000000  0.000000  1
  Se  Se5  1  0.268956  0.771608  0.771608  1
  Se  Se6  1  0.228392  0.228392  0.731044  1
  Se  Se7  1  0.731044  0.228392  0.228392  1
  Se  Se8  1  0.228392  0.731044  0.228392  1
  Se  Se9  1  0.271280  0.271280  0.271280  1
  Se  Se10  1  0.728720  0.728720  0.728720  1
  Se  Se11  1  0.771608  0.268956  0.771608  1
  Se  Se12  1  0.771608  0.771608  0.268956  1
