# generated using pymatgen
data_Dy12Si12RuAu3
_symmetry_space_group_name_H-M   'P 1'
_cell_length_a   4.24707800
_cell_length_b   10.89525800
_cell_length_c   12.43081315
_cell_angle_alpha   89.96046702
_cell_angle_beta   90.00000000
_cell_angle_gamma   90.00000000
_symmetry_Int_Tables_number   1
_chemical_formula_structural   Dy12Si12RuAu3
_chemical_formula_sum   'Dy12 Si12 Ru1 Au3'
_cell_volume   575.21101114
_cell_formula_units_Z   1
loop_
 _symmetry_equiv_pos_site_id
 _symmetry_equiv_pos_as_xyz
  1  'x, y, z'
loop_
 _atom_site_type_symbol
 _atom_site_label
 _atom_site_symmetry_multiplicity
 _atom_site_fract_x
 _atom_site_fract_y
 _atom_site_fract_z
 _atom_site_occupancy
  Dy  Dy0  1  0.250000  0.877492  0.018960  1
  Dy  Dy1  1  0.250000  0.624636  0.521556  1
  Dy  Dy2  1  0.750000  0.120119  0.978428  1
  Dy  Dy3  1  0.750000  0.374925  0.481431  1
  Dy  Dy4  1  0.250000  0.922234  0.603776  1
  Dy  Dy5  1  0.250000  0.579464  0.100386  1
  Dy  Dy6  1  0.750000  0.077249  0.398357  1
  Dy  Dy7  1  0.750000  0.421106  0.894986  1
  Dy  Dy8  1  0.250000  0.667289  0.802696  1
  Dy  Dy9  1  0.250000  0.835123  0.302835  1
  Dy  Dy10  1  0.750000  0.335282  0.196666  1
  Dy  Dy11  1  0.750000  0.157033  0.700489  1
  Si  Si12  1  0.250000  0.008822  0.822944  1
  Si  Si13  1  0.250000  0.474774  0.326198  1
  Si  Si14  1  0.750000  0.974886  0.177062  1
  Si  Si15  1  0.750000  0.528482  0.672118  1
  Si  Si16  1  0.250000  0.240491  0.847289  1
  Si  Si17  1  0.250000  0.252835  0.347656  1
  Si  Si18  1  0.750000  0.754840  0.151258  1
  Si  Si19  1  0.750000  0.754400  0.661482  1
  Si  Si20  1  0.250000  0.186234  0.537337  1
  Si  Si21  1  0.250000  0.316039  0.033909  1
  Si  Si22  1  0.750000  0.813653  0.465699  1
  Si  Si23  1  0.750000  0.703535  0.955396  1
  Ru  Ru24  1  0.750000  0.890800  0.819571  1
  Au  Au25  1  0.250000  0.390587  0.683504  1
  Au  Au26  1  0.250000  0.108459  0.182745  1
  Au  Au27  1  0.750000  0.609209  0.315265  1
