# generated using pymatgen
data_Ta2V3Cr
_symmetry_space_group_name_H-M   'P 1'
_cell_length_a   4.97869895
_cell_length_b   4.97869936
_cell_length_c   4.97869825
_cell_angle_alpha   60.91809371
_cell_angle_beta   60.91809443
_cell_angle_gamma   60.91809146
_symmetry_Int_Tables_number   1
_chemical_formula_structural   Ta2V3Cr
_chemical_formula_sum   'Ta2 V3 Cr1'
_cell_volume   89.06909061
_cell_formula_units_Z   1
loop_
 _symmetry_equiv_pos_site_id
 _symmetry_equiv_pos_as_xyz
  1  'x, y, z'
loop_
 _atom_site_type_symbol
 _atom_site_label
 _atom_site_symmetry_multiplicity
 _atom_site_fract_x
 _atom_site_fract_y
 _atom_site_fract_z
 _atom_site_occupancy
  Ta  Ta0  1  0.250218  0.250218  0.250218  1
  Ta  Ta1  1  0.999782  0.999782  0.999782  1
  V  V2  1  0.625000  0.625000  0.125000  1
  V  V3  1  0.625000  0.125000  0.625000  1
  V  V4  1  0.125000  0.625000  0.625000  1
  Cr  Cr5  1  0.625000  0.625000  0.625000  1
