# generated using pymatgen
data_Sm5Y2Sn23Ir6
_symmetry_space_group_name_H-M   'P 1'
_cell_length_a   9.96294287
_cell_length_b   9.97093706
_cell_length_c   10.18744400
_cell_angle_alpha   90.00000000
_cell_angle_beta   90.07202415
_cell_angle_gamma   120.02655460
_symmetry_Int_Tables_number   1
_chemical_formula_structural   Sm5Y2Sn23Ir6
_chemical_formula_sum   'Sm5 Y2 Sn23 Ir6'
_cell_volume   876.19899756
_cell_formula_units_Z   1
loop_
 _symmetry_equiv_pos_site_id
 _symmetry_equiv_pos_as_xyz
  1  'x, y, z'
loop_
 _atom_site_type_symbol
 _atom_site_label
 _atom_site_symmetry_multiplicity
 _atom_site_fract_x
 _atom_site_fract_y
 _atom_site_fract_z
 _atom_site_occupancy
  Sm  Sm0  1  0.000000  0.000000  0.000000  1
  Sm  Sm1  1  0.478860  0.521622  0.307231  1
  Sm  Sm2  1  0.521140  0.478378  0.692769  1
  Sm  Sm3  1  0.478860  0.957237  0.307231  1
  Sm  Sm4  1  0.521140  0.042763  0.692769  1
  Y  Y5  1  0.040947  0.520473  0.306148  1
  Y  Y6  1  0.959053  0.479527  0.693852  1
  Sn  Sn7  1  0.351828  0.999343  0.999774  1
  Sn  Sn8  1  0.648172  0.000657  0.000226  1
  Sn  Sn9  1  0.000000  0.352392  0.000000  1
  Sn  Sn10  1  0.000000  0.647608  0.000000  1
  Sn  Sn11  1  0.648172  0.647514  0.000226  1
  Sn  Sn12  1  0.351828  0.352486  0.999774  1
  Sn  Sn13  1  0.333462  0.666731  0.824713  1
  Sn  Sn14  1  0.666538  0.333269  0.175287  1
  Sn  Sn15  1  0.000000  0.000000  0.500000  1
  Sn  Sn16  1  0.781345  0.223811  0.454893  1
  Sn  Sn17  1  0.218655  0.776189  0.545107  1
  Sn  Sn18  1  0.781345  0.557534  0.454893  1
  Sn  Sn19  1  0.218655  0.442466  0.545107  1
  Sn  Sn20  1  0.441925  0.220963  0.454084  1
  Sn  Sn21  1  0.558075  0.779037  0.545916  1
  Sn  Sn22  1  0.330297  0.665149  0.116675  1
  Sn  Sn23  1  0.669703  0.334851  0.883325  1
  Sn  Sn24  1  0.117401  0.881570  0.283600  1
  Sn  Sn25  1  0.882599  0.118430  0.716400  1
  Sn  Sn26  1  0.117401  0.235832  0.283600  1
  Sn  Sn27  1  0.882599  0.764168  0.716400  1
  Sn  Sn28  1  0.766847  0.883425  0.283240  1
  Sn  Sn29  1  0.233153  0.116575  0.716760  1
  Ir  Ir30  1  0.832304  0.169948  0.198346  1
  Ir  Ir31  1  0.167696  0.830052  0.801654  1
  Ir  Ir32  1  0.832304  0.662356  0.198346  1
  Ir  Ir33  1  0.167696  0.337644  0.801654  1
  Ir  Ir34  1  0.335792  0.167896  0.197113  1
  Ir  Ir35  1  0.664208  0.832104  0.802887  1
