# generated using pymatgen
data_Dy4Mg4Ir3Rh
_symmetry_space_group_name_H-M   'P 1'
_cell_length_a   4.10804400
_cell_length_b   7.10402206
_cell_length_c   8.52498690
_cell_angle_alpha   90.39279883
_cell_angle_beta   90.00000000
_cell_angle_gamma   90.00000000
_symmetry_Int_Tables_number   1
_chemical_formula_structural   Dy4Mg4Ir3Rh
_chemical_formula_sum   'Dy4 Mg4 Ir3 Rh1'
_cell_volume   248.78426107
_cell_formula_units_Z   1
loop_
 _symmetry_equiv_pos_site_id
 _symmetry_equiv_pos_as_xyz
  1  'x, y, z'
loop_
 _atom_site_type_symbol
 _atom_site_label
 _atom_site_symmetry_multiplicity
 _atom_site_fract_x
 _atom_site_fract_y
 _atom_site_fract_z
 _atom_site_occupancy
  Dy  Dy0  1  0.250000  0.537154  0.176742  1
  Dy  Dy1  1  0.750000  0.456790  0.825590  1
  Dy  Dy2  1  0.250000  0.038703  0.324242  1
  Dy  Dy3  1  0.750000  0.965163  0.672826  1
  Mg  Mg4  1  0.250000  0.135047  0.940003  1
  Mg  Mg5  1  0.750000  0.864132  0.059638  1
  Mg  Mg6  1  0.250000  0.636278  0.559536  1
  Mg  Mg7  1  0.750000  0.365214  0.439732  1
  Ir  Ir8  1  0.750000  0.749180  0.371546  1
  Ir  Ir9  1  0.250000  0.253308  0.630363  1
  Ir  Ir10  1  0.750000  0.248606  0.127853  1
  Rh  Rh11  1  0.250000  0.750425  0.871930  1
