# generated using pymatgen
data_Tb2Nb3P7Rh9
_symmetry_space_group_name_H-M   'P 1'
_cell_length_a   3.92823209
_cell_length_b   9.63292370
_cell_length_c   9.63404793
_cell_angle_alpha   119.97478513
_cell_angle_beta   89.99949268
_cell_angle_gamma   89.99911714
_symmetry_Int_Tables_number   1
_chemical_formula_structural   Tb2Nb3P7Rh9
_chemical_formula_sum   'Tb2 Nb3 P7 Rh9'
_cell_volume   315.79480708
_cell_formula_units_Z   1
loop_
 _symmetry_equiv_pos_site_id
 _symmetry_equiv_pos_as_xyz
  1  'x, y, z'
loop_
 _atom_site_type_symbol
 _atom_site_label
 _atom_site_symmetry_multiplicity
 _atom_site_fract_x
 _atom_site_fract_y
 _atom_site_fract_z
 _atom_site_occupancy
  Tb  Tb0  1  0.260348  0.666684  0.333481  1
  Tb  Tb1  1  0.761930  0.333329  0.666598  1
  Nb  Nb2  1  0.762315  0.095018  0.873835  1
  Nb  Nb3  1  0.762306  0.126174  0.221112  1
  Nb  Nb4  1  0.762316  0.778710  0.904949  1
  P  P5  1  0.262725  0.999998  0.000038  1
  P  P6  1  0.761477  0.876917  0.589947  1
  P  P7  1  0.761400  0.410051  0.286875  1
  P  P8  1  0.761429  0.713121  0.123283  1
  P  P9  1  0.262379  0.116944  0.416184  1
  P  P10  1  0.262410  0.583854  0.700779  1
  P  P11  1  0.262372  0.299199  0.883052  1
  Rh  Rh12  1  0.261913  0.883831  0.162729  1
  Rh  Rh13  1  0.261914  0.837059  0.721054  1
  Rh  Rh14  1  0.261911  0.279061  0.116290  1
  Rh  Rh15  1  0.761746  0.610455  0.556921  1
  Rh  Rh16  1  0.761759  0.443164  0.053449  1
  Rh  Rh17  1  0.761735  0.946592  0.389628  1
  Rh  Rh18  1  0.261861  0.367853  0.438650  1
  Rh  Rh19  1  0.261882  0.561106  0.929039  1
  Rh  Rh20  1  0.261872  0.070882  0.632104  1
