# generated using pymatgen
data_SrTb5NdRuI12
_symmetry_space_group_name_H-M   'P 1'
_cell_length_a   9.94632057
_cell_length_b   9.86510426
_cell_length_c   9.86948259
_cell_angle_alpha   105.87440998
_cell_angle_beta   106.96263999
_cell_angle_gamma   106.57949969
_symmetry_Int_Tables_number   1
_chemical_formula_structural   SrTb5NdRuI12
_chemical_formula_sum   'Sr1 Tb5 Nd1 Ru1 I12'
_cell_volume   817.77506476
_cell_formula_units_Z   1
loop_
 _symmetry_equiv_pos_site_id
 _symmetry_equiv_pos_as_xyz
  1  'x, y, z'
loop_
 _atom_site_type_symbol
 _atom_site_label
 _atom_site_symmetry_multiplicity
 _atom_site_fract_x
 _atom_site_fract_y
 _atom_site_fract_z
 _atom_site_occupancy
  Sr  Sr0  1  0.499968  0.500257  0.499718  1
  Tb  Tb1  1  0.982059  0.907473  0.706632  1
  Tb  Tb2  1  0.701627  0.979251  0.907091  1
  Tb  Tb3  1  0.092512  0.289950  0.020534  1
  Tb  Tb4  1  0.018648  0.095335  0.293898  1
  Tb  Tb5  1  0.298831  0.021076  0.092918  1
  Nd  Nd6  1  0.906028  0.703087  0.979824  1
  Ru  Ru7  1  0.999914  0.999382  0.000371  1
  I  I8  1  0.633438  0.864131  0.553170  1
  I  I9  1  0.544607  0.631340  0.859328  1
  I  I10  1  0.861855  0.551061  0.625341  1
  I  I11  1  0.366503  0.136456  0.447091  1
  I  I12  1  0.447487  0.368643  0.136903  1
  I  I13  1  0.137391  0.448476  0.367168  1
  I  I14  1  0.678520  0.074146  0.222983  1
  I  I15  1  0.230940  0.680738  0.076521  1
  I  I16  1  0.074399  0.224046  0.680202  1
  I  I17  1  0.321575  0.926597  0.777168  1
  I  I18  1  0.776217  0.317061  0.925058  1
  I  I19  1  0.927483  0.781493  0.328080  1
