# generated using pymatgen
data_Pr6Nd10Cd4CoPt3
_symmetry_space_group_name_H-M   'P 1'
_cell_length_a   10.00825785
_cell_length_b   10.00825787
_cell_length_c   10.00825700
_cell_angle_alpha   60.15954842
_cell_angle_beta   60.15955000
_cell_angle_gamma   60.15955060
_symmetry_Int_Tables_number   1
_chemical_formula_structural   Pr6Nd10Cd4CoPt3
_chemical_formula_sum   'Pr6 Nd10 Cd4 Co1 Pt3'
_cell_volume   711.42155556
_cell_formula_units_Z   1
loop_
 _symmetry_equiv_pos_site_id
 _symmetry_equiv_pos_as_xyz
  1  'x, y, z'
loop_
 _atom_site_type_symbol
 _atom_site_label
 _atom_site_symmetry_multiplicity
 _atom_site_fract_x
 _atom_site_fract_y
 _atom_site_fract_z
 _atom_site_occupancy
  Pr  Pr0  1  0.939374  0.561795  0.561795  1
  Pr  Pr1  1  0.561782  0.936255  0.936255  1
  Pr  Pr2  1  0.561795  0.939374  0.561795  1
  Pr  Pr3  1  0.936255  0.561782  0.936255  1
  Pr  Pr4  1  0.561795  0.561795  0.939374  1
  Pr  Pr5  1  0.936255  0.936255  0.561782  1
  Nd  Nd6  1  0.350411  0.350411  0.350411  1
  Nd  Nd7  1  0.345613  0.345613  0.952781  1
  Nd  Nd8  1  0.345613  0.952781  0.345613  1
  Nd  Nd9  1  0.952781  0.345613  0.345613  1
  Nd  Nd10  1  0.819876  0.189119  0.189119  1
  Nd  Nd11  1  0.190293  0.808912  0.808912  1
  Nd  Nd12  1  0.189119  0.819876  0.189119  1
  Nd  Nd13  1  0.808912  0.190293  0.808912  1
  Nd  Nd14  1  0.189119  0.189119  0.819876  1
  Nd  Nd15  1  0.808912  0.808912  0.190293  1
  Cd  Cd16  1  0.579819  0.579819  0.579819  1
  Cd  Cd17  1  0.580715  0.580715  0.259108  1
  Cd  Cd18  1  0.580715  0.259108  0.580715  1
  Cd  Cd19  1  0.259108  0.580715  0.580715  1
  Co  Co20  1  0.142655  0.142655  0.142655  1
  Pt  Pt21  1  0.143620  0.143620  0.571842  1
  Pt  Pt22  1  0.143620  0.571842  0.143620  1
  Pt  Pt23  1  0.571842  0.143620  0.143620  1
