# generated using pymatgen
data_Er4Tm6Hg3Bi2Au
_symmetry_space_group_name_H-M   'P 1'
_cell_length_a   8.69118425
_cell_length_b   8.69047569
_cell_length_c   8.71411505
_cell_angle_alpha   123.89264625
_cell_angle_beta   123.89402897
_cell_angle_gamma   83.20672203
_symmetry_Int_Tables_number   1
_chemical_formula_structural   Er4Tm6Hg3Bi2Au
_chemical_formula_sum   'Er4 Tm6 Hg3 Bi2 Au1'
_cell_volume   435.41210747
_cell_formula_units_Z   1
loop_
 _symmetry_equiv_pos_site_id
 _symmetry_equiv_pos_as_xyz
  1  'x, y, z'
loop_
 _atom_site_type_symbol
 _atom_site_label
 _atom_site_symmetry_multiplicity
 _atom_site_fract_x
 _atom_site_fract_y
 _atom_site_fract_z
 _atom_site_occupancy
  Er  Er0  1  0.491317  0.997705  0.199453  1
  Er  Er1  1  0.791878  0.298212  0.800532  1
  Er  Er2  1  0.992815  0.798291  0.500001  1
  Er  Er3  1  0.302013  0.485241  0.499995  1
  Tm  Tm4  1  0.497879  0.495480  0.993803  1
  Tm  Tm5  1  0.004094  0.001696  0.006217  1
  Tm  Tm6  1  0.502227  0.008810  0.799707  1
  Tm  Tm7  1  0.202496  0.709102  0.200279  1
  Tm  Tm8  1  0.015100  0.198644  0.500002  1
  Tm  Tm9  1  0.702512  0.507237  0.499988  1
  Hg  Hg10  1  0.140521  0.640707  0.781854  1
  Hg  Hg11  1  0.858660  0.358847  0.218148  1
  Hg  Hg12  1  0.640198  0.859177  0.500022  1
  Bi  Bi13  1  0.248354  0.251625  0.000005  1
  Bi  Bi14  1  0.748353  0.751622  0.000004  1
  Au  Au15  1  0.361584  0.137604  0.499990  1
