# generated using pymatgen
data_Ba4MnCr(FeN4)2
_symmetry_space_group_name_H-M   'P 1'
_cell_length_a   6.43941914
_cell_length_b   6.43941863
_cell_length_c   7.79799936
_cell_angle_alpha   90.51840002
_cell_angle_beta   89.48160091
_cell_angle_gamma   125.66150931
_symmetry_Int_Tables_number   1
_chemical_formula_structural   Ba4MnCr(FeN4)2
_chemical_formula_sum   'Ba4 Mn1 Cr1 Fe2 N8'
_cell_volume   262.70255003
_cell_formula_units_Z   1
loop_
 _symmetry_equiv_pos_site_id
 _symmetry_equiv_pos_as_xyz
  1  'x, y, z'
loop_
 _atom_site_type_symbol
 _atom_site_label
 _atom_site_symmetry_multiplicity
 _atom_site_fract_x
 _atom_site_fract_y
 _atom_site_fract_z
 _atom_site_occupancy
  Ba  Ba0  1  0.837988  0.162012  0.559402  1
  Ba  Ba1  1  0.154325  0.845675  0.441093  1
  Ba  Ba2  1  0.657413  0.342587  0.057050  1
  Ba  Ba3  1  0.344232  0.655768  0.938963  1
  Mn  Mn4  1  0.947689  0.052311  0.139277  1
  Cr  Cr5  1  0.050215  0.949785  0.867007  1
  Fe  Fe6  1  0.546995  0.453005  0.628623  1
  Fe  Fe7  1  0.449570  0.550430  0.367430  1
  N  N8  1  0.891682  0.108318  0.913051  1
  N  N9  1  0.110160  0.889840  0.083980  1
  N  N10  1  0.610170  0.389830  0.408879  1
  N  N11  1  0.387262  0.612738  0.586755  1
  N  N12  1  0.337099  0.151298  0.754745  1
  N  N13  1  0.158378  0.331881  0.249500  1
  N  N14  1  0.668119  0.841622  0.249500  1
  N  N15  1  0.848702  0.662901  0.754745  1
