# generated using pymatgen
data_TbY7(HoIr3)2
_symmetry_space_group_name_H-M   'P 1'
_cell_length_a   10.92280030
_cell_length_b   10.92245600
_cell_length_c   6.38263518
_cell_angle_alpha   90.00000000
_cell_angle_beta   89.97309423
_cell_angle_gamma   90.00000000
_symmetry_Int_Tables_number   1
_chemical_formula_structural   TbY7(HoIr3)2
_chemical_formula_sum   'Tb2 Y14 Ho4 Ir12'
_cell_volume   761.47258283
_cell_formula_units_Z   2
loop_
 _symmetry_equiv_pos_site_id
 _symmetry_equiv_pos_as_xyz
  1  'x, y, z'
loop_
 _atom_site_type_symbol
 _atom_site_label
 _atom_site_symmetry_multiplicity
 _atom_site_fract_x
 _atom_site_fract_y
 _atom_site_fract_z
 _atom_site_occupancy
  Tb  Tb0  1  0.291059  0.088034  0.377894  1
  Tb  Tb1  1  0.291059  0.911966  0.877894  1
  Y  Y2  1  0.708995  0.087925  0.878030  1
  Y  Y3  1  0.708995  0.912075  0.378030  1
  Y  Y4  1  0.588091  0.790980  0.877942  1
  Y  Y5  1  0.588091  0.209020  0.377942  1
  Y  Y6  1  0.412168  0.790879  0.377947  1
  Y  Y7  1  0.412168  0.209121  0.877947  1
  Y  Y8  1  0.208979  0.412079  0.622151  1
  Y  Y9  1  0.208979  0.587921  0.122151  1
  Y  Y10  1  0.791026  0.412066  0.121995  1
  Y  Y11  1  0.791026  0.587934  0.621995  1
  Y  Y12  1  0.912031  0.709008  0.122085  1
  Y  Y13  1  0.912031  0.290992  0.622085  1
  Y  Y14  1  0.087856  0.708982  0.621871  1
  Y  Y15  1  0.087856  0.291018  0.121871  1
  Ho  Ho16  1  0.999847  0.999941  0.500038  1
  Ho  Ho17  1  0.999847  0.000059  0.000038  1
  Ho  Ho18  1  0.500045  0.499968  0.000106  1
  Ho  Ho19  1  0.500045  0.500032  0.500106  1
  Ir  Ir20  1  0.847642  0.152409  0.250042  1
  Ir  Ir21  1  0.847642  0.847591  0.750042  1
  Ir  Ir22  1  0.152615  0.152354  0.749789  1
  Ir  Ir23  1  0.152615  0.847646  0.249789  1
  Ir  Ir24  1  0.652352  0.347577  0.749971  1
  Ir  Ir25  1  0.652352  0.652423  0.249971  1
  Ir  Ir26  1  0.347590  0.347452  0.250075  1
  Ir  Ir27  1  0.347590  0.652548  0.750075  1
  Ir  Ir28  1  0.499713  0.999960  0.122352  1
  Ir  Ir29  1  0.499713  0.000040  0.622352  1
  Ir  Ir30  1  0.999991  0.500003  0.877712  1
  Ir  Ir31  1  0.999991  0.499997  0.377712  1
