# generated using pymatgen
data_Na11Hg2Sb5
_symmetry_space_group_name_H-M   'P 1'
_cell_length_a   9.15710566
_cell_length_b   10.87332998
_cell_length_c   11.74406840
_cell_angle_alpha   103.31724854
_cell_angle_beta   97.01058487
_cell_angle_gamma   107.38454053
_symmetry_Int_Tables_number   1
_chemical_formula_structural   Na11Hg2Sb5
_chemical_formula_sum   'Na22 Hg4 Sb10'
_cell_volume   1062.72902481
_cell_formula_units_Z   2
loop_
 _symmetry_equiv_pos_site_id
 _symmetry_equiv_pos_as_xyz
  1  'x, y, z'
loop_
 _atom_site_type_symbol
 _atom_site_label
 _atom_site_symmetry_multiplicity
 _atom_site_fract_x
 _atom_site_fract_y
 _atom_site_fract_z
 _atom_site_occupancy
  Na  Na0  1  0.849482  0.571414  0.956383  1
  Na  Na1  1  0.150518  0.428586  0.043617  1
  Na  Na2  1  0.295515  0.891912  0.775512  1
  Na  Na3  1  0.704485  0.108088  0.224488  1
  Na  Na4  1  0.631568  0.165297  0.534188  1
  Na  Na5  1  0.368432  0.834703  0.465812  1
  Na  Na6  1  0.634916  0.673715  0.559776  1
  Na  Na7  1  0.365084  0.326285  0.440224  1
  Na  Na8  1  0.210186  0.560602  0.574119  1
  Na  Na9  1  0.789814  0.439398  0.425881  1
  Na  Na10  1  0.052009  0.702735  0.252516  1
  Na  Na11  1  0.947991  0.297265  0.747484  1
  Na  Na12  1  0.208704  0.081717  0.574351  1
  Na  Na13  1  0.791296  0.918283  0.425649  1
  Na  Na14  1  0.867573  0.090903  0.975840  1
  Na  Na15  1  0.132427  0.909097  0.024160  1
  Na  Na16  1  0.576148  0.224243  0.855318  1
  Na  Na17  1  0.423852  0.775757  0.144682  1
  Na  Na18  1  0.408899  0.253111  0.149343  1
  Na  Na19  1  0.591101  0.746889  0.850657  1
  Na  Na20  1  0.338864  0.411367  0.793386  1
  Na  Na21  1  0.661136  0.588633  0.206614  1
  Hg  Hg22  1  0.944189  0.962242  0.714630  1
  Hg  Hg23  1  0.055811  0.037758  0.285370  1
  Hg  Hg24  1  0.943944  0.617603  0.711246  1
  Hg  Hg25  1  0.056056  0.382397  0.288754  1
  Sb  Sb26  1  0.006522  0.759270  0.526958  1
  Sb  Sb27  1  0.993478  0.240730  0.473042  1
  Sb  Sb28  1  0.631902  0.444663  0.689062  1
  Sb  Sb29  1  0.368098  0.555337  0.310938  1
  Sb  Sb30  1  0.633474  0.966724  0.698156  1
  Sb  Sb31  1  0.366526  0.033276  0.301844  1
  Sb  Sb32  1  0.207062  0.156965  0.883396  1
  Sb  Sb33  1  0.792938  0.843035  0.116604  1
  Sb  Sb34  1  0.205059  0.639552  0.883636  1
  Sb  Sb35  1  0.794941  0.360448  0.116364  1
