# generated using pymatgen
data_LaTh3(HgPd2)2
_symmetry_space_group_name_H-M   'P 1'
_cell_length_a   7.96403078
_cell_length_b   7.96403061
_cell_length_c   3.83449800
_cell_angle_alpha   90.00000000
_cell_angle_beta   90.00000000
_cell_angle_gamma   89.02222832
_symmetry_Int_Tables_number   1
_chemical_formula_structural   LaTh3(HgPd2)2
_chemical_formula_sum   'La1 Th3 Hg2 Pd4'
_cell_volume   243.17063237
_cell_formula_units_Z   1
loop_
 _symmetry_equiv_pos_site_id
 _symmetry_equiv_pos_as_xyz
  1  'x, y, z'
loop_
 _atom_site_type_symbol
 _atom_site_label
 _atom_site_symmetry_multiplicity
 _atom_site_fract_x
 _atom_site_fract_y
 _atom_site_fract_z
 _atom_site_occupancy
  La  La0  1  0.676309  0.176309  0.500000  1
  Th  Th1  1  0.325375  0.825375  0.500000  1
  Th  Th2  1  0.825313  0.674868  0.500000  1
  Th  Th3  1  0.174868  0.325313  0.500000  1
  Hg  Hg4  1  0.998280  0.999198  0.000000  1
  Hg  Hg5  1  0.499198  0.498280  0.000000  1
  Pd  Pd6  1  0.366170  0.123033  0.000000  1
  Pd  Pd7  1  0.881539  0.381539  0.000000  1
  Pd  Pd8  1  0.129915  0.629915  0.000000  1
  Pd  Pd9  1  0.623033  0.866170  0.000000  1
