# generated using pymatgen
data_Ho16MgHg3Ir3Rh
_symmetry_space_group_name_H-M   'P 1'
_cell_length_a   9.55211139
_cell_length_b   9.56649519
_cell_length_c   9.56649600
_cell_angle_alpha   59.99999719
_cell_angle_beta   59.95017243
_cell_angle_gamma   59.95017699
_symmetry_Int_Tables_number   1
_chemical_formula_structural   Ho16MgHg3Ir3Rh
_chemical_formula_sum   'Ho16 Mg1 Hg3 Ir3 Rh1'
_cell_volume   617.67872212
_cell_formula_units_Z   1
loop_
 _symmetry_equiv_pos_site_id
 _symmetry_equiv_pos_as_xyz
  1  'x, y, z'
loop_
 _atom_site_type_symbol
 _atom_site_label
 _atom_site_symmetry_multiplicity
 _atom_site_fract_x
 _atom_site_fract_y
 _atom_site_fract_z
 _atom_site_occupancy
  Ho  Ho0  1  0.810714  0.189538  0.189538  1
  Ho  Ho1  1  0.185964  0.812978  0.812978  1
  Ho  Ho2  1  0.185964  0.812978  0.188079  1
  Ho  Ho3  1  0.810714  0.189538  0.810211  1
  Ho  Ho4  1  0.185964  0.188079  0.812978  1
  Ho  Ho5  1  0.810714  0.810211  0.189538  1
  Ho  Ho6  1  0.935138  0.563268  0.563268  1
  Ho  Ho7  1  0.562393  0.936502  0.936502  1
  Ho  Ho8  1  0.562393  0.936502  0.564603  1
  Ho  Ho9  1  0.935138  0.563268  0.938327  1
  Ho  Ho10  1  0.562393  0.564603  0.936502  1
  Ho  Ho11  1  0.935138  0.938327  0.563268  1
  Ho  Ho12  1  0.350886  0.348942  0.348942  1
  Ho  Ho13  1  0.350886  0.348942  0.951230  1
  Ho  Ho14  1  0.350886  0.951230  0.348942  1
  Ho  Ho15  1  0.942678  0.352440  0.352440  1
  Mg  Mg16  1  0.282444  0.572519  0.572519  1
  Hg  Hg17  1  0.581162  0.586176  0.586176  1
  Hg  Hg18  1  0.581162  0.586176  0.246487  1
  Hg  Hg19  1  0.581162  0.246487  0.586176  1
  Ir  Ir20  1  0.140698  0.143445  0.143445  1
  Ir  Ir21  1  0.140698  0.143445  0.572412  1
  Ir  Ir22  1  0.140698  0.572412  0.143445  1
  Rh  Rh23  1  0.574020  0.141993  0.141993  1
