# generated using pymatgen
data_FeAg2PCO7
_symmetry_space_group_name_H-M   'P 1'
_cell_length_a   5.43653115
_cell_length_b   13.03758720
_cell_length_c   8.93553695
_cell_angle_alpha   90.02973785
_cell_angle_beta   89.20415713
_cell_angle_gamma   90.00056330
_symmetry_Int_Tables_number   1
_chemical_formula_structural   FeAg2PCO7
_chemical_formula_sum   'Fe4 Ag8 P4 C4 O28'
_cell_volume   633.28296630
_cell_formula_units_Z   4
loop_
 _symmetry_equiv_pos_site_id
 _symmetry_equiv_pos_as_xyz
  1  'x, y, z'
loop_
 _atom_site_type_symbol
 _atom_site_label
 _atom_site_symmetry_multiplicity
 _atom_site_fract_x
 _atom_site_fract_y
 _atom_site_fract_z
 _atom_site_occupancy
  Fe  Fe0  1  0.774005  0.884729  0.350489  1
  Fe  Fe1  1  0.225811  0.634839  0.649475  1
  Fe  Fe2  1  0.774173  0.384742  0.350518  1
  Fe  Fe3  1  0.225826  0.134837  0.649521  1
  Ag  Ag4  1  0.848237  0.105555  0.076917  1
  Ag  Ag5  1  0.848303  0.605544  0.076913  1
  Ag  Ag6  1  0.151865  0.355505  0.923247  1
  Ag  Ag7  1  0.151772  0.855498  0.923211  1
  Ag  Ag8  1  0.222145  0.220762  0.241954  1
  Ag  Ag9  1  0.222196  0.720727  0.242020  1
  Ag  Ag10  1  0.778150  0.470711  0.758342  1
  Ag  Ag11  1  0.778091  0.970680  0.758260  1
  P  P12  1  0.727152  0.132099  0.432429  1
  P  P13  1  0.727166  0.632109  0.432389  1
  P  P14  1  0.272885  0.382127  0.567595  1
  P  P15  1  0.272791  0.882117  0.567548  1
  C  C16  1  0.650391  0.374640  0.076043  1
  C  C17  1  0.650280  0.874647  0.075988  1
  C  C18  1  0.349651  0.124769  0.923937  1
  C  C19  1  0.349723  0.624790  0.923922  1
  O  O20  1  0.419941  0.121532  0.059367  1
  O  O21  1  0.420016  0.621540  0.059360  1
  O  O22  1  0.580129  0.371393  0.940579  1
  O  O23  1  0.580031  0.871399  0.940522  1
  O  O24  1  0.883390  0.386423  0.112853  1
  O  O25  1  0.883278  0.886435  0.112802  1
  O  O26  1  0.116603  0.136636  0.887181  1
  O  O27  1  0.116671  0.636659  0.887179  1
  O  O28  1  0.500377  0.367984  0.190163  1
  O  O29  1  0.500255  0.867981  0.190109  1
  O  O30  1  0.499580  0.117982  0.809775  1
  O  O31  1  0.499629  0.618004  0.809760  1
  O  O32  1  0.776739  0.037704  0.329374  1
  O  O33  1  0.776804  0.537701  0.329380  1
  O  O34  1  0.223551  0.287826  0.670746  1
  O  O35  1  0.223498  0.787817  0.670717  1
  O  O36  1  0.798765  0.227406  0.336028  1
  O  O37  1  0.798713  0.727390  0.335984  1
  O  O38  1  0.200769  0.477517  0.663768  1
  O  O39  1  0.200725  0.977521  0.663720  1
  O  O40  1  0.117157  0.376198  0.424903  1
  O  O41  1  0.117024  0.876186  0.424872  1
  O  O42  1  0.882937  0.126517  0.575081  1
  O  O43  1  0.882941  0.626539  0.575051  1
  O  O44  1  0.447875  0.138292  0.473675  1
  O  O45  1  0.447850  0.638283  0.473700  1
  O  O46  1  0.552138  0.388402  0.526343  1
  O  O47  1  0.552001  0.888382  0.526289  1
