# generated using pymatgen
data_Th3Mg(InRh)4
_symmetry_space_group_name_H-M   'P 1'
_cell_length_a   4.36412300
_cell_length_b   7.18001157
_cell_length_c   8.51991636
_cell_angle_alpha   89.54258030
_cell_angle_beta   90.00000000
_cell_angle_gamma   90.00000000
_symmetry_Int_Tables_number   1
_chemical_formula_structural   Th3Mg(InRh)4
_chemical_formula_sum   'Th3 Mg1 In4 Rh4'
_cell_volume   266.95841656
_cell_formula_units_Z   1
loop_
 _symmetry_equiv_pos_site_id
 _symmetry_equiv_pos_as_xyz
  1  'x, y, z'
loop_
 _atom_site_type_symbol
 _atom_site_label
 _atom_site_symmetry_multiplicity
 _atom_site_fract_x
 _atom_site_fract_y
 _atom_site_fract_z
 _atom_site_occupancy
  Th  Th0  1  0.250000  0.039594  0.177021  1
  Th  Th1  1  0.750000  0.951534  0.821240  1
  Th  Th2  1  0.250000  0.536907  0.334593  1
  Mg  Mg3  1  0.750000  0.461348  0.675022  1
  In  In4  1  0.750000  0.370204  0.051354  1
  In  In5  1  0.250000  0.621780  0.930159  1
  In  In6  1  0.750000  0.867663  0.444137  1
  In  In7  1  0.250000  0.153035  0.567623  1
  Rh  Rh8  1  0.250000  0.745121  0.620030  1
  Rh  Rh9  1  0.750000  0.262325  0.365805  1
  Rh  Rh10  1  0.250000  0.226772  0.884801  1
  Rh  Rh11  1  0.750000  0.763713  0.128213  1
