# generated using pymatgen
data_CsNd3Se5
_symmetry_space_group_name_H-M   'P 1'
_cell_length_a   4.31523500
_cell_length_b   12.99066900
_cell_length_c   22.89058700
_cell_angle_alpha   90.00000000
_cell_angle_beta   90.00000000
_cell_angle_gamma   90.00000000
_symmetry_Int_Tables_number   1
_chemical_formula_structural   CsNd3Se5
_chemical_formula_sum   'Cs4 Nd12 Se20'
_cell_volume   1283.19570854
_cell_formula_units_Z   4
loop_
 _symmetry_equiv_pos_site_id
 _symmetry_equiv_pos_as_xyz
  1  'x, y, z'
loop_
 _atom_site_type_symbol
 _atom_site_label
 _atom_site_symmetry_multiplicity
 _atom_site_fract_x
 _atom_site_fract_y
 _atom_site_fract_z
 _atom_site_occupancy
  Cs  Cs0  1  0.250000  0.842831  0.102801  1
  Cs  Cs1  1  0.750000  0.157169  0.897199  1
  Cs  Cs2  1  0.750000  0.342831  0.397199  1
  Cs  Cs3  1  0.250000  0.657169  0.602801  1
  Nd  Nd4  1  0.750000  0.803929  0.829392  1
  Nd  Nd5  1  0.250000  0.196071  0.170608  1
  Nd  Nd6  1  0.250000  0.303929  0.670608  1
  Nd  Nd7  1  0.750000  0.696071  0.329392  1
  Nd  Nd8  1  0.250000  0.966403  0.699863  1
  Nd  Nd9  1  0.750000  0.033597  0.300137  1
  Nd  Nd10  1  0.750000  0.466403  0.800137  1
  Nd  Nd11  1  0.250000  0.533597  0.199863  1
  Nd  Nd12  1  0.750000  0.387814  0.051201  1
  Nd  Nd13  1  0.250000  0.612186  0.948799  1
  Nd  Nd14  1  0.250000  0.887814  0.448799  1
  Nd  Nd15  1  0.750000  0.112186  0.551201  1
  Se  Se16  1  0.250000  0.953270  0.570439  1
  Se  Se17  1  0.750000  0.046730  0.429561  1
  Se  Se18  1  0.750000  0.453270  0.929561  1
  Se  Se19  1  0.250000  0.546730  0.070439  1
  Se  Se20  1  0.750000  0.765789  0.956400  1
  Se  Se21  1  0.250000  0.234211  0.043600  1
  Se  Se22  1  0.250000  0.265789  0.543600  1
  Se  Se23  1  0.750000  0.734211  0.456400  1
  Se  Se24  1  0.250000  0.955007  0.828512  1
  Se  Se25  1  0.750000  0.044993  0.171488  1
  Se  Se26  1  0.750000  0.455007  0.671488  1
  Se  Se27  1  0.250000  0.544993  0.328512  1
  Se  Se28  1  0.750000  0.133474  0.683193  1
  Se  Se29  1  0.250000  0.866526  0.316807  1
  Se  Se30  1  0.250000  0.633474  0.816807  1
  Se  Se31  1  0.750000  0.366526  0.183193  1
  Se  Se32  1  0.750000  0.683698  0.200666  1
  Se  Se33  1  0.250000  0.316302  0.799334  1
  Se  Se34  1  0.250000  0.183698  0.299334  1
  Se  Se35  1  0.750000  0.816302  0.700666  1
