# generated using pymatgen
data_Mn(S8Cl)3
_symmetry_space_group_name_H-M   'P 1'
_cell_length_a   14.97885852
_cell_length_b   14.97885787
_cell_length_c   14.97885806
_cell_angle_alpha   118.81283859
_cell_angle_beta   118.81283965
_cell_angle_gamma   118.81284028
_symmetry_Int_Tables_number   1
_chemical_formula_structural   Mn(S8Cl)3
_chemical_formula_sum   'Mn1 S24 Cl3'
_cell_volume   946.28698138
_cell_formula_units_Z   1
loop_
 _symmetry_equiv_pos_site_id
 _symmetry_equiv_pos_as_xyz
  1  'x, y, z'
loop_
 _atom_site_type_symbol
 _atom_site_label
 _atom_site_symmetry_multiplicity
 _atom_site_fract_x
 _atom_site_fract_y
 _atom_site_fract_z
 _atom_site_occupancy
  Mn  Mn0  1  0.081746  0.081746  0.081746  1
  S  S1  1  0.014727  0.612744  0.612744  1
  S  S2  1  0.612744  0.612744  0.014727  1
  S  S3  1  0.612744  0.014727  0.612744  1
  S  S4  1  0.238198  0.850723  0.720782  1
  S  S5  1  0.850723  0.720782  0.238198  1
  S  S6  1  0.720782  0.238198  0.850723  1
  S  S7  1  0.850723  0.238198  0.720782  1
  S  S8  1  0.238198  0.720782  0.850723  1
  S  S9  1  0.720782  0.850723  0.238198  1
  S  S10  1  0.097879  0.627499  0.443931  1
  S  S11  1  0.627499  0.443931  0.097879  1
  S  S12  1  0.443931  0.097879  0.627499  1
  S  S13  1  0.627499  0.097879  0.443931  1
  S  S14  1  0.097879  0.443931  0.627499  1
  S  S15  1  0.443931  0.627499  0.097879  1
  S  S16  1  0.359292  0.746773  0.616304  1
  S  S17  1  0.746773  0.616304  0.359292  1
  S  S18  1  0.616304  0.359292  0.746773  1
  S  S19  1  0.746773  0.359292  0.616304  1
  S  S20  1  0.359292  0.616304  0.746773  1
  S  S21  1  0.616304  0.746773  0.359292  1
  S  S22  1  0.188046  0.465669  0.465669  1
  S  S23  1  0.465669  0.465669  0.188046  1
  S  S24  1  0.465669  0.188046  0.465669  1
  Cl  Cl25  1  0.164038  0.019477  0.019477  1
  Cl  Cl26  1  0.019477  0.019477  0.164038  1
  Cl  Cl27  1  0.019477  0.164038  0.019477  1
