# generated using pymatgen
data_Ca2LaVO6
_symmetry_space_group_name_H-M   'P 1'
_cell_length_a   7.45372351
_cell_length_b   7.45372274
_cell_length_c   5.66032200
_cell_angle_alpha   90.00000000
_cell_angle_beta   90.00000000
_cell_angle_gamma   105.02806740
_symmetry_Int_Tables_number   1
_chemical_formula_structural   Ca2LaVO6
_chemical_formula_sum   'Ca4 La2 V2 O12'
_cell_volume   303.72068283
_cell_formula_units_Z   2
loop_
 _symmetry_equiv_pos_site_id
 _symmetry_equiv_pos_as_xyz
  1  'x, y, z'
loop_
 _atom_site_type_symbol
 _atom_site_label
 _atom_site_symmetry_multiplicity
 _atom_site_fract_x
 _atom_site_fract_y
 _atom_site_fract_z
 _atom_site_occupancy
  Ca  Ca0  1  0.295821  0.100562  0.763683  1
  Ca  Ca1  1  0.704179  0.899438  0.263683  1
  Ca  Ca2  1  0.100562  0.295821  0.263683  1
  Ca  Ca3  1  0.899438  0.704179  0.763683  1
  La  La4  1  0.400039  0.599961  0.740912  1
  La  La5  1  0.599961  0.400039  0.240912  1
  V  V6  1  0.188233  0.811767  0.302342  1
  V  V7  1  0.811767  0.188233  0.802342  1
  O  O8  1  0.651565  0.666840  0.004399  1
  O  O9  1  0.198581  0.801419  0.990312  1
  O  O10  1  0.404114  0.898613  0.435808  1
  O  O11  1  0.595886  0.101387  0.935808  1
  O  O12  1  0.666840  0.651565  0.504399  1
  O  O13  1  0.050108  0.949892  0.410652  1
  O  O14  1  0.333160  0.348435  0.004399  1
  O  O15  1  0.348435  0.333160  0.504399  1
  O  O16  1  0.949892  0.050108  0.910652  1
  O  O17  1  0.801419  0.198581  0.490312  1
  O  O18  1  0.898613  0.404114  0.935808  1
  O  O19  1  0.101387  0.595886  0.435808  1
