# generated using pymatgen
data_ZrMn2Nb5B14
_symmetry_space_group_name_H-M   'P 1'
_cell_length_a   3.23611400
_cell_length_b   7.35745218
_cell_length_c   8.86277800
_cell_angle_alpha   90.00000000
_cell_angle_beta   90.00000000
_cell_angle_gamma   77.29561692
_symmetry_Int_Tables_number   1
_chemical_formula_structural   ZrMn2Nb5B14
_chemical_formula_sum   'Zr1 Mn2 Nb5 B14'
_cell_volume   205.85257098
_cell_formula_units_Z   1
loop_
 _symmetry_equiv_pos_site_id
 _symmetry_equiv_pos_as_xyz
  1  'x, y, z'
loop_
 _atom_site_type_symbol
 _atom_site_label
 _atom_site_symmetry_multiplicity
 _atom_site_fract_x
 _atom_site_fract_y
 _atom_site_fract_z
 _atom_site_occupancy
  Zr  Zr0  1  0.751040  0.497923  0.250000  1
  Mn  Mn1  1  0.951831  0.096339  0.250000  1
  Mn  Mn2  1  0.049161  0.901679  0.750000  1
  Nb  Nb3  1  0.105150  0.789699  0.051045  1
  Nb  Nb4  1  0.105150  0.789699  0.448954  1
  Nb  Nb5  1  0.893725  0.212553  0.553889  1
  Nb  Nb6  1  0.246786  0.506429  0.750000  1
  Nb  Nb7  1  0.893725  0.212553  0.946112  1
  B  B8  1  0.273895  0.452211  0.029238  1
  B  B9  1  0.485428  0.029146  0.095534  1
  B  B10  1  0.369365  0.261272  0.151072  1
  B  B11  1  0.564791  0.870423  0.250000  1
  B  B12  1  0.369365  0.261272  0.348929  1
  B  B13  1  0.485428  0.029146  0.404466  1
  B  B14  1  0.273895  0.452211  0.470762  1
  B  B15  1  0.727172  0.545660  0.535686  1
  B  B16  1  0.514762  0.970478  0.594808  1
  B  B17  1  0.631082  0.737837  0.652123  1
  B  B18  1  0.435256  0.129489  0.750000  1
  B  B19  1  0.631082  0.737837  0.847876  1
  B  B20  1  0.514762  0.970478  0.905192  1
  B  B21  1  0.727172  0.545660  0.964314  1
