# generated using pymatgen
data_LaHfTcB6
_symmetry_space_group_name_H-M   'P 1'
_cell_length_a   3.69509500
_cell_length_b   9.12059300
_cell_length_c   11.63268400
_cell_angle_alpha   90.00000000
_cell_angle_beta   90.00000000
_cell_angle_gamma   90.00000000
_symmetry_Int_Tables_number   1
_chemical_formula_structural   LaHfTcB6
_chemical_formula_sum   'La4 Hf4 Tc4 B24'
_cell_volume   392.03840650
_cell_formula_units_Z   4
loop_
 _symmetry_equiv_pos_site_id
 _symmetry_equiv_pos_as_xyz
  1  'x, y, z'
loop_
 _atom_site_type_symbol
 _atom_site_label
 _atom_site_symmetry_multiplicity
 _atom_site_fract_x
 _atom_site_fract_y
 _atom_site_fract_z
 _atom_site_occupancy
  La  La0  1  0.000000  0.324381  0.415861  1
  La  La1  1  0.000000  0.675619  0.584139  1
  La  La2  1  0.000000  0.824381  0.084139  1
  La  La3  1  0.000000  0.175619  0.915861  1
  Hf  Hf4  1  0.000000  0.946960  0.372177  1
  Hf  Hf5  1  0.000000  0.053040  0.627823  1
  Hf  Hf6  1  0.000000  0.446960  0.127823  1
  Hf  Hf7  1  0.000000  0.553040  0.872177  1
  Tc  Tc8  1  0.000000  0.644308  0.314574  1
  Tc  Tc9  1  0.000000  0.355692  0.685426  1
  Tc  Tc10  1  0.000000  0.144308  0.185426  1
  Tc  Tc11  1  0.000000  0.855692  0.814574  1
  B  B12  1  0.500000  0.559627  0.426773  1
  B  B13  1  0.500000  0.440373  0.573227  1
  B  B14  1  0.500000  0.059627  0.073227  1
  B  B15  1  0.500000  0.940373  0.926773  1
  B  B16  1  0.500000  0.755250  0.413820  1
  B  B17  1  0.500000  0.244750  0.586180  1
  B  B18  1  0.500000  0.255250  0.086180  1
  B  B19  1  0.500000  0.744750  0.913820  1
  B  B20  1  0.500000  0.796508  0.265025  1
  B  B21  1  0.500000  0.203492  0.734975  1
  B  B22  1  0.500000  0.296508  0.234975  1
  B  B23  1  0.500000  0.703492  0.765025  1
  B  B24  1  0.500000  0.630532  0.182638  1
  B  B25  1  0.500000  0.369468  0.817362  1
  B  B26  1  0.500000  0.130532  0.317362  1
  B  B27  1  0.500000  0.869468  0.682638  1
  B  B28  1  0.500000  0.986246  0.216578  1
  B  B29  1  0.500000  0.013754  0.783422  1
  B  B30  1  0.500000  0.486246  0.283422  1
  B  B31  1  0.500000  0.513754  0.716578  1
  B  B32  1  0.500000  0.597314  0.025014  1
  B  B33  1  0.500000  0.402686  0.974986  1
  B  B34  1  0.500000  0.097314  0.474986  1
  B  B35  1  0.500000  0.902686  0.525014  1
