# generated using pymatgen
data_Tm4Si10TcOs5
_symmetry_space_group_name_H-M   'P 1'
_cell_length_a   8.19101814
_cell_length_b   8.28516607
_cell_length_c   5.62626538
_cell_angle_alpha   70.17814008
_cell_angle_beta   70.01266005
_cell_angle_gamma   95.14630509
_symmetry_Int_Tables_number   1
_chemical_formula_structural   Tm4Si10TcOs5
_chemical_formula_sum   'Tm4 Si10 Tc1 Os5'
_cell_volume   328.30750745
_cell_formula_units_Z   1
loop_
 _symmetry_equiv_pos_site_id
 _symmetry_equiv_pos_as_xyz
  1  'x, y, z'
loop_
 _atom_site_type_symbol
 _atom_site_label
 _atom_site_symmetry_multiplicity
 _atom_site_fract_x
 _atom_site_fract_y
 _atom_site_fract_z
 _atom_site_occupancy
  Tm  Tm0  1  0.871596  0.602613  0.764599  1
  Tm  Tm1  1  0.408640  0.130812  0.728730  1
  Tm  Tm2  1  0.129201  0.396049  0.238206  1
  Tm  Tm3  1  0.592680  0.868408  0.268558  1
  Si  Si4  1  0.080347  0.263753  0.827739  1
  Si  Si5  1  0.727844  0.925082  0.673975  1
  Si  Si6  1  0.922692  0.740639  0.170164  1
  Si  Si7  1  0.268172  0.075031  0.326455  1
  Si  Si8  1  0.209972  0.797450  0.737088  1
  Si  Si9  1  0.787438  0.202132  0.266990  1
  Si  Si10  1  0.500190  0.498648  0.750554  1
  Si  Si11  1  0.500927  0.498347  0.250542  1
  Si  Si12  1  0.788019  0.201105  0.743413  1
  Si  Si13  1  0.209978  0.797632  0.255085  1
  Tc  Tc14  1  0.259917  0.551952  0.593976  1
  Os  Os15  1  0.437682  0.735576  0.913269  1
  Os  Os16  1  0.747135  0.453828  0.400982  1
  Os  Os17  1  0.560763  0.258810  0.088974  1
  Os  Os18  1  0.999864  0.000355  0.749934  1
  Os  Os19  1  0.996944  0.001779  0.250767  1
