# generated using pymatgen
data_Er2Ga(PRh2)6
_symmetry_space_group_name_H-M   'P 1'
_cell_length_a   9.66164500
_cell_length_b   9.66164337
_cell_length_c   3.87012700
_cell_angle_alpha   90.00000000
_cell_angle_beta   90.00000000
_cell_angle_gamma   119.99999530
_symmetry_Int_Tables_number   1
_chemical_formula_structural   Er2Ga(PRh2)6
_chemical_formula_sum   'Er2 Ga1 P6 Rh12'
_cell_volume   312.86569625
_cell_formula_units_Z   1
loop_
 _symmetry_equiv_pos_site_id
 _symmetry_equiv_pos_as_xyz
  1  'x, y, z'
loop_
 _atom_site_type_symbol
 _atom_site_label
 _atom_site_symmetry_multiplicity
 _atom_site_fract_x
 _atom_site_fract_y
 _atom_site_fract_z
 _atom_site_occupancy
  Er  Er0  1  0.333333  0.666667  0.749964  1
  Er  Er1  1  0.666667  0.333333  0.250036  1
  Ga  Ga2  1  0.000000  0.000000  0.500000  1
  P  P3  1  0.403412  0.285478  0.749568  1
  P  P4  1  0.714522  0.117934  0.749568  1
  P  P5  1  0.882066  0.596588  0.749568  1
  P  P6  1  0.596588  0.714522  0.250432  1
  P  P7  1  0.285478  0.882066  0.250432  1
  P  P8  1  0.117934  0.403412  0.250432  1
  Rh  Rh9  1  0.452360  0.067206  0.749755  1
  Rh  Rh10  1  0.932794  0.385153  0.749755  1
  Rh  Rh11  1  0.614847  0.547640  0.749755  1
  Rh  Rh12  1  0.547640  0.932794  0.250245  1
  Rh  Rh13  1  0.067206  0.614847  0.250245  1
  Rh  Rh14  1  0.385153  0.452360  0.250245  1
  Rh  Rh15  1  0.157484  0.279991  0.752893  1
  Rh  Rh16  1  0.720009  0.877493  0.752893  1
  Rh  Rh17  1  0.122507  0.842516  0.752893  1
  Rh  Rh18  1  0.842516  0.720009  0.247107  1
  Rh  Rh19  1  0.279991  0.122507  0.247107  1
  Rh  Rh20  1  0.877493  0.157484  0.247107  1
