# generated using pymatgen
data_ScAlCu3Au
_symmetry_space_group_name_H-M   'P 1'
_cell_length_a   4.95777690
_cell_length_b   4.95777597
_cell_length_c   4.95777733
_cell_angle_alpha   60.46835803
_cell_angle_beta   60.46836335
_cell_angle_gamma   60.46835707
_symmetry_Int_Tables_number   1
_chemical_formula_structural   ScAlCu3Au
_chemical_formula_sum   'Sc1 Al1 Cu3 Au1'
_cell_volume   87.08024233
_cell_formula_units_Z   1
loop_
 _symmetry_equiv_pos_site_id
 _symmetry_equiv_pos_as_xyz
  1  'x, y, z'
loop_
 _atom_site_type_symbol
 _atom_site_label
 _atom_site_symmetry_multiplicity
 _atom_site_fract_x
 _atom_site_fract_y
 _atom_site_fract_z
 _atom_site_occupancy
  Sc  Sc0  1  0.245992  0.245992  0.245992  1
  Al  Al1  1  0.628612  0.628612  0.628612  1
  Cu  Cu2  1  0.625431  0.625431  0.127415  1
  Cu  Cu3  1  0.625431  0.127415  0.625431  1
  Cu  Cu4  1  0.127415  0.625431  0.625431  1
  Au  Au5  1  0.997119  0.997119  0.997119  1
