# generated using pymatgen
data_ThAl3InCo
_symmetry_space_group_name_H-M   'P 1'
_cell_length_a   8.21913614
_cell_length_b   8.21913638
_cell_length_c   6.85540100
_cell_angle_alpha   90.00000000
_cell_angle_beta   90.00000000
_cell_angle_gamma   150.69360969
_symmetry_Int_Tables_number   1
_chemical_formula_structural   ThAl3InCo
_chemical_formula_sum   'Th2 Al6 In2 Co2'
_cell_volume   226.68350555
_cell_formula_units_Z   2
loop_
 _symmetry_equiv_pos_site_id
 _symmetry_equiv_pos_as_xyz
  1  'x, y, z'
loop_
 _atom_site_type_symbol
 _atom_site_label
 _atom_site_symmetry_multiplicity
 _atom_site_fract_x
 _atom_site_fract_y
 _atom_site_fract_z
 _atom_site_occupancy
  Th  Th0  1  0.379138  0.620862  0.750000  1
  Th  Th1  1  0.620862  0.379138  0.250000  1
  Al  Al2  1  0.804482  0.195518  0.058926  1
  Al  Al3  1  0.195518  0.804482  0.941074  1
  Al  Al4  1  0.195518  0.804482  0.558926  1
  Al  Al5  1  0.804482  0.195518  0.441074  1
  Al  Al6  1  0.415977  0.584023  0.250000  1
  Al  Al7  1  0.584023  0.415977  0.750000  1
  In  In8  1  0.000000  0.000000  0.000000  1
  In  In9  1  0.000000  0.000000  0.500000  1
  Co  Co10  1  0.730159  0.269841  0.750000  1
  Co  Co11  1  0.269841  0.730159  0.250000  1
