# generated using pymatgen
data_Ca4InSnPd4
_symmetry_space_group_name_H-M   'P 1'
_cell_length_a   5.85083552
_cell_length_b   5.85083573
_cell_length_c   8.25994523
_cell_angle_alpha   77.66839793
_cell_angle_beta   77.66839907
_cell_angle_gamma   59.29963667
_symmetry_Int_Tables_number   1
_chemical_formula_structural   Ca4InSnPd4
_chemical_formula_sum   'Ca4 In1 Sn1 Pd4'
_cell_volume   235.67240588
_cell_formula_units_Z   1
loop_
 _symmetry_equiv_pos_site_id
 _symmetry_equiv_pos_as_xyz
  1  'x, y, z'
loop_
 _atom_site_type_symbol
 _atom_site_label
 _atom_site_symmetry_multiplicity
 _atom_site_fract_x
 _atom_site_fract_y
 _atom_site_fract_z
 _atom_site_occupancy
  Ca  Ca0  1  0.505551  0.793619  0.348706  1
  Ca  Ca1  1  0.206381  0.494449  0.151294  1
  Ca  Ca2  1  0.496939  0.203761  0.648306  1
  Ca  Ca3  1  0.796239  0.503061  0.851694  1
  In  In4  1  0.151456  0.848544  0.750000  1
  Sn  Sn5  1  0.846439  0.153561  0.250000  1
  Pd  Pd6  1  0.729651  0.004915  0.001067  1
  Pd  Pd7  1  0.995085  0.270349  0.498933  1
  Pd  Pd8  1  0.268951  0.996693  0.999582  1
  Pd  Pd9  1  0.003307  0.731049  0.500418  1
