# generated using pymatgen
data_TmLuSb5
_symmetry_space_group_name_H-M   'P 1'
_cell_length_a   4.20111800
_cell_length_b   13.10692755
_cell_length_c   14.44086181
_cell_angle_alpha   78.53614013
_cell_angle_beta   90.00000000
_cell_angle_gamma   90.00000000
_symmetry_Int_Tables_number   1
_chemical_formula_structural   TmLuSb5
_chemical_formula_sum   'Tm4 Lu4 Sb20'
_cell_volume   779.30460181
_cell_formula_units_Z   4
loop_
 _symmetry_equiv_pos_site_id
 _symmetry_equiv_pos_as_xyz
  1  'x, y, z'
loop_
 _atom_site_type_symbol
 _atom_site_label
 _atom_site_symmetry_multiplicity
 _atom_site_fract_x
 _atom_site_fract_y
 _atom_site_fract_z
 _atom_site_occupancy
  Tm  Tm0  1  0.250000  0.668055  0.576696  1
  Tm  Tm1  1  0.750000  0.331945  0.423304  1
  Tm  Tm2  1  0.250000  0.955031  0.360167  1
  Tm  Tm3  1  0.750000  0.044969  0.639833  1
  Lu  Lu4  1  0.250000  0.393135  0.771739  1
  Lu  Lu5  1  0.750000  0.606865  0.228261  1
  Lu  Lu6  1  0.250000  0.660943  0.855232  1
  Lu  Lu7  1  0.750000  0.339057  0.144768  1
  Sb  Sb8  1  0.250000  0.142705  0.776048  1
  Sb  Sb9  1  0.750000  0.857295  0.223952  1
  Sb  Sb10  1  0.250000  0.144909  0.482620  1
  Sb  Sb11  1  0.750000  0.855091  0.517380  1
  Sb  Sb12  1  0.250000  0.153399  0.167210  1
  Sb  Sb13  1  0.750000  0.846601  0.832790  1
  Sb  Sb14  1  0.250000  0.420705  0.976354  1
  Sb  Sb15  1  0.750000  0.579295  0.023646  1
  Sb  Sb16  1  0.750000  0.030617  0.914707  1
  Sb  Sb17  1  0.250000  0.969383  0.085293  1
  Sb  Sb18  1  0.750000  0.140192  0.320083  1
  Sb  Sb19  1  0.250000  0.859808  0.679917  1
  Sb  Sb20  1  0.750000  0.277744  0.938860  1
  Sb  Sb21  1  0.250000  0.722256  0.061140  1
  Sb  Sb22  1  0.750000  0.283944  0.653837  1
  Sb  Sb23  1  0.250000  0.716056  0.346163  1
  Sb  Sb24  1  0.750000  0.574372  0.735408  1
  Sb  Sb25  1  0.250000  0.425628  0.264592  1
  Sb  Sb26  1  0.750000  0.571153  0.446671  1
  Sb  Sb27  1  0.250000  0.428847  0.553329  1
