# generated using pymatgen
data_HfTi5Te8
_symmetry_space_group_name_H-M   'P 1'
_cell_length_a   10.62968910
_cell_length_b   10.68249885
_cell_length_c   3.83698900
_cell_angle_alpha   90.00000000
_cell_angle_beta   90.00000000
_cell_angle_gamma   119.43581163
_symmetry_Int_Tables_number   1
_chemical_formula_structural   HfTi5Te8
_chemical_formula_sum   'Hf1 Ti5 Te8'
_cell_volume   379.45096205
_cell_formula_units_Z   1
loop_
 _symmetry_equiv_pos_site_id
 _symmetry_equiv_pos_as_xyz
  1  'x, y, z'
loop_
 _atom_site_type_symbol
 _atom_site_label
 _atom_site_symmetry_multiplicity
 _atom_site_fract_x
 _atom_site_fract_y
 _atom_site_fract_z
 _atom_site_occupancy
  Hf  Hf0  1  0.489151  0.123511  0.250000  1
  Ti  Ti1  1  0.126020  0.632234  0.750000  1
  Ti  Ti2  1  0.367183  0.496716  0.750000  1
  Ti  Ti3  1  0.508653  0.874410  0.750000  1
  Ti  Ti4  1  0.874733  0.363468  0.250000  1
  Ti  Ti5  1  0.634273  0.510156  0.250000  1
  Te  Te6  1  0.671098  0.338541  0.750000  1
  Te  Te7  1  0.334501  0.669331  0.250000  1
  Te  Te8  1  0.282208  0.939374  0.750000  1
  Te  Te9  1  0.053730  0.346862  0.750000  1
  Te  Te10  1  0.653999  0.706344  0.750000  1
  Te  Te11  1  0.711917  0.049411  0.250000  1
  Te  Te12  1  0.946542  0.649602  0.250000  1
  Te  Te13  1  0.345993  0.300039  0.250000  1
