# generated using pymatgen
data_Ta3TiB4(AsRu5)2
_symmetry_space_group_name_H-M   'P 1'
_cell_length_a   9.31239937
_cell_length_b   9.31239937
_cell_length_c   2.98882500
_cell_angle_alpha   90.00000000
_cell_angle_beta   90.00000000
_cell_angle_gamma   89.74882469
_symmetry_Int_Tables_number   1
_chemical_formula_structural   Ta3TiB4(AsRu5)2
_chemical_formula_sum   'Ta3 Ti1 B4 As2 Ru10'
_cell_volume   259.19075079
_cell_formula_units_Z   1
loop_
 _symmetry_equiv_pos_site_id
 _symmetry_equiv_pos_as_xyz
  1  'x, y, z'
loop_
 _atom_site_type_symbol
 _atom_site_label
 _atom_site_symmetry_multiplicity
 _atom_site_fract_x
 _atom_site_fract_y
 _atom_site_fract_z
 _atom_site_occupancy
  Ta  Ta0  1  0.173771  0.326229  0.000000  1
  Ta  Ta1  1  0.324934  0.824119  0.000000  1
  Ta  Ta2  1  0.675881  0.175066  0.000000  1
  Ti  Ti3  1  0.824734  0.675266  0.000000  1
  B  B4  1  0.625161  0.874839  0.000000  1
  B  B5  1  0.375581  0.124419  0.000000  1
  B  B6  1  0.123077  0.623652  0.000000  1
  B  B7  1  0.876348  0.376923  0.000000  1
  As  As8  1  0.501918  0.500858  0.000000  1
  As  As9  1  0.999142  0.998082  0.000000  1
  Ru  Ru10  1  0.569958  0.712987  0.500000  1
  Ru  Ru11  1  0.430300  0.287228  0.500000  1
  Ru  Ru12  1  0.071644  0.787605  0.500000  1
  Ru  Ru13  1  0.931541  0.212984  0.500000  1
  Ru  Ru14  1  0.287016  0.568459  0.500000  1
  Ru  Ru15  1  0.712395  0.428356  0.500000  1
  Ru  Ru16  1  0.212772  0.069700  0.500000  1
  Ru  Ru17  1  0.787013  0.930042  0.500000  1
  Ru  Ru18  1  0.500160  0.999840  0.500000  1
  Ru  Ru19  1  0.996655  0.503345  0.500000  1
