# generated using pymatgen
data_Ho12AlInCo4
_symmetry_space_group_name_H-M   'P 1'
_cell_length_a   8.32613540
_cell_length_b   8.32613645
_cell_length_c   8.32613600
_cell_angle_alpha   106.88217086
_cell_angle_beta   109.44818365
_cell_angle_gamma   112.12579540
_symmetry_Int_Tables_number   1
_chemical_formula_structural   Ho12AlInCo4
_chemical_formula_sum   'Ho12 Al1 In1 Co4'
_cell_volume   443.40209812
_cell_formula_units_Z   1
loop_
 _symmetry_equiv_pos_site_id
 _symmetry_equiv_pos_as_xyz
  1  'x, y, z'
loop_
 _atom_site_type_symbol
 _atom_site_label
 _atom_site_symmetry_multiplicity
 _atom_site_fract_x
 _atom_site_fract_y
 _atom_site_fract_z
 _atom_site_occupancy
  Ho  Ho0  1  0.298572  0.266703  0.565303  1
  Ho  Ho1  1  0.701428  0.733297  0.434697  1
  Ho  Ho2  1  0.298601  0.733297  0.031869  1
  Ho  Ho3  1  0.701399  0.266703  0.968131  1
  Ho  Ho4  1  0.187691  0.511331  0.323640  1
  Ho  Ho5  1  0.187794  0.864164  0.676370  1
  Ho  Ho6  1  0.812309  0.488669  0.676360  1
  Ho  Ho7  1  0.812206  0.135836  0.323630  1
  Ho  Ho8  1  0.398150  0.216359  0.181825  1
  Ho  Ho9  1  0.034532  0.216359  0.818208  1
  Ho  Ho10  1  0.965468  0.783641  0.181792  1
  Ho  Ho11  1  0.601850  0.783641  0.818175  1
  Al  Al12  1  0.500000  0.500000  0.000000  1
  In  In13  1  0.500000  0.000000  0.500000  1
  Co  Co14  1  0.160287  0.500000  0.660287  1
  Co  Co15  1  0.839713  0.500000  0.339713  1
  Co  Co16  1  0.000005  0.113901  0.113896  1
  Co  Co17  1  0.999995  0.886099  0.886104  1
