# generated using pymatgen
data_Sc12IrRuPtBr16
_symmetry_space_group_name_H-M   'P 1'
_cell_length_a   8.95832303
_cell_length_b   11.00733857
_cell_length_c   11.67542527
_cell_angle_alpha   116.71377517
_cell_angle_beta   101.80021741
_cell_angle_gamma   101.41799089
_symmetry_Int_Tables_number   1
_chemical_formula_structural   Sc12IrRuPtBr16
_chemical_formula_sum   'Sc12 Ir1 Ru1 Pt1 Br16'
_cell_volume   949.72842745
_cell_formula_units_Z   1
loop_
 _symmetry_equiv_pos_site_id
 _symmetry_equiv_pos_as_xyz
  1  'x, y, z'
loop_
 _atom_site_type_symbol
 _atom_site_label
 _atom_site_symmetry_multiplicity
 _atom_site_fract_x
 _atom_site_fract_y
 _atom_site_fract_z
 _atom_site_occupancy
  Sc  Sc0  1  0.082528  0.252814  0.346719  1
  Sc  Sc1  1  0.915509  0.747437  0.651479  1
  Sc  Sc2  1  0.773685  0.538768  0.317174  1
  Sc  Sc3  1  0.226163  0.463977  0.682497  1
  Sc  Sc4  1  0.286041  0.748124  0.653648  1
  Sc  Sc5  1  0.712859  0.251703  0.348230  1
  Sc  Sc6  1  0.143484  0.535962  0.318214  1
  Sc  Sc7  1  0.855298  0.461380  0.682146  1
  Sc  Sc8  1  0.400283  0.348527  0.259238  1
  Sc  Sc9  1  0.601607  0.651559  0.740884  1
  Sc  Sc10  1  0.456213  0.298987  0.520780  1
  Sc  Sc11  1  0.543885  0.700990  0.479235  1
  Ir  Ir12  1  0.660094  0.499863  0.500646  1
  Ru  Ru13  1  0.337500  0.500175  0.499419  1
  Pt  Pt14  1  0.999051  0.499994  0.500083  1
  Br  Br15  1  0.397620  0.746304  0.892020  1
  Br  Br16  1  0.603137  0.254400  0.109054  1
  Br  Br17  1  0.192371  0.975694  0.788535  1
  Br  Br18  1  0.807358  0.024426  0.211465  1
  Br  Br19  1  0.336967  0.085832  0.246192  1
  Br  Br20  1  0.666314  0.914180  0.753816  1
  Br  Br21  1  0.555816  0.435987  0.803989  1
  Br  Br22  1  0.445479  0.564094  0.195992  1
  Br  Br23  1  0.309096  0.831488  0.461988  1
  Br  Br24  1  0.689862  0.166123  0.538171  1
  Br  Br25  1  0.164958  0.167023  0.533563  1
  Br  Br26  1  0.835453  0.834968  0.465950  1
  Br  Br27  1  0.926381  0.579273  0.155493  1
  Br  Br28  1  0.075037  0.420580  0.844354  1
  Br  Br29  1  0.928666  0.744023  0.891200  1
  Br  Br30  1  0.071283  0.255345  0.107829  1
