# generated using pymatgen
data_Y2ThNi9
_symmetry_space_group_name_H-M   'P 1'
_cell_length_a   8.70658122
_cell_length_b   8.70658090
_cell_length_c   8.70658034
_cell_angle_alpha   33.22406929
_cell_angle_beta   33.22407471
_cell_angle_gamma   33.22406909
_symmetry_Int_Tables_number   1
_chemical_formula_structural   Y2ThNi9
_chemical_formula_sum   'Y2 Th1 Ni9'
_cell_volume   176.39036253
_cell_formula_units_Z   1
loop_
 _symmetry_equiv_pos_site_id
 _symmetry_equiv_pos_as_xyz
  1  'x, y, z'
loop_
 _atom_site_type_symbol
 _atom_site_label
 _atom_site_symmetry_multiplicity
 _atom_site_fract_x
 _atom_site_fract_y
 _atom_site_fract_z
 _atom_site_occupancy
  Y  Y0  1  0.860151  0.860151  0.860151  1
  Y  Y1  1  0.139849  0.139849  0.139849  1
  Th  Th2  1  0.000000  0.000000  0.000000  1
  Ni  Ni3  1  0.417073  0.417073  0.917941  1
  Ni  Ni4  1  0.917941  0.417073  0.417073  1
  Ni  Ni5  1  0.500000  0.500000  0.500000  1
  Ni  Ni6  1  0.582927  0.082059  0.582927  1
  Ni  Ni7  1  0.582927  0.582927  0.082059  1
  Ni  Ni8  1  0.333229  0.333229  0.333229  1
  Ni  Ni9  1  0.417073  0.917941  0.417073  1
  Ni  Ni10  1  0.666771  0.666771  0.666771  1
  Ni  Ni11  1  0.082059  0.582927  0.582927  1
