# generated using pymatgen
data_Rb3Pr(PO4)2
_symmetry_space_group_name_H-M   'P 1'
_cell_length_a   5.89330800
_cell_length_b   5.89330812
_cell_length_c   8.25729300
_cell_angle_alpha   90.00000000
_cell_angle_beta   90.00000000
_cell_angle_gamma   120.00001056
_symmetry_Int_Tables_number   1
_chemical_formula_structural   Rb3Pr(PO4)2
_chemical_formula_sum   'Rb3 Pr1 P2 O8'
_cell_volume   248.36281161
_cell_formula_units_Z   1
loop_
 _symmetry_equiv_pos_site_id
 _symmetry_equiv_pos_as_xyz
  1  'x, y, z'
loop_
 _atom_site_type_symbol
 _atom_site_label
 _atom_site_symmetry_multiplicity
 _atom_site_fract_x
 _atom_site_fract_y
 _atom_site_fract_z
 _atom_site_occupancy
  Rb  Rb0  1  0.333333  0.666667  0.748114  1
  Rb  Rb1  1  0.666667  0.333333  0.251886  1
  Rb  Rb2  1  0.000000  0.000000  0.000000  1
  Pr  Pr3  1  0.000000  0.000000  0.500000  1
  P  P4  1  0.333333  0.666667  0.264124  1
  P  P5  1  0.666667  0.333333  0.735876  1
  O  O6  1  0.333333  0.666667  0.079341  1
  O  O7  1  0.666667  0.333333  0.920659  1
  O  O8  1  0.189250  0.810750  0.331298  1
  O  O9  1  0.810750  0.189250  0.668702  1
  O  O10  1  0.189250  0.378501  0.331298  1
  O  O11  1  0.810750  0.621499  0.668702  1
  O  O12  1  0.621499  0.810750  0.331298  1
  O  O13  1  0.378501  0.189250  0.668702  1
