# generated using pymatgen
data_TbV(PRh)2
_symmetry_space_group_name_H-M   'P 1'
_cell_length_a   3.89233600
_cell_length_b   10.96030863
_cell_length_c   13.09606990
_cell_angle_alpha   89.93781563
_cell_angle_beta   90.00000000
_cell_angle_gamma   90.00000000
_symmetry_Int_Tables_number   1
_chemical_formula_structural   TbV(PRh)2
_chemical_formula_sum   'Tb6 V6 P12 Rh12'
_cell_volume   558.69377900
_cell_formula_units_Z   6
loop_
 _symmetry_equiv_pos_site_id
 _symmetry_equiv_pos_as_xyz
  1  'x, y, z'
loop_
 _atom_site_type_symbol
 _atom_site_label
 _atom_site_symmetry_multiplicity
 _atom_site_fract_x
 _atom_site_fract_y
 _atom_site_fract_z
 _atom_site_occupancy
  Tb  Tb0  1  0.000000  0.500291  0.517342  1
  Tb  Tb1  1  0.500000  0.999281  0.483703  1
  Tb  Tb2  1  0.500000  0.822571  0.201933  1
  Tb  Tb3  1  0.500000  0.182279  0.205657  1
  Tb  Tb4  1  0.000000  0.679846  0.790734  1
  Tb  Tb5  1  0.000000  0.317511  0.786441  1
  V  V6  1  0.500000  0.503197  0.165019  1
  V  V7  1  0.000000  0.001249  0.843883  1
  V  V8  1  0.000000  0.491829  0.985683  1
  V  V9  1  0.500000  0.344858  0.999721  1
  V  V10  1  0.500000  0.645915  0.999875  1
  V  V11  1  0.000000  0.187811  0.000363  1
  P  P12  1  0.500000  0.498201  0.868815  1
  P  P13  1  0.000000  0.008876  0.113506  1
  P  P14  1  0.500000  0.500439  0.348394  1
  P  P15  1  0.000000  0.998906  0.657412  1
  P  P16  1  0.500000  0.310155  0.614291  1
  P  P17  1  0.500000  0.689565  0.615368  1
  P  P18  1  0.000000  0.182903  0.383557  1
  P  P19  1  0.000000  0.816190  0.383725  1
  P  P20  1  0.500000  0.838875  0.892199  1
  P  P21  1  0.500000  0.160852  0.887649  1
  P  P22  1  0.000000  0.646951  0.115994  1
  P  P23  1  0.000000  0.349356  0.121151  1
  Rh  Rh24  1  0.500000  0.499804  0.691237  1
  Rh  Rh25  1  0.000000  0.998973  0.294928  1
  Rh  Rh26  1  0.500000  0.003486  0.009926  1
  Rh  Rh27  1  0.000000  0.821715  0.004635  1
  Rh  Rh28  1  0.500000  0.289977  0.433270  1
  Rh  Rh29  1  0.500000  0.709059  0.432775  1
  Rh  Rh30  1  0.000000  0.200938  0.567180  1
  Rh  Rh31  1  0.000000  0.796881  0.568738  1
  Rh  Rh32  1  0.500000  0.873736  0.712834  1
  Rh  Rh33  1  0.500000  0.123386  0.709662  1
  Rh  Rh34  1  0.000000  0.627850  0.294478  1
  Rh  Rh35  1  0.000000  0.376289  0.297923  1
