# generated using pymatgen
data_Th2Si7Rh12
_symmetry_space_group_name_H-M   'P 1'
_cell_length_a   9.81595500
_cell_length_b   9.81595578
_cell_length_c   3.90069800
_cell_angle_alpha   90.00000000
_cell_angle_beta   90.00000000
_cell_angle_gamma   120.00000075
_symmetry_Int_Tables_number   1
_chemical_formula_structural   Th2Si7Rh12
_chemical_formula_sum   'Th2 Si7 Rh12'
_cell_volume   325.49034294
_cell_formula_units_Z   1
loop_
 _symmetry_equiv_pos_site_id
 _symmetry_equiv_pos_as_xyz
  1  'x, y, z'
loop_
 _atom_site_type_symbol
 _atom_site_label
 _atom_site_symmetry_multiplicity
 _atom_site_fract_x
 _atom_site_fract_y
 _atom_site_fract_z
 _atom_site_occupancy
  Th  Th0  1  0.000000  0.000000  0.749676  1
  Th  Th1  1  0.333333  0.666667  0.251642  1
  Si  Si2  1  0.666667  0.333333  0.526158  1
  Si  Si3  1  0.061703  0.623045  0.751776  1
  Si  Si4  1  0.376955  0.438657  0.751776  1
  Si  Si5  1  0.561343  0.938297  0.751776  1
  Si  Si6  1  0.271288  0.042923  0.249466  1
  Si  Si7  1  0.957077  0.228365  0.249466  1
  Si  Si8  1  0.771635  0.728712  0.249466  1
  Rh  Rh9  1  0.807844  0.597059  0.746950  1
  Rh  Rh10  1  0.402941  0.210783  0.746950  1
  Rh  Rh11  1  0.789217  0.192156  0.746950  1
  Rh  Rh12  1  0.527344  0.073249  0.254888  1
  Rh  Rh13  1  0.926751  0.454095  0.254888  1
  Rh  Rh14  1  0.545905  0.472656  0.254888  1
  Rh  Rh15  1  0.112543  0.399981  0.752359  1
  Rh  Rh16  1  0.600019  0.712562  0.752359  1
  Rh  Rh17  1  0.287438  0.887457  0.752359  1
  Rh  Rh18  1  0.221321  0.267771  0.248717  1
  Rh  Rh19  1  0.732229  0.953550  0.248717  1
  Rh  Rh20  1  0.046450  0.778679  0.248717  1
