# generated using pymatgen
data_Sc8CdAg3Hg4
_symmetry_space_group_name_H-M   'P 1'
_cell_length_a   6.98523704
_cell_length_b   6.98880600
_cell_length_c   7.01772304
_cell_angle_alpha   90.00000000
_cell_angle_beta   90.01180016
_cell_angle_gamma   90.00000000
_symmetry_Int_Tables_number   1
_chemical_formula_structural   Sc8CdAg3Hg4
_chemical_formula_sum   'Sc8 Cd1 Ag3 Hg4'
_cell_volume   342.59446984
_cell_formula_units_Z   1
loop_
 _symmetry_equiv_pos_site_id
 _symmetry_equiv_pos_as_xyz
  1  'x, y, z'
loop_
 _atom_site_type_symbol
 _atom_site_label
 _atom_site_symmetry_multiplicity
 _atom_site_fract_x
 _atom_site_fract_y
 _atom_site_fract_z
 _atom_site_occupancy
  Sc  Sc0  1  0.746777  0.004601  0.253455  1
  Sc  Sc1  1  0.746777  0.495399  0.253455  1
  Sc  Sc2  1  0.253962  0.497668  0.254099  1
  Sc  Sc3  1  0.253962  0.002334  0.254099  1
  Sc  Sc4  1  0.746083  0.004443  0.745990  1
  Sc  Sc5  1  0.746083  0.495557  0.745990  1
  Sc  Sc6  1  0.253244  0.497557  0.746693  1
  Sc  Sc7  1  0.253244  0.002445  0.746693  1
  Cd  Cd8  1  0.998695  0.750001  0.000811  1
  Ag  Ag9  1  0.498666  0.250000  0.498495  1
  Ag  Ag10  1  0.501321  0.750001  0.501521  1
  Ag  Ag11  1  0.001274  0.250000  0.998539  1
  Hg  Hg12  1  0.498032  0.250000  0.000558  1
  Hg  Hg13  1  0.997966  0.750001  0.499520  1
  Hg  Hg14  1  0.002001  0.250000  0.500612  1
  Hg  Hg15  1  0.501913  0.750001  0.999470  1
