# generated using pymatgen
data_Ta3Be15Nb3Cu8
_symmetry_space_group_name_H-M   'P 1'
_cell_length_a   7.69365961
_cell_length_b   7.64335106
_cell_length_c   7.65458694
_cell_angle_alpha   60.38688502
_cell_angle_beta   59.73423334
_cell_angle_gamma   59.87888383
_symmetry_Int_Tables_number   1
_chemical_formula_structural   Ta3Be15Nb3Cu8
_chemical_formula_sum   'Ta3 Be15 Nb3 Cu8'
_cell_volume   318.26754684
_cell_formula_units_Z   1
loop_
 _symmetry_equiv_pos_site_id
 _symmetry_equiv_pos_as_xyz
  1  'x, y, z'
loop_
 _atom_site_type_symbol
 _atom_site_label
 _atom_site_symmetry_multiplicity
 _atom_site_fract_x
 _atom_site_fract_y
 _atom_site_fract_z
 _atom_site_occupancy
  Ta  Ta0  1  0.197942  0.800996  0.199004  1
  Ta  Ta1  1  0.800996  0.197942  0.802058  1
  Ta  Ta2  1  0.801868  0.801868  0.198132  1
  Be  Be3  1  0.500015  0.500015  0.499985  1
  Be  Be4  1  0.500219  0.500219  0.999781  1
  Be  Be5  1  0.000055  0.499747  0.500253  1
  Be  Be6  1  0.499747  0.000055  0.999945  1
  Be  Be7  1  0.000219  0.000219  0.499781  1
  Be  Be8  1  0.999838  0.500116  0.000162  1
  Be  Be9  1  0.500116  0.999838  0.499884  1
  Be  Be10  1  0.827687  0.520909  0.824128  1
  Be  Be11  1  0.172723  0.175872  0.479091  1
  Be  Be12  1  0.479575  0.172041  0.172601  1
  Be  Be13  1  0.175872  0.172723  0.172313  1
  Be  Be14  1  0.520909  0.827687  0.827277  1
  Be  Be15  1  0.824218  0.827399  0.827959  1
  Be  Be16  1  0.827399  0.824218  0.520425  1
  Be  Be17  1  0.172041  0.479575  0.175782  1
  Nb  Nb18  1  0.198349  0.198349  0.801651  1
  Nb  Nb19  1  0.178380  0.821140  0.821620  1
  Nb  Nb20  1  0.821140  0.178380  0.178860  1
  Cu  Cu21  1  0.625217  0.131708  0.618868  1
  Cu  Cu22  1  0.375794  0.381132  0.868292  1
  Cu  Cu23  1  0.867860  0.375563  0.375918  1
  Cu  Cu24  1  0.381132  0.375794  0.374783  1
  Cu  Cu25  1  0.131708  0.625217  0.624206  1
  Cu  Cu26  1  0.619339  0.624082  0.624437  1
  Cu  Cu27  1  0.624082  0.619339  0.132140  1
  Cu  Cu28  1  0.375563  0.867860  0.380661  1
