# generated using pymatgen
data_GdEr(ReN3)2
_symmetry_space_group_name_H-M   'P 1'
_cell_length_a   7.36812004
_cell_length_b   7.36812018
_cell_length_c   6.28179447
_cell_angle_alpha   73.34231972
_cell_angle_beta   73.34231935
_cell_angle_gamma   82.75136436
_symmetry_Int_Tables_number   1
_chemical_formula_structural   GdEr(ReN3)2
_chemical_formula_sum   'Gd2 Er2 Re4 N12'
_cell_volume   312.65088457
_cell_formula_units_Z   2
loop_
 _symmetry_equiv_pos_site_id
 _symmetry_equiv_pos_as_xyz
  1  'x, y, z'
loop_
 _atom_site_type_symbol
 _atom_site_label
 _atom_site_symmetry_multiplicity
 _atom_site_fract_x
 _atom_site_fract_y
 _atom_site_fract_z
 _atom_site_occupancy
  Gd  Gd0  1  0.707979  0.292021  0.250000  1
  Gd  Gd1  1  0.292021  0.707979  0.750000  1
  Er  Er2  1  0.907531  0.092469  0.750000  1
  Er  Er3  1  0.092469  0.907531  0.250000  1
  Re  Re4  1  0.622330  0.796183  0.274295  1
  Re  Re5  1  0.203817  0.377670  0.225705  1
  Re  Re6  1  0.377670  0.203817  0.725705  1
  Re  Re7  1  0.796183  0.622330  0.774295  1
  N  N8  1  0.661403  0.640844  0.072092  1
  N  N9  1  0.373327  0.872050  0.337236  1
  N  N10  1  0.359156  0.338597  0.427908  1
  N  N11  1  0.127950  0.626673  0.162764  1
  N  N12  1  0.006992  0.215711  0.343710  1
  N  N13  1  0.784289  0.993008  0.156290  1
  N  N14  1  0.215711  0.006992  0.843710  1
  N  N15  1  0.626673  0.127950  0.662764  1
  N  N16  1  0.338597  0.359156  0.927908  1
  N  N17  1  0.872050  0.373327  0.837236  1
  N  N18  1  0.640844  0.661403  0.572092  1
  N  N19  1  0.993008  0.784289  0.656290  1
