# generated using pymatgen
data_Dy20IrRu11
_symmetry_space_group_name_H-M   'P 1'
_cell_length_a   10.82863621
_cell_length_b   10.82863621
_cell_length_c   6.39122415
_cell_angle_alpha   89.98256019
_cell_angle_beta   89.98256019
_cell_angle_gamma   90.01411543
_symmetry_Int_Tables_number   1
_chemical_formula_structural   Dy20IrRu11
_chemical_formula_sum   'Dy20 Ir1 Ru11'
_cell_volume   749.43077455
_cell_formula_units_Z   1
loop_
 _symmetry_equiv_pos_site_id
 _symmetry_equiv_pos_as_xyz
  1  'x, y, z'
loop_
 _atom_site_type_symbol
 _atom_site_label
 _atom_site_symmetry_multiplicity
 _atom_site_fract_x
 _atom_site_fract_y
 _atom_site_fract_z
 _atom_site_occupancy
  Dy  Dy0  1  0.292245  0.087097  0.377495  1
  Dy  Dy1  1  0.292296  0.913531  0.877713  1
  Dy  Dy2  1  0.707955  0.087291  0.877559  1
  Dy  Dy3  1  0.707828  0.912836  0.377419  1
  Dy  Dy4  1  0.587469  0.792583  0.877569  1
  Dy  Dy5  1  0.587265  0.207440  0.377227  1
  Dy  Dy6  1  0.413072  0.793075  0.377042  1
  Dy  Dy7  1  0.412734  0.207922  0.877456  1
  Dy  Dy8  1  0.207417  0.412531  0.622431  1
  Dy  Dy9  1  0.206925  0.586928  0.122958  1
  Dy  Dy10  1  0.792560  0.412735  0.122773  1
  Dy  Dy11  1  0.792078  0.587266  0.622544  1
  Dy  Dy12  1  0.912903  0.707755  0.122505  1
  Dy  Dy13  1  0.912709  0.292045  0.622441  1
  Dy  Dy14  1  0.086469  0.707704  0.622287  1
  Dy  Dy15  1  0.087164  0.292172  0.122581  1
  Dy  Dy16  1  0.999962  0.000166  0.500041  1
  Dy  Dy17  1  0.999834  0.000038  0.999959  1
  Dy  Dy18  1  0.501039  0.499331  0.000984  1
  Dy  Dy19  1  0.500669  0.498961  0.499016  1
  Ir  Ir20  1  0.346468  0.653532  0.750000  1
  Ru  Ru21  1  0.846997  0.153003  0.250000  1
  Ru  Ru22  1  0.847001  0.846886  0.749874  1
  Ru  Ru23  1  0.153114  0.152999  0.750126  1
  Ru  Ru24  1  0.153573  0.846427  0.250000  1
  Ru  Ru25  1  0.652711  0.347289  0.750000  1
  Ru  Ru26  1  0.652302  0.653006  0.250094  1
  Ru  Ru27  1  0.346994  0.347698  0.249906  1
  Ru  Ru28  1  0.499968  0.999629  0.124087  1
  Ru  Ru29  1  0.499948  0.000040  0.624468  1
  Ru  Ru30  1  0.999960  0.500052  0.875532  1
  Ru  Ru31  1  0.000371  0.500032  0.375913  1
