# generated using pymatgen
data_YbErPa2Ge6Os7
_symmetry_space_group_name_H-M   'P 1'
_cell_length_a   7.25231458
_cell_length_b   7.22445644
_cell_length_c   7.24643464
_cell_angle_alpha   109.36405500
_cell_angle_beta   109.53890437
_cell_angle_gamma   109.41627315
_symmetry_Int_Tables_number   1
_chemical_formula_structural   YbErPa2Ge6Os7
_chemical_formula_sum   'Yb1 Er1 Pa2 Ge6 Os7'
_cell_volume   292.60961293
_cell_formula_units_Z   1
loop_
 _symmetry_equiv_pos_site_id
 _symmetry_equiv_pos_as_xyz
  1  'x, y, z'
loop_
 _atom_site_type_symbol
 _atom_site_label
 _atom_site_symmetry_multiplicity
 _atom_site_fract_x
 _atom_site_fract_y
 _atom_site_fract_z
 _atom_site_occupancy
  Yb  Yb0  1  0.000000  0.000000  0.500000  1
  Er  Er1  1  0.000000  0.500000  0.000000  1
  Pa  Pa2  1  0.500000  0.000000  0.000000  1
  Pa  Pa3  1  0.500000  0.500000  0.500000  1
  Ge  Ge4  1  0.697166  0.691745  0.009177  1
  Ge  Ge5  1  0.302834  0.994579  0.312011  1
  Ge  Ge6  1  0.000000  0.309269  0.312453  1
  Ge  Ge7  1  0.302834  0.308255  0.990823  1
  Ge  Ge8  1  0.697166  0.005421  0.687989  1
  Ge  Ge9  1  0.000000  0.690731  0.687547  1
  Os  Os10  1  0.742825  0.249577  0.494219  1
  Os  Os11  1  0.742825  0.493248  0.248606  1
  Os  Os12  1  0.501533  0.250767  0.750767  1
  Os  Os13  1  0.257175  0.506752  0.751394  1
  Os  Os14  1  0.257175  0.750423  0.505781  1
  Os  Os15  1  0.498467  0.749233  0.249233  1
  Os  Os16  1  0.000000  0.000000  0.000000  1
