# generated using pymatgen
data_Ba10V6O25
_symmetry_space_group_name_H-M   'P 1'
_cell_length_a   8.03423900
_cell_length_b   10.75394185
_cell_length_c   18.63361400
_cell_angle_alpha   89.91862184
_cell_angle_beta   90.00000000
_cell_angle_gamma   90.00000000
_symmetry_Int_Tables_number   1
_chemical_formula_structural   Ba10V6O25
_chemical_formula_sum   'Ba20 V12 O50'
_cell_volume   1609.93776219
_cell_formula_units_Z   2
loop_
 _symmetry_equiv_pos_site_id
 _symmetry_equiv_pos_as_xyz
  1  'x, y, z'
loop_
 _atom_site_type_symbol
 _atom_site_label
 _atom_site_symmetry_multiplicity
 _atom_site_fract_x
 _atom_site_fract_y
 _atom_site_fract_z
 _atom_site_occupancy
  Ba  Ba0  1  0.493201  0.245130  0.081260  1
  Ba  Ba1  1  0.998158  0.242105  0.082630  1
  Ba  Ba2  1  0.497644  0.243026  0.416811  1
  Ba  Ba3  1  0.999579  0.247897  0.414173  1
  Ba  Ba4  1  0.748791  0.136461  0.632205  1
  Ba  Ba5  1  0.746742  0.124503  0.863276  1
  Ba  Ba6  1  0.246876  0.971835  0.744327  1
  Ba  Ba7  1  0.746876  0.028165  0.255673  1
  Ba  Ba8  1  0.246742  0.875497  0.136724  1
  Ba  Ba9  1  0.248791  0.863539  0.367795  1
  Ba  Ba10  1  0.499579  0.752103  0.585827  1
  Ba  Ba11  1  0.997644  0.756974  0.583189  1
  Ba  Ba12  1  0.498158  0.757895  0.917370  1
  Ba  Ba13  1  0.993201  0.754870  0.918740  1
  Ba  Ba14  1  0.746419  0.624054  0.109881  1
  Ba  Ba15  1  0.748171  0.606171  0.383131  1
  Ba  Ba16  1  0.247955  0.525151  0.246514  1
  Ba  Ba17  1  0.747955  0.474849  0.753486  1
  Ba  Ba18  1  0.248171  0.393829  0.616869  1
  Ba  Ba19  1  0.246419  0.375946  0.890119  1
  V  V20  1  0.248687  0.145081  0.266711  1
  V  V21  1  0.249110  0.085701  0.554868  1
  V  V22  1  0.246302  0.035223  0.929476  1
  V  V23  1  0.746302  0.964777  0.070524  1
  V  V24  1  0.749110  0.914299  0.445132  1
  V  V25  1  0.748687  0.854919  0.733289  1
  V  V26  1  0.246154  0.620607  0.766526  1
  V  V27  1  0.245686  0.582973  0.045418  1
  V  V28  1  0.247686  0.531266  0.436146  1
  V  V29  1  0.747686  0.468734  0.563854  1
  V  V30  1  0.745686  0.417027  0.954582  1
  V  V31  1  0.746154  0.379393  0.233474  1
  O  O32  1  0.741965  0.243846  0.749989  1
  O  O33  1  0.743360  0.236995  0.186237  1
  O  O34  1  0.248817  0.161968  0.172841  1
  O  O35  1  0.422549  0.172241  0.580776  1
  O  O36  1  0.079430  0.171797  0.585383  1
  O  O37  1  0.246858  0.168173  0.984470  1
  O  O38  1  0.742586  0.102057  0.020545  1
  O  O39  1  0.244452  0.081817  0.461076  1
  O  O40  1  0.750568  0.064780  0.406756  1
  O  O41  1  0.071290  0.066742  0.296675  1
  O  O42  1  0.422150  0.061683  0.296811  1
  O  O43  1  0.076286  0.034323  0.871192  1
  O  O44  1  0.419873  0.028096  0.873138  1
  O  O45  1  0.919873  0.971904  0.126862  1
  O  O46  1  0.576286  0.965677  0.128808  1
  O  O47  1  0.571290  0.933258  0.703325  1
  O  O48  1  0.922150  0.938317  0.703189  1
  O  O49  1  0.250568  0.935220  0.593244  1
  O  O50  1  0.744452  0.918183  0.538924  1
  O  O51  1  0.242586  0.897943  0.979455  1
  O  O52  1  0.746858  0.831827  0.015530  1
  O  O53  1  0.922549  0.827759  0.419224  1
  O  O54  1  0.579430  0.828203  0.414617  1
  O  O55  1  0.748817  0.838032  0.827159  1
  O  O56  1  0.243360  0.763005  0.813763  1
  O  O57  1  0.241965  0.756154  0.250011  1
  O  O58  1  0.752263  0.714341  0.687024  1
  O  O59  1  0.245781  0.648909  0.673761  1
  O  O60  1  0.070268  0.664431  0.073099  1
  O  O61  1  0.419730  0.663243  0.075550  1
  O  O62  1  0.246612  0.650472  0.500049  1
  O  O63  1  0.751217  0.614661  0.520711  1
  O  O64  1  0.248343  0.591084  0.951079  1
  O  O65  1  0.744030  0.572928  0.927910  1
  O  O66  1  0.077018  0.530825  0.793010  1
  O  O67  1  0.419023  0.535503  0.793153  1
  O  O68  1  0.420816  0.539314  0.380792  1
  O  O69  1  0.071937  0.532260  0.381824  1
  O  O70  1  0.920816  0.460686  0.619208  1
  O  O71  1  0.571937  0.467740  0.618176  1
  O  O72  1  0.577018  0.469175  0.206990  1
  O  O73  1  0.919023  0.464497  0.206847  1
  O  O74  1  0.244030  0.427072  0.072090  1
  O  O75  1  0.748343  0.408916  0.048921  1
  O  O76  1  0.251217  0.385339  0.479289  1
  O  O77  1  0.746612  0.349528  0.499951  1
  O  O78  1  0.919730  0.336757  0.924450  1
  O  O79  1  0.570268  0.335569  0.926901  1
  O  O80  1  0.745781  0.351091  0.326239  1
  O  O81  1  0.252263  0.285659  0.312976  1
