# generated using pymatgen
data_LaNi9As2P3
_symmetry_space_group_name_H-M   'P 1'
_cell_length_a   6.60539800
_cell_length_b   6.60539846
_cell_length_c   10.86941200
_cell_angle_alpha   90.00000000
_cell_angle_beta   90.00000000
_cell_angle_gamma   119.99999770
_symmetry_Int_Tables_number   1
_chemical_formula_structural   LaNi9As2P3
_chemical_formula_sum   'La2 Ni18 As4 P6'
_cell_volume   410.70945785
_cell_formula_units_Z   2
loop_
 _symmetry_equiv_pos_site_id
 _symmetry_equiv_pos_as_xyz
  1  'x, y, z'
loop_
 _atom_site_type_symbol
 _atom_site_label
 _atom_site_symmetry_multiplicity
 _atom_site_fract_x
 _atom_site_fract_y
 _atom_site_fract_z
 _atom_site_occupancy
  La  La0  1  0.000000  0.000000  0.000000  1
  La  La1  1  0.000000  0.000000  0.500000  1
  Ni  Ni2  1  0.536877  0.073755  0.111187  1
  Ni  Ni3  1  0.463123  0.536877  0.611187  1
  Ni  Ni4  1  0.073755  0.536877  0.611187  1
  Ni  Ni5  1  0.926245  0.463123  0.111187  1
  Ni  Ni6  1  0.536877  0.463123  0.111187  1
  Ni  Ni7  1  0.463123  0.926245  0.888813  1
  Ni  Ni8  1  0.463123  0.536877  0.888813  1
  Ni  Ni9  1  0.463123  0.926245  0.611187  1
  Ni  Ni10  1  0.073755  0.536877  0.888813  1
  Ni  Ni11  1  0.926245  0.463123  0.388813  1
  Ni  Ni12  1  0.536877  0.073755  0.388813  1
  Ni  Ni13  1  0.536877  0.463123  0.388813  1
  Ni  Ni14  1  0.198097  0.396194  0.250000  1
  Ni  Ni15  1  0.801903  0.198097  0.750000  1
  Ni  Ni16  1  0.396194  0.198097  0.750000  1
  Ni  Ni17  1  0.603806  0.801903  0.250000  1
  Ni  Ni18  1  0.198097  0.801903  0.250000  1
  Ni  Ni19  1  0.801903  0.603806  0.750000  1
  As  As20  1  0.333333  0.666667  0.062455  1
  As  As21  1  0.666667  0.333333  0.562455  1
  As  As22  1  0.666667  0.333333  0.937545  1
  As  As23  1  0.333333  0.666667  0.437545  1
  P  P24  1  0.826437  0.652875  0.250000  1
  P  P25  1  0.173563  0.826437  0.750000  1
  P  P26  1  0.652875  0.826437  0.750000  1
  P  P27  1  0.347125  0.173563  0.250000  1
  P  P28  1  0.826437  0.173563  0.250000  1
  P  P29  1  0.173563  0.347125  0.750000  1
