# generated using pymatgen
data_Y7Tm10Lu3Pb16
_symmetry_space_group_name_H-M   'P 1'
_cell_length_a   8.18318907
_cell_length_b   8.22515432
_cell_length_c   15.52309700
_cell_angle_alpha   89.87486409
_cell_angle_beta   90.28616540
_cell_angle_gamma   89.77162257
_symmetry_Int_Tables_number   1
_chemical_formula_structural   Y7Tm10Lu3Pb16
_chemical_formula_sum   'Y7 Tm10 Lu3 Pb16'
_cell_volume   1044.80463292
_cell_formula_units_Z   1
loop_
 _symmetry_equiv_pos_site_id
 _symmetry_equiv_pos_as_xyz
  1  'x, y, z'
loop_
 _atom_site_type_symbol
 _atom_site_label
 _atom_site_symmetry_multiplicity
 _atom_site_fract_x
 _atom_site_fract_y
 _atom_site_fract_z
 _atom_site_occupancy
  Y  Y0  1  0.036795  0.176328  0.599623  1
  Y  Y1  1  0.463929  0.676133  0.400908  1
  Y  Y2  1  0.962658  0.824173  0.099439  1
  Y  Y3  1  0.463371  0.675811  0.099178  1
  Y  Y4  1  0.963306  0.823965  0.400788  1
  Y  Y5  1  0.535514  0.324126  0.599175  1
  Y  Y6  1  0.037261  0.176401  0.900750  1
  Tm  Tm7  1  0.376130  0.842258  0.878236  1
  Tm  Tm8  1  0.875278  0.657774  0.621951  1
  Tm  Tm9  1  0.624176  0.157792  0.377903  1
  Tm  Tm10  1  0.123235  0.341953  0.121699  1
  Tm  Tm11  1  0.622885  0.158247  0.121428  1
  Tm  Tm12  1  0.124333  0.342187  0.378069  1
  Tm  Tm13  1  0.375856  0.842459  0.622238  1
  Tm  Tm14  1  0.876485  0.657767  0.878261  1
  Tm  Tm15  1  0.538225  0.324936  0.899934  1
  Tm  Tm16  1  0.208335  0.504928  0.750341  1
  Lu  Lu17  1  0.707855  0.994847  0.750354  1
  Lu  Lu18  1  0.791856  0.494741  0.249639  1
  Lu  Lu19  1  0.291947  0.005311  0.249853  1
  Pb  Pb20  1  0.282985  0.034100  0.043536  1
  Pb  Pb21  1  0.784198  0.463882  0.456547  1
  Pb  Pb22  1  0.715723  0.964844  0.543532  1
  Pb  Pb23  1  0.218988  0.533086  0.956872  1
  Pb  Pb24  1  0.715644  0.965995  0.956534  1
  Pb  Pb25  1  0.215536  0.536554  0.543022  1
  Pb  Pb26  1  0.284184  0.035303  0.456637  1
  Pb  Pb27  1  0.782784  0.463997  0.042382  1
  Pb  Pb28  1  0.570806  0.626567  0.750385  1
  Pb  Pb29  1  0.070144  0.872932  0.749999  1
  Pb  Pb30  1  0.429531  0.372895  0.249772  1
  Pb  Pb31  1  0.929713  0.127494  0.250107  1
  Pb  Pb32  1  0.350037  0.155470  0.750643  1
  Pb  Pb33  1  0.848039  0.345105  0.749981  1
  Pb  Pb34  1  0.651018  0.845070  0.250100  1
  Pb  Pb35  1  0.151238  0.654568  0.250187  1
