# generated using pymatgen
data_Sc5As2S
_symmetry_space_group_name_H-M   'P 1'
_cell_length_a   7.13384100
_cell_length_b   7.98712900
_cell_length_c   10.71878000
_cell_angle_alpha   90.00000000
_cell_angle_beta   90.00000000
_cell_angle_gamma   90.00000000
_symmetry_Int_Tables_number   1
_chemical_formula_structural   Sc5As2S
_chemical_formula_sum   'Sc20 As8 S4'
_cell_volume   610.74438306
_cell_formula_units_Z   4
loop_
 _symmetry_equiv_pos_site_id
 _symmetry_equiv_pos_as_xyz
  1  'x, y, z'
loop_
 _atom_site_type_symbol
 _atom_site_label
 _atom_site_symmetry_multiplicity
 _atom_site_fract_x
 _atom_site_fract_y
 _atom_site_fract_z
 _atom_site_occupancy
  Sc  Sc0  1  0.811618  0.951228  0.068685  1
  Sc  Sc1  1  0.311618  0.048772  0.431315  1
  Sc  Sc2  1  0.188382  0.451228  0.931315  1
  Sc  Sc3  1  0.688382  0.548772  0.568685  1
  Sc  Sc4  1  0.188382  0.048772  0.931315  1
  Sc  Sc5  1  0.688382  0.951228  0.568685  1
  Sc  Sc6  1  0.811618  0.548772  0.068685  1
  Sc  Sc7  1  0.311618  0.451228  0.431315  1
  Sc  Sc8  1  0.155132  0.750000  0.213101  1
  Sc  Sc9  1  0.655132  0.250000  0.286899  1
  Sc  Sc10  1  0.844868  0.250000  0.786899  1
  Sc  Sc11  1  0.344868  0.750000  0.713101  1
  Sc  Sc12  1  0.469518  0.750000  0.000869  1
  Sc  Sc13  1  0.969518  0.250000  0.499131  1
  Sc  Sc14  1  0.530482  0.250000  0.999131  1
  Sc  Sc15  1  0.030482  0.750000  0.500869  1
  Sc  Sc16  1  0.639713  0.750000  0.296380  1
  Sc  Sc17  1  0.139713  0.250000  0.203620  1
  Sc  Sc18  1  0.360287  0.250000  0.703620  1
  Sc  Sc19  1  0.860287  0.750000  0.796380  1
  As  As20  1  0.930665  0.508219  0.326800  1
  As  As21  1  0.430665  0.491781  0.173200  1
  As  As22  1  0.069335  0.008219  0.673200  1
  As  As23  1  0.569335  0.991781  0.826800  1
  As  As24  1  0.069335  0.491781  0.673200  1
  As  As25  1  0.569335  0.508219  0.826800  1
  As  As26  1  0.930665  0.991781  0.326800  1
  As  As27  1  0.430665  0.008219  0.173200  1
  S  S28  1  0.425742  0.750000  0.487050  1
  S  S29  1  0.925742  0.250000  0.012950  1
  S  S30  1  0.574258  0.250000  0.512950  1
  S  S31  1  0.074258  0.750000  0.987050  1
