# generated using pymatgen
data_Ti3Si3Mo2Rh
_symmetry_space_group_name_H-M   'P 1'
_cell_length_a   6.84041939
_cell_length_b   6.84041868
_cell_length_c   3.34051200
_cell_angle_alpha   90.00000000
_cell_angle_beta   90.00000000
_cell_angle_gamma   120.83156942
_symmetry_Int_Tables_number   1
_chemical_formula_structural   Ti3Si3Mo2Rh
_chemical_formula_sum   'Ti3 Si3 Mo2 Rh1'
_cell_volume   134.21733207
_cell_formula_units_Z   1
loop_
 _symmetry_equiv_pos_site_id
 _symmetry_equiv_pos_as_xyz
  1  'x, y, z'
loop_
 _atom_site_type_symbol
 _atom_site_label
 _atom_site_symmetry_multiplicity
 _atom_site_fract_x
 _atom_site_fract_y
 _atom_site_fract_z
 _atom_site_occupancy
  Ti  Ti0  1  0.389772  0.389772  0.500000  1
  Ti  Ti1  1  0.597126  0.017732  0.500000  1
  Ti  Ti2  1  0.017732  0.597126  0.500000  1
  Si  Si3  1  0.670111  0.345570  0.000000  1
  Si  Si4  1  0.345570  0.670111  0.000000  1
  Si  Si5  1  0.985454  0.985454  0.500000  1
  Mo  Mo6  1  0.257981  0.998059  0.000000  1
  Mo  Mo7  1  0.998059  0.257981  0.000000  1
  Rh  Rh8  1  0.738195  0.738195  0.000000  1
