# generated using pymatgen
data_Ti4Mn3Cr(GaC3)2
_symmetry_space_group_name_H-M   'P 1'
_cell_length_a   2.98344100
_cell_length_b   2.98344101
_cell_length_c   22.29761400
_cell_angle_alpha   90.00000000
_cell_angle_beta   90.00000000
_cell_angle_gamma   119.99998877
_symmetry_Int_Tables_number   1
_chemical_formula_structural   Ti4Mn3Cr(GaC3)2
_chemical_formula_sum   'Ti4 Mn3 Cr1 Ga2 C6'
_cell_volume   171.87946102
_cell_formula_units_Z   1
loop_
 _symmetry_equiv_pos_site_id
 _symmetry_equiv_pos_as_xyz
  1  'x, y, z'
loop_
 _atom_site_type_symbol
 _atom_site_label
 _atom_site_symmetry_multiplicity
 _atom_site_fract_x
 _atom_site_fract_y
 _atom_site_fract_z
 _atom_site_occupancy
  Ti  Ti0  1  0.333333  0.666667  0.444201  1
  Ti  Ti1  1  0.666667  0.333333  0.555990  1
  Ti  Ti2  1  0.666667  0.333333  0.944052  1
  Ti  Ti3  1  0.333333  0.666667  0.056050  1
  Mn  Mn4  1  0.000000  0.000000  0.658525  1
  Mn  Mn5  1  0.000000  0.000000  0.841703  1
  Mn  Mn6  1  0.000000  0.000000  0.157967  1
  Cr  Cr7  1  0.000000  0.000000  0.340222  1
  Ga  Ga8  1  0.333333  0.666667  0.249544  1
  Ga  Ga9  1  0.666667  0.333333  0.750003  1
  C  C10  1  0.000000  0.000000  0.500434  1
  C  C11  1  0.000000  0.000000  0.999978  1
  C  C12  1  0.666667  0.333333  0.384401  1
  C  C13  1  0.333333  0.666667  0.617067  1
  C  C14  1  0.333333  0.666667  0.882998  1
  C  C15  1  0.666667  0.333333  0.116867  1
