# generated using pymatgen
data_Y4Sc4Re3B24Ru
_symmetry_space_group_name_H-M   'P 1'
_cell_length_a   3.58105000
_cell_length_b   9.00582174
_cell_length_c   11.39666293
_cell_angle_alpha   90.04635110
_cell_angle_beta   90.00000000
_cell_angle_gamma   90.00000000
_symmetry_Int_Tables_number   1
_chemical_formula_structural   Y4Sc4Re3B24Ru
_chemical_formula_sum   'Y4 Sc4 Re3 B24 Ru1'
_cell_volume   367.54565471
_cell_formula_units_Z   1
loop_
 _symmetry_equiv_pos_site_id
 _symmetry_equiv_pos_as_xyz
  1  'x, y, z'
loop_
 _atom_site_type_symbol
 _atom_site_label
 _atom_site_symmetry_multiplicity
 _atom_site_fract_x
 _atom_site_fract_y
 _atom_site_fract_z
 _atom_site_occupancy
  Y  Y0  1  0.000000  0.320960  0.414640  1
  Y  Y1  1  0.000000  0.678849  0.586602  1
  Y  Y2  1  0.000000  0.821870  0.084693  1
  Y  Y3  1  0.000000  0.178320  0.913716  1
  Sc  Sc4  1  0.000000  0.944339  0.370582  1
  Sc  Sc5  1  0.000000  0.055148  0.629196  1
  Sc  Sc6  1  0.000000  0.443947  0.128953  1
  Sc  Sc7  1  0.000000  0.555658  0.871011  1
  Re  Re8  1  0.000000  0.359685  0.681041  1
  Re  Re9  1  0.000000  0.140673  0.182191  1
  Re  Re10  1  0.000000  0.859518  0.818563  1
  B  B11  1  0.500000  0.555550  0.432196  1
  B  B12  1  0.500000  0.445614  0.567131  1
  B  B13  1  0.500000  0.054510  0.067449  1
  B  B14  1  0.500000  0.945428  0.932492  1
  B  B15  1  0.500000  0.753660  0.417789  1
  B  B16  1  0.500000  0.245189  0.581635  1
  B  B17  1  0.500000  0.254452  0.081731  1
  B  B18  1  0.500000  0.745538  0.918245  1
  B  B19  1  0.500000  0.794091  0.265211  1
  B  B20  1  0.500000  0.204802  0.735034  1
  B  B21  1  0.500000  0.295463  0.235374  1
  B  B22  1  0.500000  0.704830  0.765077  1
  B  B23  1  0.500000  0.629218  0.183357  1
  B  B24  1  0.500000  0.371174  0.816816  1
  B  B25  1  0.500000  0.129121  0.317284  1
  B  B26  1  0.500000  0.870903  0.682995  1
  B  B27  1  0.500000  0.981268  0.213988  1
  B  B28  1  0.500000  0.018404  0.785914  1
  B  B29  1  0.500000  0.482670  0.286331  1
  B  B30  1  0.500000  0.518709  0.714042  1
  B  B31  1  0.500000  0.596545  0.026721  1
  B  B32  1  0.500000  0.403896  0.974111  1
  B  B33  1  0.500000  0.095848  0.473676  1
  B  B34  1  0.500000  0.903359  0.525975  1
  Ru  Ru35  1  0.000000  0.640791  0.318234  1
