# generated using pymatgen
data_Sm4Ho2FeBr10
_symmetry_space_group_name_H-M   'P 1'
_cell_length_a   7.41425416
_cell_length_b   9.24931307
_cell_length_c   9.29366669
_cell_angle_alpha   107.74196519
_cell_angle_beta   95.54351222
_cell_angle_gamma   105.09355473
_symmetry_Int_Tables_number   1
_chemical_formula_structural   Sm4Ho2FeBr10
_chemical_formula_sum   'Sm4 Ho2 Fe1 Br10'
_cell_volume   575.24788189
_cell_formula_units_Z   1
loop_
 _symmetry_equiv_pos_site_id
 _symmetry_equiv_pos_as_xyz
  1  'x, y, z'
loop_
 _atom_site_type_symbol
 _atom_site_label
 _atom_site_symmetry_multiplicity
 _atom_site_fract_x
 _atom_site_fract_y
 _atom_site_fract_z
 _atom_site_occupancy
  Sm  Sm0  1  0.466880  0.786599  0.589413  1
  Sm  Sm1  1  0.533120  0.213401  0.410587  1
  Sm  Sm2  1  0.374688  0.452398  0.739194  1
  Sm  Sm3  1  0.625312  0.547602  0.260806  1
  Ho  Ho4  1  0.854320  0.630206  0.674270  1
  Ho  Ho5  1  0.145680  0.369794  0.325730  1
  Fe  Fe6  1  0.500000  0.500000  0.500000  1
  Br  Br7  1  0.411457  0.130030  0.674013  1
  Br  Br8  1  0.588543  0.869970  0.325987  1
  Br  Br9  1  0.047147  0.677273  0.416571  1
  Br  Br10  1  0.952853  0.322727  0.583429  1
  Br  Br11  1  0.268683  0.750268  0.842899  1
  Br  Br12  1  0.731317  0.249732  0.157101  1
  Br  Br13  1  0.251024  0.417054  0.051617  1
  Br  Br14  1  0.748976  0.582946  0.948383  1
  Br  Br15  1  0.848036  0.942765  0.768879  1
  Br  Br16  1  0.151964  0.057235  0.231121  1
