# generated using pymatgen
data_YHo5(Tm2Pb3)2
_symmetry_space_group_name_H-M   'P 1'
_cell_length_a   6.55607500
_cell_length_b   9.00761404
_cell_length_c   9.01050101
_cell_angle_alpha   119.98939759
_cell_angle_beta   90.00010966
_cell_angle_gamma   89.99977603
_symmetry_Int_Tables_number   1
_chemical_formula_structural   YHo5(Tm2Pb3)2
_chemical_formula_sum   'Y1 Ho5 Tm4 Pb6'
_cell_volume   460.87127737
_cell_formula_units_Z   1
loop_
 _symmetry_equiv_pos_site_id
 _symmetry_equiv_pos_as_xyz
  1  'x, y, z'
loop_
 _atom_site_type_symbol
 _atom_site_label
 _atom_site_symmetry_multiplicity
 _atom_site_fract_x
 _atom_site_fract_y
 _atom_site_fract_z
 _atom_site_occupancy
  Y  Y0  1  0.749997  0.238510  0.000000  1
  Ho  Ho1  1  0.750000  0.761313  0.761410  1
  Ho  Ho2  1  0.750000  0.999903  0.238590  1
  Ho  Ho3  1  0.250001  0.761504  0.000000  1
  Ho  Ho4  1  0.249999  0.238602  0.238613  1
  Ho  Ho5  1  0.249999  0.999989  0.761387  1
  Tm  Tm6  1  0.499991  0.333354  0.666706  1
  Tm  Tm7  1  0.499991  0.666648  0.333294  1
  Tm  Tm8  1  0.000009  0.666692  0.333294  1
  Tm  Tm9  1  0.000009  0.333398  0.666706  1
  Pb  Pb10  1  0.749995  0.605464  0.000000  1
  Pb  Pb11  1  0.750004  0.394656  0.394713  1
  Pb  Pb12  1  0.750004  0.999943  0.605287  1
  Pb  Pb13  1  0.249994  0.394650  0.000000  1
  Pb  Pb14  1  0.250005  0.605409  0.605443  1
  Pb  Pb15  1  0.250005  0.999966  0.394557  1
