# generated using pymatgen
data_Li8Ho8SnBi2Pb5
_symmetry_space_group_name_H-M   'P 1'
_cell_length_a   9.51874173
_cell_length_b   9.52189940
_cell_length_c   7.25651401
_cell_angle_alpha   90.00012385
_cell_angle_beta   90.09805792
_cell_angle_gamma   120.01469773
_symmetry_Int_Tables_number   1
_chemical_formula_structural   Li8Ho8SnBi2Pb5
_chemical_formula_sum   'Li8 Ho8 Sn1 Bi2 Pb5'
_cell_volume   569.50378181
_cell_formula_units_Z   1
loop_
 _symmetry_equiv_pos_site_id
 _symmetry_equiv_pos_as_xyz
  1  'x, y, z'
loop_
 _atom_site_type_symbol
 _atom_site_label
 _atom_site_symmetry_multiplicity
 _atom_site_fract_x
 _atom_site_fract_y
 _atom_site_fract_z
 _atom_site_occupancy
  Li  Li0  1  0.167696  0.334071  0.283414  1
  Li  Li1  1  0.167700  0.833607  0.283418  1
  Li  Li2  1  0.665241  0.832611  0.286167  1
  Li  Li3  1  0.829669  0.663746  0.786718  1
  Li  Li4  1  0.829668  0.165943  0.786731  1
  Li  Li5  1  0.337957  0.168987  0.790537  1
  Li  Li6  1  0.336454  0.668240  0.669946  1
  Li  Li7  1  0.665635  0.332808  0.172330  1
  Ho  Ho8  1  0.516783  0.027784  0.492933  1
  Ho  Ho9  1  0.516791  0.488998  0.492924  1
  Ho  Ho10  1  0.971677  0.485847  0.491366  1
  Ho  Ho11  1  0.492326  0.979285  0.995324  1
  Ho  Ho12  1  0.492323  0.513035  0.995322  1
  Ho  Ho13  1  0.017401  0.508695  0.996356  1
  Ho  Ho14  1  0.996220  0.998106  0.497386  1
  Ho  Ho15  1  0.996798  0.998409  0.004328  1
  Sn  Sn16  1  0.667579  0.333775  0.759781  1
  Bi  Bi17  1  0.166204  0.333484  0.733937  1
  Bi  Bi18  1  0.166201  0.832687  0.733930  1
  Pb  Pb19  1  0.666657  0.833321  0.732343  1
  Pb  Pb20  1  0.833943  0.666824  0.232861  1
  Pb  Pb21  1  0.833933  0.167142  0.232854  1
  Pb  Pb22  1  0.332977  0.166507  0.232524  1
  Pb  Pb23  1  0.332167  0.666090  0.258541  1
