# generated using pymatgen
data_Ta6Mn5SnRu12
_symmetry_space_group_name_H-M   'P 1'
_cell_length_a   4.40289806
_cell_length_b   6.26779513
_cell_length_c   13.22427245
_cell_angle_alpha   89.97677871
_cell_angle_beta   89.98111599
_cell_angle_gamma   90.00028468
_symmetry_Int_Tables_number   1
_chemical_formula_structural   Ta6Mn5SnRu12
_chemical_formula_sum   'Ta6 Mn5 Sn1 Ru12'
_cell_volume   364.94309575
_cell_formula_units_Z   1
loop_
 _symmetry_equiv_pos_site_id
 _symmetry_equiv_pos_as_xyz
  1  'x, y, z'
loop_
 _atom_site_type_symbol
 _atom_site_label
 _atom_site_symmetry_multiplicity
 _atom_site_fract_x
 _atom_site_fract_y
 _atom_site_fract_z
 _atom_site_occupancy
  Ta  Ta0  1  0.000000  0.500000  0.000000  1
  Ta  Ta1  1  0.499885  0.000068  0.171659  1
  Ta  Ta2  1  0.999894  0.500014  0.335518  1
  Ta  Ta3  1  0.500000  0.000000  0.500000  1
  Ta  Ta4  1  0.000106  0.499986  0.664482  1
  Ta  Ta5  1  0.500114  0.999932  0.828341  1
  Mn  Mn6  1  0.500061  0.500208  0.168697  1
  Mn  Mn7  1  0.999900  0.999910  0.334952  1
  Mn  Mn8  1  0.500000  0.500000  0.500000  1
  Mn  Mn9  1  0.000100  0.000090  0.665048  1
  Mn  Mn10  1  0.499939  0.499792  0.831304  1
  Sn  Sn11  1  0.000000  0.000000  0.000000  1
  Ru  Ru12  1  0.499999  0.255843  0.999995  1
  Ru  Ru13  1  0.500001  0.744157  0.000005  1
  Ru  Ru14  1  0.999904  0.253279  0.169923  1
  Ru  Ru15  1  0.999892  0.746806  0.169917  1
  Ru  Ru16  1  0.499907  0.250288  0.334709  1
  Ru  Ru17  1  0.499898  0.749779  0.334713  1
  Ru  Ru18  1  0.999989  0.250035  0.500004  1
  Ru  Ru19  1  0.000011  0.749965  0.499996  1
  Ru  Ru20  1  0.500102  0.250221  0.665287  1
  Ru  Ru21  1  0.500093  0.749712  0.665291  1
  Ru  Ru22  1  0.000108  0.253195  0.830083  1
  Ru  Ru23  1  0.000096  0.746722  0.830077  1
