# generated using pymatgen
data_Ir4Pb3O13
_symmetry_space_group_name_H-M   'P 1'
_cell_length_a   7.26202875
_cell_length_b   7.26202893
_cell_length_c   7.26202953
_cell_angle_alpha   60.48372634
_cell_angle_beta   60.48372505
_cell_angle_gamma   60.48372989
_symmetry_Int_Tables_number   1
_chemical_formula_structural   Ir4Pb3O13
_chemical_formula_sum   'Ir4 Pb3 O13'
_cell_volume   273.76723623
_cell_formula_units_Z   1
loop_
 _symmetry_equiv_pos_site_id
 _symmetry_equiv_pos_as_xyz
  1  'x, y, z'
loop_
 _atom_site_type_symbol
 _atom_site_label
 _atom_site_symmetry_multiplicity
 _atom_site_fract_x
 _atom_site_fract_y
 _atom_site_fract_z
 _atom_site_occupancy
  Ir  Ir0  1  0.500076  0.500076  0.500076  1
  Ir  Ir1  1  0.998908  0.500126  0.500126  1
  Ir  Ir2  1  0.500126  0.500126  0.998908  1
  Ir  Ir3  1  0.500126  0.998908  0.500126  1
  Pb  Pb4  1  0.496878  0.000700  0.000700  1
  Pb  Pb5  1  0.000700  0.000700  0.496878  1
  Pb  Pb6  1  0.000700  0.496878  0.000700  1
  O  O7  1  0.825739  0.421847  0.421847  1
  O  O8  1  0.438176  0.820736  0.820736  1
  O  O9  1  0.421847  0.421847  0.825739  1
  O  O10  1  0.820736  0.820736  0.438176  1
  O  O11  1  0.820736  0.438176  0.820736  1
  O  O12  1  0.421847  0.825739  0.421847  1
  O  O13  1  0.175099  0.576069  0.576069  1
  O  O14  1  0.561927  0.178407  0.178407  1
  O  O15  1  0.576069  0.576069  0.175099  1
  O  O16  1  0.178407  0.178407  0.561927  1
  O  O17  1  0.178407  0.561927  0.178407  1
  O  O18  1  0.576069  0.175099  0.576069  1
  O  O19  1  0.132427  0.132427  0.132427  1
