# generated using pymatgen
data_Tm2FeAuO7
_symmetry_space_group_name_H-M   'P 1'
_cell_length_a   7.21251241
_cell_length_b   7.26927597
_cell_length_c   7.21246498
_cell_angle_alpha   59.73839839
_cell_angle_beta   59.51511965
_cell_angle_gamma   59.73860930
_symmetry_Int_Tables_number   1
_chemical_formula_structural   Tm2FeAuO7
_chemical_formula_sum   'Tm4 Fe2 Au2 O14'
_cell_volume   265.34710563
_cell_formula_units_Z   2
loop_
 _symmetry_equiv_pos_site_id
 _symmetry_equiv_pos_as_xyz
  1  'x, y, z'
loop_
 _atom_site_type_symbol
 _atom_site_label
 _atom_site_symmetry_multiplicity
 _atom_site_fract_x
 _atom_site_fract_y
 _atom_site_fract_z
 _atom_site_occupancy
  Tm  Tm0  1  0.499996  0.999999  0.500006  1
  Tm  Tm1  1  0.999998  0.499998  0.500005  1
  Tm  Tm2  1  0.499999  0.500003  0.999999  1
  Tm  Tm3  1  0.499999  0.500004  0.499998  1
  Fe  Fe4  1  0.999997  0.499995  0.000003  1
  Fe  Fe5  1  0.000004  0.999996  0.000002  1
  Au  Au6  1  0.500003  0.999982  0.000007  1
  Au  Au7  1  0.000011  0.000002  0.500001  1
  O  O8  1  0.622058  0.627941  0.622058  1
  O  O9  1  0.377941  0.372060  0.377943  1
  O  O10  1  0.343274  0.910114  0.904720  1
  O  O11  1  0.095279  0.658098  0.656724  1
  O  O12  1  0.911873  0.338126  0.911873  1
  O  O13  1  0.904722  0.910111  0.343265  1
  O  O14  1  0.343276  0.341911  0.904712  1
  O  O15  1  0.343266  0.906745  0.343266  1
  O  O16  1  0.904718  0.341904  0.343272  1
  O  O17  1  0.656723  0.658105  0.095280  1
  O  O18  1  0.095278  0.089888  0.656726  1
  O  O19  1  0.656729  0.089893  0.095282  1
  O  O20  1  0.656731  0.093259  0.656730  1
  O  O21  1  0.088129  0.661872  0.088129  1
