# generated using pymatgen
data_Ca20(Ga3Pb)3
_symmetry_space_group_name_H-M   'P 1'
_cell_length_a   8.12069400
_cell_length_b   8.12069400
_cell_length_c   14.76204400
_cell_angle_alpha   90.00000000
_cell_angle_beta   90.00000000
_cell_angle_gamma   90.00000000
_symmetry_Int_Tables_number   1
_chemical_formula_structural   Ca20(Ga3Pb)3
_chemical_formula_sum   'Ca20 Ga9 Pb3'
_cell_volume   973.49289753
_cell_formula_units_Z   1
loop_
 _symmetry_equiv_pos_site_id
 _symmetry_equiv_pos_as_xyz
  1  'x, y, z'
loop_
 _atom_site_type_symbol
 _atom_site_label
 _atom_site_symmetry_multiplicity
 _atom_site_fract_x
 _atom_site_fract_y
 _atom_site_fract_z
 _atom_site_occupancy
  Ca  Ca0  1  0.681143  0.173588  0.109565  1
  Ca  Ca1  1  0.178356  0.677189  0.613277  1
  Ca  Ca2  1  0.318857  0.826412  0.109565  1
  Ca  Ca3  1  0.821644  0.322811  0.613277  1
  Ca  Ca4  1  0.826412  0.681143  0.109565  1
  Ca  Ca5  1  0.322811  0.178356  0.613277  1
  Ca  Ca6  1  0.173588  0.318857  0.109565  1
  Ca  Ca7  1  0.677189  0.821644  0.613277  1
  Ca  Ca8  1  0.826412  0.318857  0.890435  1
  Ca  Ca9  1  0.322811  0.821644  0.386723  1
  Ca  Ca10  1  0.173588  0.681143  0.890435  1
  Ca  Ca11  1  0.677189  0.178356  0.386723  1
  Ca  Ca12  1  0.681143  0.826412  0.890435  1
  Ca  Ca13  1  0.178356  0.322811  0.386723  1
  Ca  Ca14  1  0.318857  0.173588  0.890435  1
  Ca  Ca15  1  0.821644  0.677189  0.386723  1
  Ca  Ca16  1  0.500000  0.500000  0.754831  1
  Ca  Ca17  1  0.000000  0.000000  0.249968  1
  Ca  Ca18  1  0.000000  0.000000  0.750032  1
  Ca  Ca19  1  0.500000  0.500000  0.245169  1
  Ga  Ga20  1  0.611164  0.111332  0.751579  1
  Ga  Ga21  1  0.111332  0.611164  0.248421  1
  Ga  Ga22  1  0.888668  0.388836  0.248421  1
  Ga  Ga23  1  0.388836  0.888668  0.751579  1
  Ga  Ga24  1  0.888668  0.611164  0.751579  1
  Ga  Ga25  1  0.388836  0.111332  0.248421  1
  Ga  Ga26  1  0.111332  0.388836  0.751579  1
  Ga  Ga27  1  0.611164  0.888668  0.248421  1
  Ga  Ga28  1  0.000000  0.000000  0.000000  1
  Pb  Pb29  1  0.500000  0.500000  0.500000  1
  Pb  Pb30  1  0.500000  0.500000  0.000000  1
  Pb  Pb31  1  0.000000  0.000000  0.500000  1
