# generated using pymatgen
data_CuPtCl6
_symmetry_space_group_name_H-M   'P 1'
_cell_length_a   6.19197700
_cell_length_b   6.19197692
_cell_length_c   12.43216200
_cell_angle_alpha   90.00000000
_cell_angle_beta   90.00000000
_cell_angle_gamma   120.00000577
_symmetry_Int_Tables_number   1
_chemical_formula_structural   CuPtCl6
_chemical_formula_sum   'Cu2 Pt2 Cl12'
_cell_volume   412.79642784
_cell_formula_units_Z   2
loop_
 _symmetry_equiv_pos_site_id
 _symmetry_equiv_pos_as_xyz
  1  'x, y, z'
loop_
 _atom_site_type_symbol
 _atom_site_label
 _atom_site_symmetry_multiplicity
 _atom_site_fract_x
 _atom_site_fract_y
 _atom_site_fract_z
 _atom_site_occupancy
  Cu  Cu0  1  0.000000  0.000000  0.250000  1
  Cu  Cu1  1  0.000000  0.000000  0.750000  1
  Pt  Pt2  1  0.333333  0.666667  0.250000  1
  Pt  Pt3  1  0.666667  0.333333  0.750000  1
  Cl  Cl4  1  0.653885  0.969488  0.143028  1
  Cl  Cl5  1  0.030512  0.684398  0.143028  1
  Cl  Cl6  1  0.315602  0.346115  0.143028  1
  Cl  Cl7  1  0.030512  0.346115  0.356972  1
  Cl  Cl8  1  0.346115  0.315602  0.643028  1
  Cl  Cl9  1  0.684398  0.030512  0.643028  1
  Cl  Cl10  1  0.969488  0.653885  0.643028  1
  Cl  Cl11  1  0.684398  0.653885  0.856972  1
  Cl  Cl12  1  0.969488  0.315602  0.856972  1
  Cl  Cl13  1  0.346115  0.030512  0.856972  1
  Cl  Cl14  1  0.653885  0.684398  0.356972  1
  Cl  Cl15  1  0.315602  0.969488  0.356972  1
