# generated using pymatgen
data_Dy9Ho(Ir2Rh)2
_symmetry_space_group_name_H-M   'P 1'
_cell_length_a   10.87691500
_cell_length_b   10.87691500
_cell_length_c   6.39013100
_cell_angle_alpha   90.00000000
_cell_angle_beta   90.00000000
_cell_angle_gamma   90.00000000
_symmetry_Int_Tables_number   1
_chemical_formula_structural   Dy9Ho(Ir2Rh)2
_chemical_formula_sum   'Dy18 Ho2 Ir8 Rh4'
_cell_volume   755.99901692
_cell_formula_units_Z   2
loop_
 _symmetry_equiv_pos_site_id
 _symmetry_equiv_pos_as_xyz
  1  'x, y, z'
loop_
 _atom_site_type_symbol
 _atom_site_label
 _atom_site_symmetry_multiplicity
 _atom_site_fract_x
 _atom_site_fract_y
 _atom_site_fract_z
 _atom_site_occupancy
  Dy  Dy0  1  0.290471  0.088780  0.379002  1
  Dy  Dy1  1  0.290471  0.911220  0.879002  1
  Dy  Dy2  1  0.709529  0.088780  0.879002  1
  Dy  Dy3  1  0.709529  0.911220  0.379002  1
  Dy  Dy4  1  0.588748  0.790334  0.879008  1
  Dy  Dy5  1  0.588748  0.209666  0.379008  1
  Dy  Dy6  1  0.411252  0.790334  0.379008  1
  Dy  Dy7  1  0.411252  0.209666  0.879008  1
  Dy  Dy8  1  0.209666  0.411252  0.620992  1
  Dy  Dy9  1  0.209666  0.588748  0.120992  1
  Dy  Dy10  1  0.790334  0.411252  0.120992  1
  Dy  Dy11  1  0.790334  0.588748  0.620992  1
  Dy  Dy12  1  0.911220  0.709529  0.120998  1
  Dy  Dy13  1  0.911220  0.290471  0.620998  1
  Dy  Dy14  1  0.088780  0.709529  0.620998  1
  Dy  Dy15  1  0.088780  0.290471  0.120998  1
  Dy  Dy16  1  0.000000  0.000000  0.500000  1
  Dy  Dy17  1  0.000000  0.000000  0.000000  1
  Ho  Ho18  1  0.500000  0.500000  0.000000  1
  Ho  Ho19  1  0.500000  0.500000  0.500000  1
  Ir  Ir20  1  0.845897  0.154103  0.250000  1
  Ir  Ir21  1  0.845897  0.845897  0.750000  1
  Ir  Ir22  1  0.154103  0.154103  0.750000  1
  Ir  Ir23  1  0.154103  0.845897  0.250000  1
  Ir  Ir24  1  0.653798  0.346202  0.750000  1
  Ir  Ir25  1  0.653798  0.653798  0.250000  1
  Ir  Ir26  1  0.346202  0.346202  0.250000  1
  Ir  Ir27  1  0.346202  0.653798  0.750000  1
  Rh  Rh28  1  0.500000  0.000000  0.122161  1
  Rh  Rh29  1  0.500000  0.000000  0.622161  1
  Rh  Rh30  1  0.000000  0.500000  0.877839  1
  Rh  Rh31  1  0.000000  0.500000  0.377839  1
