# generated using pymatgen
data_Ac6Sn9Hg
_symmetry_space_group_name_H-M   'P 1'
_cell_length_a   6.91039876
_cell_length_b   6.91039859
_cell_length_c   10.98486444
_cell_angle_alpha   90.08393795
_cell_angle_beta   90.08393679
_cell_angle_gamma   102.49393474
_symmetry_Int_Tables_number   1
_chemical_formula_structural   Ac6Sn9Hg
_chemical_formula_sum   'Ac6 Sn9 Hg1'
_cell_volume   512.14321362
_cell_formula_units_Z   1
loop_
 _symmetry_equiv_pos_site_id
 _symmetry_equiv_pos_as_xyz
  1  'x, y, z'
loop_
 _atom_site_type_symbol
 _atom_site_label
 _atom_site_symmetry_multiplicity
 _atom_site_fract_x
 _atom_site_fract_y
 _atom_site_fract_z
 _atom_site_occupancy
  Ac  Ac0  1  0.799238  0.205915  0.000031  1
  Ac  Ac1  1  0.205915  0.799238  0.000031  1
  Ac  Ac2  1  0.203581  0.796245  0.500256  1
  Ac  Ac3  1  0.796245  0.203581  0.500256  1
  Ac  Ac4  1  0.631676  0.631676  0.249884  1
  Ac  Ac5  1  0.367695  0.367695  0.751723  1
  Sn  Sn6  1  0.077439  0.486675  0.249019  1
  Sn  Sn7  1  0.923492  0.512764  0.750762  1
  Sn  Sn8  1  0.486675  0.077438  0.249019  1
  Sn  Sn9  1  0.512764  0.923492  0.750762  1
  Sn  Sn10  1  0.032461  0.032461  0.251398  1
  Sn  Sn11  1  0.968959  0.968959  0.750785  1
  Sn  Sn12  1  0.687963  0.687963  0.951199  1
  Sn  Sn13  1  0.685676  0.685676  0.552221  1
  Sn  Sn14  1  0.312576  0.312576  0.449939  1
  Hg  Hg15  1  0.307646  0.307646  0.042715  1
