# generated using pymatgen
data_Tb5DyGa3CuNi12
_symmetry_space_group_name_H-M   'P 1'
_cell_length_a   7.71134756
_cell_length_b   7.64663631
_cell_length_c   7.71066606
_cell_angle_alpha   109.32009895
_cell_angle_beta   109.65928163
_cell_angle_gamma   109.26733050
_symmetry_Int_Tables_number   1
_chemical_formula_structural   Tb5DyGa3CuNi12
_chemical_formula_sum   'Tb5 Dy1 Ga3 Cu1 Ni12'
_cell_volume   350.71781184
_cell_formula_units_Z   1
loop_
 _symmetry_equiv_pos_site_id
 _symmetry_equiv_pos_as_xyz
  1  'x, y, z'
loop_
 _atom_site_type_symbol
 _atom_site_label
 _atom_site_symmetry_multiplicity
 _atom_site_fract_x
 _atom_site_fract_y
 _atom_site_fract_z
 _atom_site_occupancy
  Tb  Tb0  1  0.289931  0.996769  0.290029  1
  Tb  Tb1  1  0.000017  0.293165  0.290223  1
  Tb  Tb2  1  0.290534  0.293697  0.000000  1
  Tb  Tb3  1  0.709794  0.002942  0.709777  1
  Tb  Tb4  1  0.999902  0.706740  0.709971  1
  Dy  Dy5  1  0.709038  0.705879  0.000000  1
  Ga  Ga6  1  0.999885  0.999899  0.499755  1
  Ga  Ga7  1  0.500087  0.999924  0.000000  1
  Ga  Ga8  1  0.500130  0.500144  0.500245  1
  Cu  Cu9  1  0.999957  0.500133  0.000000  1
  Ni  Ni10  1  0.337666  0.337684  0.675106  1
  Ni  Ni11  1  0.662553  0.999914  0.337320  1
  Ni  Ni12  1  0.999935  0.661512  0.337203  1
  Ni  Ni13  1  0.662629  0.338694  0.000000  1
  Ni  Ni14  1  0.337320  0.675892  0.337376  1
  Ni  Ni15  1  0.999944  0.338516  0.662624  1
  Ni  Ni16  1  0.337658  0.661585  0.000000  1
  Ni  Ni17  1  0.337493  0.999958  0.662489  1
  Ni  Ni18  1  0.675004  0.337469  0.337511  1
  Ni  Ni19  1  0.662560  0.662579  0.324894  1
  Ni  Ni20  1  0.662732  0.324309  0.662797  1
  Ni  Ni21  1  0.325233  0.662594  0.662680  1
