# generated using pymatgen
data_Tb2Dy2Ga4CoRu3
_symmetry_space_group_name_H-M   'P 1'
_cell_length_a   4.48189000
_cell_length_b   7.08273118
_cell_length_c   7.17269201
_cell_angle_alpha   89.88476257
_cell_angle_beta   90.00000000
_cell_angle_gamma   90.00000000
_symmetry_Int_Tables_number   1
_chemical_formula_structural   Tb2Dy2Ga4CoRu3
_chemical_formula_sum   'Tb2 Dy2 Ga4 Co1 Ru3'
_cell_volume   227.68963273
_cell_formula_units_Z   1
loop_
 _symmetry_equiv_pos_site_id
 _symmetry_equiv_pos_as_xyz
  1  'x, y, z'
loop_
 _atom_site_type_symbol
 _atom_site_label
 _atom_site_symmetry_multiplicity
 _atom_site_fract_x
 _atom_site_fract_y
 _atom_site_fract_z
 _atom_site_occupancy
  Tb  Tb0  1  0.250000  0.195342  0.522452  1
  Tb  Tb1  1  0.750000  0.696400  0.979488  1
  Dy  Dy2  1  0.250000  0.303419  0.023365  1
  Dy  Dy3  1  0.750000  0.800769  0.484030  1
  Ga  Ga4  1  0.250000  0.896715  0.199177  1
  Ga  Ga5  1  0.750000  0.392150  0.308730  1
  Ga  Ga6  1  0.250000  0.598877  0.695301  1
  Ga  Ga7  1  0.750000  0.113374  0.798556  1
  Co  Co8  1  0.750000  0.438283  0.654193  1
  Ru  Ru9  1  0.250000  0.935240  0.839456  1
  Ru  Ru10  1  0.250000  0.564288  0.340337  1
  Ru  Ru11  1  0.750000  0.065145  0.154916  1
