# generated using pymatgen
data_Na2SrHgSb2
_symmetry_space_group_name_H-M   'P 1'
_cell_length_a   4.83890100
_cell_length_b   8.16105200
_cell_length_c   9.26420800
_cell_angle_alpha   90.00000000
_cell_angle_beta   90.00000000
_cell_angle_gamma   90.00000000
_symmetry_Int_Tables_number   1
_chemical_formula_structural   Na2SrHgSb2
_chemical_formula_sum   'Na4 Sr2 Hg2 Sb4'
_cell_volume   365.84841617
_cell_formula_units_Z   2
loop_
 _symmetry_equiv_pos_site_id
 _symmetry_equiv_pos_as_xyz
  1  'x, y, z'
loop_
 _atom_site_type_symbol
 _atom_site_label
 _atom_site_symmetry_multiplicity
 _atom_site_fract_x
 _atom_site_fract_y
 _atom_site_fract_z
 _atom_site_occupancy
  Na  Na0  1  0.500000  0.027598  0.418290  1
  Na  Na1  1  0.000000  0.355308  0.336198  1
  Na  Na2  1  0.500000  0.527598  0.581710  1
  Na  Na3  1  0.000000  0.855308  0.663802  1
  Sr  Sr4  1  0.000000  0.492037  0.949126  1
  Sr  Sr5  1  0.000000  0.992037  0.050874  1
  Hg  Hg6  1  0.500000  0.150776  0.815710  1
  Hg  Hg7  1  0.500000  0.650776  0.184290  1
  Sb  Sb8  1  0.000000  0.245975  0.658146  1
  Sb  Sb9  1  0.500000  0.273826  0.130091  1
  Sb  Sb10  1  0.000000  0.745975  0.341854  1
  Sb  Sb11  1  0.500000  0.773826  0.869909  1
