# generated using pymatgen
data_Zr6Al17Ru7
_symmetry_space_group_name_H-M   'P 1'
_cell_length_a   8.79424623
_cell_length_b   8.79429932
_cell_length_c   8.79424702
_cell_angle_alpha   119.97439601
_cell_angle_beta   119.98081313
_cell_angle_gamma   90.03861695
_symmetry_Int_Tables_number   1
_chemical_formula_structural   Zr6Al17Ru7
_chemical_formula_sum   'Zr6 Al17 Ru7'
_cell_volume   481.09525923
_cell_formula_units_Z   1
loop_
 _symmetry_equiv_pos_site_id
 _symmetry_equiv_pos_as_xyz
  1  'x, y, z'
loop_
 _atom_site_type_symbol
 _atom_site_label
 _atom_site_symmetry_multiplicity
 _atom_site_fract_x
 _atom_site_fract_y
 _atom_site_fract_z
 _atom_site_occupancy
  Zr  Zr0  1  0.782712  0.282149  0.064201  1
  Zr  Zr1  1  0.217948  0.282149  0.499437  1
  Zr  Zr2  1  0.217071  0.717070  0.499999  1
  Zr  Zr3  1  0.217946  0.718509  0.935798  1
  Zr  Zr4  1  0.782709  0.718509  0.500562  1
  Zr  Zr5  1  0.781134  0.281135  0.500001  1
  Al  Al6  1  0.378360  0.121523  0.743163  1
  Al  Al7  1  0.378358  0.635189  0.256831  1
  Al  Al8  1  0.998832  0.498832  0.500001  1
  Al  Al9  1  0.160152  0.340356  0.180203  1
  Al  Al10  1  0.160159  0.979968  0.819809  1
  Al  Al11  1  0.159417  0.340776  0.818635  1
  Al  Al12  1  0.522140  0.340776  0.181360  1
  Al  Al13  1  0.840325  0.659429  0.819105  1
  Al  Al14  1  0.840313  0.021195  0.180882  1
  Al  Al15  1  0.840221  0.659775  0.180453  1
  Al  Al16  1  0.479323  0.659775  0.819553  1
  Al  Al17  1  0.378192  0.121799  0.256391  1
  Al  Al18  1  0.865408  0.121799  0.743607  1
  Al  Al19  1  0.621498  0.877724  0.256226  1
  Al  Al20  1  0.621499  0.365279  0.743780  1
  Al  Al21  1  0.620953  0.878126  0.742830  1
  Al  Al22  1  0.135296  0.878126  0.257173  1
  Ru  Ru23  1  0.999913  0.999938  0.500001  1
  Ru  Ru24  1  0.499937  0.999938  0.000025  1
  Ru  Ru25  1  0.499986  0.499987  0.000001  1
  Ru  Ru26  1  0.499936  0.499911  0.499999  1
  Ru  Ru27  1  0.999912  0.499911  0.999975  1
  Ru  Ru28  1  0.000010  0.000010  0.000000  1
  Ru  Ru29  1  0.500335  0.000334  0.500000  1
