# generated using pymatgen
data_Hf18Ta2Re6SiP
_symmetry_space_group_name_H-M   'P 1'
_cell_length_a   8.65336900
_cell_length_b   8.65336892
_cell_length_c   8.59682200
_cell_angle_alpha   90.00000000
_cell_angle_beta   90.00000000
_cell_angle_gamma   120.00000413
_symmetry_Int_Tables_number   1
_chemical_formula_structural   Hf18Ta2Re6SiP
_chemical_formula_sum   'Hf18 Ta2 Re6 Si1 P1'
_cell_volume   557.49245110
_cell_formula_units_Z   1
loop_
 _symmetry_equiv_pos_site_id
 _symmetry_equiv_pos_as_xyz
  1  'x, y, z'
loop_
 _atom_site_type_symbol
 _atom_site_label
 _atom_site_symmetry_multiplicity
 _atom_site_fract_x
 _atom_site_fract_y
 _atom_site_fract_z
 _atom_site_occupancy
  Hf  Hf0  1  0.196848  0.803152  0.452125  1
  Hf  Hf1  1  0.196848  0.393695  0.452125  1
  Hf  Hf2  1  0.606305  0.803152  0.452125  1
  Hf  Hf3  1  0.802462  0.197538  0.548800  1
  Hf  Hf4  1  0.802462  0.604924  0.548800  1
  Hf  Hf5  1  0.395076  0.197538  0.548800  1
  Hf  Hf6  1  0.802462  0.197538  0.951200  1
  Hf  Hf7  1  0.802462  0.604924  0.951200  1
  Hf  Hf8  1  0.395076  0.197538  0.951200  1
  Hf  Hf9  1  0.196848  0.803152  0.047875  1
  Hf  Hf10  1  0.196848  0.393695  0.047875  1
  Hf  Hf11  1  0.606305  0.803152  0.047875  1
  Hf  Hf12  1  0.538907  0.461093  0.250000  1
  Hf  Hf13  1  0.538907  0.077814  0.250000  1
  Hf  Hf14  1  0.922186  0.461093  0.250000  1
  Hf  Hf15  1  0.460768  0.539232  0.750000  1
  Hf  Hf16  1  0.460768  0.921537  0.750000  1
  Hf  Hf17  1  0.078463  0.539232  0.750000  1
  Ta  Ta18  1  0.000000  0.000000  0.499912  1
  Ta  Ta19  1  0.000000  0.000000  0.000088  1
  Re  Re20  1  0.887749  0.112251  0.250000  1
  Re  Re21  1  0.887749  0.775499  0.250000  1
  Re  Re22  1  0.224501  0.112251  0.250000  1
  Re  Re23  1  0.112154  0.887846  0.750000  1
  Re  Re24  1  0.112154  0.224308  0.750000  1
  Re  Re25  1  0.775692  0.887846  0.750000  1
  Si  Si26  1  0.333333  0.666667  0.250000  1
  P  P27  1  0.666667  0.333333  0.750000  1
