# generated using pymatgen
data_YEr3Tm3LuPt4
_symmetry_space_group_name_H-M   'P 1'
_cell_length_a   4.74659400
_cell_length_b   7.10350039
_cell_length_c   8.63261307
_cell_angle_alpha   90.02835603
_cell_angle_beta   90.00000000
_cell_angle_gamma   90.00000000
_symmetry_Int_Tables_number   1
_chemical_formula_structural   YEr3Tm3LuPt4
_chemical_formula_sum   'Y1 Er3 Tm3 Lu1 Pt4'
_cell_volume   291.06951132
_cell_formula_units_Z   1
loop_
 _symmetry_equiv_pos_site_id
 _symmetry_equiv_pos_as_xyz
  1  'x, y, z'
loop_
 _atom_site_type_symbol
 _atom_site_label
 _atom_site_symmetry_multiplicity
 _atom_site_fract_x
 _atom_site_fract_y
 _atom_site_fract_z
 _atom_site_occupancy
  Y  Y0  1  0.750000  0.512964  0.828785  1
  Er  Er1  1  0.250000  0.986175  0.328877  1
  Er  Er2  1  0.250000  0.485549  0.170447  1
  Er  Er3  1  0.750000  0.014051  0.669781  1
  Tm  Tm4  1  0.250000  0.354681  0.575798  1
  Tm  Tm5  1  0.250000  0.855569  0.923809  1
  Tm  Tm6  1  0.750000  0.645294  0.423084  1
  Lu  Lu7  1  0.750000  0.144324  0.076910  1
  Pt  Pt8  1  0.250000  0.253507  0.906578  1
  Pt  Pt9  1  0.250000  0.756583  0.594539  1
  Pt  Pt10  1  0.750000  0.746744  0.097390  1
  Pt  Pt11  1  0.750000  0.244559  0.404003  1
