# generated using pymatgen
data_Pr3ThSiBr6
_symmetry_space_group_name_H-M   'P 1'
_cell_length_a   4.24357700
_cell_length_b   13.78346441
_cell_length_c   14.61711700
_cell_angle_alpha   89.84669451
_cell_angle_beta   90.00000000
_cell_angle_gamma   90.00000000
_symmetry_Int_Tables_number   1
_chemical_formula_structural   Pr3ThSiBr6
_chemical_formula_sum   'Pr6 Th2 Si2 Br12'
_cell_volume   854.96954458
_cell_formula_units_Z   2
loop_
 _symmetry_equiv_pos_site_id
 _symmetry_equiv_pos_as_xyz
  1  'x, y, z'
loop_
 _atom_site_type_symbol
 _atom_site_label
 _atom_site_symmetry_multiplicity
 _atom_site_fract_x
 _atom_site_fract_y
 _atom_site_fract_z
 _atom_site_occupancy
  Pr  Pr0  1  0.500000  0.117321  0.342760  1
  Pr  Pr1  1  0.500000  0.882679  0.657240  1
  Pr  Pr2  1  0.500000  0.618910  0.159438  1
  Pr  Pr3  1  0.500000  0.381090  0.840562  1
  Pr  Pr4  1  0.000000  0.620801  0.919866  1
  Pr  Pr5  1  0.000000  0.379199  0.080134  1
  Th  Th6  1  0.000000  0.113223  0.574846  1
  Th  Th7  1  0.000000  0.886777  0.425154  1
  Si  Si8  1  0.500000  0.000000  0.500000  1
  Si  Si9  1  0.500000  0.500000  0.000000  1
  Br  Br10  1  0.500000  0.242737  0.162641  1
  Br  Br11  1  0.500000  0.757263  0.837359  1
  Br  Br12  1  0.500000  0.746120  0.339989  1
  Br  Br13  1  0.500000  0.253880  0.660011  1
  Br  Br14  1  0.000000  0.254602  0.413644  1
  Br  Br15  1  0.000000  0.745398  0.586356  1
  Br  Br16  1  0.000000  0.754547  0.088745  1
  Br  Br17  1  0.000000  0.245453  0.911255  1
  Br  Br18  1  0.000000  0.999588  0.245106  1
  Br  Br19  1  0.000000  0.000412  0.754894  1
  Br  Br20  1  0.000000  0.501801  0.255950  1
  Br  Br21  1  0.000000  0.498199  0.744050  1
