# generated using pymatgen
data_PrNdDy4(RuO7)2
_symmetry_space_group_name_H-M   'P 1'
_cell_length_a   6.46015039
_cell_length_b   6.46015075
_cell_length_c   7.51698536
_cell_angle_alpha   90.02028265
_cell_angle_beta   90.02028704
_cell_angle_gamma   110.19671862
_symmetry_Int_Tables_number   1
_chemical_formula_structural   PrNdDy4(RuO7)2
_chemical_formula_sum   'Pr1 Nd1 Dy4 Ru2 O14'
_cell_volume   294.42121493
_cell_formula_units_Z   1
loop_
 _symmetry_equiv_pos_site_id
 _symmetry_equiv_pos_as_xyz
  1  'x, y, z'
loop_
 _atom_site_type_symbol
 _atom_site_label
 _atom_site_symmetry_multiplicity
 _atom_site_fract_x
 _atom_site_fract_y
 _atom_site_fract_z
 _atom_site_occupancy
  Pr  Pr0  1  0.000000  0.000000  0.500000  1
  Nd  Nd1  1  0.000000  0.000000  0.000000  1
  Dy  Dy2  1  0.481353  0.929287  0.750347  1
  Dy  Dy3  1  0.518647  0.070713  0.249653  1
  Dy  Dy4  1  0.929287  0.481353  0.750347  1
  Dy  Dy5  1  0.070713  0.518647  0.249653  1
  Ru  Ru6  1  0.500000  0.500000  0.500000  1
  Ru  Ru7  1  0.500000  0.500000  0.000000  1
  O  O8  1  0.589224  0.589224  0.749945  1
  O  O9  1  0.410776  0.410776  0.250055  1
  O  O10  1  0.837243  0.116984  0.751617  1
  O  O11  1  0.162757  0.883016  0.248383  1
  O  O12  1  0.116984  0.837243  0.751617  1
  O  O13  1  0.883016  0.162757  0.248383  1
  O  O14  1  0.440150  0.182023  0.962897  1
  O  O15  1  0.559020  0.817869  0.462822  1
  O  O16  1  0.182023  0.440150  0.962897  1
  O  O17  1  0.817869  0.559020  0.462822  1
  O  O18  1  0.440980  0.182131  0.537178  1
  O  O19  1  0.559850  0.817977  0.037103  1
  O  O20  1  0.817977  0.559850  0.037103  1
  O  O21  1  0.182131  0.440980  0.537178  1
