# generated using pymatgen
data_ErLu3(Ga2Ag)4
_symmetry_space_group_name_H-M   'P 1'
_cell_length_a   4.34386700
_cell_length_b   6.87881261
_cell_length_c   10.19147679
_cell_angle_alpha   90.00924245
_cell_angle_beta   90.00000000
_cell_angle_gamma   90.00000000
_symmetry_Int_Tables_number   1
_chemical_formula_structural   ErLu3(Ga2Ag)4
_chemical_formula_sum   'Er1 Lu3 Ga8 Ag4'
_cell_volume   304.52791754
_cell_formula_units_Z   1
loop_
 _symmetry_equiv_pos_site_id
 _symmetry_equiv_pos_as_xyz
  1  'x, y, z'
loop_
 _atom_site_type_symbol
 _atom_site_label
 _atom_site_symmetry_multiplicity
 _atom_site_fract_x
 _atom_site_fract_y
 _atom_site_fract_z
 _atom_site_occupancy
  Er  Er0  1  0.250000  0.778275  0.825671  1
  Lu  Lu1  1  0.750000  0.223537  0.175014  1
  Lu  Lu2  1  0.750000  0.723795  0.324628  1
  Lu  Lu3  1  0.250000  0.276398  0.674931  1
  Ga  Ga4  1  0.250000  0.701687  0.536012  1
  Ga  Ga5  1  0.750000  0.299707  0.464214  1
  Ga  Ga6  1  0.750000  0.797119  0.036470  1
  Ga  Ga7  1  0.250000  0.201280  0.963947  1
  Ga  Ga8  1  0.250000  0.929347  0.152775  1
  Ga  Ga9  1  0.750000  0.071451  0.846121  1
  Ga  Ga10  1  0.750000  0.570217  0.654197  1
  Ga  Ga11  1  0.250000  0.430245  0.346525  1
  Ag  Ag12  1  0.250000  0.541383  0.098391  1
  Ag  Ag13  1  0.750000  0.455427  0.902188  1
  Ag  Ag14  1  0.750000  0.956878  0.597237  1
  Ag  Ag15  1  0.250000  0.043254  0.401680  1
