# generated using pymatgen
data_U8IrS17
_symmetry_space_group_name_H-M   'P 1'
_cell_length_a   7.78138671
_cell_length_b   7.78138619
_cell_length_c   10.35187701
_cell_angle_alpha   80.19579907
_cell_angle_beta   80.19579786
_cell_angle_gamma   64.92508271
_symmetry_Int_Tables_number   1
_chemical_formula_structural   U8IrS17
_chemical_formula_sum   'U8 Ir1 S17'
_cell_volume   556.05009920
_cell_formula_units_Z   1
loop_
 _symmetry_equiv_pos_site_id
 _symmetry_equiv_pos_as_xyz
  1  'x, y, z'
loop_
 _atom_site_type_symbol
 _atom_site_label
 _atom_site_symmetry_multiplicity
 _atom_site_fract_x
 _atom_site_fract_y
 _atom_site_fract_z
 _atom_site_occupancy
  U  U0  1  0.820708  0.303791  0.300120  1
  U  U1  1  0.303791  0.820708  0.300120  1
  U  U2  1  0.179292  0.696209  0.699880  1
  U  U3  1  0.696209  0.179292  0.699880  1
  U  U4  1  0.204167  0.204167  0.545290  1
  U  U5  1  0.795833  0.795833  0.454710  1
  U  U6  1  0.675893  0.675893  0.983245  1
  U  U7  1  0.324107  0.324107  0.016755  1
  Ir  Ir8  1  0.000000  0.000000  0.000000  1
  S  S9  1  0.820715  0.432677  0.536550  1
  S  S10  1  0.432677  0.820715  0.536550  1
  S  S11  1  0.179285  0.567323  0.463450  1
  S  S12  1  0.567323  0.179285  0.463450  1
  S  S13  1  0.950963  0.319780  0.027102  1
  S  S14  1  0.319780  0.950963  0.027102  1
  S  S15  1  0.049037  0.680220  0.972898  1
  S  S16  1  0.680220  0.049037  0.972898  1
  S  S17  1  0.214324  0.214324  0.278882  1
  S  S18  1  0.785676  0.785676  0.721118  1
  S  S19  1  0.053547  0.053547  0.770869  1
  S  S20  1  0.946453  0.946453  0.229131  1
  S  S21  1  0.299368  0.299368  0.757259  1
  S  S22  1  0.700632  0.700632  0.242741  1
  S  S23  1  0.519584  0.519584  0.830447  1
  S  S24  1  0.480416  0.480416  0.169553  1
  S  S25  1  0.000000  0.000000  0.500000  1
