# generated using pymatgen
data_Th4Ta3WC8
_symmetry_space_group_name_H-M   'P 1'
_cell_length_a   3.52117500
_cell_length_b   5.96750630
_cell_length_c   11.29194099
_cell_angle_alpha   90.13695181
_cell_angle_beta   90.00000000
_cell_angle_gamma   90.00000000
_symmetry_Int_Tables_number   1
_chemical_formula_structural   Th4Ta3WC8
_chemical_formula_sum   'Th4 Ta3 W1 C8'
_cell_volume   237.27274537
_cell_formula_units_Z   1
loop_
 _symmetry_equiv_pos_site_id
 _symmetry_equiv_pos_as_xyz
  1  'x, y, z'
loop_
 _atom_site_type_symbol
 _atom_site_label
 _atom_site_symmetry_multiplicity
 _atom_site_fract_x
 _atom_site_fract_y
 _atom_site_fract_z
 _atom_site_occupancy
  Th  Th0  1  0.250000  0.582664  0.859584  1
  Th  Th1  1  0.750000  0.418171  0.141188  1
  Th  Th2  1  0.750000  0.916402  0.361969  1
  Th  Th3  1  0.250000  0.081803  0.637881  1
  Ta  Ta4  1  0.250000  0.915856  0.109271  1
  Ta  Ta5  1  0.750000  0.084088  0.893127  1
  Ta  Ta6  1  0.750000  0.583329  0.605144  1
  W  W7  1  0.250000  0.415194  0.392894  1
  C  C8  1  0.250000  0.662577  0.251074  1
  C  C9  1  0.750000  0.334021  0.751064  1
  C  C10  1  0.750000  0.834724  0.745875  1
  C  C11  1  0.250000  0.168934  0.256482  1
  C  C12  1  0.250000  0.714816  0.513687  1
  C  C13  1  0.750000  0.286152  0.478635  1
  C  C14  1  0.750000  0.784046  0.016761  1
  C  C15  1  0.250000  0.217223  0.985362  1
