# generated using pymatgen
data_Er5Tm5(OsRu)2
_symmetry_space_group_name_H-M   'P 1'
_cell_length_a   6.27302730
_cell_length_b   7.29195766
_cell_length_c   8.34158713
_cell_angle_alpha   96.92215232
_cell_angle_beta   112.09328678
_cell_angle_gamma   89.98831076
_symmetry_Int_Tables_number   1
_chemical_formula_structural   Er5Tm5(OsRu)2
_chemical_formula_sum   'Er5 Tm5 Os2 Ru2'
_cell_volume   350.54921649
_cell_formula_units_Z   1
loop_
 _symmetry_equiv_pos_site_id
 _symmetry_equiv_pos_as_xyz
  1  'x, y, z'
loop_
 _atom_site_type_symbol
 _atom_site_label
 _atom_site_symmetry_multiplicity
 _atom_site_fract_x
 _atom_site_fract_y
 _atom_site_fract_z
 _atom_site_occupancy
  Er  Er0  1  0.792838  0.083577  0.816270  1
  Er  Er1  1  0.976441  0.416431  0.183663  1
  Er  Er2  1  0.208709  0.915424  0.185534  1
  Er  Er3  1  0.023122  0.584566  0.814517  1
  Er  Er4  1  0.204307  0.183487  0.564278  1
  Tm  Tm5  1  0.640056  0.316594  0.435708  1
  Tm  Tm6  1  0.794803  0.816365  0.435079  1
  Tm  Tm7  1  0.359744  0.683589  0.564819  1
  Tm  Tm8  1  0.420584  0.249946  0.000042  1
  Tm  Tm9  1  0.580755  0.750091  0.000049  1
  Os  Os10  1  0.602418  0.423083  0.780216  1
  Os  Os11  1  0.821877  0.077114  0.219685  1
  Ru  Ru12  1  0.397315  0.577178  0.220294  1
  Ru  Ru13  1  0.177032  0.922557  0.779847  1
