# generated using pymatgen
data_Ca4Er(SiIr)10
_symmetry_space_group_name_H-M   'P 1'
_cell_length_a   9.04799700
_cell_length_b   8.14575434
_cell_length_c   9.04799700
_cell_angle_alpha   56.26302356
_cell_angle_beta   90.00000000
_cell_angle_gamma   56.26301510
_symmetry_Int_Tables_number   1
_chemical_formula_structural   Ca4Er(SiIr)10
_chemical_formula_sum   'Ca4 Er1 Si10 Ir10'
_cell_volume   412.75669618
_cell_formula_units_Z   1
loop_
 _symmetry_equiv_pos_site_id
 _symmetry_equiv_pos_as_xyz
  1  'x, y, z'
loop_
 _atom_site_type_symbol
 _atom_site_label
 _atom_site_symmetry_multiplicity
 _atom_site_fract_x
 _atom_site_fract_y
 _atom_site_fract_z
 _atom_site_occupancy
  Ca  Ca0  1  0.199274  0.000000  0.600480  1
  Ca  Ca1  1  0.399520  0.000000  0.199274  1
  Ca  Ca2  1  0.600480  0.000000  0.800726  1
  Ca  Ca3  1  0.800726  0.000000  0.399520  1
  Er  Er4  1  0.000000  0.000000  0.000000  1
  Si  Si5  1  0.176856  0.245171  0.777507  1
  Si  Si6  1  0.377263  0.245474  0.377263  1
  Si  Si7  1  0.577973  0.245171  0.977321  1
  Si  Si8  1  0.777507  0.245171  0.577973  1
  Si  Si9  1  0.977321  0.245171  0.176856  1
  Si  Si10  1  0.622737  0.754526  0.622737  1
  Si  Si11  1  0.823144  0.754829  0.222493  1
  Si  Si12  1  0.022678  0.754829  0.823144  1
  Si  Si13  1  0.222493  0.754829  0.422027  1
  Si  Si14  1  0.422027  0.754829  0.022678  1
  Ir  Ir15  1  0.950115  0.499199  0.850289  1
  Ir  Ir16  1  0.149711  0.500801  0.449313  1
  Ir  Ir17  1  0.349488  0.500801  0.049885  1
  Ir  Ir18  1  0.550687  0.499199  0.650512  1
  Ir  Ir19  1  0.750000  0.500000  0.250000  1
  Ir  Ir20  1  0.850289  0.499199  0.550687  1
  Ir  Ir21  1  0.049885  0.500801  0.149711  1
  Ir  Ir22  1  0.250000  0.500000  0.750000  1
  Ir  Ir23  1  0.449313  0.500801  0.349488  1
  Ir  Ir24  1  0.650512  0.499199  0.950115  1
