# generated using pymatgen
data_Tb2YbNp7O20
_symmetry_space_group_name_H-M   'P 1'
_cell_length_a   6.57875234
_cell_length_b   7.56128103
_cell_length_c   8.46283459
_cell_angle_alpha   102.42214878
_cell_angle_beta   97.30263555
_cell_angle_gamma   106.92723446
_symmetry_Int_Tables_number   1
_chemical_formula_structural   Tb2YbNp7O20
_chemical_formula_sum   'Tb2 Yb1 Np7 O20'
_cell_volume   385.11020085
_cell_formula_units_Z   1
loop_
 _symmetry_equiv_pos_site_id
 _symmetry_equiv_pos_as_xyz
  1  'x, y, z'
loop_
 _atom_site_type_symbol
 _atom_site_label
 _atom_site_symmetry_multiplicity
 _atom_site_fract_x
 _atom_site_fract_y
 _atom_site_fract_z
 _atom_site_occupancy
  Tb  Tb0  1  0.800423  0.601412  0.601718  1
  Tb  Tb1  1  0.600402  0.199021  0.198782  1
  Yb  Yb2  1  0.999717  0.999895  0.000004  1
  Np  Np3  1  0.000522  0.500329  0.000434  1
  Np  Np4  1  0.799633  0.099930  0.602001  1
  Np  Np5  1  0.603031  0.700903  0.198886  1
  Np  Np6  1  0.199218  0.398004  0.396675  1
  Np  Np7  1  0.396761  0.296623  0.801128  1
  Np  Np8  1  0.199739  0.902454  0.397598  1
  Np  Np9  1  0.400439  0.801624  0.802986  1
  O  O10  1  0.859648  0.319569  0.456147  1
  O  O11  1  0.638352  0.910633  0.051824  1
  O  O12  1  0.857668  0.834623  0.448097  1
  O  O13  1  0.950997  0.764697  0.155591  1
  O  O14  1  0.437665  0.518548  0.654512  1
  O  O15  1  0.648852  0.432015  0.045772  1
  O  O16  1  0.740124  0.365864  0.753766  1
  O  O17  1  0.249237  0.126669  0.262289  1
  O  O18  1  0.959111  0.292819  0.152399  1
  O  O19  1  0.550220  0.968774  0.357026  1
  O  O20  1  0.059891  0.713309  0.850194  1
  O  O21  1  0.443618  0.027104  0.645509  1
  O  O22  1  0.734154  0.879171  0.743233  1
  O  O23  1  0.351168  0.570160  0.953738  1
  O  O24  1  0.255142  0.630161  0.245298  1
  O  O25  1  0.051082  0.234640  0.842577  1
  O  O26  1  0.545070  0.483968  0.347948  1
  O  O27  1  0.151018  0.171889  0.552534  1
  O  O28  1  0.357785  0.076415  0.939480  1
  O  O29  1  0.159312  0.678779  0.541853  1
