# generated using pymatgen
data_PrErBi2O7
_symmetry_space_group_name_H-M   'P 1'
_cell_length_a   6.69194397
_cell_length_b   6.79925367
_cell_length_c   7.86028048
_cell_angle_alpha   106.57254225
_cell_angle_beta   89.75180560
_cell_angle_gamma   98.41257905
_symmetry_Int_Tables_number   1
_chemical_formula_structural   PrErBi2O7
_chemical_formula_sum   'Pr2 Er2 Bi4 O14'
_cell_volume   338.83556218
_cell_formula_units_Z   2
loop_
 _symmetry_equiv_pos_site_id
 _symmetry_equiv_pos_as_xyz
  1  'x, y, z'
loop_
 _atom_site_type_symbol
 _atom_site_label
 _atom_site_symmetry_multiplicity
 _atom_site_fract_x
 _atom_site_fract_y
 _atom_site_fract_z
 _atom_site_occupancy
  Pr  Pr0  1  0.260113  0.539604  0.883568  1
  Pr  Pr1  1  0.739887  0.460396  0.116432  1
  Er  Er2  1  0.460216  0.005534  0.252869  1
  Er  Er3  1  0.539784  0.994466  0.747131  1
  Bi  Bi4  1  0.000000  0.000000  0.500000  1
  Bi  Bi5  1  0.000000  0.000000  0.000000  1
  Bi  Bi6  1  0.723442  0.456508  0.610872  1
  Bi  Bi7  1  0.276558  0.543492  0.389128  1
  O  O8  1  0.445944  0.660402  0.174354  1
  O  O9  1  0.554056  0.339598  0.825646  1
  O  O10  1  0.303763  0.934108  0.948412  1
  O  O11  1  0.696237  0.065892  0.051588  1
  O  O12  1  0.301401  0.925791  0.516457  1
  O  O13  1  0.698599  0.074209  0.483543  1
  O  O14  1  0.533881  0.352841  0.346469  1
  O  O15  1  0.466119  0.647159  0.653531  1
  O  O16  1  0.929110  0.674207  0.954330  1
  O  O17  1  0.070890  0.325793  0.045670  1
  O  O18  1  0.084026  0.323624  0.619486  1
  O  O19  1  0.915974  0.676376  0.380514  1
  O  O20  1  0.875108  0.940463  0.735755  1
  O  O21  1  0.124892  0.059537  0.264245  1
