# generated using pymatgen
data_Tm6MnAl24RuRh6
_symmetry_space_group_name_H-M   'P 1'
_cell_length_a   8.76554800
_cell_length_b   8.76554742
_cell_length_c   9.46935700
_cell_angle_alpha   90.00000000
_cell_angle_beta   90.00000000
_cell_angle_gamma   120.00000973
_symmetry_Int_Tables_number   1
_chemical_formula_structural   Tm6MnAl24RuRh6
_chemical_formula_sum   'Tm6 Mn1 Al24 Ru1 Rh6'
_cell_volume   630.09958701
_cell_formula_units_Z   1
loop_
 _symmetry_equiv_pos_site_id
 _symmetry_equiv_pos_as_xyz
  1  'x, y, z'
loop_
 _atom_site_type_symbol
 _atom_site_label
 _atom_site_symmetry_multiplicity
 _atom_site_fract_x
 _atom_site_fract_y
 _atom_site_fract_z
 _atom_site_occupancy
  Tm  Tm0  1  0.806762  0.193238  0.750306  1
  Tm  Tm1  1  0.193238  0.806762  0.249694  1
  Tm  Tm2  1  0.386477  0.193238  0.750306  1
  Tm  Tm3  1  0.613523  0.806762  0.249694  1
  Tm  Tm4  1  0.806762  0.613523  0.750306  1
  Tm  Tm5  1  0.193238  0.386477  0.249694  1
  Mn  Mn6  1  0.000000  0.000000  0.000000  1
  Al  Al7  1  0.666667  0.333333  0.973173  1
  Al  Al8  1  0.333333  0.666667  0.026827  1
  Al  Al9  1  0.333333  0.666667  0.471366  1
  Al  Al10  1  0.666667  0.333333  0.528634  1
  Al  Al11  1  0.836762  0.163238  0.422119  1
  Al  Al12  1  0.163238  0.836762  0.577881  1
  Al  Al13  1  0.326476  0.163238  0.422119  1
  Al  Al14  1  0.160423  0.839577  0.922880  1
  Al  Al15  1  0.673524  0.836762  0.577881  1
  Al  Al16  1  0.839577  0.160423  0.077120  1
  Al  Al17  1  0.836762  0.673524  0.422119  1
  Al  Al18  1  0.679154  0.839577  0.922880  1
  Al  Al19  1  0.163238  0.326476  0.577881  1
  Al  Al20  1  0.320846  0.160423  0.077120  1
  Al  Al21  1  0.160423  0.320846  0.922880  1
  Al  Al22  1  0.839577  0.679154  0.077120  1
  Al  Al23  1  0.437690  0.562310  0.750332  1
  Al  Al24  1  0.562310  0.437690  0.249668  1
  Al  Al25  1  0.124618  0.562310  0.750332  1
  Al  Al26  1  0.875382  0.437690  0.249668  1
  Al  Al27  1  0.437690  0.875382  0.750332  1
  Al  Al28  1  0.562310  0.124618  0.249668  1
  Al  Al29  1  0.000000  0.000000  0.754808  1
  Al  Al30  1  0.000000  0.000000  0.245192  1
  Ru  Ru31  1  0.000000  0.000000  0.500000  1
  Rh  Rh32  1  0.500000  0.500000  0.000000  1
  Rh  Rh33  1  0.000000  0.500000  0.000000  1
  Rh  Rh34  1  0.500000  0.500000  0.500000  1
  Rh  Rh35  1  0.500000  0.000000  0.000000  1
  Rh  Rh36  1  0.000000  0.500000  0.500000  1
  Rh  Rh37  1  0.500000  0.000000  0.500000  1
