# generated using pymatgen
data_Nd5Dy5(SnSb)4
_symmetry_space_group_name_H-M   'P 1'
_cell_length_a   9.13399495
_cell_length_b   8.54102564
_cell_length_c   8.27967640
_cell_angle_alpha   90.11815962
_cell_angle_beta   90.14556281
_cell_angle_gamma   124.50488336
_symmetry_Int_Tables_number   1
_chemical_formula_structural   Nd5Dy5(SnSb)4
_chemical_formula_sum   'Nd5 Dy5 Sn4 Sb4'
_cell_volume   532.28852895
_cell_formula_units_Z   1
loop_
 _symmetry_equiv_pos_site_id
 _symmetry_equiv_pos_as_xyz
  1  'x, y, z'
loop_
 _atom_site_type_symbol
 _atom_site_label
 _atom_site_symmetry_multiplicity
 _atom_site_fract_x
 _atom_site_fract_y
 _atom_site_fract_z
 _atom_site_occupancy
  Nd  Nd0  1  0.049821  0.338143  0.327356  1
  Nd  Nd1  1  0.948364  0.659772  0.673861  1
  Nd  Nd2  1  0.450640  0.161641  0.823913  1
  Nd  Nd3  1  0.781516  0.515285  0.162218  1
  Nd  Nd4  1  0.551500  0.842175  0.174675  1
  Dy  Dy5  1  0.222390  0.485074  0.839760  1
  Dy  Dy6  1  0.721266  0.981262  0.659773  1
  Dy  Dy7  1  0.275412  0.015759  0.339871  1
  Dy  Dy8  1  0.001382  0.000125  0.999356  1
  Dy  Dy9  1  0.498086  0.499660  0.500561  1
  Sn  Sn10  1  0.364825  0.367340  0.133723  1
  Sn  Sn11  1  0.632212  0.633375  0.865257  1
  Sn  Sn12  1  0.132758  0.133211  0.634363  1
  Sn  Sn13  1  0.866598  0.869618  0.367562  1
  Sb  Sb14  1  0.820767  0.223937  0.967237  1
  Sb  Sb15  1  0.188223  0.779060  0.025928  1
  Sb  Sb16  1  0.677160  0.267317  0.475059  1
  Sb  Sb17  1  0.317078  0.727243  0.529527  1
