# generated using pymatgen
data_La2GaSnRh2
_symmetry_space_group_name_H-M   'P 1'
_cell_length_a   4.25972800
_cell_length_b   7.58667900
_cell_length_c   16.58177500
_cell_angle_alpha   90.00000000
_cell_angle_beta   90.00000000
_cell_angle_gamma   90.00000000
_symmetry_Int_Tables_number   1
_chemical_formula_structural   La2GaSnRh2
_chemical_formula_sum   'La8 Ga4 Sn4 Rh8'
_cell_volume   535.87635602
_cell_formula_units_Z   4
loop_
 _symmetry_equiv_pos_site_id
 _symmetry_equiv_pos_as_xyz
  1  'x, y, z'
loop_
 _atom_site_type_symbol
 _atom_site_label
 _atom_site_symmetry_multiplicity
 _atom_site_fract_x
 _atom_site_fract_y
 _atom_site_fract_z
 _atom_site_occupancy
  La  La0  1  0.250000  0.175977  0.558773  1
  La  La1  1  0.750000  0.824023  0.441227  1
  La  La2  1  0.250000  0.675977  0.941227  1
  La  La3  1  0.750000  0.324023  0.058773  1
  La  La4  1  0.250000  0.044273  0.784931  1
  La  La5  1  0.750000  0.955727  0.215069  1
  La  La6  1  0.250000  0.544273  0.715069  1
  La  La7  1  0.750000  0.455727  0.284931  1
  Ga  Ga8  1  0.250000  0.006090  0.061119  1
  Ga  Ga9  1  0.750000  0.993910  0.938881  1
  Ga  Ga10  1  0.250000  0.506090  0.438881  1
  Ga  Ga11  1  0.750000  0.493910  0.561119  1
  Sn  Sn12  1  0.250000  0.123912  0.349666  1
  Sn  Sn13  1  0.750000  0.876088  0.650334  1
  Sn  Sn14  1  0.250000  0.623912  0.150334  1
  Sn  Sn15  1  0.750000  0.376088  0.849666  1
  Rh  Rh16  1  0.750000  0.280555  0.431104  1
  Rh  Rh17  1  0.250000  0.719445  0.568896  1
  Rh  Rh18  1  0.750000  0.780555  0.068896  1
  Rh  Rh19  1  0.250000  0.219445  0.931104  1
  Rh  Rh20  1  0.750000  0.754248  0.818823  1
  Rh  Rh21  1  0.250000  0.245752  0.181177  1
  Rh  Rh22  1  0.750000  0.254248  0.681177  1
  Rh  Rh23  1  0.250000  0.745752  0.318823  1
