# generated using pymatgen
data_Ba3MnIr2O9
_symmetry_space_group_name_H-M   'P 1'
_cell_length_a   5.89051073
_cell_length_b   5.89051059
_cell_length_c   14.61946661
_cell_angle_alpha   89.33115574
_cell_angle_beta   89.33115251
_cell_angle_gamma   119.93269293
_symmetry_Int_Tables_number   1
_chemical_formula_structural   Ba3MnIr2O9
_chemical_formula_sum   'Ba6 Mn2 Ir4 O18'
_cell_volume   439.48499657
_cell_formula_units_Z   2
loop_
 _symmetry_equiv_pos_site_id
 _symmetry_equiv_pos_as_xyz
  1  'x, y, z'
loop_
 _atom_site_type_symbol
 _atom_site_label
 _atom_site_symmetry_multiplicity
 _atom_site_fract_x
 _atom_site_fract_y
 _atom_site_fract_z
 _atom_site_occupancy
  Ba  Ba0  1  0.338498  0.673229  0.414110  1
  Ba  Ba1  1  0.326771  0.661502  0.085890  1
  Ba  Ba2  1  0.661502  0.326771  0.585890  1
  Ba  Ba3  1  0.673229  0.338498  0.914110  1
  Ba  Ba4  1  0.997290  0.002710  0.250000  1
  Ba  Ba5  1  0.002710  0.997290  0.750000  1
  Mn  Mn6  1  0.000000  0.000000  0.000000  1
  Mn  Mn7  1  0.000000  0.000000  0.500000  1
  Ir  Ir8  1  0.677627  0.345776  0.342658  1
  Ir  Ir9  1  0.654224  0.322373  0.157342  1
  Ir  Ir10  1  0.345776  0.677627  0.842658  1
  Ir  Ir11  1  0.322373  0.654224  0.657342  1
  O  O12  1  0.849128  0.677444  0.408258  1
  O  O13  1  0.322556  0.150872  0.091742  1
  O  O14  1  0.150872  0.322556  0.591742  1
  O  O15  1  0.677444  0.849128  0.908258  1
  O  O16  1  0.369075  0.195204  0.424829  1
  O  O17  1  0.804796  0.630925  0.075171  1
  O  O18  1  0.630925  0.804796  0.575171  1
  O  O19  1  0.195204  0.369075  0.924829  1
  O  O20  1  0.848434  0.194358  0.415910  1
  O  O21  1  0.805642  0.151566  0.084090  1
  O  O22  1  0.151566  0.805642  0.584090  1
  O  O23  1  0.194358  0.848434  0.915910  1
  O  O24  1  0.485326  0.514674  0.750000  1
  O  O25  1  0.514674  0.485326  0.250000  1
  O  O26  1  0.032750  0.514617  0.757181  1
  O  O27  1  0.485383  0.967250  0.742819  1
  O  O28  1  0.967250  0.485383  0.242819  1
  O  O29  1  0.514617  0.032750  0.257181  1
