# generated using pymatgen
data_Dy7TmTi11Si16Ru
_symmetry_space_group_name_H-M   'P 1'
_cell_length_a   7.03229991
_cell_length_b   7.03115454
_cell_length_c   12.90039848
_cell_angle_alpha   89.99048375
_cell_angle_beta   90.02150660
_cell_angle_gamma   89.91418808
_symmetry_Int_Tables_number   1
_chemical_formula_structural   Dy7TmTi11Si16Ru
_chemical_formula_sum   'Dy7 Tm1 Ti11 Si16 Ru1'
_cell_volume   637.86185233
_cell_formula_units_Z   1
loop_
 _symmetry_equiv_pos_site_id
 _symmetry_equiv_pos_as_xyz
  1  'x, y, z'
loop_
 _atom_site_type_symbol
 _atom_site_label
 _atom_site_symmetry_multiplicity
 _atom_site_fract_x
 _atom_site_fract_y
 _atom_site_fract_z
 _atom_site_occupancy
  Dy  Dy0  1  0.001691  0.341633  0.531789  1
  Dy  Dy1  1  0.659956  0.995712  0.967454  1
  Dy  Dy2  1  0.159046  0.503402  0.782124  1
  Dy  Dy3  1  0.840507  0.499698  0.284842  1
  Dy  Dy4  1  0.503272  0.159240  0.217969  1
  Dy  Dy5  1  0.499643  0.840418  0.715088  1
  Dy  Dy6  1  0.341553  0.001637  0.468213  1
  Tm  Tm7  1  0.996695  0.659291  0.032668  1
  Ti  Ti8  1  0.344105  0.507409  0.374349  1
  Ti  Ti9  1  0.849336  0.995896  0.375629  1
  Ti  Ti10  1  0.006113  0.151467  0.124659  1
  Ti  Ti11  1  0.996064  0.849184  0.624390  1
  Ti  Ti12  1  0.507401  0.344209  0.625573  1
  Ti  Ti13  1  0.151500  0.005993  0.875412  1
  Ti  Ti14  1  0.825245  0.172397  0.748712  1
  Ti  Ti15  1  0.172329  0.825070  0.251212  1
  Ti  Ti16  1  0.325862  0.326392  0.000015  1
  Ti  Ti17  1  0.492915  0.651398  0.127851  1
  Ti  Ti18  1  0.651478  0.493185  0.872213  1
  Si  Si19  1  0.046636  0.712841  0.435529  1
  Si  Si20  1  0.952345  0.292127  0.934587  1
  Si  Si21  1  0.712904  0.046526  0.564520  1
  Si  Si22  1  0.207385  0.453702  0.184085  1
  Si  Si23  1  0.790460  0.550254  0.682099  1
  Si  Si24  1  0.453118  0.207855  0.815612  1
  Si  Si25  1  0.550171  0.790361  0.317882  1
  Si  Si26  1  0.290808  0.951640  0.065625  1
  Si  Si27  1  0.798022  0.868168  0.184860  1
  Si  Si28  1  0.300075  0.626935  0.565722  1
  Si  Si29  1  0.704153  0.369813  0.065505  1
  Si  Si30  1  0.626906  0.300173  0.434254  1
  Si  Si31  1  0.368405  0.703476  0.934666  1
  Si  Si32  1  0.130767  0.203277  0.315812  1
  Si  Si33  1  0.203200  0.130723  0.684186  1
  Si  Si34  1  0.868761  0.797319  0.814924  1
  Ru  Ru35  1  0.671174  0.671179  0.499974  1
