# generated using pymatgen
data_LiEr4(SiB4)2
_symmetry_space_group_name_H-M   'P 1'
_cell_length_a   7.10763800
_cell_length_b   7.10763800
_cell_length_c   7.75367200
_cell_angle_alpha   90.00000000
_cell_angle_beta   90.00000000
_cell_angle_gamma   90.00000000
_symmetry_Int_Tables_number   1
_chemical_formula_structural   LiEr4(SiB4)2
_chemical_formula_sum   'Li2 Er8 Si4 B16'
_cell_volume   391.70401803
_cell_formula_units_Z   2
loop_
 _symmetry_equiv_pos_site_id
 _symmetry_equiv_pos_as_xyz
  1  'x, y, z'
loop_
 _atom_site_type_symbol
 _atom_site_label
 _atom_site_symmetry_multiplicity
 _atom_site_fract_x
 _atom_site_fract_y
 _atom_site_fract_z
 _atom_site_occupancy
  Li  Li0  1  0.000000  0.000000  0.500000  1
  Li  Li1  1  0.500000  0.500000  0.500000  1
  Er  Er2  1  0.683303  0.183303  0.234795  1
  Er  Er3  1  0.316697  0.816697  0.765205  1
  Er  Er4  1  0.316697  0.816697  0.234795  1
  Er  Er5  1  0.816697  0.683303  0.234795  1
  Er  Er6  1  0.816697  0.683303  0.765205  1
  Er  Er7  1  0.683303  0.183303  0.765205  1
  Er  Er8  1  0.183303  0.316697  0.765205  1
  Er  Er9  1  0.183303  0.316697  0.234795  1
  Si  Si10  1  0.115484  0.615484  0.500000  1
  Si  Si11  1  0.884516  0.384516  0.500000  1
  Si  Si12  1  0.384516  0.115484  0.500000  1
  Si  Si13  1  0.615484  0.884516  0.500000  1
  B  B14  1  0.174215  0.039760  0.000000  1
  B  B15  1  0.825785  0.960240  0.000000  1
  B  B16  1  0.960240  0.174215  0.000000  1
  B  B17  1  0.325785  0.539760  0.000000  1
  B  B18  1  0.039760  0.825785  0.000000  1
  B  B19  1  0.674215  0.460240  0.000000  1
  B  B20  1  0.539760  0.674215  0.000000  1
  B  B21  1  0.460240  0.325785  0.000000  1
  B  B22  1  0.088839  0.588839  0.000000  1
  B  B23  1  0.911161  0.411161  0.000000  1
  B  B24  1  0.411161  0.088839  0.000000  1
  B  B25  1  0.588839  0.911161  0.000000  1
  B  B26  1  0.000000  0.000000  0.163960  1
  B  B27  1  0.000000  0.000000  0.836040  1
  B  B28  1  0.500000  0.500000  0.836040  1
  B  B29  1  0.500000  0.500000  0.163960  1
