# generated using pymatgen
data_U4Ga3Ge2AsRu7
_symmetry_space_group_name_H-M   'P 1'
_cell_length_a   7.19359774
_cell_length_b   7.19359581
_cell_length_c   7.19359644
_cell_angle_alpha   109.52630963
_cell_angle_beta   109.35816042
_cell_angle_gamma   109.52924926
_symmetry_Int_Tables_number   1
_chemical_formula_structural   U4Ga3Ge2AsRu7
_chemical_formula_sum   'U4 Ga3 Ge2 As1 Ru7'
_cell_volume   286.55969201
_cell_formula_units_Z   1
loop_
 _symmetry_equiv_pos_site_id
 _symmetry_equiv_pos_as_xyz
  1  'x, y, z'
loop_
 _atom_site_type_symbol
 _atom_site_label
 _atom_site_symmetry_multiplicity
 _atom_site_fract_x
 _atom_site_fract_y
 _atom_site_fract_z
 _atom_site_occupancy
  U  U0  1  0.002290  0.000018  0.504836  1
  U  U1  1  0.504818  0.999982  0.002272  1
  U  U2  1  0.002290  0.497454  0.002272  1
  U  U3  1  0.504818  0.502546  0.504836  1
  Ga  Ga4  1  0.298911  0.000000  0.298911  1
  Ga  Ga5  1  0.003534  0.308615  0.312149  1
  Ga  Ga6  1  0.003534  0.691385  0.694919  1
  Ge  Ge7  1  0.309386  0.305970  0.003416  1
  Ge  Ge8  1  0.697445  0.694030  0.003416  1
  As  As9  1  0.688424  0.000000  0.688424  1
  Ru  Ru10  1  0.750426  0.500000  0.250426  1
  Ru  Ru11  1  0.497789  0.749661  0.247450  1
  Ru  Ru12  1  0.497789  0.250339  0.748127  1
  Ru  Ru13  1  0.747423  0.249149  0.498275  1
  Ru  Ru14  1  0.249126  0.750851  0.498275  1
  Ru  Ru15  1  0.252170  0.500000  0.752170  1
  Ru  Ru16  1  0.989825  0.000000  0.989825  1
