# generated using pymatgen
data_DyAl8(FeCu)2
_symmetry_space_group_name_H-M   'P 1'
_cell_length_a   6.69024791
_cell_length_b   6.69024878
_cell_length_c   6.68095627
_cell_angle_alpha   98.32026944
_cell_angle_beta   98.32027635
_cell_angle_gamma   135.31546571
_symmetry_Int_Tables_number   1
_chemical_formula_structural   DyAl8(FeCu)2
_chemical_formula_sum   'Dy1 Al8 Fe2 Cu2'
_cell_volume   194.45102596
_cell_formula_units_Z   1
loop_
 _symmetry_equiv_pos_site_id
 _symmetry_equiv_pos_as_xyz
  1  'x, y, z'
loop_
 _atom_site_type_symbol
 _atom_site_label
 _atom_site_symmetry_multiplicity
 _atom_site_fract_x
 _atom_site_fract_y
 _atom_site_fract_z
 _atom_site_occupancy
  Dy  Dy0  1  0.000000  0.000000  0.000000  1
  Al  Al1  1  0.009717  0.654413  0.664130  1
  Al  Al2  1  0.345587  0.990283  0.335870  1
  Al  Al3  1  0.654413  0.009717  0.664130  1
  Al  Al4  1  0.990283  0.345587  0.335870  1
  Al  Al5  1  0.496357  0.719965  0.216322  1
  Al  Al6  1  0.503643  0.280035  0.783678  1
  Al  Al7  1  0.719965  0.496357  0.216322  1
  Al  Al8  1  0.280035  0.503643  0.783678  1
  Fe  Fe9  1  0.500000  0.000000  0.000000  1
  Fe  Fe10  1  0.000000  0.500000  0.000000  1
  Cu  Cu11  1  0.500000  0.500000  0.500000  1
  Cu  Cu12  1  0.000000  0.000000  0.500000  1
