# generated using pymatgen
data_Sm3ZrIn2Ir3
_symmetry_space_group_name_H-M   'P 1'
_cell_length_a   7.49555078
_cell_length_b   7.27195942
_cell_length_c   4.27048400
_cell_angle_alpha   90.00000000
_cell_angle_beta   90.00000000
_cell_angle_gamma   119.01803907
_symmetry_Int_Tables_number   1
_chemical_formula_structural   Sm3ZrIn2Ir3
_chemical_formula_sum   'Sm3 Zr1 In2 Ir3'
_cell_volume   203.55207510
_cell_formula_units_Z   1
loop_
 _symmetry_equiv_pos_site_id
 _symmetry_equiv_pos_as_xyz
  1  'x, y, z'
loop_
 _atom_site_type_symbol
 _atom_site_label
 _atom_site_symmetry_multiplicity
 _atom_site_fract_x
 _atom_site_fract_y
 _atom_site_fract_z
 _atom_site_occupancy
  Sm  Sm0  1  0.578567  0.584503  0.000000  1
  Sm  Sm1  1  0.421433  0.005936  0.000000  1
  Sm  Sm2  1  0.000000  0.395151  0.000000  1
  Zr  Zr3  1  0.000000  0.756651  0.500000  1
  In  In4  1  0.252097  0.250263  0.500000  1
  In  In5  1  0.747903  0.998166  0.500000  1
  Ir  Ir6  1  0.000000  0.980923  0.000000  1
  Ir  Ir7  1  0.681070  0.354738  0.500000  1
  Ir  Ir8  1  0.318930  0.673668  0.500000  1
