# generated using pymatgen
data_Pr3PuHf4F28
_symmetry_space_group_name_H-M   'P 1'
_cell_length_a   5.85843727
_cell_length_b   9.31331794
_cell_length_c   12.48356600
_cell_angle_alpha   62.00638162
_cell_angle_beta   90.01742804
_cell_angle_gamma   89.97666342
_symmetry_Int_Tables_number   1
_chemical_formula_structural   Pr3PuHf4F28
_chemical_formula_sum   'Pr3 Pu1 Hf4 F28'
_cell_volume   601.43045197
_cell_formula_units_Z   1
loop_
 _symmetry_equiv_pos_site_id
 _symmetry_equiv_pos_as_xyz
  1  'x, y, z'
loop_
 _atom_site_type_symbol
 _atom_site_label
 _atom_site_symmetry_multiplicity
 _atom_site_fract_x
 _atom_site_fract_y
 _atom_site_fract_z
 _atom_site_occupancy
  Pr  Pr0  1  0.742379  0.812371  0.265783  1
  Pr  Pr1  1  0.242161  0.188132  0.233952  1
  Pr  Pr2  1  0.257105  0.188402  0.733870  1
  Pu  Pu3  1  0.757693  0.813695  0.764603  1
  Hf  Hf4  1  0.744617  0.274417  0.455597  1
  Hf  Hf5  1  0.243592  0.725741  0.044430  1
  Hf  Hf6  1  0.255621  0.726029  0.544128  1
  Hf  Hf7  1  0.755332  0.274794  0.955482  1
  F  F8  1  0.456947  0.713376  0.924047  1
  F  F9  1  0.955853  0.287064  0.577445  1
  F  F10  1  0.543953  0.288952  0.076182  1
  F  F11  1  0.044752  0.711797  0.422884  1
  F  F12  1  0.462261  0.285325  0.544120  1
  F  F13  1  0.961670  0.711835  0.957098  1
  F  F14  1  0.537557  0.715587  0.455229  1
  F  F15  1  0.036796  0.284429  0.044993  1
  F  F16  1  0.770851  0.517351  0.858137  1
  F  F17  1  0.264497  0.482787  0.638694  1
  F  F18  1  0.235929  0.482556  0.140763  1
  F  F19  1  0.734582  0.517032  0.360432  1
  F  F20  1  0.762341  0.031742  0.053987  1
  F  F21  1  0.264835  0.968807  0.445816  1
  F  F22  1  0.239455  0.968906  0.945648  1
  F  F23  1  0.738728  0.030879  0.554232  1
  F  F24  1  0.984509  0.735975  0.638261  1
  F  F25  1  0.487074  0.267998  0.857841  1
  F  F26  1  0.013611  0.268412  0.358569  1
  F  F27  1  0.511509  0.731375  0.142939  1
  F  F28  1  0.043582  0.743577  0.169236  1
  F  F29  1  0.544283  0.256342  0.331349  1
  F  F30  1  0.956450  0.255530  0.831647  1
  F  F31  1  0.452208  0.738599  0.672489  1
  F  F32  1  0.412857  0.967709  0.231502  1
  F  F33  1  0.913064  0.033475  0.268421  1
  F  F34  1  0.588271  0.034927  0.763557  1
  F  F35  1  0.083070  0.964076  0.736634  1
