# generated using pymatgen
data_Rb8Gd(WBr8)3
_symmetry_space_group_name_H-M   'P 1'
_cell_length_a   13.37051978
_cell_length_b   13.37051983
_cell_length_c   13.37052000
_cell_angle_alpha   131.67518402
_cell_angle_beta   131.67518422
_cell_angle_gamma   70.74252015
_symmetry_Int_Tables_number   1
_chemical_formula_structural   Rb8Gd(WBr8)3
_chemical_formula_sum   'Rb8 Gd1 W3 Br24'
_cell_volume   1306.23340257
_cell_formula_units_Z   1
loop_
 _symmetry_equiv_pos_site_id
 _symmetry_equiv_pos_as_xyz
  1  'x, y, z'
loop_
 _atom_site_type_symbol
 _atom_site_label
 _atom_site_symmetry_multiplicity
 _atom_site_fract_x
 _atom_site_fract_y
 _atom_site_fract_z
 _atom_site_occupancy
  Rb  Rb0  1  0.117470  0.640635  0.998620  1
  Rb  Rb1  1  0.359365  0.882530  0.001380  1
  Rb  Rb2  1  0.642038  0.640532  0.523188  1
  Rb  Rb3  1  0.359468  0.357962  0.476812  1
  Rb  Rb4  1  0.881141  0.358002  0.998578  1
  Rb  Rb5  1  0.881069  0.882576  0.523097  1
  Rb  Rb6  1  0.117424  0.118931  0.476903  1
  Rb  Rb7  1  0.641998  0.118859  0.001422  1
  Gd  Gd8  1  0.999997  0.000003  0.000000  1
  W  W9  1  0.750020  0.249980  0.500000  1
  W  W10  1  0.499992  0.500008  0.000000  1
  W  W11  1  0.250022  0.749978  0.500000  1
  Br  Br12  1  0.257491  0.999566  0.257881  1
  Br  Br13  1  0.000434  0.742509  0.742119  1
  Br  Br14  1  0.251728  0.984188  0.732227  1
  Br  Br15  1  0.748741  0.481097  0.732359  1
  Br  Br16  1  0.480480  0.748032  0.732290  1
  Br  Br17  1  0.129575  0.129561  0.000016  1
  Br  Br18  1  0.499468  0.731924  0.232389  1
  Br  Br19  1  0.866852  0.366823  0.500153  1
  Br  Br20  1  0.000372  0.258259  0.257870  1
  Br  Br21  1  0.383265  0.383266  0.999915  1
  Br  Br22  1  0.616734  0.616735  0.000085  1
  Br  Br23  1  0.499471  0.267068  0.767557  1
  Br  Br24  1  0.268076  0.500532  0.767611  1
  Br  Br25  1  0.518903  0.251259  0.267641  1
  Br  Br26  1  0.366233  0.866218  0.499837  1
  Br  Br27  1  0.633177  0.133148  0.499847  1
  Br  Br28  1  0.251968  0.519520  0.267710  1
  Br  Br29  1  0.133782  0.633767  0.500163  1
  Br  Br30  1  0.015812  0.748272  0.267773  1
  Br  Br31  1  0.983665  0.251343  0.732457  1
  Br  Br32  1  0.741741  0.999628  0.742130  1
  Br  Br33  1  0.732932  0.500529  0.232443  1
  Br  Br34  1  0.748657  0.016335  0.267543  1
  Br  Br35  1  0.870439  0.870425  0.999984  1
