# generated using pymatgen
data_Er9LuSn5Bi
_symmetry_space_group_name_H-M   'P 1'
_cell_length_a   8.90715502
_cell_length_b   8.91063668
_cell_length_c   6.45979905
_cell_angle_alpha   89.98541925
_cell_angle_beta   90.00807274
_cell_angle_gamma   119.98450889
_symmetry_Int_Tables_number   1
_chemical_formula_structural   Er9LuSn5Bi
_chemical_formula_sum   'Er9 Lu1 Sn5 Bi1'
_cell_volume   444.08401934
_cell_formula_units_Z   1
loop_
 _symmetry_equiv_pos_site_id
 _symmetry_equiv_pos_as_xyz
  1  'x, y, z'
loop_
 _atom_site_type_symbol
 _atom_site_label
 _atom_site_symmetry_multiplicity
 _atom_site_fract_x
 _atom_site_fract_y
 _atom_site_fract_z
 _atom_site_occupancy
  Er  Er0  1  0.993482  0.757658  0.749872  1
  Er  Er1  1  0.000732  0.238975  0.250123  1
  Er  Er2  1  0.761685  0.761099  0.250131  1
  Er  Er3  1  0.765154  0.999958  0.749889  1
  Er  Er4  1  0.235830  0.242428  0.749907  1
  Er  Er5  1  0.237548  0.999963  0.250071  1
  Er  Er6  1  0.670591  0.337773  0.001839  1
  Er  Er7  1  0.670580  0.337761  0.498191  1
  Er  Er8  1  0.332831  0.662265  0.001800  1
  Lu  Lu9  1  0.332798  0.662077  0.498086  1
  Sn  Sn10  1  0.395391  0.393332  0.250379  1
  Sn  Sn11  1  0.002809  0.607037  0.250404  1
  Sn  Sn12  1  0.999529  0.395975  0.749624  1
  Sn  Sn13  1  0.603164  0.604436  0.749621  1
  Sn  Sn14  1  0.605103  0.999594  0.250339  1
  Bi  Bi15  1  0.392771  0.999669  0.749727  1
