# generated using pymatgen
data_Ca4TbDyU2O12
_symmetry_space_group_name_H-M   'P 1'
_cell_length_a   6.80604870
_cell_length_b   6.79323114
_cell_length_c   6.76948122
_cell_angle_alpha   91.61390199
_cell_angle_beta   91.40049939
_cell_angle_gamma   91.34252820
_symmetry_Int_Tables_number   1
_chemical_formula_structural   Ca4TbDyU2O12
_chemical_formula_sum   'Ca4 Tb1 Dy1 U2 O12'
_cell_volume   312.67866176
_cell_formula_units_Z   1
loop_
 _symmetry_equiv_pos_site_id
 _symmetry_equiv_pos_as_xyz
  1  'x, y, z'
loop_
 _atom_site_type_symbol
 _atom_site_label
 _atom_site_symmetry_multiplicity
 _atom_site_fract_x
 _atom_site_fract_y
 _atom_site_fract_z
 _atom_site_occupancy
  Ca  Ca0  1  0.553123  0.249862  0.059705  1
  Ca  Ca1  1  0.252433  0.058875  0.556687  1
  Ca  Ca2  1  0.062978  0.556509  0.250594  1
  Ca  Ca3  1  0.444598  0.749535  0.940787  1
  Tb  Tb4  1  0.937650  0.442111  0.748595  1
  Dy  Dy5  1  0.748948  0.937868  0.440432  1
  U  U6  1  0.998594  0.998247  0.998803  1
  U  U7  1  0.498140  0.498523  0.499764  1
  O  O8  1  0.292386  0.061891  0.923470  1
  O  O9  1  0.056338  0.922685  0.302929  1
  O  O10  1  0.924908  0.301768  0.055561  1
  O  O11  1  0.702593  0.934930  0.091269  1
  O  O12  1  0.923872  0.086045  0.691081  1
  O  O13  1  0.071979  0.693752  0.926713  1
  O  O14  1  0.194702  0.409147  0.546447  1
  O  O15  1  0.411268  0.539734  0.203183  1
  O  O16  1  0.472443  0.804938  0.586357  1
  O  O17  1  0.599723  0.459073  0.797349  1
  O  O18  1  0.805917  0.599089  0.469299  1
  O  O19  1  0.547407  0.195420  0.410977  1
