# generated using pymatgen
data_DyLu9(In2Ir)4
_symmetry_space_group_name_H-M   'P 1'
_cell_length_a   3.52650200
_cell_length_b   7.97868622
_cell_length_c   18.11968904
_cell_angle_alpha   90.08546128
_cell_angle_beta   90.00000000
_cell_angle_gamma   90.00000000
_symmetry_Int_Tables_number   1
_chemical_formula_structural   DyLu9(In2Ir)4
_chemical_formula_sum   'Dy1 Lu9 In8 Ir4'
_cell_volume   509.83045810
_cell_formula_units_Z   1
loop_
 _symmetry_equiv_pos_site_id
 _symmetry_equiv_pos_as_xyz
  1  'x, y, z'
loop_
 _atom_site_type_symbol
 _atom_site_label
 _atom_site_symmetry_multiplicity
 _atom_site_fract_x
 _atom_site_fract_y
 _atom_site_fract_z
 _atom_site_occupancy
  Dy  Dy0  1  0.000000  0.500000  0.000000  1
  Lu  Lu1  1  0.000000  0.881221  0.087862  1
  Lu  Lu2  1  0.000000  0.754793  0.278676  1
  Lu  Lu3  1  0.000000  0.746114  0.777685  1
  Lu  Lu4  1  0.000000  0.382388  0.412579  1
  Lu  Lu5  1  0.000000  0.118779  0.912138  1
  Lu  Lu6  1  0.000000  0.245207  0.721324  1
  Lu  Lu7  1  0.000000  0.253886  0.222315  1
  Lu  Lu8  1  0.000000  0.617612  0.587421  1
  Lu  Lu9  1  0.000000  0.000000  0.500000  1
  In  In10  1  0.500000  0.203168  0.067114  1
  In  In11  1  0.500000  0.429124  0.850176  1
  In  In12  1  0.500000  0.570876  0.149824  1
  In  In13  1  0.500000  0.069994  0.351847  1
  In  In14  1  0.500000  0.930006  0.648153  1
  In  In15  1  0.500000  0.796832  0.932886  1
  In  In16  1  0.500000  0.705119  0.434014  1
  In  In17  1  0.500000  0.294881  0.565986  1
  Ir  Ir18  1  0.500000  0.975396  0.196578  1
  Ir  Ir19  1  0.500000  0.024604  0.803422  1
  Ir  Ir20  1  0.500000  0.524214  0.696142  1
  Ir  Ir21  1  0.500000  0.475786  0.303858  1
