# generated using pymatgen
data_Li2SmY2(CuSn2)2
_symmetry_space_group_name_H-M   'P 1'
_cell_length_a   4.51777844
_cell_length_b   7.26492528
_cell_length_c   8.72167928
_cell_angle_alpha   116.66466197
_cell_angle_beta   105.01056608
_cell_angle_gamma   89.99999029
_symmetry_Int_Tables_number   1
_chemical_formula_structural   Li2SmY2(CuSn2)2
_chemical_formula_sum   'Li2 Sm1 Y2 Cu2 Sn4'
_cell_volume   244.83394478
_cell_formula_units_Z   1
loop_
 _symmetry_equiv_pos_site_id
 _symmetry_equiv_pos_as_xyz
  1  'x, y, z'
loop_
 _atom_site_type_symbol
 _atom_site_label
 _atom_site_symmetry_multiplicity
 _atom_site_fract_x
 _atom_site_fract_y
 _atom_site_fract_z
 _atom_site_occupancy
  Li  Li0  1  0.319860  0.631362  0.639719  1
  Li  Li1  1  0.680140  0.368638  0.360281  1
  Sm  Sm2  1  0.000000  0.000000  0.000000  1
  Y  Y3  1  0.871328  0.337542  0.742656  1
  Y  Y4  1  0.128672  0.662458  0.257344  1
  Cu  Cu5  1  0.339152  0.021219  0.678306  1
  Cu  Cu6  1  0.660848  0.978781  0.321694  1
  Sn  Sn7  1  0.218788  0.191261  0.437575  1
  Sn  Sn8  1  0.781212  0.808739  0.562425  1
  Sn  Sn9  1  0.507826  0.310787  0.015649  1
  Sn  Sn10  1  0.492174  0.689213  0.984351  1
