# generated using pymatgen
data_NpPa(TaN2)2
_symmetry_space_group_name_H-M   'P 1'
_cell_length_a   3.28395400
_cell_length_b   5.68235513
_cell_length_c   11.01787426
_cell_angle_alpha   89.95150051
_cell_angle_beta   90.00000000
_cell_angle_gamma   90.00000000
_symmetry_Int_Tables_number   1
_chemical_formula_structural   NpPa(TaN2)2
_chemical_formula_sum   'Np2 Pa2 Ta4 N8'
_cell_volume   205.59999199
_cell_formula_units_Z   2
loop_
 _symmetry_equiv_pos_site_id
 _symmetry_equiv_pos_as_xyz
  1  'x, y, z'
loop_
 _atom_site_type_symbol
 _atom_site_label
 _atom_site_symmetry_multiplicity
 _atom_site_fract_x
 _atom_site_fract_y
 _atom_site_fract_z
 _atom_site_occupancy
  Np  Np0  1  0.250000  0.577399  0.859926  1
  Np  Np1  1  0.750000  0.422601  0.140074  1
  Pa  Pa2  1  0.750000  0.922044  0.356248  1
  Pa  Pa3  1  0.250000  0.077956  0.643752  1
  Ta  Ta4  1  0.250000  0.922426  0.101214  1
  Ta  Ta5  1  0.750000  0.077574  0.898786  1
  Ta  Ta6  1  0.750000  0.575269  0.602321  1
  Ta  Ta7  1  0.250000  0.424731  0.397679  1
  N  N8  1  0.250000  0.663887  0.246998  1
  N  N9  1  0.750000  0.336113  0.753002  1
  N  N10  1  0.750000  0.840014  0.744882  1
  N  N11  1  0.250000  0.159986  0.255118  1
  N  N12  1  0.250000  0.756807  0.506118  1
  N  N13  1  0.750000  0.243193  0.493882  1
  N  N14  1  0.750000  0.745150  0.005242  1
  N  N15  1  0.250000  0.254850  0.994758  1
