# generated using pymatgen
data_LaYFe3Re14C3
_symmetry_space_group_name_H-M   'P 1'
_cell_length_a   6.94826723
_cell_length_b   6.94826715
_cell_length_c   6.94826680
_cell_angle_alpha   82.66727081
_cell_angle_beta   82.66727474
_cell_angle_gamma   82.66726271
_symmetry_Int_Tables_number   1
_chemical_formula_structural   LaYFe3Re14C3
_chemical_formula_sum   'La1 Y1 Fe3 Re14 C3'
_cell_volume   327.86638331
_cell_formula_units_Z   1
loop_
 _symmetry_equiv_pos_site_id
 _symmetry_equiv_pos_as_xyz
  1  'x, y, z'
loop_
 _atom_site_type_symbol
 _atom_site_label
 _atom_site_symmetry_multiplicity
 _atom_site_fract_x
 _atom_site_fract_y
 _atom_site_fract_z
 _atom_site_occupancy
  La  La0  1  0.647710  0.647710  0.647710  1
  Y  Y1  1  0.350369  0.350369  0.350369  1
  Fe  Fe2  1  0.998086  0.998086  0.501188  1
  Fe  Fe3  1  0.501188  0.998086  0.998086  1
  Fe  Fe4  1  0.998086  0.501188  0.998086  1
  Re  Re5  1  0.721985  0.277314  0.000825  1
  Re  Re6  1  0.000825  0.721985  0.277314  1
  Re  Re7  1  0.277314  0.000825  0.721985  1
  Re  Re8  1  0.000825  0.277314  0.721985  1
  Re  Re9  1  0.721985  0.000825  0.277314  1
  Re  Re10  1  0.277314  0.721985  0.000825  1
  Re  Re11  1  0.344496  0.344496  0.865653  1
  Re  Re12  1  0.865653  0.344496  0.344496  1
  Re  Re13  1  0.344496  0.865653  0.344496  1
  Re  Re14  1  0.653934  0.653934  0.139514  1
  Re  Re15  1  0.139514  0.653934  0.653934  1
  Re  Re16  1  0.653934  0.139514  0.653934  1
  Re  Re17  1  0.899047  0.899047  0.899047  1
  Re  Re18  1  0.101514  0.101514  0.101514  1
  C  C19  1  0.495504  0.495504  0.010718  1
  C  C20  1  0.010718  0.495504  0.495504  1
  C  C21  1  0.495504  0.010718  0.495504  1
