# generated using pymatgen
data_TbCeSm2CdRu
_symmetry_space_group_name_H-M   'P 1'
_cell_length_a   9.73122333
_cell_length_b   9.72609725
_cell_length_c   9.74306464
_cell_angle_alpha   60.02378270
_cell_angle_beta   60.04019728
_cell_angle_gamma   59.98256054
_symmetry_Int_Tables_number   1
_chemical_formula_structural   TbCeSm2CdRu
_chemical_formula_sum   'Tb4 Ce4 Sm8 Cd4 Ru4'
_cell_volume   652.28758556
_cell_formula_units_Z   4
loop_
 _symmetry_equiv_pos_site_id
 _symmetry_equiv_pos_as_xyz
  1  'x, y, z'
loop_
 _atom_site_type_symbol
 _atom_site_label
 _atom_site_symmetry_multiplicity
 _atom_site_fract_x
 _atom_site_fract_y
 _atom_site_fract_z
 _atom_site_occupancy
  Tb  Tb0  1  0.189285  0.809949  0.811480  1
  Tb  Tb1  1  0.811212  0.810815  0.189675  1
  Tb  Tb2  1  0.188297  0.810814  0.189674  1
  Tb  Tb3  1  0.810565  0.188516  0.190355  1
  Ce  Ce4  1  0.344750  0.346332  0.964168  1
  Ce  Ce5  1  0.345459  0.963384  0.345700  1
  Ce  Ce6  1  0.964891  0.345520  0.344078  1
  Ce  Ce7  1  0.345512  0.345520  0.344078  1
  Sm  Sm8  1  0.560272  0.561258  0.939669  1
  Sm  Sm9  1  0.938801  0.561258  0.939669  1
  Sm  Sm10  1  0.560375  0.938730  0.940520  1
  Sm  Sm11  1  0.939898  0.939178  0.559851  1
  Sm  Sm12  1  0.561072  0.939178  0.559851  1
  Sm  Sm13  1  0.939004  0.562099  0.559892  1
  Sm  Sm14  1  0.189292  0.188720  0.811466  1
  Sm  Sm15  1  0.810522  0.188720  0.811466  1
  Cd  Cd16  1  0.580412  0.580314  0.258862  1
  Cd  Cd17  1  0.580686  0.258995  0.579633  1
  Cd  Cd18  1  0.259426  0.580703  0.579865  1
  Cd  Cd19  1  0.580006  0.580703  0.579865  1
  Ru  Ru20  1  0.145891  0.144165  0.564052  1
  Ru  Ru21  1  0.144778  0.565945  0.144497  1
  Ru  Ru22  1  0.565190  0.144591  0.145816  1
  Ru  Ru23  1  0.144401  0.144591  0.145816  1
