# generated using pymatgen
data_Pr2IrBr
_symmetry_space_group_name_H-M   'P 1'
_cell_length_a   4.19088500
_cell_length_b   4.19088449
_cell_length_c   15.76790700
_cell_angle_alpha   90.00000000
_cell_angle_beta   90.00000000
_cell_angle_gamma   120.00001190
_symmetry_Int_Tables_number   1
_chemical_formula_structural   Pr2IrBr
_chemical_formula_sum   'Pr4 Ir2 Br2'
_cell_volume   239.83693437
_cell_formula_units_Z   2
loop_
 _symmetry_equiv_pos_site_id
 _symmetry_equiv_pos_as_xyz
  1  'x, y, z'
loop_
 _atom_site_type_symbol
 _atom_site_label
 _atom_site_symmetry_multiplicity
 _atom_site_fract_x
 _atom_site_fract_y
 _atom_site_fract_z
 _atom_site_occupancy
  Pr  Pr0  1  0.333333  0.666667  0.097311  1
  Pr  Pr1  1  0.666667  0.333333  0.597311  1
  Pr  Pr2  1  0.666667  0.333333  0.902689  1
  Pr  Pr3  1  0.333333  0.666667  0.402689  1
  Ir  Ir4  1  0.000000  0.000000  0.000000  1
  Ir  Ir5  1  0.000000  0.000000  0.500000  1
  Br  Br6  1  0.666667  0.333333  0.250000  1
  Br  Br7  1  0.333333  0.666667  0.750000  1
