# generated using pymatgen
data_Rb4Zr6GeI18
_symmetry_space_group_name_H-M   'P 1'
_cell_length_a   11.71789989
_cell_length_b   11.71790096
_cell_length_c   11.42893548
_cell_angle_alpha   77.44629992
_cell_angle_beta   77.44629684
_cell_angle_gamma   117.54164915
_symmetry_Int_Tables_number   1
_chemical_formula_structural   Rb4Zr6GeI18
_chemical_formula_sum   'Rb4 Zr6 Ge1 I18'
_cell_volume   1263.27674158
_cell_formula_units_Z   1
loop_
 _symmetry_equiv_pos_site_id
 _symmetry_equiv_pos_as_xyz
  1  'x, y, z'
loop_
 _atom_site_type_symbol
 _atom_site_label
 _atom_site_symmetry_multiplicity
 _atom_site_fract_x
 _atom_site_fract_y
 _atom_site_fract_z
 _atom_site_occupancy
  Rb  Rb0  1  0.770484  0.445647  0.677905  1
  Rb  Rb1  1  0.554353  0.229516  0.322095  1
  Rb  Rb2  1  0.229516  0.554353  0.322095  1
  Rb  Rb3  1  0.445647  0.770484  0.677905  1
  Zr  Zr4  1  0.123373  0.123373  0.140122  1
  Zr  Zr5  1  0.876627  0.876627  0.859878  1
  Zr  Zr6  1  0.949677  0.765959  0.147840  1
  Zr  Zr7  1  0.234041  0.050323  0.852160  1
  Zr  Zr8  1  0.050323  0.234041  0.852160  1
  Zr  Zr9  1  0.765959  0.949677  0.147840  1
  Ge  Ge10  1  0.000000  0.000000  0.000000  1
  I  I11  1  0.806716  0.599374  0.008748  1
  I  I12  1  0.400627  0.193284  0.991252  1
  I  I13  1  0.193284  0.400627  0.991252  1
  I  I14  1  0.599373  0.806716  0.008748  1
  I  I15  1  0.206267  0.793733  0.000000  1
  I  I16  1  0.793733  0.206267  0.000000  1
  I  I17  1  0.319386  0.319386  0.672038  1
  I  I18  1  0.680614  0.680614  0.327962  1
  I  I19  1  0.888888  0.490358  0.325921  1
  I  I20  1  0.509642  0.111112  0.674079  1
  I  I21  1  0.111112  0.509642  0.674079  1
  I  I22  1  0.490358  0.888888  0.325921  1
  I  I23  1  0.266917  0.266917  0.302363  1
  I  I24  1  0.733083  0.733083  0.697637  1
  I  I25  1  0.080383  0.875680  0.320031  1
  I  I26  1  0.124320  0.919617  0.679969  1
  I  I27  1  0.919617  0.124320  0.679969  1
  I  I28  1  0.875680  0.080383  0.320031  1
