# generated using pymatgen
data_Hf18MnCr2Re6Ge
_symmetry_space_group_name_H-M   'P 1'
_cell_length_a   8.56499500
_cell_length_b   8.56499366
_cell_length_c   8.49777100
_cell_angle_alpha   90.00000000
_cell_angle_beta   90.00000000
_cell_angle_gamma   120.00000130
_symmetry_Int_Tables_number   1
_chemical_formula_structural   Hf18MnCr2Re6Ge
_chemical_formula_sum   'Hf18 Mn1 Cr2 Re6 Ge1'
_cell_volume   539.87076381
_cell_formula_units_Z   1
loop_
 _symmetry_equiv_pos_site_id
 _symmetry_equiv_pos_as_xyz
  1  'x, y, z'
loop_
 _atom_site_type_symbol
 _atom_site_label
 _atom_site_symmetry_multiplicity
 _atom_site_fract_x
 _atom_site_fract_y
 _atom_site_fract_z
 _atom_site_occupancy
  Hf  Hf0  1  0.200994  0.799006  0.443796  1
  Hf  Hf1  1  0.200994  0.401987  0.443796  1
  Hf  Hf2  1  0.598013  0.799006  0.443796  1
  Hf  Hf3  1  0.809600  0.190400  0.547424  1
  Hf  Hf4  1  0.809600  0.619201  0.547424  1
  Hf  Hf5  1  0.380799  0.190400  0.547424  1
  Hf  Hf6  1  0.809600  0.190400  0.952576  1
  Hf  Hf7  1  0.809600  0.619201  0.952576  1
  Hf  Hf8  1  0.380799  0.190400  0.952576  1
  Hf  Hf9  1  0.200994  0.799006  0.056204  1
  Hf  Hf10  1  0.200994  0.401987  0.056204  1
  Hf  Hf11  1  0.598013  0.799006  0.056204  1
  Hf  Hf12  1  0.538894  0.461106  0.250000  1
  Hf  Hf13  1  0.538894  0.077788  0.250000  1
  Hf  Hf14  1  0.922212  0.461106  0.250000  1
  Hf  Hf15  1  0.460325  0.539675  0.750000  1
  Hf  Hf16  1  0.460325  0.920649  0.750000  1
  Hf  Hf17  1  0.079351  0.539675  0.750000  1
  Mn  Mn18  1  0.333333  0.666667  0.250000  1
  Cr  Cr19  1  0.000000  0.000000  0.499731  1
  Cr  Cr20  1  0.000000  0.000000  0.000269  1
  Re  Re21  1  0.892249  0.107751  0.250000  1
  Re  Re22  1  0.892249  0.784500  0.250000  1
  Re  Re23  1  0.215500  0.107751  0.250000  1
  Re  Re24  1  0.108406  0.891594  0.750000  1
  Re  Re25  1  0.108406  0.216812  0.750000  1
  Re  Re26  1  0.783188  0.891594  0.750000  1
  Ge  Ge27  1  0.666667  0.333333  0.750000  1
