# generated using pymatgen
data_NaTmZn14Cu3
_symmetry_space_group_name_H-M   'P 1'
_cell_length_a   8.87655900
_cell_length_b   8.87655924
_cell_length_c   8.60727200
_cell_angle_alpha   90.00000000
_cell_angle_beta   90.00000000
_cell_angle_gamma   120.00001030
_symmetry_Int_Tables_number   1
_chemical_formula_structural   NaTmZn14Cu3
_chemical_formula_sum   'Na2 Tm2 Zn28 Cu6'
_cell_volume   587.33436709
_cell_formula_units_Z   2
loop_
 _symmetry_equiv_pos_site_id
 _symmetry_equiv_pos_as_xyz
  1  'x, y, z'
loop_
 _atom_site_type_symbol
 _atom_site_label
 _atom_site_symmetry_multiplicity
 _atom_site_fract_x
 _atom_site_fract_y
 _atom_site_fract_z
 _atom_site_occupancy
  Na  Na0  1  0.000000  0.000000  0.250000  1
  Na  Na1  1  0.000000  0.000000  0.750000  1
  Tm  Tm2  1  0.333333  0.666667  0.750000  1
  Tm  Tm3  1  0.666667  0.333333  0.250000  1
  Zn  Zn4  1  0.333333  0.666667  0.403106  1
  Zn  Zn5  1  0.666667  0.333333  0.596894  1
  Zn  Zn6  1  0.666667  0.333333  0.903106  1
  Zn  Zn7  1  0.333333  0.666667  0.096894  1
  Zn  Zn8  1  0.331554  0.365527  0.250000  1
  Zn  Zn9  1  0.634473  0.966027  0.250000  1
  Zn  Zn10  1  0.033973  0.668446  0.250000  1
  Zn  Zn11  1  0.634473  0.668446  0.250000  1
  Zn  Zn12  1  0.033973  0.365527  0.250000  1
  Zn  Zn13  1  0.331554  0.966027  0.250000  1
  Zn  Zn14  1  0.668446  0.634473  0.750000  1
  Zn  Zn15  1  0.365527  0.033973  0.750000  1
  Zn  Zn16  1  0.966027  0.331554  0.750000  1
  Zn  Zn17  1  0.365527  0.331554  0.750000  1
  Zn  Zn18  1  0.966027  0.634473  0.750000  1
  Zn  Zn19  1  0.668446  0.033973  0.750000  1
  Zn  Zn20  1  0.169923  0.830077  0.522422  1
  Zn  Zn21  1  0.169923  0.339845  0.522422  1
  Zn  Zn22  1  0.660155  0.830077  0.522422  1
  Zn  Zn23  1  0.830077  0.169923  0.477578  1
  Zn  Zn24  1  0.830077  0.660155  0.477578  1
  Zn  Zn25  1  0.339845  0.169923  0.477578  1
  Zn  Zn26  1  0.830077  0.169923  0.022422  1
  Zn  Zn27  1  0.830077  0.660155  0.022422  1
  Zn  Zn28  1  0.339845  0.169923  0.022422  1
  Zn  Zn29  1  0.169923  0.830077  0.977578  1
  Zn  Zn30  1  0.169923  0.339845  0.977578  1
  Zn  Zn31  1  0.660155  0.830077  0.977578  1
  Cu  Cu32  1  0.500000  0.500000  0.500000  1
  Cu  Cu33  1  0.500000  0.000000  0.500000  1
  Cu  Cu34  1  0.000000  0.500000  0.500000  1
  Cu  Cu35  1  0.500000  0.500000  0.000000  1
  Cu  Cu36  1  0.500000  0.000000  0.000000  1
  Cu  Cu37  1  0.000000  0.500000  0.000000  1
