# generated using pymatgen
data_Tb2Ho2Al17GaIr6
_symmetry_space_group_name_H-M   'P 1'
_cell_length_a   7.54601970
_cell_length_b   7.54601984
_cell_length_c   9.49484300
_cell_angle_alpha   90.00000000
_cell_angle_beta   90.00000000
_cell_angle_gamma   119.36063731
_symmetry_Int_Tables_number   1
_chemical_formula_structural   Tb2Ho2Al17GaIr6
_chemical_formula_sum   'Tb2 Ho2 Al17 Ga1 Ir6'
_cell_volume   471.21206453
_cell_formula_units_Z   1
loop_
 _symmetry_equiv_pos_site_id
 _symmetry_equiv_pos_as_xyz
  1  'x, y, z'
loop_
 _atom_site_type_symbol
 _atom_site_label
 _atom_site_symmetry_multiplicity
 _atom_site_fract_x
 _atom_site_fract_y
 _atom_site_fract_z
 _atom_site_occupancy
  Tb  Tb0  1  0.993757  0.675283  0.250000  1
  Tb  Tb1  1  0.675283  0.993757  0.250000  1
  Ho  Ho2  1  0.004830  0.326932  0.750000  1
  Ho  Ho3  1  0.326932  0.004830  0.750000  1
  Al  Al4  1  0.869510  0.869510  0.750000  1
  Al  Al5  1  0.001738  0.336188  0.072803  1
  Al  Al6  1  0.998806  0.663986  0.925057  1
  Al  Al7  1  0.998806  0.663986  0.574943  1
  Al  Al8  1  0.336188  0.001738  0.427197  1
  Al  Al9  1  0.001738  0.336188  0.427197  1
  Al  Al10  1  0.663986  0.998806  0.574943  1
  Al  Al11  1  0.663986  0.998806  0.925057  1
  Al  Al12  1  0.336188  0.001738  0.072803  1
  Al  Al13  1  0.332817  0.332817  0.554057  1
  Al  Al14  1  0.665557  0.665557  0.451251  1
  Al  Al15  1  0.665557  0.665557  0.048749  1
  Al  Al16  1  0.332817  0.332817  0.945943  1
  Al  Al17  1  0.339185  0.549827  0.250000  1
  Al  Al18  1  0.660271  0.450314  0.750000  1
  Al  Al19  1  0.549827  0.339185  0.250000  1
  Al  Al20  1  0.450314  0.660271  0.750000  1
  Ga  Ga21  1  0.135422  0.135422  0.250000  1
  Ir  Ir22  1  0.671168  0.327554  0.999740  1
  Ir  Ir23  1  0.327554  0.671168  0.999740  1
  Ir  Ir24  1  0.327554  0.671168  0.500260  1
  Ir  Ir25  1  0.671168  0.327554  0.500260  1
  Ir  Ir26  1  0.999520  0.999520  0.997252  1
  Ir  Ir27  1  0.999520  0.999520  0.502748  1
