# generated using pymatgen
data_Rb3CaIr2O9
_symmetry_space_group_name_H-M   'P 1'
_cell_length_a   6.17308000
_cell_length_b   6.17307941
_cell_length_c   14.76411000
_cell_angle_alpha   90.00000000
_cell_angle_beta   90.00000000
_cell_angle_gamma   119.99999242
_symmetry_Int_Tables_number   1
_chemical_formula_structural   Rb3CaIr2O9
_chemical_formula_sum   'Rb6 Ca2 Ir4 O18'
_cell_volume   487.23862208
_cell_formula_units_Z   2
loop_
 _symmetry_equiv_pos_site_id
 _symmetry_equiv_pos_as_xyz
  1  'x, y, z'
loop_
 _atom_site_type_symbol
 _atom_site_label
 _atom_site_symmetry_multiplicity
 _atom_site_fract_x
 _atom_site_fract_y
 _atom_site_fract_z
 _atom_site_occupancy
  Rb  Rb0  1  0.333333  0.666667  0.401312  1
  Rb  Rb1  1  0.666667  0.333333  0.901312  1
  Rb  Rb2  1  0.666667  0.333333  0.598688  1
  Rb  Rb3  1  0.333333  0.666667  0.098688  1
  Rb  Rb4  1  0.000000  0.000000  0.750000  1
  Rb  Rb5  1  0.000000  0.000000  0.250000  1
  Ca  Ca6  1  0.000000  0.000000  0.000000  1
  Ca  Ca7  1  0.000000  0.000000  0.500000  1
  Ir  Ir8  1  0.666667  0.333333  0.347324  1
  Ir  Ir9  1  0.333333  0.666667  0.847324  1
  Ir  Ir10  1  0.666667  0.333333  0.152676  1
  Ir  Ir11  1  0.333333  0.666667  0.652676  1
  O  O12  1  0.817956  0.635912  0.412098  1
  O  O13  1  0.364088  0.182044  0.412098  1
  O  O14  1  0.817956  0.182044  0.412098  1
  O  O15  1  0.182044  0.817956  0.912098  1
  O  O16  1  0.182044  0.817956  0.587902  1
  O  O17  1  0.182044  0.364088  0.912098  1
  O  O18  1  0.635912  0.817956  0.912098  1
  O  O19  1  0.364088  0.182044  0.087902  1
  O  O20  1  0.817956  0.635912  0.087902  1
  O  O21  1  0.182044  0.364088  0.587902  1
  O  O22  1  0.635912  0.817956  0.587902  1
  O  O23  1  0.817956  0.182044  0.087902  1
  O  O24  1  0.535128  0.464872  0.250000  1
  O  O25  1  0.070256  0.535128  0.750000  1
  O  O26  1  0.464872  0.929744  0.750000  1
  O  O27  1  0.535128  0.070256  0.250000  1
  O  O28  1  0.929744  0.464872  0.250000  1
  O  O29  1  0.464872  0.535128  0.750000  1
