# generated using pymatgen
data_Yb10IrPt3Rh2
_symmetry_space_group_name_H-M   'P 1'
_cell_length_a   10.74877368
_cell_length_b   10.75138000
_cell_length_c   6.18531600
_cell_angle_alpha   90.00000000
_cell_angle_beta   90.03204132
_cell_angle_gamma   90.00000000
_symmetry_Int_Tables_number   1
_chemical_formula_structural   Yb10IrPt3Rh2
_chemical_formula_sum   'Yb20 Ir2 Pt6 Rh4'
_cell_volume   714.80067657
_cell_formula_units_Z   2
loop_
 _symmetry_equiv_pos_site_id
 _symmetry_equiv_pos_as_xyz
  1  'x, y, z'
loop_
 _atom_site_type_symbol
 _atom_site_label
 _atom_site_symmetry_multiplicity
 _atom_site_fract_x
 _atom_site_fract_y
 _atom_site_fract_z
 _atom_site_occupancy
  Yb  Yb0  1  0.293705  0.086182  0.361373  1
  Yb  Yb1  1  0.293705  0.913818  0.861373  1
  Yb  Yb2  1  0.705382  0.082761  0.862535  1
  Yb  Yb3  1  0.705382  0.917239  0.362535  1
  Yb  Yb4  1  0.580276  0.790568  0.861821  1
  Yb  Yb5  1  0.580276  0.209432  0.361821  1
  Yb  Yb6  1  0.415229  0.791955  0.364479  1
  Yb  Yb7  1  0.415229  0.208045  0.864479  1
  Yb  Yb8  1  0.210333  0.418236  0.636056  1
  Yb  Yb9  1  0.210333  0.581764  0.136056  1
  Yb  Yb10  1  0.793121  0.416749  0.137363  1
  Yb  Yb11  1  0.793121  0.583251  0.637363  1
  Yb  Yb12  1  0.918085  0.706706  0.137590  1
  Yb  Yb13  1  0.918085  0.293294  0.637590  1
  Yb  Yb14  1  0.087289  0.704928  0.638663  1
  Yb  Yb15  1  0.087289  0.295072  0.138663  1
  Yb  Yb16  1  0.999630  0.998821  0.499986  1
  Yb  Yb17  1  0.999630  0.001179  0.999986  1
  Yb  Yb18  1  0.497041  0.498994  0.999904  1
  Yb  Yb19  1  0.497041  0.501006  0.499904  1
  Ir  Ir20  1  0.345689  0.343812  0.250968  1
  Ir  Ir21  1  0.345689  0.656188  0.750968  1
  Pt  Pt22  1  0.844290  0.155207  0.250387  1
  Pt  Pt23  1  0.844290  0.844793  0.750387  1
  Pt  Pt24  1  0.154306  0.154714  0.749631  1
  Pt  Pt25  1  0.154306  0.845286  0.249631  1
  Pt  Pt26  1  0.656835  0.344866  0.749191  1
  Pt  Pt27  1  0.656835  0.655134  0.249191  1
  Rh  Rh28  1  0.499874  0.999865  0.114072  1
  Rh  Rh29  1  0.499874  0.000135  0.614072  1
  Rh  Rh30  1  0.998917  0.499932  0.885981  1
  Rh  Rh31  1  0.998917  0.500068  0.385981  1
