# generated using pymatgen
data_Pr8Dy10LuSi16Ag
_symmetry_space_group_name_H-M   'P 1'
_cell_length_a   7.42343200
_cell_length_b   7.80703107
_cell_length_c   14.83706400
_cell_angle_alpha   90.00000000
_cell_angle_beta   90.00000000
_cell_angle_gamma   90.00765457
_symmetry_Int_Tables_number   1
_chemical_formula_structural   Pr8Dy10LuSi16Ag
_chemical_formula_sum   'Pr8 Dy10 Lu1 Si16 Ag1'
_cell_volume   859.88150628
_cell_formula_units_Z   1
loop_
 _symmetry_equiv_pos_site_id
 _symmetry_equiv_pos_as_xyz
  1  'x, y, z'
loop_
 _atom_site_type_symbol
 _atom_site_label
 _atom_site_symmetry_multiplicity
 _atom_site_fract_x
 _atom_site_fract_y
 _atom_site_fract_z
 _atom_site_occupancy
  Pr  Pr0  1  0.019895  0.179462  0.404475  1
  Pr  Pr1  1  0.519389  0.323237  0.403840  1
  Pr  Pr2  1  0.481934  0.690338  0.896808  1
  Pr  Pr3  1  0.481934  0.690338  0.603192  1
  Pr  Pr4  1  0.970207  0.823054  0.602891  1
  Pr  Pr5  1  0.970207  0.823054  0.897109  1
  Pr  Pr6  1  0.519389  0.323237  0.096160  1
  Pr  Pr7  1  0.019895  0.179462  0.095525  1
  Dy  Dy8  1  0.332351  0.173192  0.626587  1
  Dy  Dy9  1  0.678015  0.817534  0.376295  1
  Dy  Dy10  1  0.179038  0.677961  0.378933  1
  Dy  Dy11  1  0.817070  0.312430  0.873309  1
  Dy  Dy12  1  0.817070  0.312430  0.626691  1
  Dy  Dy13  1  0.847845  0.487444  0.250000  1
  Dy  Dy14  1  0.343850  0.012879  0.250000  1
  Dy  Dy15  1  0.332351  0.173192  0.873413  1
  Dy  Dy16  1  0.179038  0.677961  0.121067  1
  Dy  Dy17  1  0.678015  0.817534  0.123705  1
  Lu  Lu18  1  0.150433  0.507161  0.750000  1
  Si  Si19  1  0.262830  0.875896  0.750000  1
  Si  Si20  1  0.471108  0.609654  0.250000  1
  Si  Si21  1  0.033303  0.107950  0.750000  1
  Si  Si22  1  0.520724  0.409084  0.750000  1
  Si  Si23  1  0.147512  0.470294  0.543716  1
  Si  Si24  1  0.971265  0.884639  0.250000  1
  Si  Si25  1  0.728333  0.118498  0.250000  1
  Si  Si26  1  0.854499  0.531170  0.034907  1
  Si  Si27  1  0.355327  0.968947  0.038756  1
  Si  Si28  1  0.147512  0.470294  0.956284  1
  Si  Si29  1  0.651040  0.036880  0.531487  1
  Si  Si30  1  0.355327  0.968947  0.461244  1
  Si  Si31  1  0.854499  0.531170  0.465093  1
  Si  Si32  1  0.776050  0.610724  0.750000  1
  Si  Si33  1  0.228301  0.381128  0.250000  1
  Si  Si34  1  0.651040  0.036880  0.968513  1
  Ag  Ag35  1  0.653406  0.985941  0.750000  1
