# generated using pymatgen
data_YbEuMg2AgIr
_symmetry_space_group_name_H-M   'P 1'
_cell_length_a   4.31218400
_cell_length_b   7.41940317
_cell_length_c   8.78976824
_cell_angle_alpha   89.21957693
_cell_angle_beta   90.00000000
_cell_angle_gamma   90.00000000
_symmetry_Int_Tables_number   1
_chemical_formula_structural   YbEuMg2AgIr
_chemical_formula_sum   'Yb2 Eu2 Mg4 Ag2 Ir2'
_cell_volume   281.19227865
_cell_formula_units_Z   2
loop_
 _symmetry_equiv_pos_site_id
 _symmetry_equiv_pos_as_xyz
  1  'x, y, z'
loop_
 _atom_site_type_symbol
 _atom_site_label
 _atom_site_symmetry_multiplicity
 _atom_site_fract_x
 _atom_site_fract_y
 _atom_site_fract_z
 _atom_site_occupancy
  Yb  Yb0  1  0.750000  0.954576  0.692444  1
  Yb  Yb1  1  0.250000  0.045424  0.307556  1
  Eu  Eu2  1  0.250000  0.520032  0.163387  1
  Eu  Eu3  1  0.750000  0.479968  0.836613  1
  Mg  Mg4  1  0.250000  0.647008  0.572025  1
  Mg  Mg5  1  0.750000  0.352992  0.427975  1
  Mg  Mg6  1  0.750000  0.869972  0.051021  1
  Mg  Mg7  1  0.250000  0.130028  0.948979  1
  Ag  Ag8  1  0.750000  0.742036  0.375494  1
  Ag  Ag9  1  0.250000  0.257964  0.624506  1
  Ir  Ir10  1  0.250000  0.768369  0.869359  1
  Ir  Ir11  1  0.750000  0.231631  0.130641  1
