# generated using pymatgen
data_Dy5CoCuTe2
_symmetry_space_group_name_H-M   'P 1'
_cell_length_a   7.79014900
_cell_length_b   7.79014844
_cell_length_c   14.98864500
_cell_angle_alpha   90.00000000
_cell_angle_beta   90.00000000
_cell_angle_gamma   149.99472775
_symmetry_Int_Tables_number   1
_chemical_formula_structural   Dy5CoCuTe2
_chemical_formula_sum   'Dy10 Co2 Cu2 Te4'
_cell_volume   454.87606558
_cell_formula_units_Z   2
loop_
 _symmetry_equiv_pos_site_id
 _symmetry_equiv_pos_as_xyz
  1  'x, y, z'
loop_
 _atom_site_type_symbol
 _atom_site_label
 _atom_site_symmetry_multiplicity
 _atom_site_fract_x
 _atom_site_fract_y
 _atom_site_fract_z
 _atom_site_occupancy
  Dy  Dy0  1  0.959185  0.040815  0.120987  1
  Dy  Dy1  1  0.040815  0.959185  0.879013  1
  Dy  Dy2  1  0.040815  0.959185  0.620987  1
  Dy  Dy3  1  0.959185  0.040815  0.379013  1
  Dy  Dy4  1  0.740689  0.259311  0.629341  1
  Dy  Dy5  1  0.259311  0.740689  0.370659  1
  Dy  Dy6  1  0.259311  0.740689  0.129341  1
  Dy  Dy7  1  0.740689  0.259311  0.870659  1
  Dy  Dy8  1  0.609147  0.390853  0.250000  1
  Dy  Dy9  1  0.390853  0.609147  0.750000  1
  Co  Co10  1  0.816781  0.183219  0.250000  1
  Co  Co11  1  0.183219  0.816781  0.750000  1
  Cu  Cu12  1  0.411857  0.588143  0.250000  1
  Cu  Cu13  1  0.588143  0.411857  0.750000  1
  Te  Te14  1  0.614182  0.385818  0.040575  1
  Te  Te15  1  0.385818  0.614182  0.959425  1
  Te  Te16  1  0.385818  0.614182  0.540575  1
  Te  Te17  1  0.614182  0.385818  0.459425  1
