# generated using pymatgen
data_SmU9O20
_symmetry_space_group_name_H-M   'P 1'
_cell_length_a   6.64665737
_cell_length_b   7.67555480
_cell_length_c   8.57867030
_cell_angle_alpha   102.95750914
_cell_angle_beta   97.37372226
_cell_angle_gamma   106.81783241
_symmetry_Int_Tables_number   1
_chemical_formula_structural   SmU9O20
_chemical_formula_sum   'Sm1 U9 O20'
_cell_volume   399.41636852
_cell_formula_units_Z   1
loop_
 _symmetry_equiv_pos_site_id
 _symmetry_equiv_pos_as_xyz
  1  'x, y, z'
loop_
 _atom_site_type_symbol
 _atom_site_label
 _atom_site_symmetry_multiplicity
 _atom_site_fract_x
 _atom_site_fract_y
 _atom_site_fract_z
 _atom_site_occupancy
  Sm  Sm0  1  0.000000  0.000000  0.000000  1
  U  U1  1  0.800235  0.600218  0.600050  1
  U  U2  1  0.599404  0.199369  0.198690  1
  U  U3  1  0.000000  0.500000  0.000000  1
  U  U4  1  0.799552  0.100034  0.600453  1
  U  U5  1  0.400596  0.800631  0.801310  1
  U  U6  1  0.199765  0.399782  0.399950  1
  U  U7  1  0.601578  0.700672  0.199755  1
  U  U8  1  0.398422  0.299328  0.800245  1
  U  U9  1  0.200448  0.899966  0.399547  1
  O  O10  1  0.849837  0.325091  0.452183  1
  O  O11  1  0.641723  0.922399  0.052417  1
  O  O12  1  0.949325  0.768996  0.153909  1
  O  O13  1  0.447501  0.522903  0.649673  1
  O  O14  1  0.850930  0.825588  0.450520  1
  O  O15  1  0.648488  0.425385  0.049360  1
  O  O16  1  0.746637  0.374040  0.750000  1
  O  O17  1  0.257703  0.128232  0.256247  1
  O  O18  1  0.947911  0.282532  0.154172  1
  O  O19  1  0.448261  0.025377  0.648328  1
  O  O20  1  0.551739  0.974623  0.351672  1
  O  O21  1  0.052089  0.717468  0.845828  1
  O  O22  1  0.742297  0.871768  0.743753  1
  O  O23  1  0.351512  0.574615  0.950640  1
  O  O24  1  0.253363  0.625960  0.250000  1
  O  O25  1  0.552499  0.477097  0.350327  1
  O  O26  1  0.149070  0.174412  0.549480  1
  O  O27  1  0.050675  0.231004  0.846091  1
  O  O28  1  0.358277  0.077601  0.947583  1
  O  O29  1  0.150163  0.674909  0.547817  1
