# generated using pymatgen
data_Zr(Re2Si)2
_symmetry_space_group_name_H-M   'P 1'
_cell_length_a   7.34778700
_cell_length_b   7.34778700
_cell_length_c   4.09283200
_cell_angle_alpha   90.00000000
_cell_angle_beta   90.00000000
_cell_angle_gamma   90.00000000
_symmetry_Int_Tables_number   1
_chemical_formula_structural   Zr(Re2Si)2
_chemical_formula_sum   'Zr2 Re8 Si4'
_cell_volume   220.97189244
_cell_formula_units_Z   2
loop_
 _symmetry_equiv_pos_site_id
 _symmetry_equiv_pos_as_xyz
  1  'x, y, z'
loop_
 _atom_site_type_symbol
 _atom_site_label
 _atom_site_symmetry_multiplicity
 _atom_site_fract_x
 _atom_site_fract_y
 _atom_site_fract_z
 _atom_site_occupancy
  Zr  Zr0  1  0.500000  0.500000  0.000000  1
  Zr  Zr1  1  0.000000  0.000000  0.500000  1
  Re  Re2  1  0.592331  0.157125  0.500000  1
  Re  Re3  1  0.407669  0.842875  0.500000  1
  Re  Re4  1  0.092331  0.342875  0.000000  1
  Re  Re5  1  0.907669  0.657125  0.000000  1
  Re  Re6  1  0.157125  0.592331  0.500000  1
  Re  Re7  1  0.842875  0.407669  0.500000  1
  Re  Re8  1  0.342875  0.092331  0.000000  1
  Re  Re9  1  0.657125  0.907669  0.000000  1
  Si  Si10  1  0.708945  0.708945  0.500000  1
  Si  Si11  1  0.291055  0.291055  0.500000  1
  Si  Si12  1  0.208945  0.791055  0.000000  1
  Si  Si13  1  0.791055  0.208945  0.000000  1
