# generated using pymatgen
data_Cs2Tc7Mo5S14
_symmetry_space_group_name_H-M   'P 1'
_cell_length_a   9.62640809
_cell_length_b   9.65064521
_cell_length_c   9.61937304
_cell_angle_alpha   59.79964868
_cell_angle_beta   60.43642900
_cell_angle_gamma   60.15060218
_symmetry_Int_Tables_number   1
_chemical_formula_structural   Cs2Tc7Mo5S14
_chemical_formula_sum   'Cs2 Tc7 Mo5 S14'
_cell_volume   633.71190081
_cell_formula_units_Z   1
loop_
 _symmetry_equiv_pos_site_id
 _symmetry_equiv_pos_as_xyz
  1  'x, y, z'
loop_
 _atom_site_type_symbol
 _atom_site_label
 _atom_site_symmetry_multiplicity
 _atom_site_fract_x
 _atom_site_fract_y
 _atom_site_fract_z
 _atom_site_occupancy
  Cs  Cs0  1  0.378313  0.375491  0.378330  1
  Cs  Cs1  1  0.620330  0.622356  0.625365  1
  Tc  Tc2  1  0.308684  0.125691  0.990500  1
  Tc  Tc3  1  0.198852  0.882367  0.062608  1
  Tc  Tc4  1  0.882910  0.061126  0.198165  1
  Tc  Tc5  1  0.937474  0.798895  0.118615  1
  Tc  Tc6  1  0.799238  0.118526  0.938241  1
  Tc  Tc7  1  0.119640  0.938089  0.801238  1
  Tc  Tc8  1  0.989386  0.307386  0.126659  1
  Mo  Mo9  1  0.875191  0.009077  0.694660  1
  Mo  Mo10  1  0.126674  0.991438  0.304858  1
  Mo  Mo11  1  0.008420  0.695026  0.875967  1
  Mo  Mo12  1  0.695297  0.874605  0.006275  1
  Mo  Mo13  1  0.061209  0.196987  0.885617  1
  S  S14  1  0.981661  0.230902  0.651305  1
  S  S15  1  0.230155  0.651923  0.984690  1
  S  S16  1  0.652342  0.982131  0.229246  1
  S  S17  1  0.019571  0.770459  0.348640  1
  S  S18  1  0.766232  0.348581  0.022195  1
  S  S19  1  0.351680  0.014584  0.772692  1
  S  S20  1  0.166790  0.409627  0.826445  1
  S  S21  1  0.411570  0.822977  0.164699  1
  S  S22  1  0.820480  0.169208  0.406865  1
  S  S23  1  0.833256  0.586182  0.177816  1
  S  S24  1  0.587140  0.179327  0.829976  1
  S  S25  1  0.177803  0.835759  0.587383  1
  S  S26  1  0.781146  0.780419  0.778125  1
  S  S27  1  0.218553  0.220862  0.212826  1
