# generated using pymatgen
data_Ho5(ErZn)4
_symmetry_space_group_name_H-M   'P 1'
_cell_length_a   8.52051936
_cell_length_b   8.52051926
_cell_length_c   8.52136940
_cell_angle_alpha   94.95969143
_cell_angle_beta   94.98158464
_cell_angle_gamma   145.76044209
_symmetry_Int_Tables_number   1
_chemical_formula_structural   Ho5(ErZn)4
_chemical_formula_sum   'Ho5 Er4 Zn4'
_cell_volume   332.66333687
_cell_formula_units_Z   1
loop_
 _symmetry_equiv_pos_site_id
 _symmetry_equiv_pos_as_xyz
  1  'x, y, z'
loop_
 _atom_site_type_symbol
 _atom_site_label
 _atom_site_symmetry_multiplicity
 _atom_site_fract_x
 _atom_site_fract_y
 _atom_site_fract_z
 _atom_site_occupancy
  Ho  Ho0  1  0.598262  0.882433  0.480697  1
  Ho  Ho1  1  0.401489  0.117402  0.518889  1
  Ho  Ho2  1  0.117498  0.598395  0.715893  1
  Ho  Ho3  1  0.888490  0.817956  0.706449  1
  Ho  Ho4  1  0.818016  0.111631  0.929648  1
  Er  Er5  1  0.500157  0.500004  0.000163  1
  Er  Er6  1  0.182071  0.888580  0.070652  1
  Er  Er7  1  0.111476  0.181992  0.293468  1
  Er  Er8  1  0.882516  0.401572  0.284090  1
  Zn  Zn9  1  0.392236  0.735396  0.127634  1
  Zn  Zn10  1  0.735232  0.607623  0.342859  1
  Zn  Zn11  1  0.264745  0.392199  0.656943  1
  Zn  Zn12  1  0.607803  0.264811  0.872615  1
