# generated using pymatgen
data_Y3Er9Ni4
_symmetry_space_group_name_H-M   'P 1'
_cell_length_a   6.32143691
_cell_length_b   6.80545625
_cell_length_c   9.47094200
_cell_angle_alpha   90.00000000
_cell_angle_beta   90.00000000
_cell_angle_gamma   89.82610484
_symmetry_Int_Tables_number   1
_chemical_formula_structural   Y3Er9Ni4
_chemical_formula_sum   'Y3 Er9 Ni4'
_cell_volume   407.44053325
_cell_formula_units_Z   1
loop_
 _symmetry_equiv_pos_site_id
 _symmetry_equiv_pos_as_xyz
  1  'x, y, z'
loop_
 _atom_site_type_symbol
 _atom_site_label
 _atom_site_symmetry_multiplicity
 _atom_site_fract_x
 _atom_site_fract_y
 _atom_site_fract_z
 _atom_site_occupancy
  Y  Y0  1  0.862817  0.530456  0.250000  1
  Y  Y1  1  0.637254  0.030434  0.250000  1
  Y  Y2  1  0.137946  0.469794  0.750000  1
  Er  Er3  1  0.321142  0.678494  0.065479  1
  Er  Er4  1  0.179622  0.177561  0.434799  1
  Er  Er5  1  0.678390  0.321468  0.566530  1
  Er  Er6  1  0.819951  0.822313  0.933743  1
  Er  Er7  1  0.678390  0.321468  0.933470  1
  Er  Er8  1  0.819951  0.822313  0.566257  1
  Er  Er9  1  0.321142  0.678494  0.434521  1
  Er  Er10  1  0.179622  0.177561  0.065201  1
  Er  Er11  1  0.361780  0.967521  0.750000  1
  Ni  Ni12  1  0.058172  0.893270  0.250000  1
  Ni  Ni13  1  0.441639  0.393402  0.250000  1
  Ni  Ni14  1  0.945715  0.105909  0.750000  1
  Ni  Ni15  1  0.556469  0.609540  0.750000  1
