# generated using pymatgen
data_Sr2DyTlF10
_symmetry_space_group_name_H-M   'P 1'
_cell_length_a   8.21820459
_cell_length_b   8.21820297
_cell_length_c   5.79525000
_cell_angle_alpha   89.06102200
_cell_angle_beta   89.06101521
_cell_angle_gamma   149.41747767
_symmetry_Int_Tables_number   1
_chemical_formula_structural   Sr2DyTlF10
_chemical_formula_sum   'Sr2 Dy1 Tl1 F10'
_cell_volume   198.75357249
_cell_formula_units_Z   1
loop_
 _symmetry_equiv_pos_site_id
 _symmetry_equiv_pos_as_xyz
  1  'x, y, z'
loop_
 _atom_site_type_symbol
 _atom_site_label
 _atom_site_symmetry_multiplicity
 _atom_site_fract_x
 _atom_site_fract_y
 _atom_site_fract_z
 _atom_site_occupancy
  Sr  Sr0  1  0.322647  0.677353  0.750000  1
  Sr  Sr1  1  0.675327  0.324673  0.250000  1
  Dy  Dy2  1  0.924168  0.075832  0.250000  1
  Tl  Tl3  1  0.075236  0.924764  0.750000  1
  F  F4  1  0.727605  0.806050  0.601763  1
  F  F5  1  0.803558  0.726729  0.103324  1
  F  F6  1  0.803329  0.181434  0.003902  1
  F  F7  1  0.624988  0.375012  0.750000  1
  F  F8  1  0.818566  0.196671  0.496098  1
  F  F9  1  0.181505  0.802204  0.501780  1
  F  F10  1  0.378055  0.621945  0.250000  1
  F  F11  1  0.197796  0.818495  0.998220  1
  F  F12  1  0.193950  0.272395  0.898237  1
  F  F13  1  0.273271  0.196442  0.396676  1
