# generated using pymatgen
data_Li5Ho4(Co5As4)3
_symmetry_space_group_name_H-M   'P 1'
_cell_length_a   3.83114900
_cell_length_b   10.65404805
_cell_length_c   12.48081862
_cell_angle_alpha   89.93537770
_cell_angle_beta   90.00000000
_cell_angle_gamma   90.00000000
_symmetry_Int_Tables_number   1
_chemical_formula_structural   Li5Ho4(Co5As4)3
_chemical_formula_sum   'Li5 Ho4 Co15 As12'
_cell_volume   509.43231423
_cell_formula_units_Z   1
loop_
 _symmetry_equiv_pos_site_id
 _symmetry_equiv_pos_as_xyz
  1  'x, y, z'
loop_
 _atom_site_type_symbol
 _atom_site_label
 _atom_site_symmetry_multiplicity
 _atom_site_fract_x
 _atom_site_fract_y
 _atom_site_fract_z
 _atom_site_occupancy
  Li  Li0  1  0.250000  0.700854  0.994823  1
  Li  Li1  1  0.250000  0.800593  0.494563  1
  Li  Li2  1  0.750000  0.299654  0.008482  1
  Li  Li3  1  0.750000  0.199518  0.506094  1
  Li  Li4  1  0.250000  0.405506  0.494157  1
  Ho  Ho5  1  0.250000  0.581148  0.708841  1
  Ho  Ho6  1  0.250000  0.922531  0.202627  1
  Ho  Ho7  1  0.750000  0.423610  0.290858  1
  Ho  Ho8  1  0.750000  0.076362  0.797050  1
  Co  Co9  1  0.250000  0.089378  0.983312  1
  Co  Co10  1  0.750000  0.588448  0.513270  1
  Co  Co11  1  0.750000  0.905289  0.012899  1
  Co  Co12  1  0.250000  0.210585  0.168657  1
  Co  Co13  1  0.250000  0.288570  0.680804  1
  Co  Co14  1  0.750000  0.785770  0.822248  1
  Co  Co15  1  0.750000  0.716363  0.323087  1
  Co  Co16  1  0.250000  0.882335  0.696991  1
  Co  Co17  1  0.250000  0.619352  0.199124  1
  Co  Co18  1  0.750000  0.117327  0.296739  1
  Co  Co19  1  0.750000  0.379885  0.807741  1
  Co  Co20  1  0.250000  0.469223  0.933427  1
  Co  Co21  1  0.250000  0.034451  0.431969  1
  Co  Co22  1  0.750000  0.531425  0.069147  1
  Co  Co23  1  0.750000  0.969551  0.567432  1
  As  As24  1  0.250000  0.418569  0.114500  1
  As  As25  1  0.250000  0.084067  0.615553  1
  As  As26  1  0.750000  0.582319  0.886846  1
  As  As27  1  0.750000  0.920895  0.384411  1
  As  As28  1  0.250000  0.266706  0.866929  1
  As  As29  1  0.250000  0.228892  0.351713  1
  As  As30  1  0.750000  0.732273  0.136183  1
  As  As31  1  0.750000  0.768710  0.636225  1
  As  As32  1  0.250000  0.606243  0.389745  1
  As  As33  1  0.250000  0.895684  0.889902  1
  As  As34  1  0.750000  0.398519  0.620270  1
  As  As35  1  0.750000  0.099400  0.103383  1
