# generated using pymatgen
data_Ac5TaMnO12
_symmetry_space_group_name_H-M   'P 1'
_cell_length_a   7.29687260
_cell_length_b   7.29687261
_cell_length_c   7.87588300
_cell_angle_alpha   74.45209281
_cell_angle_beta   74.45210095
_cell_angle_gamma   50.47458179
_symmetry_Int_Tables_number   1
_chemical_formula_structural   Ac5TaMnO12
_chemical_formula_sum   'Ac5 Ta1 Mn1 O12'
_cell_volume   308.93168231
_cell_formula_units_Z   1
loop_
 _symmetry_equiv_pos_site_id
 _symmetry_equiv_pos_as_xyz
  1  'x, y, z'
loop_
 _atom_site_type_symbol
 _atom_site_label
 _atom_site_symmetry_multiplicity
 _atom_site_fract_x
 _atom_site_fract_y
 _atom_site_fract_z
 _atom_site_occupancy
  Ac  Ac0  1  0.319587  0.300350  0.355632  1
  Ac  Ac1  1  0.699650  0.680413  0.644368  1
  Ac  Ac2  1  0.698926  0.689771  0.162713  1
  Ac  Ac3  1  0.310229  0.301074  0.837287  1
  Ac  Ac4  1  0.998876  0.001124  0.500000  1
  Ta  Ta5  1  0.215090  0.784910  0.000000  1
  Mn  Mn6  1  0.736725  0.263275  0.000000  1
  O  O7  1  0.101085  0.593984  0.578267  1
  O  O8  1  0.991947  0.005666  0.171337  1
  O  O9  1  0.406016  0.898915  0.421733  1
  O  O10  1  0.503937  0.498794  0.162693  1
  O  O11  1  0.107752  0.583926  0.075592  1
  O  O12  1  0.911918  0.399704  0.419135  1
  O  O13  1  0.994334  0.008053  0.828663  1
  O  O14  1  0.600296  0.088081  0.580865  1
  O  O15  1  0.501206  0.496063  0.837307  1
  O  O16  1  0.592107  0.105755  0.073664  1
  O  O17  1  0.416074  0.892248  0.924408  1
  O  O18  1  0.894245  0.407893  0.926336  1
