# generated using pymatgen
data_Ba12La3ErGa6(CoO15)2
_symmetry_space_group_name_H-M   'P 1'
_cell_length_a   6.09112244
_cell_length_b   8.18269563
_cell_length_c   18.91000600
_cell_angle_alpha   90.79889166
_cell_angle_beta   89.93910269
_cell_angle_gamma   89.95861264
_symmetry_Int_Tables_number   1
_chemical_formula_structural   Ba12La3ErGa6(CoO15)2
_chemical_formula_sum   'Ba12 La3 Er1 Ga6 Co2 O30'
_cell_volume   942.41634964
_cell_formula_units_Z   1
loop_
 _symmetry_equiv_pos_site_id
 _symmetry_equiv_pos_as_xyz
  1  'x, y, z'
loop_
 _atom_site_type_symbol
 _atom_site_label
 _atom_site_symmetry_multiplicity
 _atom_site_fract_x
 _atom_site_fract_y
 _atom_site_fract_z
 _atom_site_occupancy
  Ba  Ba0  1  0.758183  0.033865  0.099031  1
  Ba  Ba1  1  0.759793  0.499874  0.419591  1
  Ba  Ba2  1  0.250082  0.494868  0.574983  1
  Ba  Ba3  1  0.240259  0.967457  0.903634  1
  Ba  Ba4  1  0.336995  0.493535  0.250335  1
  Ba  Ba5  1  0.757061  0.498959  0.081683  1
  Ba  Ba6  1  0.711720  0.003019  0.747765  1
  Ba  Ba7  1  0.285149  0.997147  0.254368  1
  Ba  Ba8  1  0.239870  0.504127  0.919425  1
  Ba  Ba9  1  0.655139  0.500462  0.750045  1
  Ba  Ba10  1  0.250292  0.027720  0.586791  1
  Ba  Ba11  1  0.756519  0.973244  0.408867  1
  La  La12  1  0.745737  0.244630  0.910408  1
  La  La13  1  0.750287  0.751804  0.588829  1
  La  La14  1  0.254022  0.758049  0.090719  1
  Er  Er15  1  0.256863  0.246056  0.410386  1
  Ga  Ga16  1  0.779802  0.228105  0.269680  1
  Ga  Ga17  1  0.255769  0.246936  0.061112  1
  Ga  Ga18  1  0.741733  0.755355  0.940240  1
  Ga  Ga19  1  0.214939  0.228578  0.762326  1
  Ga  Ga20  1  0.213790  0.770933  0.733805  1
  Ga  Ga21  1  0.750247  0.244273  0.555001  1
  Co  Co22  1  0.259962  0.751286  0.435385  1
  Co  Co23  1  0.786693  0.766813  0.238653  1
  O  O24  1  0.246300  0.528956  0.410799  1
  O  O25  1  0.522762  0.760150  0.489602  1
  O  O26  1  0.935902  0.270779  0.797535  1
  O  O27  1  0.034071  0.229791  0.991121  1
  O  O28  1  0.794159  0.000881  0.253532  1
  O  O29  1  0.326094  0.688505  0.815716  1
  O  O30  1  0.048758  0.273157  0.312484  1
  O  O31  1  0.576555  0.752157  0.161244  1
  O  O32  1  0.553296  0.250957  0.338867  1
  O  O33  1  0.330965  0.306568  0.680099  1
  O  O34  1  0.472139  0.762053  0.988819  1
  O  O35  1  0.240947  0.959108  0.394662  1
  O  O36  1  0.932558  0.729024  0.701330  1
  O  O37  1  0.419151  0.746116  0.658894  1
  O  O38  1  0.653137  0.694033  0.316647  1
  O  O39  1  0.212248  0.999120  0.749671  1
  O  O40  1  0.772186  0.052889  0.606718  1
  O  O41  1  0.765998  0.459823  0.587821  1
  O  O42  1  0.964297  0.772802  0.010179  1
  O  O43  1  0.767636  0.538310  0.907576  1
  O  O44  1  0.227105  0.059290  0.116174  1
  O  O45  1  0.768957  0.944898  0.886478  1
  O  O46  1  0.525133  0.239456  0.012603  1
  O  O47  1  0.420134  0.253641  0.837923  1
  O  O48  1  0.029194  0.765196  0.504500  1
  O  O49  1  0.682324  0.315779  0.187076  1
  O  O50  1  0.062608  0.729278  0.204110  1
  O  O51  1  0.986029  0.231751  0.487987  1
  O  O52  1  0.230923  0.463103  0.095375  1
  O  O53  1  0.487528  0.235328  0.501394  1
