# generated using pymatgen
data_Ce7Tm(Ta3Ge4)4
_symmetry_space_group_name_H-M   'P 1'
_cell_length_a   7.09480141
_cell_length_b   7.20245560
_cell_length_c   13.62414500
_cell_angle_alpha   89.92895395
_cell_angle_beta   89.97280041
_cell_angle_gamma   89.97201135
_symmetry_Int_Tables_number   1
_chemical_formula_structural   Ce7Tm(Ta3Ge4)4
_chemical_formula_sum   'Ce7 Tm1 Ta12 Ge16'
_cell_volume   696.19300607
_cell_formula_units_Z   1
loop_
 _symmetry_equiv_pos_site_id
 _symmetry_equiv_pos_as_xyz
  1  'x, y, z'
loop_
 _atom_site_type_symbol
 _atom_site_label
 _atom_site_symmetry_multiplicity
 _atom_site_fract_x
 _atom_site_fract_y
 _atom_site_fract_z
 _atom_site_occupancy
  Ce  Ce0  1  0.995475  0.829438  0.906016  1
  Ce  Ce1  1  0.505215  0.329830  0.092726  1
  Ce  Ce2  1  0.004847  0.170805  0.408219  1
  Ce  Ce3  1  0.504744  0.327740  0.406745  1
  Ce  Ce4  1  0.004958  0.169907  0.092759  1
  Ce  Ce5  1  0.495679  0.670078  0.907179  1
  Ce  Ce6  1  0.996185  0.829926  0.592489  1
  Tm  Tm7  1  0.493102  0.672573  0.594282  1
  Ta  Ta8  1  0.659900  0.167843  0.625938  1
  Ta  Ta9  1  0.161342  0.335064  0.873338  1
  Ta  Ta10  1  0.340315  0.833446  0.126509  1
  Ta  Ta11  1  0.841004  0.666683  0.373784  1
  Ta  Ta12  1  0.339886  0.833406  0.373816  1
  Ta  Ta13  1  0.840949  0.666237  0.126558  1
  Ta  Ta14  1  0.659285  0.166504  0.873072  1
  Ta  Ta15  1  0.158208  0.332666  0.626007  1
  Ta  Ta16  1  0.834558  0.490403  0.749451  1
  Ta  Ta17  1  0.333639  0.010797  0.750414  1
  Ta  Ta18  1  0.165789  0.509382  0.250749  1
  Ta  Ta19  1  0.665409  0.989769  0.250286  1
  Ge  Ge20  1  0.671117  0.953698  0.457038  1
  Ge  Ge21  1  0.171901  0.544583  0.044422  1
  Ge  Ge22  1  0.327616  0.044699  0.955536  1
  Ge  Ge23  1  0.822225  0.459358  0.544879  1
  Ge  Ge24  1  0.330398  0.041615  0.544967  1
  Ge  Ge25  1  0.828414  0.455034  0.955265  1
  Ge  Ge26  1  0.671940  0.955335  0.044189  1
  Ge  Ge27  1  0.174918  0.544149  0.456871  1
  Ge  Ge28  1  0.461092  0.375834  0.749135  1
  Ge  Ge29  1  0.960462  0.125671  0.750165  1
  Ge  Ge30  1  0.539492  0.625185  0.250203  1
  Ge  Ge31  1  0.039365  0.874504  0.250252  1
  Ge  Ge32  1  0.689503  0.860390  0.747896  1
  Ge  Ge33  1  0.194014  0.637966  0.748611  1
  Ge  Ge34  1  0.308362  0.137259  0.250090  1
  Ge  Ge35  1  0.808696  0.362223  0.250145  1
