# generated using pymatgen
data_Tb7Ho(TcB6)4
_symmetry_space_group_name_H-M   'P 1'
_cell_length_a   3.70157600
_cell_length_b   9.18392615
_cell_length_c   11.57227619
_cell_angle_alpha   90.02059844
_cell_angle_beta   90.00000000
_cell_angle_gamma   90.00000000
_symmetry_Int_Tables_number   1
_chemical_formula_structural   Tb7Ho(TcB6)4
_chemical_formula_sum   'Tb7 Ho1 Tc4 B24'
_cell_volume   393.39951069
_cell_formula_units_Z   1
loop_
 _symmetry_equiv_pos_site_id
 _symmetry_equiv_pos_as_xyz
  1  'x, y, z'
loop_
 _atom_site_type_symbol
 _atom_site_label
 _atom_site_symmetry_multiplicity
 _atom_site_fract_x
 _atom_site_fract_y
 _atom_site_fract_z
 _atom_site_occupancy
  Tb  Tb0  1  0.000000  0.324245  0.414251  1
  Tb  Tb1  1  0.000000  0.675732  0.586004  1
  Tb  Tb2  1  0.000000  0.823970  0.085709  1
  Tb  Tb3  1  0.000000  0.176014  0.914127  1
  Tb  Tb4  1  0.000000  0.942666  0.369212  1
  Tb  Tb5  1  0.000000  0.057416  0.630927  1
  Tb  Tb6  1  0.000000  0.442828  0.130425  1
  Ho  Ho7  1  0.000000  0.557249  0.868912  1
  Tc  Tc8  1  0.000000  0.638646  0.320494  1
  Tc  Tc9  1  0.000000  0.361730  0.679844  1
  Tc  Tc10  1  0.000000  0.138747  0.179293  1
  Tc  Tc11  1  0.000000  0.860691  0.820612  1
  B  B12  1  0.500000  0.553537  0.432744  1
  B  B13  1  0.500000  0.446545  0.567544  1
  B  B14  1  0.500000  0.053433  0.067214  1
  B  B15  1  0.500000  0.946213  0.932699  1
  B  B16  1  0.500000  0.748308  0.418296  1
  B  B17  1  0.500000  0.251814  0.581856  1
  B  B18  1  0.500000  0.248405  0.081653  1
  B  B19  1  0.500000  0.750764  0.918320  1
  B  B20  1  0.500000  0.791447  0.265336  1
  B  B21  1  0.500000  0.208876  0.734738  1
  B  B22  1  0.500000  0.291548  0.234593  1
  B  B23  1  0.500000  0.707771  0.765544  1
  B  B24  1  0.500000  0.631063  0.185870  1
  B  B25  1  0.500000  0.369570  0.814376  1
  B  B26  1  0.500000  0.131129  0.314041  1
  B  B27  1  0.500000  0.868664  0.686079  1
  B  B28  1  0.500000  0.982971  0.211470  1
  B  B29  1  0.500000  0.016904  0.788589  1
  B  B30  1  0.500000  0.482955  0.288452  1
  B  B31  1  0.500000  0.517431  0.712003  1
  B  B32  1  0.500000  0.600449  0.027307  1
  B  B33  1  0.500000  0.400269  0.971354  1
  B  B34  1  0.500000  0.100981  0.471858  1
  B  B35  1  0.500000  0.899018  0.528253  1
