# generated using pymatgen
data_Tm7LuSc11Si16Au
_symmetry_space_group_name_H-M   'P 1'
_cell_length_a   6.96140803
_cell_length_b   7.34464452
_cell_length_c   13.93637821
_cell_angle_alpha   89.98288441
_cell_angle_beta   89.99022305
_cell_angle_gamma   89.82860234
_symmetry_Int_Tables_number   1
_chemical_formula_structural   Tm7LuSc11Si16Au
_chemical_formula_sum   'Tm7 Lu1 Sc11 Si16 Au1'
_cell_volume   712.55078902
_cell_formula_units_Z   1
loop_
 _symmetry_equiv_pos_site_id
 _symmetry_equiv_pos_as_xyz
  1  'x, y, z'
loop_
 _atom_site_type_symbol
 _atom_site_label
 _atom_site_symmetry_multiplicity
 _atom_site_fract_x
 _atom_site_fract_y
 _atom_site_fract_z
 _atom_site_occupancy
  Tm  Tm0  1  0.990862  0.813521  0.902015  1
  Tm  Tm1  1  0.486266  0.673420  0.902463  1
  Tm  Tm2  1  0.990863  0.813493  0.598037  1
  Tm  Tm3  1  0.509984  0.322337  0.095849  1
  Tm  Tm4  1  0.010697  0.176370  0.404238  1
  Tm  Tm5  1  0.510010  0.322429  0.404129  1
  Tm  Tm6  1  0.486283  0.673442  0.597566  1
  Lu  Lu7  1  0.010840  0.176605  0.095979  1
  Sc  Sc8  1  0.838229  0.496389  0.249932  1
  Sc  Sc9  1  0.340507  0.004219  0.249943  1
  Sc  Sc10  1  0.655763  0.996712  0.749996  1
  Sc  Sc11  1  0.323526  0.182661  0.627424  1
  Sc  Sc12  1  0.671362  0.824060  0.374947  1
  Sc  Sc13  1  0.170602  0.678765  0.374023  1
  Sc  Sc14  1  0.671393  0.824186  0.124998  1
  Sc  Sc15  1  0.837445  0.327732  0.627380  1
  Sc  Sc16  1  0.323511  0.182700  0.872595  1
  Sc  Sc17  1  0.837497  0.327602  0.872627  1
  Sc  Sc18  1  0.170549  0.678840  0.125949  1
  Si  Si19  1  0.025170  0.090948  0.750030  1
  Si  Si20  1  0.969763  0.891166  0.249920  1
  Si  Si21  1  0.467731  0.614703  0.249991  1
  Si  Si22  1  0.534360  0.387250  0.750007  1
  Si  Si23  1  0.288327  0.877408  0.749986  1
  Si  Si24  1  0.714339  0.131101  0.249839  1
  Si  Si25  1  0.212878  0.369314  0.249865  1
  Si  Si26  1  0.777769  0.631766  0.750004  1
  Si  Si27  1  0.164162  0.459699  0.530513  1
  Si  Si28  1  0.841059  0.535030  0.462438  1
  Si  Si29  1  0.343334  0.965851  0.463198  1
  Si  Si30  1  0.841176  0.534804  0.037652  1
  Si  Si31  1  0.658970  0.033482  0.540520  1
  Si  Si32  1  0.164053  0.459371  0.969578  1
  Si  Si33  1  0.659004  0.033511  0.959494  1
  Si  Si34  1  0.342920  0.966042  0.036884  1
  Au  Au35  1  0.158796  0.523072  0.749994  1
