# generated using pymatgen
data_Yb3Ir2Ru2PbO14
_symmetry_space_group_name_H-M   'P 1'
_cell_length_a   7.19471219
_cell_length_b   7.28213511
_cell_length_c   7.25336400
_cell_angle_alpha   60.13060035
_cell_angle_beta   59.72995400
_cell_angle_gamma   59.85892777
_symmetry_Int_Tables_number   1
_chemical_formula_structural   Yb3Ir2Ru2PbO14
_chemical_formula_sum   'Yb3 Ir2 Ru2 Pb1 O14'
_cell_volume   268.14104011
_cell_formula_units_Z   1
loop_
 _symmetry_equiv_pos_site_id
 _symmetry_equiv_pos_as_xyz
  1  'x, y, z'
loop_
 _atom_site_type_symbol
 _atom_site_label
 _atom_site_symmetry_multiplicity
 _atom_site_fract_x
 _atom_site_fract_y
 _atom_site_fract_z
 _atom_site_occupancy
  Yb  Yb0  1  0.125000  0.125000  0.125000  1
  Yb  Yb1  1  0.125000  0.125000  0.625000  1
  Yb  Yb2  1  0.125000  0.625000  0.125000  1
  Ir  Ir3  1  0.625000  0.625000  0.625000  1
  Ir  Ir4  1  0.625000  0.625000  0.125000  1
  Ru  Ru5  1  0.125000  0.625000  0.625000  1
  Ru  Ru6  1  0.625000  0.125000  0.625000  1
  Pb  Pb7  1  0.625000  0.125000  0.125000  1
  O  O8  1  0.992116  0.002479  0.002703  1
  O  O9  1  0.257884  0.247521  0.247297  1
  O  O10  1  0.302935  0.301972  0.697547  1
  O  O11  1  0.552894  0.538499  0.954304  1
  O  O12  1  0.695598  0.298301  0.708089  1
  O  O13  1  0.695598  0.298301  0.298011  1
  O  O14  1  0.298436  0.703258  0.700033  1
  O  O15  1  0.298436  0.703258  0.298273  1
  O  O16  1  0.697106  0.711501  0.295696  1
  O  O17  1  0.951564  0.546742  0.549967  1
  O  O18  1  0.554402  0.951699  0.951989  1
  O  O19  1  0.947065  0.948028  0.552453  1
  O  O20  1  0.951564  0.546742  0.951727  1
  O  O21  1  0.554402  0.951699  0.541911  1
