# generated using pymatgen
data_Dy6Zn17AsPd6
_symmetry_space_group_name_H-M   'P 1'
_cell_length_a   9.03279240
_cell_length_b   9.03281356
_cell_length_c   9.03279600
_cell_angle_alpha   59.99991783
_cell_angle_beta   60.00006739
_cell_angle_gamma   60.00006175
_symmetry_Int_Tables_number   1
_chemical_formula_structural   Dy6Zn17AsPd6
_chemical_formula_sum   'Dy6 Zn17 As1 Pd6'
_cell_volume   521.13763053
_cell_formula_units_Z   1
loop_
 _symmetry_equiv_pos_site_id
 _symmetry_equiv_pos_as_xyz
  1  'x, y, z'
loop_
 _atom_site_type_symbol
 _atom_site_label
 _atom_site_symmetry_multiplicity
 _atom_site_fract_x
 _atom_site_fract_y
 _atom_site_fract_z
 _atom_site_occupancy
  Dy  Dy0  1  0.719485  0.280510  0.280512  1
  Dy  Dy1  1  0.719485  0.280510  0.719492  1
  Dy  Dy2  1  0.719485  0.719492  0.280511  1
  Dy  Dy3  1  0.280515  0.719490  0.719488  1
  Dy  Dy4  1  0.280515  0.719490  0.280508  1
  Dy  Dy5  1  0.280515  0.280508  0.719489  1
  Zn  Zn6  1  0.627504  0.124165  0.124165  1
  Zn  Zn7  1  0.124164  0.627504  0.124167  1
  Zn  Zn8  1  0.124164  0.124167  0.627504  1
  Zn  Zn9  1  0.124163  0.124166  0.124166  1
  Zn  Zn10  1  0.372496  0.875835  0.875835  1
  Zn  Zn11  1  0.875836  0.372496  0.875833  1
  Zn  Zn12  1  0.875836  0.875833  0.372496  1
  Zn  Zn13  1  0.875837  0.875834  0.875834  1
  Zn  Zn14  1  0.000000  0.000000  0.000000  1
  Zn  Zn15  1  0.007112  0.330962  0.330963  1
  Zn  Zn16  1  0.330961  0.007110  0.330963  1
  Zn  Zn17  1  0.330962  0.330962  0.007110  1
  Zn  Zn18  1  0.330960  0.330964  0.330963  1
  Zn  Zn19  1  0.992888  0.669038  0.669037  1
  Zn  Zn20  1  0.669039  0.992890  0.669037  1
  Zn  Zn21  1  0.669038  0.669038  0.992890  1
  Zn  Zn22  1  0.669040  0.669036  0.669037  1
  As  As23  1  0.500000  0.500000  0.500000  1
  Pd  Pd24  1  0.500000  0.000000  0.000000  1
  Pd  Pd25  1  0.500000  0.000000  0.500000  1
  Pd  Pd26  1  0.500000  0.500000  0.000000  1
  Pd  Pd27  1  0.000000  0.500000  0.500000  1
  Pd  Pd28  1  0.000000  0.500000  0.000000  1
  Pd  Pd29  1  0.000000  0.000000  0.500000  1
