# generated using pymatgen
data_LaNb6InS12
_symmetry_space_group_name_H-M   'P 1'
_cell_length_a   5.78725100
_cell_length_b   5.78725092
_cell_length_c   14.74543600
_cell_angle_alpha   90.00000000
_cell_angle_beta   90.00000000
_cell_angle_gamma   120.00000619
_symmetry_Int_Tables_number   1
_chemical_formula_structural   LaNb6InS12
_chemical_formula_sum   'La1 Nb6 In1 S12'
_cell_volume   427.69370111
_cell_formula_units_Z   1
loop_
 _symmetry_equiv_pos_site_id
 _symmetry_equiv_pos_as_xyz
  1  'x, y, z'
loop_
 _atom_site_type_symbol
 _atom_site_label
 _atom_site_symmetry_multiplicity
 _atom_site_fract_x
 _atom_site_fract_y
 _atom_site_fract_z
 _atom_site_occupancy
  La  La0  1  0.666667  0.333333  0.750000  1
  Nb  Nb1  1  0.333333  0.666667  0.505299  1
  Nb  Nb2  1  0.666667  0.333333  0.994208  1
  Nb  Nb3  1  0.666667  0.333333  0.505792  1
  Nb  Nb4  1  0.333333  0.666667  0.994701  1
  Nb  Nb5  1  0.000000  0.000000  0.503878  1
  Nb  Nb6  1  0.000000  0.000000  0.996122  1
  In  In7  1  0.333333  0.666667  0.250000  1
  S  S8  1  0.334673  0.334000  0.100756  1
  S  S9  1  0.666000  0.000673  0.100756  1
  S  S10  1  0.999327  0.665327  0.100756  1
  S  S11  1  0.007102  0.332813  0.612574  1
  S  S12  1  0.667187  0.992898  0.887426  1
  S  S13  1  0.667187  0.674289  0.612574  1
  S  S14  1  0.325711  0.992898  0.612574  1
  S  S15  1  0.666000  0.665327  0.399244  1
  S  S16  1  0.334673  0.000673  0.399244  1
  S  S17  1  0.325711  0.332813  0.887426  1
  S  S18  1  0.007102  0.674289  0.887426  1
  S  S19  1  0.999327  0.334000  0.399244  1
