# generated using pymatgen
data_LaEu2Cu5(Ni4B)2
_symmetry_space_group_name_H-M   'P 1'
_cell_length_a   5.14522705
_cell_length_b   5.12443001
_cell_length_c   10.90112600
_cell_angle_alpha   89.99590278
_cell_angle_beta   90.00818360
_cell_angle_gamma   120.13433577
_symmetry_Int_Tables_number   1
_chemical_formula_structural   LaEu2Cu5(Ni4B)2
_chemical_formula_sum   'La1 Eu2 Cu5 Ni8 B2'
_cell_volume   248.57795930
_cell_formula_units_Z   1
loop_
 _symmetry_equiv_pos_site_id
 _symmetry_equiv_pos_as_xyz
  1  'x, y, z'
loop_
 _atom_site_type_symbol
 _atom_site_label
 _atom_site_symmetry_multiplicity
 _atom_site_fract_x
 _atom_site_fract_y
 _atom_site_fract_z
 _atom_site_occupancy
  La  La0  1  0.000032  0.000000  0.672677  1
  Eu  Eu1  1  0.000003  0.000000  0.000176  1
  Eu  Eu2  1  0.999959  0.000000  0.327200  1
  Cu  Cu3  1  0.500010  0.000000  0.499926  1
  Cu  Cu4  1  0.331952  0.663958  0.315766  1
  Cu  Cu5  1  0.667994  0.336042  0.315766  1
  Cu  Cu6  1  0.667992  0.335964  0.684232  1
  Cu  Cu7  1  0.332028  0.664036  0.684232  1
  Ni  Ni8  1  0.499963  0.499977  0.500004  1
  Ni  Ni9  1  0.999986  0.500023  0.500004  1
  Ni  Ni10  1  0.500090  0.000000  0.128555  1
  Ni  Ni11  1  0.500070  0.500011  0.128737  1
  Ni  Ni12  1  0.000059  0.499989  0.128737  1
  Ni  Ni13  1  0.499902  0.000000  0.871423  1
  Ni  Ni14  1  0.499929  0.499993  0.871237  1
  Ni  Ni15  1  0.999936  0.500007  0.871237  1
  B  B16  1  0.333089  0.666180  0.000043  1
  B  B17  1  0.666910  0.333820  0.000043  1
