# generated using pymatgen
data_ZrV5(SiOs)6
_symmetry_space_group_name_H-M   'P 1'
_cell_length_a   7.35847248
_cell_length_b   7.38649642
_cell_length_c   7.35847224
_cell_angle_alpha   128.06267659
_cell_angle_beta   123.39581874
_cell_angle_gamma   80.29073887
_symmetry_Int_Tables_number   1
_chemical_formula_structural   ZrV5(SiOs)6
_chemical_formula_sum   'Zr1 V5 Si6 Os6'
_cell_volume   253.88813839
_cell_formula_units_Z   1
loop_
 _symmetry_equiv_pos_site_id
 _symmetry_equiv_pos_as_xyz
  1  'x, y, z'
loop_
 _atom_site_type_symbol
 _atom_site_label
 _atom_site_symmetry_multiplicity
 _atom_site_fract_x
 _atom_site_fract_y
 _atom_site_fract_z
 _atom_site_occupancy
  Zr  Zr0  1  0.755577  0.584375  0.328798  1
  V  V1  1  0.453360  0.392872  0.439511  1
  V  V2  1  0.562018  0.035616  0.973597  1
  V  V3  1  0.030941  0.982304  0.451363  1
  V  V4  1  0.963411  0.440392  0.976981  1
  V  V5  1  0.240290  0.585998  0.845708  1
  Si  Si6  1  0.211025  0.932573  0.221548  1
  Si  Si7  1  0.777412  0.059755  0.782342  1
  Si  Si8  1  0.195477  0.674721  0.527266  1
  Si  Si9  1  0.839757  0.332228  0.513157  1
  Si  Si10  1  0.647454  0.674721  0.979243  1
  Si  Si11  1  0.319072  0.332228  0.992471  1
  Os  Os12  1  0.043262  0.260200  0.299311  1
  Os  Os13  1  0.460889  0.260200  0.716938  1
  Os  Os14  1  0.414919  0.749714  0.421058  1
  Os  Os15  1  0.590436  0.005195  0.339153  1
  Os  Os16  1  0.828655  0.749714  0.834795  1
  Os  Os17  1  0.166042  0.005195  0.914760  1
