# generated using pymatgen
data_Y2Ga9IrPtRh
_symmetry_space_group_name_H-M   'P 1'
_cell_length_a   7.62647629
_cell_length_b   7.62648432
_cell_length_c   9.50026702
_cell_angle_alpha   90.00393667
_cell_angle_beta   90.00376645
_cell_angle_gamma   119.92554113
_symmetry_Int_Tables_number   1
_chemical_formula_structural   Y2Ga9IrPtRh
_chemical_formula_sum   'Y4 Ga18 Ir2 Pt2 Rh2'
_cell_volume   478.89478368
_cell_formula_units_Z   2
loop_
 _symmetry_equiv_pos_site_id
 _symmetry_equiv_pos_as_xyz
  1  'x, y, z'
loop_
 _atom_site_type_symbol
 _atom_site_label
 _atom_site_symmetry_multiplicity
 _atom_site_fract_x
 _atom_site_fract_y
 _atom_site_fract_z
 _atom_site_occupancy
  Y  Y0  1  0.996476  0.670024  0.250036  1
  Y  Y1  1  0.003524  0.329976  0.749964  1
  Y  Y2  1  0.670023  0.996475  0.250036  1
  Y  Y3  1  0.329977  0.003525  0.749964  1
  Ga  Ga4  1  0.132062  0.132061  0.249957  1
  Ga  Ga5  1  0.867938  0.867939  0.750043  1
  Ga  Ga6  1  0.998554  0.338082  0.080948  1
  Ga  Ga7  1  0.001446  0.661918  0.919052  1
  Ga  Ga8  1  0.001380  0.662239  0.581133  1
  Ga  Ga9  1  0.337761  0.998620  0.418867  1
  Ga  Ga10  1  0.998620  0.337761  0.418867  1
  Ga  Ga11  1  0.662239  0.001380  0.581133  1
  Ga  Ga12  1  0.661918  0.001446  0.919052  1
  Ga  Ga13  1  0.338082  0.998554  0.080948  1
  Ga  Ga14  1  0.335789  0.335789  0.567246  1
  Ga  Ga15  1  0.664211  0.664211  0.432754  1
  Ga  Ga16  1  0.663640  0.663640  0.067228  1
  Ga  Ga17  1  0.336360  0.336360  0.932772  1
  Ga  Ga18  1  0.337376  0.546907  0.249404  1
  Ga  Ga19  1  0.662624  0.453093  0.750596  1
  Ga  Ga20  1  0.546906  0.337375  0.249404  1
  Ga  Ga21  1  0.453094  0.662625  0.750596  1
  Ir  Ir22  1  0.328747  0.671253  0.500000  1
  Ir  Ir23  1  0.671253  0.328747  0.500000  1
  Pt  Pt24  1  0.000000  0.000000  0.000000  1
  Pt  Pt25  1  0.000000  0.000000  0.500000  1
  Rh  Rh26  1  0.670922  0.329078  0.000000  1
  Rh  Rh27  1  0.329078  0.670922  0.000000  1
