# generated using pymatgen
data_HfZr2Sc5(Si4Ru3)4
_symmetry_space_group_name_H-M   'P 1'
_cell_length_a   9.93910585
_cell_length_b   9.94801192
_cell_length_c   13.38793411
_cell_angle_alpha   53.79382180
_cell_angle_beta   53.76829088
_cell_angle_gamma   31.12334216
_symmetry_Int_Tables_number   1
_chemical_formula_structural   HfZr2Sc5(Si4Ru3)4
_chemical_formula_sum   'Hf1 Zr2 Sc5 Si16 Ru12'
_cell_volume   540.39208565
_cell_formula_units_Z   1
loop_
 _symmetry_equiv_pos_site_id
 _symmetry_equiv_pos_as_xyz
  1  'x, y, z'
loop_
 _atom_site_type_symbol
 _atom_site_label
 _atom_site_symmetry_multiplicity
 _atom_site_fract_x
 _atom_site_fract_y
 _atom_site_fract_z
 _atom_site_occupancy
  Hf  Hf0  1  0.294310  0.039372  0.136670  1
  Zr  Zr1  1  0.703351  0.961535  0.864700  1
  Zr  Zr2  1  0.961892  0.703178  0.364832  1
  Sc  Sc3  1  0.292778  0.560315  0.645964  1
  Sc  Sc4  1  0.438376  0.707973  0.854045  1
  Sc  Sc5  1  0.707327  0.439426  0.353926  1
  Sc  Sc6  1  0.561384  0.292309  0.146329  1
  Sc  Sc7  1  0.037322  0.293204  0.639465  1
  Si  Si8  1  0.875276  0.124684  0.250006  1
  Si  Si9  1  0.126800  0.874599  0.749008  1
  Si  Si10  1  0.383448  0.617731  0.249360  1
  Si  Si11  1  0.617204  0.383536  0.749358  1
  Si  Si12  1  0.973076  0.254595  0.891239  1
  Si  Si13  1  0.747428  0.025246  0.607701  1
  Si  Si14  1  0.027078  0.745251  0.107983  1
  Si  Si15  1  0.253227  0.974278  0.391699  1
  Si  Si16  1  0.573545  0.084303  0.066360  1
  Si  Si17  1  0.917181  0.424216  0.434224  1
  Si  Si18  1  0.424458  0.916949  0.933709  1
  Si  Si19  1  0.082563  0.572912  0.567145  1
  Si  Si20  1  0.387103  0.143457  0.396659  1
  Si  Si21  1  0.854912  0.613230  0.105101  1
  Si  Si22  1  0.611839  0.857264  0.604690  1
  Si  Si23  1  0.145253  0.386712  0.894919  1
  Ru  Ru24  1  0.646700  0.830082  0.281748  1
  Ru  Ru25  1  0.168674  0.351586  0.217702  1
  Ru  Ru26  1  0.759345  0.485799  0.069812  1
  Ru  Ru27  1  0.829270  0.647371  0.782675  1
  Ru  Ru28  1  0.898296  0.142058  0.584947  1
  Ru  Ru29  1  0.857279  0.101806  0.914261  1
  Ru  Ru30  1  0.103049  0.857054  0.413997  1
  Ru  Ru31  1  0.142604  0.898604  0.085101  1
  Ru  Ru32  1  0.242175  0.515365  0.930195  1
  Ru  Ru33  1  0.489605  0.757004  0.567402  1
  Ru  Ru34  1  0.513082  0.247003  0.428927  1
  Ru  Ru35  1  0.352788  0.169997  0.718141  1
