# generated using pymatgen
data_V2RuSe4
_symmetry_space_group_name_H-M   'P 1'
_cell_length_a   6.63949637
_cell_length_b   9.11941647
_cell_length_c   9.57852890
_cell_angle_alpha   90.22754275
_cell_angle_beta   90.67912985
_cell_angle_gamma   94.14199138
_symmetry_Int_Tables_number   1
_chemical_formula_structural   V2RuSe4
_chemical_formula_sum   'V8 Ru4 Se16'
_cell_volume   578.40174464
_cell_formula_units_Z   4
loop_
 _symmetry_equiv_pos_site_id
 _symmetry_equiv_pos_as_xyz
  1  'x, y, z'
loop_
 _atom_site_type_symbol
 _atom_site_label
 _atom_site_symmetry_multiplicity
 _atom_site_fract_x
 _atom_site_fract_y
 _atom_site_fract_z
 _atom_site_occupancy
  V  V0  1  0.779497  0.521272  0.069480  1
  V  V1  1  0.774928  0.021541  0.568818  1
  V  V2  1  0.584998  0.116285  0.336730  1
  V  V3  1  0.541993  0.318559  0.906838  1
  V  V4  1  0.458007  0.681441  0.093162  1
  V  V5  1  0.415002  0.883715  0.663270  1
  V  V6  1  0.225072  0.978459  0.431182  1
  V  V7  1  0.220503  0.478728  0.930520  1
  Ru  Ru8  1  0.549157  0.824524  0.410243  1
  Ru  Ru9  1  0.587130  0.607739  0.843881  1
  Ru  Ru10  1  0.412870  0.392261  0.156119  1
  Ru  Ru11  1  0.450843  0.175476  0.589757  1
  Se  Se12  1  0.870533  0.951317  0.323657  1
  Se  Se13  1  0.868762  0.437695  0.830398  1
  Se  Se14  1  0.727298  0.255817  0.129325  1
  Se  Se15  1  0.734180  0.754023  0.626988  1
  Se  Se16  1  0.781080  0.280580  0.501777  1
  Se  Se17  1  0.783837  0.783141  0.005240  1
  Se  Se18  1  0.630169  0.570776  0.300764  1
  Se  Se19  1  0.621728  0.073576  0.801747  1
  Se  Se20  1  0.378272  0.926424  0.198253  1
  Se  Se21  1  0.369831  0.429224  0.699236  1
  Se  Se22  1  0.218920  0.719420  0.498223  1
  Se  Se23  1  0.265820  0.245977  0.373012  1
  Se  Se24  1  0.216163  0.216859  0.994760  1
  Se  Se25  1  0.272702  0.744183  0.870675  1
  Se  Se26  1  0.131238  0.562305  0.169602  1
  Se  Se27  1  0.129467  0.048683  0.676343  1
