# generated using pymatgen
data_P4(Pd7Pt)3
_symmetry_space_group_name_H-M   'P 1'
_cell_length_a   9.57643695
_cell_length_b   5.75388515
_cell_length_c   8.40508615
_cell_angle_alpha   69.61831418
_cell_angle_beta   90.17280915
_cell_angle_gamma   89.95129257
_symmetry_Int_Tables_number   1
_chemical_formula_structural   P4(Pd7Pt)3
_chemical_formula_sum   'P4 Pd21 Pt3'
_cell_volume   434.13651574
_cell_formula_units_Z   1
loop_
 _symmetry_equiv_pos_site_id
 _symmetry_equiv_pos_as_xyz
  1  'x, y, z'
loop_
 _atom_site_type_symbol
 _atom_site_label
 _atom_site_symmetry_multiplicity
 _atom_site_fract_x
 _atom_site_fract_y
 _atom_site_fract_z
 _atom_site_occupancy
  P  P0  1  0.761943  0.875913  0.749308  1
  P  P1  1  0.263002  0.126587  0.747579  1
  P  P2  1  0.237294  0.125663  0.248630  1
  P  P3  1  0.737892  0.875276  0.251901  1
  Pd  Pd4  1  0.632294  0.527772  0.431386  1
  Pd  Pd5  1  0.136122  0.773958  0.431364  1
  Pd  Pd6  1  0.635793  0.227629  0.068953  1
  Pd  Pd7  1  0.865280  0.225022  0.569000  1
  Pd  Pd8  1  0.363956  0.773207  0.931323  1
  Pd  Pd9  1  0.866047  0.713794  0.562226  1
  Pd  Pd10  1  0.365354  0.286684  0.936856  1
  Pd  Pd11  1  0.134485  0.286820  0.436769  1
  Pd  Pd12  1  0.634179  0.713817  0.065202  1
  Pd  Pd13  1  0.419883  0.866571  0.250156  1
  Pd  Pd14  1  0.919235  0.134686  0.249603  1
  Pd  Pd15  1  0.579963  0.132748  0.750553  1
  Pd  Pd16  1  0.081031  0.866295  0.750602  1
  Pd  Pd17  1  0.580548  0.618513  0.748207  1
  Pd  Pd18  1  0.080381  0.380425  0.752987  1
  Pd  Pd19  1  0.419051  0.380582  0.252416  1
  Pd  Pd20  1  0.918739  0.618910  0.247879  1
  Pd  Pd21  1  0.364712  0.955527  0.564705  1
  Pd  Pd22  1  0.863301  0.045046  0.934706  1
  Pd  Pd23  1  0.636039  0.040946  0.435048  1
  Pd  Pd24  1  0.136032  0.954799  0.065446  1
  Pt  Pt25  1  0.868226  0.530349  0.930776  1
  Pt  Pt26  1  0.368896  0.471470  0.568220  1
  Pt  Pt27  1  0.130325  0.470991  0.068200  1
