# generated using pymatgen
data_Hf5Mn15Co(TcP4)3
_symmetry_space_group_name_H-M   'P 1'
_cell_length_a   12.07292600
_cell_length_b   12.07292497
_cell_length_c   3.61727600
_cell_angle_alpha   90.00000000
_cell_angle_beta   90.00000000
_cell_angle_gamma   119.99999735
_symmetry_Int_Tables_number   1
_chemical_formula_structural   Hf5Mn15Co(TcP4)3
_chemical_formula_sum   'Hf5 Mn15 Co1 Tc3 P12'
_cell_volume   456.60149639
_cell_formula_units_Z   1
loop_
 _symmetry_equiv_pos_site_id
 _symmetry_equiv_pos_as_xyz
  1  'x, y, z'
loop_
 _atom_site_type_symbol
 _atom_site_label
 _atom_site_symmetry_multiplicity
 _atom_site_fract_x
 _atom_site_fract_y
 _atom_site_fract_z
 _atom_site_occupancy
  Hf  Hf0  1  0.666667  0.333333  0.000000  1
  Hf  Hf1  1  0.333333  0.666667  0.000000  1
  Hf  Hf2  1  0.177092  0.177092  0.500000  1
  Hf  Hf3  1  0.822908  0.000000  0.500000  1
  Hf  Hf4  1  0.000000  0.822908  0.500000  1
  Mn  Mn5  1  0.824489  0.201451  0.000000  1
  Mn  Mn6  1  0.798549  0.623038  0.000000  1
  Mn  Mn7  1  0.376962  0.175511  0.000000  1
  Mn  Mn8  1  0.201451  0.824489  0.000000  1
  Mn  Mn9  1  0.623038  0.798549  0.000000  1
  Mn  Mn10  1  0.175511  0.376962  0.000000  1
  Mn  Mn11  1  0.657669  0.128032  0.500000  1
  Mn  Mn12  1  0.871968  0.529637  0.500000  1
  Mn  Mn13  1  0.470363  0.342331  0.500000  1
  Mn  Mn14  1  0.128032  0.657669  0.500000  1
  Mn  Mn15  1  0.529637  0.871968  0.500000  1
  Mn  Mn16  1  0.342331  0.470363  0.500000  1
  Mn  Mn17  1  0.717686  0.717686  0.500000  1
  Mn  Mn18  1  0.282314  0.000000  0.500000  1
  Mn  Mn19  1  0.000000  0.282314  0.500000  1
  Co  Co20  1  0.000000  0.000000  0.000000  1
  Tc  Tc21  1  0.545866  0.545866  0.000000  1
  Tc  Tc22  1  0.454134  0.000000  0.000000  1
  Tc  Tc23  1  0.000000  0.454134  0.000000  1
  P  P24  1  0.348434  0.348434  0.000000  1
  P  P25  1  0.651566  0.000000  0.000000  1
  P  P26  1  0.000000  0.651566  0.000000  1
  P  P27  1  0.838776  0.328473  0.500000  1
  P  P28  1  0.671527  0.510302  0.500000  1
  P  P29  1  0.489698  0.161224  0.500000  1
  P  P30  1  0.328473  0.838776  0.500000  1
  P  P31  1  0.510302  0.671527  0.500000  1
  P  P32  1  0.161224  0.489698  0.500000  1
  P  P33  1  0.825378  0.825378  0.000000  1
  P  P34  1  0.174622  0.000000  0.000000  1
  P  P35  1  0.000000  0.174622  0.000000  1
