# generated using pymatgen
data_Pr20Ir11Os
_symmetry_space_group_name_H-M   'P 1'
_cell_length_a   11.35767000
_cell_length_b   11.35767000
_cell_length_c   6.64607500
_cell_angle_alpha   90.00000000
_cell_angle_beta   90.00000000
_cell_angle_gamma   90.00000000
_symmetry_Int_Tables_number   1
_chemical_formula_structural   Pr20Ir11Os
_chemical_formula_sum   'Pr20 Ir11 Os1'
_cell_volume   857.32152914
_cell_formula_units_Z   1
loop_
 _symmetry_equiv_pos_site_id
 _symmetry_equiv_pos_as_xyz
  1  'x, y, z'
loop_
 _atom_site_type_symbol
 _atom_site_label
 _atom_site_symmetry_multiplicity
 _atom_site_fract_x
 _atom_site_fract_y
 _atom_site_fract_z
 _atom_site_occupancy
  Pr  Pr0  1  0.292634  0.089186  0.380951  1
  Pr  Pr1  1  0.292803  0.910830  0.885570  1
  Pr  Pr2  1  0.707197  0.089170  0.885570  1
  Pr  Pr3  1  0.707366  0.910814  0.380951  1
  Pr  Pr4  1  0.589170  0.792803  0.885570  1
  Pr  Pr5  1  0.589186  0.207366  0.380951  1
  Pr  Pr6  1  0.410814  0.792634  0.380951  1
  Pr  Pr7  1  0.410830  0.207197  0.885570  1
  Pr  Pr8  1  0.208682  0.409210  0.618388  1
  Pr  Pr9  1  0.208434  0.589728  0.117818  1
  Pr  Pr10  1  0.791566  0.410272  0.117818  1
  Pr  Pr11  1  0.791318  0.590790  0.618388  1
  Pr  Pr12  1  0.910272  0.708434  0.117818  1
  Pr  Pr13  1  0.909210  0.291318  0.618388  1
  Pr  Pr14  1  0.090790  0.708682  0.618388  1
  Pr  Pr15  1  0.089728  0.291566  0.117818  1
  Pr  Pr16  1  0.000000  0.000000  0.497907  1
  Pr  Pr17  1  0.000000  0.000000  0.997613  1
  Pr  Pr18  1  0.500000  0.500000  0.997613  1
  Pr  Pr19  1  0.500000  0.500000  0.497907  1
  Ir  Ir20  1  0.847919  0.155168  0.249432  1
  Ir  Ir21  1  0.847387  0.845745  0.749307  1
  Ir  Ir22  1  0.152613  0.154255  0.749307  1
  Ir  Ir23  1  0.152081  0.844832  0.249432  1
  Ir  Ir24  1  0.654255  0.347387  0.749307  1
  Ir  Ir25  1  0.655168  0.652081  0.249432  1
  Ir  Ir26  1  0.344832  0.347919  0.249432  1
  Ir  Ir27  1  0.345745  0.652613  0.749307  1
  Ir  Ir28  1  0.500000  0.000000  0.618886  1
  Ir  Ir29  1  0.000000  0.500000  0.880868  1
  Ir  Ir30  1  0.000000  0.500000  0.382364  1
  Os  Os31  1  0.500000  0.000000  0.120979  1
