# generated using pymatgen
data_Tm2LuCoSn3Pt2
_symmetry_space_group_name_H-M   'P 1'
_cell_length_a   7.52622940
_cell_length_b   7.53662673
_cell_length_c   3.75627000
_cell_angle_alpha   90.00000000
_cell_angle_beta   90.00000000
_cell_angle_gamma   120.04570295
_symmetry_Int_Tables_number   1
_chemical_formula_structural   Tm2LuCoSn3Pt2
_chemical_formula_sum   'Tm2 Lu1 Co1 Sn3 Pt2'
_cell_volume   184.43430347
_cell_formula_units_Z   1
loop_
 _symmetry_equiv_pos_site_id
 _symmetry_equiv_pos_as_xyz
  1  'x, y, z'
loop_
 _atom_site_type_symbol
 _atom_site_label
 _atom_site_symmetry_multiplicity
 _atom_site_fract_x
 _atom_site_fract_y
 _atom_site_fract_z
 _atom_site_occupancy
  Tm  Tm0  1  0.401700  0.401696  0.500000  1
  Tm  Tm1  1  0.598300  0.999996  0.500000  1
  Lu  Lu2  1  0.000000  0.598508  0.500000  1
  Co  Co3  1  0.000000  0.999502  0.500000  1
  Sn  Sn4  1  0.748981  0.748441  0.000000  1
  Sn  Sn5  1  0.251019  0.999460  0.000000  1
  Sn  Sn6  1  0.000000  0.251267  0.000000  1
  Pt  Pt7  1  0.668517  0.334823  0.000000  1
  Pt  Pt8  1  0.331483  0.666308  0.000000  1
