# generated using pymatgen
data_TbYb3CoOs7
_symmetry_space_group_name_H-M   'P 1'
_cell_length_a   5.31320054
_cell_length_b   5.31320162
_cell_length_c   8.72605815
_cell_angle_alpha   89.76013411
_cell_angle_beta   90.23986502
_cell_angle_gamma   121.39452312
_symmetry_Int_Tables_number   1
_chemical_formula_structural   TbYb3CoOs7
_chemical_formula_sum   'Tb1 Yb3 Co1 Os7'
_cell_volume   210.27145138
_cell_formula_units_Z   1
loop_
 _symmetry_equiv_pos_site_id
 _symmetry_equiv_pos_as_xyz
  1  'x, y, z'
loop_
 _atom_site_type_symbol
 _atom_site_label
 _atom_site_symmetry_multiplicity
 _atom_site_fract_x
 _atom_site_fract_y
 _atom_site_fract_z
 _atom_site_occupancy
  Tb  Tb0  1  0.334304  0.665696  0.432455  1
  Yb  Yb1  1  0.668595  0.331405  0.566606  1
  Yb  Yb2  1  0.669823  0.330177  0.937540  1
  Yb  Yb3  1  0.334743  0.665257  0.062394  1
  Co  Co4  1  0.819161  0.180839  0.251600  1
  Os  Os5  1  0.010636  0.989364  0.494749  1
  Os  Os6  1  0.011887  0.988113  0.006434  1
  Os  Os7  1  0.820389  0.659310  0.249034  1
  Os  Os8  1  0.340690  0.179611  0.249034  1
  Os  Os9  1  0.165115  0.834885  0.751106  1
  Os  Os10  1  0.171232  0.346574  0.749524  1
  Os  Os11  1  0.653426  0.828768  0.749524  1
