# generated using pymatgen
data_SmIn(ReH9)2
_symmetry_space_group_name_H-M   'P 1'
_cell_length_a   5.26428437
_cell_length_b   5.26403992
_cell_length_c   9.20053025
_cell_angle_alpha   93.48452138
_cell_angle_beta   86.52124003
_cell_angle_gamma   124.87354144
_symmetry_Int_Tables_number   1
_chemical_formula_structural   SmIn(ReH9)2
_chemical_formula_sum   'Sm1 In1 Re2 H18'
_cell_volume   208.68155735
_cell_formula_units_Z   1
loop_
 _symmetry_equiv_pos_site_id
 _symmetry_equiv_pos_as_xyz
  1  'x, y, z'
loop_
 _atom_site_type_symbol
 _atom_site_label
 _atom_site_symmetry_multiplicity
 _atom_site_fract_x
 _atom_site_fract_y
 _atom_site_fract_z
 _atom_site_occupancy
  Sm  Sm0  1  0.000000  0.000000  0.500000  1
  In  In1  1  0.000000  0.000000  0.000000  1
  Re  Re2  1  0.333830  0.666358  0.712612  1
  Re  Re3  1  0.666170  0.333642  0.287388  1
  H  H4  1  0.386899  0.613216  0.529391  1
  H  H5  1  0.613101  0.386784  0.470609  1
  H  H6  1  0.410902  0.589196  0.871031  1
  H  H7  1  0.589098  0.410804  0.128969  1
  H  H8  1  0.463701  0.959877  0.838205  1
  H  H9  1  0.959636  0.463430  0.161799  1
  H  H10  1  0.588377  0.019572  0.644274  1
  H  H11  1  0.019408  0.588161  0.355741  1
  H  H12  1  0.536299  0.040123  0.161795  1
  H  H13  1  0.040364  0.536570  0.838201  1
  H  H14  1  0.411623  0.980428  0.355726  1
  H  H15  1  0.980592  0.411839  0.644259  1
  H  H16  1  0.693303  0.729486  0.708808  1
  H  H17  1  0.729408  0.693182  0.291211  1
  H  H18  1  0.306697  0.270514  0.291192  1
  H  H19  1  0.270592  0.306818  0.708789  1
  H  H20  1  0.153587  0.846657  0.689090  1
  H  H21  1  0.846413  0.153343  0.310910  1
