# generated using pymatgen
data_Ho2Er3ReRuC7
_symmetry_space_group_name_H-M   'P 1'
_cell_length_a   8.20207897
_cell_length_b   8.20299552
_cell_length_c   3.44558800
_cell_angle_alpha   90.00000000
_cell_angle_beta   90.00000000
_cell_angle_gamma   122.05813737
_symmetry_Int_Tables_number   1
_chemical_formula_structural   Ho2Er3ReRuC7
_chemical_formula_sum   'Ho2 Er3 Re1 Ru1 C7'
_cell_volume   196.47376893
_cell_formula_units_Z   1
loop_
 _symmetry_equiv_pos_site_id
 _symmetry_equiv_pos_as_xyz
  1  'x, y, z'
loop_
 _atom_site_type_symbol
 _atom_site_label
 _atom_site_symmetry_multiplicity
 _atom_site_fract_x
 _atom_site_fract_y
 _atom_site_fract_z
 _atom_site_occupancy
  Ho  Ho0  1  0.500999  0.499347  0.000000  1
  Ho  Ho1  1  0.075192  0.335750  0.500000  1
  Er  Er2  1  0.921327  0.660465  0.500000  1
  Er  Er3  1  0.663326  0.924199  0.500000  1
  Er  Er4  1  0.339688  0.078556  0.500000  1
  Re  Re5  1  0.285160  0.715025  0.000000  1
  Ru  Ru6  1  0.712814  0.286977  0.000000  1
  C  C7  1  0.628502  0.371530  0.500000  1
  C  C8  1  0.374814  0.625735  0.500000  1
  C  C9  1  0.999293  0.000709  0.000000  1
  C  C10  1  0.170876  0.170416  0.000000  1
  C  C11  1  0.829151  0.829505  0.000000  1
  C  C12  1  0.001509  0.503242  0.000000  1
  C  C13  1  0.497351  0.998541  0.000000  1
