# generated using pymatgen
data_TbLu7Mg2(SiB4)4
_symmetry_space_group_name_H-M   'P 1'
_cell_length_a   7.09247900
_cell_length_b   7.09247900
_cell_length_c   7.67759300
_cell_angle_alpha   89.99838431
_cell_angle_beta   90.00161569
_cell_angle_gamma   90.00384532
_symmetry_Int_Tables_number   1
_chemical_formula_structural   TbLu7Mg2(SiB4)4
_chemical_formula_sum   'Tb1 Lu7 Mg2 Si4 B16'
_cell_volume   386.20794372
_cell_formula_units_Z   1
loop_
 _symmetry_equiv_pos_site_id
 _symmetry_equiv_pos_as_xyz
  1  'x, y, z'
loop_
 _atom_site_type_symbol
 _atom_site_label
 _atom_site_symmetry_multiplicity
 _atom_site_fract_x
 _atom_site_fract_y
 _atom_site_fract_z
 _atom_site_occupancy
  Tb  Tb0  1  0.182277  0.317723  0.235660  1
  Lu  Lu1  1  0.682022  0.181899  0.230973  1
  Lu  Lu2  1  0.318071  0.817858  0.769378  1
  Lu  Lu3  1  0.318101  0.817978  0.230973  1
  Lu  Lu4  1  0.817712  0.682288  0.230845  1
  Lu  Lu5  1  0.817752  0.682248  0.769013  1
  Lu  Lu6  1  0.682142  0.181929  0.769378  1
  Lu  Lu7  1  0.181988  0.318012  0.768791  1
  Mg  Mg8  1  0.999181  0.998555  0.501083  1
  Mg  Mg9  1  0.501445  0.500819  0.501083  1
  Si  Si10  1  0.114712  0.617959  0.502183  1
  Si  Si11  1  0.882041  0.385288  0.502183  1
  Si  Si12  1  0.385882  0.114118  0.502838  1
  Si  Si13  1  0.616941  0.883059  0.500485  1
  B  B14  1  0.173652  0.038624  0.999274  1
  B  B15  1  0.825435  0.960205  0.999258  1
  B  B16  1  0.959749  0.173569  0.998912  1
  B  B17  1  0.326431  0.540251  0.998912  1
  B  B18  1  0.038976  0.825539  0.999053  1
  B  B19  1  0.674461  0.461024  0.999053  1
  B  B20  1  0.539795  0.674565  0.999258  1
  B  B21  1  0.461376  0.326348  0.999274  1
  B  B22  1  0.088449  0.588846  0.998171  1
  B  B23  1  0.911154  0.411551  0.998171  1
  B  B24  1  0.411569  0.088431  0.999639  1
  B  B25  1  0.588320  0.911680  0.999390  1
  B  B26  1  0.999060  0.998372  0.166614  1
  B  B27  1  0.999631  0.999951  0.831769  1
  B  B28  1  0.500049  0.500369  0.831769  1
  B  B29  1  0.501628  0.500940  0.166614  1
