# generated using pymatgen
data_Sc3TcAs2PRu2
_symmetry_space_group_name_H-M   'P 1'
_cell_length_a   6.79542215
_cell_length_b   6.84053287
_cell_length_c   3.56843100
_cell_angle_alpha   90.00000000
_cell_angle_beta   90.00000000
_cell_angle_gamma   120.21984334
_symmetry_Int_Tables_number   1
_chemical_formula_structural   Sc3TcAs2PRu2
_chemical_formula_sum   'Sc3 Tc1 As2 P1 Ru2'
_cell_volume   143.33358215
_cell_formula_units_Z   1
loop_
 _symmetry_equiv_pos_site_id
 _symmetry_equiv_pos_as_xyz
  1  'x, y, z'
loop_
 _atom_site_type_symbol
 _atom_site_label
 _atom_site_symmetry_multiplicity
 _atom_site_fract_x
 _atom_site_fract_y
 _atom_site_fract_z
 _atom_site_occupancy
  Sc  Sc0  1  0.400245  0.401596  0.500000  1
  Sc  Sc1  1  0.599755  0.001351  0.500000  1
  Sc  Sc2  1  0.000000  0.598810  0.500000  1
  Tc  Tc3  1  0.000000  0.240239  0.000000  1
  As  As4  1  0.665914  0.334013  0.000000  1
  As  As5  1  0.334086  0.668100  0.000000  1
  P  P6  1  0.000000  0.994900  0.500000  1
  Ru  Ru7  1  0.239355  0.000173  0.000000  1
  Ru  Ru8  1  0.760645  0.760818  0.000000  1
