# generated using pymatgen
data_RbNa(CO3)2
_symmetry_space_group_name_H-M   'P 1'
_cell_length_a   5.55813600
_cell_length_b   7.09336111
_cell_length_c   8.61262400
_cell_angle_alpha   75.01996551
_cell_angle_beta   90.00008664
_cell_angle_gamma   90.00294463
_symmetry_Int_Tables_number   1
_chemical_formula_structural   RbNa(CO3)2
_chemical_formula_sum   'Rb2 Na2 C4 O12'
_cell_volume   328.02053009
_cell_formula_units_Z   2
loop_
 _symmetry_equiv_pos_site_id
 _symmetry_equiv_pos_as_xyz
  1  'x, y, z'
loop_
 _atom_site_type_symbol
 _atom_site_label
 _atom_site_symmetry_multiplicity
 _atom_site_fract_x
 _atom_site_fract_y
 _atom_site_fract_z
 _atom_site_occupancy
  Rb  Rb0  1  0.750021  0.285269  0.850478  1
  Rb  Rb1  1  0.249979  0.714731  0.149522  1
  Na  Na2  1  0.250017  0.782855  0.620150  1
  Na  Na3  1  0.749983  0.217145  0.379850  1
  C  C4  1  0.249982  0.255956  0.600701  1
  C  C5  1  0.750018  0.744044  0.399299  1
  C  C6  1  0.749985  0.757909  0.878436  1
  C  C7  1  0.250015  0.242091  0.121564  1
  O  O8  1  0.949876  0.829559  0.411051  1
  O  O9  1  0.449863  0.170475  0.589000  1
  O  O10  1  0.550137  0.829525  0.411000  1
  O  O11  1  0.050124  0.170441  0.588949  1
  O  O12  1  0.249991  0.142737  0.016689  1
  O  O13  1  0.750009  0.857263  0.983311  1
  O  O14  1  0.449903  0.293931  0.172075  1
  O  O15  1  0.949858  0.706092  0.827904  1
  O  O16  1  0.050142  0.293908  0.172096  1
  O  O17  1  0.550097  0.706069  0.827925  1
  O  O18  1  0.750060  0.575044  0.372225  1
  O  O19  1  0.249940  0.424956  0.627775  1
