# generated using pymatgen
data_TbY3Al16(GaRh3)2
_symmetry_space_group_name_H-M   'P 1'
_cell_length_a   7.53736563
_cell_length_b   7.53706393
_cell_length_c   9.52326000
_cell_angle_alpha   90.00000000
_cell_angle_beta   90.00000000
_cell_angle_gamma   119.23315055
_symmetry_Int_Tables_number   1
_chemical_formula_structural   TbY3Al16(GaRh3)2
_chemical_formula_sum   'Tb1 Y3 Al16 Ga2 Rh6'
_cell_volume   472.10910018
_cell_formula_units_Z   1
loop_
 _symmetry_equiv_pos_site_id
 _symmetry_equiv_pos_as_xyz
  1  'x, y, z'
loop_
 _atom_site_type_symbol
 _atom_site_label
 _atom_site_symmetry_multiplicity
 _atom_site_fract_x
 _atom_site_fract_y
 _atom_site_fract_z
 _atom_site_occupancy
  Tb  Tb0  1  0.993995  0.673890  0.250000  1
  Y  Y1  1  0.006060  0.326310  0.750000  1
  Y  Y2  1  0.673721  0.993972  0.250000  1
  Y  Y3  1  0.326148  0.005998  0.750000  1
  Al  Al4  1  0.001527  0.335668  0.073265  1
  Al  Al5  1  0.998407  0.664214  0.926577  1
  Al  Al6  1  0.998407  0.664214  0.573423  1
  Al  Al7  1  0.335887  0.001624  0.426788  1
  Al  Al8  1  0.001527  0.335668  0.426735  1
  Al  Al9  1  0.664243  0.998491  0.573290  1
  Al  Al10  1  0.664243  0.998491  0.926710  1
  Al  Al11  1  0.335887  0.001624  0.073212  1
  Al  Al12  1  0.334211  0.334225  0.551121  1
  Al  Al13  1  0.665651  0.665768  0.449041  1
  Al  Al14  1  0.665651  0.665768  0.050959  1
  Al  Al15  1  0.334211  0.334225  0.948879  1
  Al  Al16  1  0.337956  0.549277  0.250000  1
  Al  Al17  1  0.661994  0.450466  0.750000  1
  Al  Al18  1  0.549297  0.337949  0.250000  1
  Al  Al19  1  0.450630  0.662059  0.750000  1
  Ga  Ga20  1  0.132477  0.132268  0.250000  1
  Ga  Ga21  1  0.867841  0.867873  0.750000  1
  Rh  Rh22  1  0.671642  0.328300  0.999968  1
  Rh  Rh23  1  0.328338  0.671645  0.999959  1
  Rh  Rh24  1  0.328338  0.671645  0.500041  1
  Rh  Rh25  1  0.671642  0.328300  0.500032  1
  Rh  Rh26  1  0.000035  0.000034  0.999954  1
  Rh  Rh27  1  0.000035  0.000034  0.500046  1
