# generated using pymatgen
data_La8Mn(Si4Pt)3
_symmetry_space_group_name_H-M   'P 1'
_cell_length_a   8.31278400
_cell_length_b   8.31278340
_cell_length_c   8.80305200
_cell_angle_alpha   90.00000000
_cell_angle_beta   90.00000000
_cell_angle_gamma   119.99999445
_symmetry_Int_Tables_number   1
_chemical_formula_structural   La8Mn(Si4Pt)3
_chemical_formula_sum   'La8 Mn1 Si12 Pt3'
_cell_volume   526.81348540
_cell_formula_units_Z   1
loop_
 _symmetry_equiv_pos_site_id
 _symmetry_equiv_pos_as_xyz
  1  'x, y, z'
loop_
 _atom_site_type_symbol
 _atom_site_label
 _atom_site_symmetry_multiplicity
 _atom_site_fract_x
 _atom_site_fract_y
 _atom_site_fract_z
 _atom_site_occupancy
  La  La0  1  0.000000  0.000000  0.250302  1
  La  La1  1  0.000000  0.000000  0.749669  1
  La  La2  1  0.500025  0.499975  0.252294  1
  La  La3  1  0.500025  0.000052  0.252294  1
  La  La4  1  0.999948  0.499975  0.252294  1
  La  La5  1  0.498822  0.501178  0.747742  1
  La  La6  1  0.498822  0.997642  0.747742  1
  La  La7  1  0.002358  0.501178  0.747742  1
  Mn  Mn8  1  0.333333  0.666667  0.496776  1
  Si  Si9  1  0.168074  0.831926  0.500427  1
  Si  Si10  1  0.168074  0.336149  0.500427  1
  Si  Si11  1  0.663851  0.831926  0.500427  1
  Si  Si12  1  0.834648  0.165352  0.499577  1
  Si  Si13  1  0.834648  0.669296  0.499577  1
  Si  Si14  1  0.330704  0.165352  0.499577  1
  Si  Si15  1  0.834645  0.165355  0.000686  1
  Si  Si16  1  0.834645  0.669289  0.000686  1
  Si  Si17  1  0.330711  0.165355  0.000686  1
  Si  Si18  1  0.165160  0.834840  0.999271  1
  Si  Si19  1  0.165160  0.330321  0.999271  1
  Si  Si20  1  0.669679  0.834840  0.999271  1
  Pt  Pt21  1  0.666667  0.333333  0.502564  1
  Pt  Pt22  1  0.666667  0.333333  0.997870  1
  Pt  Pt23  1  0.333333  0.666667  0.002827  1
