# generated using pymatgen
data_Tb6Tm13ThSn16
_symmetry_space_group_name_H-M   'P 1'
_cell_length_a   7.99541040
_cell_length_b   8.12958838
_cell_length_c   15.33153882
_cell_angle_alpha   90.01817728
_cell_angle_beta   90.19055263
_cell_angle_gamma   89.78348339
_symmetry_Int_Tables_number   1
_chemical_formula_structural   Tb6Tm13ThSn16
_chemical_formula_sum   'Tb6 Tm13 Th1 Sn16'
_cell_volume   996.52808213
_cell_formula_units_Z   1
loop_
 _symmetry_equiv_pos_site_id
 _symmetry_equiv_pos_as_xyz
  1  'x, y, z'
loop_
 _atom_site_type_symbol
 _atom_site_label
 _atom_site_symmetry_multiplicity
 _atom_site_fract_x
 _atom_site_fract_y
 _atom_site_fract_z
 _atom_site_occupancy
  Tb  Tb0  1  0.019410  0.179083  0.597770  1
  Tb  Tb1  1  0.482669  0.678335  0.403817  1
  Tb  Tb2  1  0.980781  0.821723  0.096602  1
  Tb  Tb3  1  0.481249  0.677568  0.096800  1
  Tb  Tb4  1  0.982779  0.821713  0.404170  1
  Tb  Tb5  1  0.516013  0.322482  0.595120  1
  Tm  Tm6  1  0.361043  0.835998  0.876294  1
  Tm  Tm7  1  0.860402  0.662943  0.623585  1
  Tm  Tm8  1  0.638487  0.163092  0.376271  1
  Tm  Tm9  1  0.136322  0.337447  0.123255  1
  Tm  Tm10  1  0.637204  0.162605  0.123206  1
  Tm  Tm11  1  0.139108  0.337714  0.376625  1
  Tm  Tm12  1  0.361525  0.838462  0.624713  1
  Tm  Tm13  1  0.863652  0.662124  0.876651  1
  Tm  Tm14  1  0.525160  0.324215  0.901835  1
  Tm  Tm15  1  0.193445  0.501304  0.749841  1
  Tm  Tm16  1  0.692796  0.996993  0.749735  1
  Tm  Tm17  1  0.805811  0.497784  0.250168  1
  Tm  Tm18  1  0.306522  0.001948  0.249912  1
  Th  Th19  1  0.016504  0.178155  0.904153  1
  Sn  Sn20  1  0.299062  0.036775  0.042520  1
  Sn  Sn21  1  0.799737  0.460231  0.458435  1
  Sn  Sn22  1  0.700723  0.961888  0.542048  1
  Sn  Sn23  1  0.207630  0.534688  0.957293  1
  Sn  Sn24  1  0.697380  0.959695  0.958321  1
  Sn  Sn25  1  0.199597  0.542140  0.541722  1
  Sn  Sn26  1  0.300270  0.039683  0.458985  1
  Sn  Sn27  1  0.796011  0.459729  0.040340  1
  Sn  Sn28  1  0.558154  0.621493  0.750211  1
  Sn  Sn29  1  0.057767  0.877492  0.750502  1
  Sn  Sn30  1  0.440711  0.378148  0.249429  1
  Sn  Sn31  1  0.941092  0.122021  0.250062  1
  Sn  Sn32  1  0.331291  0.150046  0.751112  1
  Sn  Sn33  1  0.824606  0.354420  0.748353  1
  Sn  Sn34  1  0.673194  0.852371  0.250117  1
  Sn  Sn35  1  0.171890  0.647493  0.250026  1
