# generated using pymatgen
data_Hf3Zr7Sn7Sb
_symmetry_space_group_name_H-M   'P 1'
_cell_length_a   8.83350000
_cell_length_b   8.84597381
_cell_length_c   5.94246406
_cell_angle_alpha   90.01366143
_cell_angle_beta   90.00072956
_cell_angle_gamma   120.05976232
_symmetry_Int_Tables_number   1
_chemical_formula_structural   Hf3Zr7Sn7Sb
_chemical_formula_sum   'Hf3 Zr7 Sn7 Sb1'
_cell_volume   401.89609960
_cell_formula_units_Z   1
loop_
 _symmetry_equiv_pos_site_id
 _symmetry_equiv_pos_as_xyz
  1  'x, y, z'
loop_
 _atom_site_type_symbol
 _atom_site_label
 _atom_site_symmetry_multiplicity
 _atom_site_fract_x
 _atom_site_fract_y
 _atom_site_fract_z
 _atom_site_occupancy
  Hf  Hf0  1  0.332775  0.666490  0.500510  1
  Hf  Hf1  1  0.667207  0.333694  0.500555  1
  Hf  Hf2  1  0.332753  0.666494  0.999477  1
  Zr  Zr3  1  0.281232  0.281651  0.749856  1
  Zr  Zr4  1  0.719864  0.719476  0.250032  1
  Zr  Zr5  1  0.718492  0.999842  0.749935  1
  Zr  Zr6  1  0.000282  0.281912  0.249996  1
  Zr  Zr7  1  0.000292  0.718379  0.749943  1
  Zr  Zr8  1  0.279790  0.998943  0.250125  1
  Zr  Zr9  1  0.667335  0.333882  0.999626  1
  Sn  Sn10  1  0.000005  0.000708  0.500684  1
  Sn  Sn11  1  0.612585  0.613419  0.749596  1
  Sn  Sn12  1  0.387082  0.000131  0.749609  1
  Sn  Sn13  1  0.000008  0.000716  0.999313  1
  Sn  Sn14  1  0.612842  0.999765  0.250361  1
  Sn  Sn15  1  0.386777  0.387266  0.250382  1
  Sn  Sn16  1  0.000349  0.385614  0.749705  1
  Sb  Sb17  1  0.000331  0.611615  0.250296  1
