# generated using pymatgen
data_Tm3Co8ReP6
_symmetry_space_group_name_H-M   'P 1'
_cell_length_a   3.69555600
_cell_length_b   10.46045600
_cell_length_c   12.13278700
_cell_angle_alpha   90.00000000
_cell_angle_beta   90.00000000
_cell_angle_gamma   90.00000000
_symmetry_Int_Tables_number   1
_chemical_formula_structural   Tm3Co8ReP6
_chemical_formula_sum   'Tm6 Co16 Re2 P12'
_cell_volume   469.01958494
_cell_formula_units_Z   2
loop_
 _symmetry_equiv_pos_site_id
 _symmetry_equiv_pos_as_xyz
  1  'x, y, z'
loop_
 _atom_site_type_symbol
 _atom_site_label
 _atom_site_symmetry_multiplicity
 _atom_site_fract_x
 _atom_site_fract_y
 _atom_site_fract_z
 _atom_site_occupancy
  Tm  Tm0  1  0.000000  0.500000  0.525961  1
  Tm  Tm1  1  0.500000  0.000000  0.474039  1
  Tm  Tm2  1  0.500000  0.818816  0.205970  1
  Tm  Tm3  1  0.500000  0.181184  0.205970  1
  Tm  Tm4  1  0.000000  0.681184  0.794030  1
  Tm  Tm5  1  0.000000  0.318816  0.794030  1
  Co  Co6  1  0.500000  0.500000  0.701486  1
  Co  Co7  1  0.000000  0.000000  0.298514  1
  Co  Co8  1  0.000000  0.500000  0.987799  1
  Co  Co9  1  0.500000  0.000000  0.012201  1
  Co  Co10  1  0.500000  0.332466  0.989164  1
  Co  Co11  1  0.500000  0.667534  0.989164  1
  Co  Co12  1  0.000000  0.167534  0.010836  1
  Co  Co13  1  0.000000  0.832466  0.010836  1
  Co  Co14  1  0.500000  0.297014  0.431450  1
  Co  Co15  1  0.500000  0.702986  0.431450  1
  Co  Co16  1  0.000000  0.202986  0.568550  1
  Co  Co17  1  0.000000  0.797014  0.568550  1
  Co  Co18  1  0.500000  0.878348  0.707690  1
  Co  Co19  1  0.500000  0.121652  0.707690  1
  Co  Co20  1  0.000000  0.621652  0.292310  1
  Co  Co21  1  0.000000  0.378348  0.292310  1
  Re  Re22  1  0.500000  0.500000  0.156994  1
  Re  Re23  1  0.000000  0.000000  0.843006  1
  P  P24  1  0.500000  0.500000  0.878796  1
  P  P25  1  0.000000  0.000000  0.121204  1
  P  P26  1  0.500000  0.500000  0.351166  1
  P  P27  1  0.000000  0.000000  0.648834  1
  P  P28  1  0.500000  0.312948  0.616592  1
  P  P29  1  0.500000  0.687052  0.616592  1
  P  P30  1  0.000000  0.187052  0.383408  1
  P  P31  1  0.000000  0.812948  0.383408  1
  P  P32  1  0.500000  0.845213  0.891399  1
  P  P33  1  0.500000  0.154787  0.891399  1
  P  P34  1  0.000000  0.654787  0.108601  1
  P  P35  1  0.000000  0.345213  0.108601  1
