# generated using pymatgen
data_Tb8HoZn4
_symmetry_space_group_name_H-M   'P 1'
_cell_length_a   8.60105060
_cell_length_b   8.60104080
_cell_length_c   8.60111819
_cell_angle_alpha   94.97785833
_cell_angle_beta   94.97779639
_cell_angle_gamma   145.73705670
_symmetry_Int_Tables_number   1
_chemical_formula_structural   Tb8HoZn4
_chemical_formula_sum   'Tb8 Ho1 Zn4'
_cell_volume   342.33321957
_cell_formula_units_Z   1
loop_
 _symmetry_equiv_pos_site_id
 _symmetry_equiv_pos_as_xyz
  1  'x, y, z'
loop_
 _atom_site_type_symbol
 _atom_site_label
 _atom_site_symmetry_multiplicity
 _atom_site_fract_x
 _atom_site_fract_y
 _atom_site_fract_z
 _atom_site_occupancy
  Tb  Tb0  1  0.182018  0.887522  0.069544  1
  Tb  Tb1  1  0.112477  0.182021  0.294497  1
  Tb  Tb2  1  0.881250  0.404225  0.285476  1
  Tb  Tb3  1  0.595772  0.881250  0.477023  1
  Tb  Tb4  1  0.404226  0.118747  0.522975  1
  Tb  Tb5  1  0.118747  0.595771  0.714524  1
  Tb  Tb6  1  0.887519  0.817974  0.705502  1
  Tb  Tb7  1  0.817979  0.112476  0.930454  1
  Ho  Ho8  1  0.500009  0.500012  0.000008  1
  Zn  Zn9  1  0.390474  0.734505  0.124980  1
  Zn  Zn10  1  0.734503  0.609523  0.344030  1
  Zn  Zn11  1  0.265494  0.390473  0.655968  1
  Zn  Zn12  1  0.609524  0.265492  0.875019  1
