# generated using pymatgen
data_Er4Zn8Cd3Hg
_symmetry_space_group_name_H-M   'P 1'
_cell_length_a   4.38513200
_cell_length_b   7.17285486
_cell_length_c   10.14832905
_cell_angle_alpha   89.96599357
_cell_angle_beta   90.00000000
_cell_angle_gamma   90.00000000
_symmetry_Int_Tables_number   1
_chemical_formula_structural   Er4Zn8Cd3Hg
_chemical_formula_sum   'Er4 Zn8 Cd3 Hg1'
_cell_volume   319.20462710
_cell_formula_units_Z   1
loop_
 _symmetry_equiv_pos_site_id
 _symmetry_equiv_pos_as_xyz
  1  'x, y, z'
loop_
 _atom_site_type_symbol
 _atom_site_label
 _atom_site_symmetry_multiplicity
 _atom_site_fract_x
 _atom_site_fract_y
 _atom_site_fract_z
 _atom_site_occupancy
  Er  Er0  1  0.250000  0.298929  0.674937  1
  Er  Er1  1  0.250000  0.803819  0.821742  1
  Er  Er2  1  0.750000  0.699239  0.326264  1
  Er  Er3  1  0.750000  0.198204  0.174611  1
  Zn  Zn4  1  0.250000  0.915965  0.144326  1
  Zn  Zn5  1  0.250000  0.415854  0.354252  1
  Zn  Zn6  1  0.750000  0.085809  0.857965  1
  Zn  Zn7  1  0.750000  0.582351  0.644791  1
  Zn  Zn8  1  0.250000  0.188344  0.964564  1
  Zn  Zn9  1  0.250000  0.684069  0.534510  1
  Zn  Zn10  1  0.750000  0.811704  0.035319  1
  Zn  Zn11  1  0.750000  0.312210  0.463482  1
  Cd  Cd12  1  0.250000  0.535555  0.098436  1
  Cd  Cd13  1  0.250000  0.033409  0.401328  1
  Cd  Cd14  1  0.750000  0.467299  0.901892  1
  Hg  Hg15  1  0.750000  0.967240  0.601578  1
