# generated using pymatgen
data_Pm2Zn3Ru
_symmetry_space_group_name_H-M   'P 1'
_cell_length_a   5.51978393
_cell_length_b   5.51978322
_cell_length_c   5.51978299
_cell_angle_alpha   58.92982376
_cell_angle_beta   58.92982738
_cell_angle_gamma   58.92981591
_symmetry_Int_Tables_number   1
_chemical_formula_structural   Pm2Zn3Ru
_chemical_formula_sum   'Pm2 Zn3 Ru1'
_cell_volume   116.01481334
_cell_formula_units_Z   1
loop_
 _symmetry_equiv_pos_site_id
 _symmetry_equiv_pos_as_xyz
  1  'x, y, z'
loop_
 _atom_site_type_symbol
 _atom_site_label
 _atom_site_symmetry_multiplicity
 _atom_site_fract_x
 _atom_site_fract_y
 _atom_site_fract_z
 _atom_site_occupancy
  Pm  Pm0  1  0.753689  0.753689  0.753689  1
  Pm  Pm1  1  0.496311  0.496311  0.496311  1
  Zn  Zn2  1  0.625000  0.125000  0.125000  1
  Zn  Zn3  1  0.125000  0.625000  0.125000  1
  Zn  Zn4  1  0.125000  0.125000  0.625000  1
  Ru  Ru5  1  0.125000  0.125000  0.125000  1
