# generated using pymatgen
data_Ti8Al13Si2Ir7
_symmetry_space_group_name_H-M   'P 1'
_cell_length_a   8.64182848
_cell_length_b   8.61066811
_cell_length_c   8.64186178
_cell_angle_alpha   119.91845385
_cell_angle_beta   120.04088931
_cell_angle_gamma   90.13878096
_symmetry_Int_Tables_number   1
_chemical_formula_structural   Ti8Al13Si2Ir7
_chemical_formula_sum   'Ti8 Al13 Si2 Ir7'
_cell_volume   454.43640776
_cell_formula_units_Z   1
loop_
 _symmetry_equiv_pos_site_id
 _symmetry_equiv_pos_as_xyz
  1  'x, y, z'
loop_
 _atom_site_type_symbol
 _atom_site_label
 _atom_site_symmetry_multiplicity
 _atom_site_fract_x
 _atom_site_fract_y
 _atom_site_fract_z
 _atom_site_occupancy
  Ti  Ti0  1  0.805329  0.298798  0.093468  1
  Ti  Ti1  1  0.205332  0.298799  0.493470  1
  Ti  Ti2  1  0.200517  0.696773  0.496258  1
  Ti  Ti3  1  0.209852  0.711204  0.914804  1
  Ti  Ti4  1  0.796400  0.711209  0.501354  1
  Ti  Ti5  1  0.789606  0.290380  0.500775  1
  Ti  Ti6  1  0.379604  0.122759  0.743154  1
  Ti  Ti7  1  0.378509  0.632936  0.254422  1
  Al  Al8  1  0.157367  0.972169  0.814803  1
  Al  Al9  1  0.152394  0.343140  0.806179  1
  Al  Al10  1  0.536960  0.343142  0.190748  1
  Al  Al11  1  0.842181  0.657789  0.815607  1
  Al  Al12  1  0.841463  0.026479  0.185018  1
  Al  Al13  1  0.839234  0.658009  0.180853  1
  Al  Al14  1  0.477154  0.658007  0.818774  1
  Al  Al15  1  0.380956  0.119613  0.258057  1
  Al  Al16  1  0.861556  0.119614  0.738657  1
  Al  Al17  1  0.620342  0.878336  0.257993  1
  Al  Al18  1  0.619633  0.361252  0.741617  1
  Al  Al19  1  0.621025  0.879886  0.742781  1
  Al  Al20  1  0.137109  0.879887  0.258860  1
  Si  Si21  1  0.995365  0.500383  0.505013  1
  Si  Si22  1  0.156656  0.344335  0.187682  1
  Ir  Ir23  1  0.001763  0.999267  0.500874  1
  Ir  Ir24  1  0.498395  0.999267  0.997505  1
  Ir  Ir25  1  0.497326  0.496448  0.999123  1
  Ir  Ir26  1  0.492749  0.496987  0.493867  1
  Ir  Ir27  1  0.003120  0.496985  0.004237  1
  Ir  Ir28  1  0.003788  0.009048  0.005259  1
  Ir  Ir29  1  0.498309  0.997097  0.498787  1
