# generated using pymatgen
data_TbDy3(FeOs)4
_symmetry_space_group_name_H-M   'P 1'
_cell_length_a   5.26674982
_cell_length_b   5.25688842
_cell_length_c   9.07180276
_cell_angle_alpha   73.15773289
_cell_angle_beta   90.73487126
_cell_angle_gamma   119.93807424
_symmetry_Int_Tables_number   1
_chemical_formula_structural   TbDy3(FeOs)4
_chemical_formula_sum   'Tb1 Dy3 Fe4 Os4'
_cell_volume   205.67181786
_cell_formula_units_Z   1
loop_
 _symmetry_equiv_pos_site_id
 _symmetry_equiv_pos_as_xyz
  1  'x, y, z'
loop_
 _atom_site_type_symbol
 _atom_site_label
 _atom_site_symmetry_multiplicity
 _atom_site_fract_x
 _atom_site_fract_y
 _atom_site_fract_z
 _atom_site_occupancy
  Tb  Tb0  1  0.877013  0.751143  0.374726  1
  Dy  Dy1  1  0.377258  0.751489  0.874279  1
  Dy  Dy2  1  0.997945  0.998816  0.000314  1
  Dy  Dy3  1  0.497700  0.998497  0.500705  1
  Fe  Fe4  1  0.187529  0.374930  0.437668  1
  Fe  Fe5  1  0.687486  0.375028  0.937432  1
  Fe  Fe6  1  0.937667  0.375203  0.187262  1
  Fe  Fe7  1  0.437220  0.374750  0.687720  1
  Os  Os8  1  0.437481  0.375288  0.187165  1
  Os  Os9  1  0.937609  0.374726  0.687781  1
  Os  Os10  1  0.437481  0.875028  0.187165  1
  Os  Os11  1  0.937609  0.875101  0.687781  1
