# generated using pymatgen
data_TbDy2BiRh3Pb2
_symmetry_space_group_name_H-M   'P 1'
_cell_length_a   7.71887944
_cell_length_b   7.75723205
_cell_length_c   3.88856600
_cell_angle_alpha   90.00000000
_cell_angle_beta   90.00000000
_cell_angle_gamma   120.14743805
_symmetry_Int_Tables_number   1
_chemical_formula_structural   TbDy2BiRh3Pb2
_chemical_formula_sum   'Tb1 Dy2 Bi1 Rh3 Pb2'
_cell_volume   201.34182650
_cell_formula_units_Z   1
loop_
 _symmetry_equiv_pos_site_id
 _symmetry_equiv_pos_as_xyz
  1  'x, y, z'
loop_
 _atom_site_type_symbol
 _atom_site_label
 _atom_site_symmetry_multiplicity
 _atom_site_fract_x
 _atom_site_fract_y
 _atom_site_fract_z
 _atom_site_occupancy
  Tb  Tb0  1  0.591805  0.995405  0.000000  1
  Dy  Dy1  1  0.408095  0.403471  0.000000  1
  Dy  Dy2  1  0.999975  0.600052  0.000000  1
  Bi  Bi3  1  0.000274  0.264766  0.500000  1
  Rh  Rh4  1  0.667804  0.334935  0.500000  1
  Rh  Rh5  1  0.000201  0.002256  0.000000  1
  Rh  Rh6  1  0.332038  0.666572  0.500000  1
  Pb  Pb7  1  0.265373  0.999178  0.500000  1
  Pb  Pb8  1  0.734434  0.733366  0.500000  1
