# generated using pymatgen
data_Th8Os5Pd3
_symmetry_space_group_name_H-M   'P 1'
_cell_length_a   4.32359900
_cell_length_b   5.92072567
_cell_length_c   14.92795896
_cell_angle_alpha   90.79338948
_cell_angle_beta   90.00000000
_cell_angle_gamma   90.00000000
_symmetry_Int_Tables_number   1
_chemical_formula_structural   Th8Os5Pd3
_chemical_formula_sum   'Th8 Os5 Pd3'
_cell_volume   382.10185050
_cell_formula_units_Z   1
loop_
 _symmetry_equiv_pos_site_id
 _symmetry_equiv_pos_as_xyz
  1  'x, y, z'
loop_
 _atom_site_type_symbol
 _atom_site_label
 _atom_site_symmetry_multiplicity
 _atom_site_fract_x
 _atom_site_fract_y
 _atom_site_fract_z
 _atom_site_occupancy
  Th  Th0  1  0.250000  0.544957  0.287159  1
  Th  Th1  1  0.750000  0.464040  0.719115  1
  Th  Th2  1  0.250000  0.962791  0.780353  1
  Th  Th3  1  0.250000  0.758474  0.533341  1
  Th  Th4  1  0.250000  0.736377  0.040833  1
  Th  Th5  1  0.750000  0.267819  0.960161  1
  Th  Th6  1  0.750000  0.033182  0.220284  1
  Th  Th7  1  0.750000  0.241632  0.457200  1
  Os  Os8  1  0.250000  0.056661  0.349228  1
  Os  Os9  1  0.750000  0.555468  0.143719  1
  Os  Os10  1  0.750000  0.725287  0.403645  1
  Os  Os11  1  0.250000  0.441695  0.852490  1
  Os  Os12  1  0.750000  0.944854  0.650319  1
  Pd  Pd13  1  0.750000  0.775463  0.901206  1
  Pd  Pd14  1  0.250000  0.225565  0.100972  1
  Pd  Pd15  1  0.250000  0.265737  0.599979  1
