# generated using pymatgen
data_Zn6NiSn4Pd3
_symmetry_space_group_name_H-M   'P 1'
_cell_length_a   4.36692100
_cell_length_b   4.36692066
_cell_length_c   15.44591900
_cell_angle_alpha   90.00000000
_cell_angle_beta   90.00000000
_cell_angle_gamma   119.99997982
_symmetry_Int_Tables_number   1
_chemical_formula_structural   Zn6NiSn4Pd3
_chemical_formula_sum   'Zn6 Ni1 Sn4 Pd3'
_cell_volume   255.09098473
_cell_formula_units_Z   1
loop_
 _symmetry_equiv_pos_site_id
 _symmetry_equiv_pos_as_xyz
  1  'x, y, z'
loop_
 _atom_site_type_symbol
 _atom_site_label
 _atom_site_symmetry_multiplicity
 _atom_site_fract_x
 _atom_site_fract_y
 _atom_site_fract_z
 _atom_site_occupancy
  Zn  Zn0  1  0.000000  0.000000  0.171202  1
  Zn  Zn1  1  0.000000  0.000000  0.828798  1
  Zn  Zn2  1  0.000000  0.000000  0.662698  1
  Zn  Zn3  1  0.000000  0.000000  0.337302  1
  Zn  Zn4  1  0.333333  0.666667  0.749345  1
  Zn  Zn5  1  0.666667  0.333333  0.250655  1
  Ni  Ni6  1  0.000000  0.000000  0.500000  1
  Sn  Sn7  1  0.333333  0.666667  0.072785  1
  Sn  Sn8  1  0.666667  0.333333  0.927215  1
  Sn  Sn9  1  0.666667  0.333333  0.565645  1
  Sn  Sn10  1  0.333333  0.666667  0.434355  1
  Pd  Pd11  1  0.000000  0.000000  0.000000  1
  Pd  Pd12  1  0.333333  0.666667  0.253044  1
  Pd  Pd13  1  0.666667  0.333333  0.746956  1
