# generated using pymatgen
data_Dy5Co12P12Ru7
_symmetry_space_group_name_H-M   'P 1'
_cell_length_a   12.19889593
_cell_length_b   12.18218086
_cell_length_c   3.73671300
_cell_angle_alpha   90.00000000
_cell_angle_beta   90.00000000
_cell_angle_gamma   119.87197261
_symmetry_Int_Tables_number   1
_chemical_formula_structural   Dy5Co12P12Ru7
_chemical_formula_sum   'Dy5 Co12 P12 Ru7'
_cell_volume   481.53158367
_cell_formula_units_Z   1
loop_
 _symmetry_equiv_pos_site_id
 _symmetry_equiv_pos_as_xyz
  1  'x, y, z'
loop_
 _atom_site_type_symbol
 _atom_site_label
 _atom_site_symmetry_multiplicity
 _atom_site_fract_x
 _atom_site_fract_y
 _atom_site_fract_z
 _atom_site_occupancy
  Dy  Dy0  1  0.666261  0.332629  0.000000  1
  Dy  Dy1  1  0.337383  0.667447  0.000000  1
  Dy  Dy2  1  0.182244  0.182124  0.500000  1
  Dy  Dy3  1  0.818587  0.000450  0.500000  1
  Dy  Dy4  1  0.999302  0.818735  0.500000  1
  Co  Co5  1  0.827489  0.196508  0.000000  1
  Co  Co6  1  0.800255  0.630078  0.000000  1
  Co  Co7  1  0.370557  0.172146  0.000000  1
  Co  Co8  1  0.197183  0.826582  0.000000  1
  Co  Co9  1  0.626539  0.805096  0.000000  1
  Co  Co10  1  0.178877  0.373776  0.000000  1
  Co  Co11  1  0.517466  0.870052  0.500000  1
  Co  Co12  1  0.355542  0.485577  0.500000  1
  Co  Co13  1  0.716383  0.719617  0.500000  1
  Co  Co14  1  0.281740  0.999022  0.500000  1
  Co  Co15  1  0.001990  0.281927  0.500000  1
  Co  Co16  1  0.999868  0.999430  0.000000  1
  P  P17  1  0.360101  0.364923  0.000000  1
  P  P18  1  0.636140  0.995402  0.000000  1
  P  P19  1  0.001188  0.637644  0.000000  1
  P  P20  1  0.838914  0.313538  0.500000  1
  P  P21  1  0.683346  0.524845  0.500000  1
  P  P22  1  0.475265  0.161281  0.500000  1
  P  P23  1  0.319726  0.839826  0.500000  1
  P  P24  1  0.521536  0.686743  0.500000  1
  P  P25  1  0.166892  0.475821  0.500000  1
  P  P26  1  0.819968  0.822047  0.000000  1
  P  P27  1  0.178539  0.999638  0.000000  1
  P  P28  1  0.001837  0.179314  0.000000  1
  Ru  Ru29  1  0.548800  0.557360  0.000000  1
  Ru  Ru30  1  0.443686  0.992439  0.000000  1
  Ru  Ru31  1  0.000713  0.444596  0.000000  1
  Ru  Ru32  1  0.644670  0.122847  0.500000  1
  Ru  Ru33  1  0.871565  0.518981  0.500000  1
  Ru  Ru34  1  0.477508  0.355187  0.500000  1
  Ru  Ru35  1  0.131940  0.646375  0.500000  1
