# generated using pymatgen
data_Rb3DyBr6
_symmetry_space_group_name_H-M   'P 1'
_cell_length_a   8.29117126
_cell_length_b   8.29117099
_cell_length_c   8.42735954
_cell_angle_alpha   118.21241708
_cell_angle_beta   118.21241344
_cell_angle_gamma   61.52809034
_symmetry_Int_Tables_number   1
_chemical_formula_structural   Rb3DyBr6
_chemical_formula_sum   'Rb3 Dy1 Br6'
_cell_volume   425.26021956
_cell_formula_units_Z   1
loop_
 _symmetry_equiv_pos_site_id
 _symmetry_equiv_pos_as_xyz
  1  'x, y, z'
loop_
 _atom_site_type_symbol
 _atom_site_label
 _atom_site_symmetry_multiplicity
 _atom_site_fract_x
 _atom_site_fract_y
 _atom_site_fract_z
 _atom_site_occupancy
  Rb  Rb0  1  0.500000  0.500000  0.500001  1
  Rb  Rb1  1  0.744109  0.744109  0.213854  1
  Rb  Rb2  1  0.255891  0.255891  0.786148  1
  Dy  Dy3  1  0.000000  0.000000  0.000000  1
  Br  Br4  1  0.697003  0.163504  0.151706  1
  Br  Br5  1  0.163504  0.697003  0.151706  1
  Br  Br6  1  0.216705  0.216705  0.335181  1
  Br  Br7  1  0.783295  0.783295  0.664819  1
  Br  Br8  1  0.836496  0.302998  0.848293  1
  Br  Br9  1  0.302998  0.836496  0.848293  1
