# generated using pymatgen
data_NdYHoSi6Pd17Pt3
_symmetry_space_group_name_H-M   'P 1'
_cell_length_a   8.74905517
_cell_length_b   8.74905595
_cell_length_c   8.76637427
_cell_angle_alpha   59.85360713
_cell_angle_beta   59.85360288
_cell_angle_gamma   59.83326996
_symmetry_Int_Tables_number   1
_chemical_formula_structural   NdYHoSi6Pd17Pt3
_chemical_formula_sum   'Nd1 Y1 Ho1 Si6 Pd17 Pt3'
_cell_volume   472.84088125
_cell_formula_units_Z   1
loop_
 _symmetry_equiv_pos_site_id
 _symmetry_equiv_pos_as_xyz
  1  'x, y, z'
loop_
 _atom_site_type_symbol
 _atom_site_label
 _atom_site_symmetry_multiplicity
 _atom_site_fract_x
 _atom_site_fract_y
 _atom_site_fract_z
 _atom_site_occupancy
  Nd  Nd0  1  0.250270  0.250270  0.250456  1
  Y  Y1  1  0.749077  0.749077  0.749958  1
  Ho  Ho2  1  0.000008  0.000008  0.000031  1
  Si  Si3  1  0.731609  0.267566  0.266557  1
  Si  Si4  1  0.268992  0.731465  0.733029  1
  Si  Si5  1  0.267566  0.731609  0.266557  1
  Si  Si6  1  0.731465  0.268992  0.733029  1
  Si  Si7  1  0.267959  0.267959  0.731526  1
  Si  Si8  1  0.732944  0.732944  0.267940  1
  Pd  Pd9  1  0.383700  0.844373  0.384330  1
  Pd  Pd10  1  0.618211  0.618211  0.149170  1
  Pd  Pd11  1  0.620002  0.147516  0.616623  1
  Pd  Pd12  1  0.844373  0.383700  0.384330  1
  Pd  Pd13  1  0.147516  0.620002  0.616623  1
  Pd  Pd14  1  0.345404  0.999228  0.999809  1
  Pd  Pd15  1  0.655739  0.998882  0.000002  1
  Pd  Pd16  1  0.999041  0.345724  0.656649  1
  Pd  Pd17  1  0.998988  0.655720  0.346240  1
  Pd  Pd18  1  0.999228  0.345404  0.999809  1
  Pd  Pd19  1  0.655720  0.998988  0.346240  1
  Pd  Pd20  1  0.998882  0.655739  0.000002  1
  Pd  Pd21  1  0.345724  0.999041  0.656649  1
  Pd  Pd22  1  0.999066  0.999066  0.346190  1
  Pd  Pd23  1  0.998793  0.998793  0.656650  1
  Pd  Pd24  1  0.655596  0.345442  0.999820  1
  Pd  Pd25  1  0.345442  0.655596  0.999820  1
  Pt  Pt26  1  0.387016  0.387016  0.387322  1
  Pt  Pt27  1  0.616713  0.616713  0.613556  1
  Pt  Pt28  1  0.384959  0.384959  0.841086  1
