# generated using pymatgen
data_Ho3Tm5B24MoRu3
_symmetry_space_group_name_H-M   'P 1'
_cell_length_a   3.62849800
_cell_length_b   9.11927657
_cell_length_c   11.50516904
_cell_angle_alpha   89.87473582
_cell_angle_beta   90.00000000
_cell_angle_gamma   90.00000000
_symmetry_Int_Tables_number   1
_chemical_formula_structural   Ho3Tm5B24MoRu3
_chemical_formula_sum   'Ho3 Tm5 B24 Mo1 Ru3'
_cell_volume   380.69681319
_cell_formula_units_Z   1
loop_
 _symmetry_equiv_pos_site_id
 _symmetry_equiv_pos_as_xyz
  1  'x, y, z'
loop_
 _atom_site_type_symbol
 _atom_site_label
 _atom_site_symmetry_multiplicity
 _atom_site_fract_x
 _atom_site_fract_y
 _atom_site_fract_z
 _atom_site_occupancy
  Ho  Ho0  1  0.000000  0.322040  0.413482  1
  Ho  Ho1  1  0.000000  0.677554  0.584752  1
  Ho  Ho2  1  0.000000  0.820353  0.087163  1
  Tm  Tm3  1  0.000000  0.177463  0.914877  1
  Tm  Tm4  1  0.000000  0.945425  0.372432  1
  Tm  Tm5  1  0.000000  0.058015  0.629267  1
  Tm  Tm6  1  0.000000  0.442732  0.126670  1
  Tm  Tm7  1  0.000000  0.556890  0.870585  1
  B  B8  1  0.500000  0.551199  0.435578  1
  B  B9  1  0.500000  0.445854  0.568266  1
  B  B10  1  0.500000  0.053705  0.066656  1
  B  B11  1  0.500000  0.946303  0.933230  1
  B  B12  1  0.500000  0.751468  0.421513  1
  B  B13  1  0.500000  0.251581  0.581473  1
  B  B14  1  0.500000  0.248526  0.079830  1
  B  B15  1  0.500000  0.751024  0.918749  1
  B  B16  1  0.500000  0.794684  0.264504  1
  B  B17  1  0.500000  0.208305  0.735155  1
  B  B18  1  0.500000  0.290790  0.232886  1
  B  B19  1  0.500000  0.709256  0.765504  1
  B  B20  1  0.500000  0.631096  0.182823  1
  B  B21  1  0.500000  0.368231  0.815518  1
  B  B22  1  0.500000  0.131137  0.314129  1
  B  B23  1  0.500000  0.870011  0.685470  1
  B  B24  1  0.500000  0.983243  0.212632  1
  B  B25  1  0.500000  0.017878  0.788315  1
  B  B26  1  0.500000  0.478078  0.286361  1
  B  B27  1  0.500000  0.516626  0.713088  1
  B  B28  1  0.500000  0.604358  0.027185  1
  B  B29  1  0.500000  0.394184  0.969913  1
  B  B30  1  0.500000  0.105780  0.471651  1
  B  B31  1  0.500000  0.897583  0.530043  1
  Mo  Mo32  1  0.000000  0.637702  0.320902  1
  Ru  Ru33  1  0.000000  0.360576  0.681027  1
  Ru  Ru34  1  0.000000  0.137872  0.177697  1
  Ru  Ru35  1  0.000000  0.862477  0.820667  1
