# generated using pymatgen
data_Tb4Ho8Co4CuBi
_symmetry_space_group_name_H-M   'P 1'
_cell_length_a   8.33454322
_cell_length_b   8.33449113
_cell_length_c   8.33454458
_cell_angle_alpha   111.15876392
_cell_angle_beta   109.91650084
_cell_angle_gamma   107.36154935
_symmetry_Int_Tables_number   1
_chemical_formula_structural   Tb4Ho8Co4CuBi
_chemical_formula_sum   'Tb4 Ho8 Co4 Cu1 Bi1'
_cell_volume   445.17070846
_cell_formula_units_Z   1
loop_
 _symmetry_equiv_pos_site_id
 _symmetry_equiv_pos_as_xyz
  1  'x, y, z'
loop_
 _atom_site_type_symbol
 _atom_site_label
 _atom_site_symmetry_multiplicity
 _atom_site_fract_x
 _atom_site_fract_y
 _atom_site_fract_z
 _atom_site_occupancy
  Tb  Tb0  1  0.815898  0.710511  0.526409  1
  Tb  Tb1  1  0.184102  0.289489  0.473591  1
  Tb  Tb2  1  0.184103  0.710511  0.894613  1
  Tb  Tb3  1  0.815897  0.289489  0.105387  1
  Ho  Ho4  1  0.686889  0.377960  0.691073  1
  Ho  Ho5  1  0.313111  0.622040  0.308927  1
  Ho  Ho6  1  0.686886  0.995821  0.308936  1
  Ho  Ho7  1  0.313114  0.004179  0.691064  1
  Ho  Ho8  1  0.588351  0.789363  0.798989  1
  Ho  Ho9  1  0.411649  0.210637  0.201011  1
  Ho  Ho10  1  0.990374  0.789363  0.201011  1
  Ho  Ho11  1  0.009626  0.210637  0.798989  1
  Co  Co12  1  0.622922  0.000000  0.622922  1
  Co  Co13  1  0.377078  0.000000  0.377078  1
  Co  Co14  1  0.112981  0.612973  0.499992  1
  Co  Co15  1  0.887019  0.387027  0.500008  1
  Cu  Cu16  1  0.000000  0.000000  0.000000  1
  Bi  Bi17  1  0.500000  0.500000  0.000000  1
