# generated using pymatgen
data_Y5Zr3Ni4(AsPd)12
_symmetry_space_group_name_H-M   'P 1'
_cell_length_a   13.44477200
_cell_length_b   13.42786470
_cell_length_c   4.04099800
_cell_angle_alpha   90.00000000
_cell_angle_beta   90.00000000
_cell_angle_gamma   119.85909737
_symmetry_Int_Tables_number   1
_chemical_formula_structural   Y5Zr3Ni4(AsPd)12
_chemical_formula_sum   'Y5 Zr3 Ni4 As12 Pd12'
_cell_volume   632.69520034
_cell_formula_units_Z   1
loop_
 _symmetry_equiv_pos_site_id
 _symmetry_equiv_pos_as_xyz
  1  'x, y, z'
loop_
 _atom_site_type_symbol
 _atom_site_label
 _atom_site_symmetry_multiplicity
 _atom_site_fract_x
 _atom_site_fract_y
 _atom_site_fract_z
 _atom_site_occupancy
  Y  Y0  1  0.185895  0.187480  0.500000  1
  Y  Y1  1  0.813937  0.000057  0.500000  1
  Y  Y2  1  0.000293  0.813848  0.500000  1
  Y  Y3  1  0.332790  0.664961  0.000000  1
  Y  Y4  1  0.666832  0.334390  0.000000  1
  Zr  Zr5  1  0.558329  0.558082  0.000000  1
  Zr  Zr6  1  0.440406  0.001803  0.000000  1
  Zr  Zr7  1  0.000398  0.437058  0.000000  1
  Ni  Ni8  1  0.719378  0.722061  0.500000  1
  Ni  Ni9  1  0.280804  0.002689  0.500000  1
  Ni  Ni10  1  0.000326  0.278042  0.500000  1
  Ni  Ni11  1  0.177234  0.374379  0.000000  1
  As  As12  1  0.821814  0.822273  0.000000  1
  As  As13  1  0.178550  0.998352  0.000000  1
  As  As14  1  0.010869  0.187772  0.000000  1
  As  As15  1  0.163037  0.468356  0.500000  1
  As  As16  1  0.521448  0.684002  0.500000  1
  As  As17  1  0.313880  0.838523  0.500000  1
  As  As18  1  0.684947  0.523497  0.500000  1
  As  As19  1  0.837771  0.315081  0.500000  1
  As  As20  1  0.476606  0.163365  0.500000  1
  As  As21  1  0.348070  0.360364  0.000000  1
  As  As22  1  0.641416  0.000939  0.000000  1
  As  As23  1  0.999679  0.638424  0.000000  1
  Pd  Pd24  1  0.629294  0.808976  0.000000  1
  Pd  Pd25  1  0.188647  0.815299  0.000000  1
  Pd  Pd26  1  0.811465  0.631084  0.000000  1
  Pd  Pd27  1  0.824640  0.188800  0.000000  1
  Pd  Pd28  1  0.366991  0.183628  0.000000  1
  Pd  Pd29  1  0.356689  0.484200  0.500000  1
  Pd  Pd30  1  0.510849  0.869371  0.500000  1
  Pd  Pd31  1  0.134125  0.638393  0.500000  1
  Pd  Pd32  1  0.872498  0.514242  0.500000  1
  Pd  Pd33  1  0.642932  0.131233  0.500000  1
  Pd  Pd34  1  0.486523  0.356558  0.500000  1
  Pd  Pd35  1  0.000639  0.002418  0.000000  1
