# generated using pymatgen
data_Ce5PrCr2(Co4P3)4
_symmetry_space_group_name_H-M   'P 1'
_cell_length_a   3.75932800
_cell_length_b   10.55728200
_cell_length_c   12.37298700
_cell_angle_alpha   90.00000000
_cell_angle_beta   90.00000000
_cell_angle_gamma   90.00000000
_symmetry_Int_Tables_number   1
_chemical_formula_structural   Ce5PrCr2(Co4P3)4
_chemical_formula_sum   'Ce5 Pr1 Cr2 Co16 P12'
_cell_volume   491.06264458
_cell_formula_units_Z   1
loop_
 _symmetry_equiv_pos_site_id
 _symmetry_equiv_pos_as_xyz
  1  'x, y, z'
loop_
 _atom_site_type_symbol
 _atom_site_label
 _atom_site_symmetry_multiplicity
 _atom_site_fract_x
 _atom_site_fract_y
 _atom_site_fract_z
 _atom_site_occupancy
  Ce  Ce0  1  0.000000  0.500000  0.522295  1
  Ce  Ce1  1  0.500000  0.819280  0.207726  1
  Ce  Ce2  1  0.500000  0.180720  0.207726  1
  Ce  Ce3  1  0.000000  0.681251  0.792362  1
  Ce  Ce4  1  0.000000  0.318749  0.792362  1
  Pr  Pr5  1  0.500000  0.000000  0.480465  1
  Cr  Cr6  1  0.500000  0.500000  0.153423  1
  Cr  Cr7  1  0.000000  0.000000  0.847381  1
  Co  Co8  1  0.500000  0.500000  0.703729  1
  Co  Co9  1  0.000000  0.000000  0.290644  1
  Co  Co10  1  0.000000  0.500000  0.986359  1
  Co  Co11  1  0.500000  0.000000  0.013018  1
  Co  Co12  1  0.500000  0.332753  0.993464  1
  Co  Co13  1  0.500000  0.667247  0.993464  1
  Co  Co14  1  0.000000  0.167772  0.006234  1
  Co  Co15  1  0.000000  0.832228  0.006234  1
  Co  Co16  1  0.500000  0.302116  0.427616  1
  Co  Co17  1  0.500000  0.697884  0.427616  1
  Co  Co18  1  0.000000  0.202897  0.573260  1
  Co  Co19  1  0.000000  0.797103  0.573260  1
  Co  Co20  1  0.500000  0.880186  0.714745  1
  Co  Co21  1  0.500000  0.119814  0.714745  1
  Co  Co22  1  0.000000  0.618839  0.286302  1
  Co  Co23  1  0.000000  0.381161  0.286302  1
  P  P24  1  0.500000  0.500000  0.886094  1
  P  P25  1  0.000000  0.000000  0.112228  1
  P  P26  1  0.500000  0.500000  0.340581  1
  P  P27  1  0.000000  0.000000  0.661238  1
  P  P28  1  0.500000  0.306770  0.612691  1
  P  P29  1  0.500000  0.693230  0.612691  1
  P  P30  1  0.000000  0.194483  0.386631  1
  P  P31  1  0.000000  0.805517  0.386631  1
  P  P32  1  0.500000  0.847772  0.894906  1
  P  P33  1  0.500000  0.152228  0.894906  1
  P  P34  1  0.000000  0.651978  0.105337  1
  P  P35  1  0.000000  0.348022  0.105337  1
