# generated using pymatgen
data_ZrSc5Mn6Si11Ge
_symmetry_space_group_name_H-M   'P 1'
_cell_length_a   9.85129937
_cell_length_b   9.85143265
_cell_length_c   9.85103504
_cell_angle_alpha   149.84624246
_cell_angle_beta   132.56151098
_cell_angle_gamma   57.24315078
_symmetry_Int_Tables_number   1
_chemical_formula_structural   ZrSc5Mn6Si11Ge
_chemical_formula_sum   'Zr1 Sc5 Mn6 Si11 Ge1'
_cell_volume   351.23568463
_cell_formula_units_Z   1
loop_
 _symmetry_equiv_pos_site_id
 _symmetry_equiv_pos_as_xyz
  1  'x, y, z'
loop_
 _atom_site_type_symbol
 _atom_site_label
 _atom_site_symmetry_multiplicity
 _atom_site_fract_x
 _atom_site_fract_y
 _atom_site_fract_z
 _atom_site_occupancy
  Zr  Zr0  1  0.357279  0.356655  0.999434  1
  Sc  Sc1  1  0.354762  0.094291  0.261036  1
  Sc  Sc2  1  0.644953  0.906052  0.738971  1
  Sc  Sc3  1  0.167089  0.906043  0.261092  1
  Sc  Sc4  1  0.833236  0.094291  0.739537  1
  Sc  Sc5  1  0.642019  0.641649  0.999622  1
  Mn  Mn6  1  0.500360  0.999764  0.999397  1
  Mn  Mn7  1  0.500898  0.500834  0.500504  1
  Mn  Mn8  1  0.000397  0.999786  0.499426  1
  Mn  Mn9  1  0.000355  0.500849  0.999956  1
  Mn  Mn10  1  0.251153  0.494942  0.745672  1
  Mn  Mn11  1  0.749251  0.494902  0.243722  1
  Si  Si12  1  0.999368  0.256852  0.257506  1
  Si  Si13  1  0.500043  0.244372  0.744249  1
  Si  Si14  1  0.500031  0.751767  0.251664  1
  Si  Si15  1  0.200157  0.200905  0.000783  1
  Si  Si16  1  0.798097  0.798437  0.000321  1
  Si  Si17  1  0.288098  0.787687  0.499656  1
  Si  Si18  1  0.711972  0.212134  0.500129  1
  Si  Si19  1  0.711536  0.360942  0.346536  1
  Si  Si20  1  0.289614  0.635505  0.650178  1
  Si  Si21  1  0.985353  0.635474  0.345869  1
  Si  Si22  1  0.014431  0.361012  0.649452  1
  Ge  Ge23  1  0.999545  0.764856  0.765290  1
