# generated using pymatgen
data_La3Nd(SeO5)2
_symmetry_space_group_name_H-M   'P 1'
_cell_length_a   8.88618868
_cell_length_b   8.88619054
_cell_length_c   11.32062800
_cell_angle_alpha   90.00000000
_cell_angle_beta   90.00000000
_cell_angle_gamma   142.41970120
_symmetry_Int_Tables_number   1
_chemical_formula_structural   La3Nd(SeO5)2
_chemical_formula_sum   'La6 Nd2 Se4 O20'
_cell_volume   545.18118995
_cell_formula_units_Z   2
loop_
 _symmetry_equiv_pos_site_id
 _symmetry_equiv_pos_as_xyz
  1  'x, y, z'
loop_
 _atom_site_type_symbol
 _atom_site_label
 _atom_site_symmetry_multiplicity
 _atom_site_fract_x
 _atom_site_fract_y
 _atom_site_fract_z
 _atom_site_occupancy
  La  La0  1  0.248619  0.748619  0.879574  1
  La  La1  1  0.748619  0.248619  0.120426  1
  La  La2  1  0.903961  0.073623  0.388594  1
  La  La3  1  0.073623  0.903961  0.611406  1
  La  La4  1  0.403961  0.573623  0.611406  1
  La  La5  1  0.573623  0.403961  0.388594  1
  Nd  Nd6  1  0.753623  0.253623  0.605957  1
  Nd  Nd7  1  0.253623  0.753623  0.394043  1
  Se  Se8  1  0.388904  0.569493  0.135231  1
  Se  Se9  1  0.569493  0.388904  0.864769  1
  Se  Se10  1  0.888904  0.069493  0.864769  1
  Se  Se11  1  0.069493  0.888904  0.135231  1
  O  O12  1  0.144924  0.454089  0.217372  1
  O  O13  1  0.454089  0.144924  0.782628  1
  O  O14  1  0.644924  0.954089  0.782628  1
  O  O15  1  0.954089  0.644924  0.217372  1
  O  O16  1  0.577304  0.907284  0.506541  1
  O  O17  1  0.907284  0.577304  0.493459  1
  O  O18  1  0.077304  0.407284  0.493459  1
  O  O19  1  0.407284  0.077304  0.506541  1
  O  O20  1  0.114459  0.614459  0.710392  1
  O  O21  1  0.614459  0.114459  0.289608  1
  O  O22  1  0.508953  0.822298  0.063658  1
  O  O23  1  0.822298  0.508953  0.936342  1
  O  O24  1  0.196066  0.097460  0.245389  1
  O  O25  1  0.097460  0.196066  0.754611  1
  O  O26  1  0.696066  0.597460  0.754611  1
  O  O27  1  0.597460  0.696066  0.245389  1
  O  O28  1  0.241460  0.241460  0.500000  1
  O  O29  1  0.741460  0.741460  0.500000  1
  O  O30  1  0.322298  0.008953  0.063658  1
  O  O31  1  0.008953  0.322298  0.936342  1
