# generated using pymatgen
data_Sr4YLu(GaO5)2
_symmetry_space_group_name_H-M   'P 1'
_cell_length_a   5.93011500
_cell_length_b   7.61303008
_cell_length_c   12.41959624
_cell_angle_alpha   91.61818395
_cell_angle_beta   90.00000000
_cell_angle_gamma   90.00000000
_symmetry_Int_Tables_number   1
_chemical_formula_structural   Sr4YLu(GaO5)2
_chemical_formula_sum   'Sr8 Y2 Lu2 Ga4 O20'
_cell_volume   560.47327440
_cell_formula_units_Z   2
loop_
 _symmetry_equiv_pos_site_id
 _symmetry_equiv_pos_as_xyz
  1  'x, y, z'
loop_
 _atom_site_type_symbol
 _atom_site_label
 _atom_site_symmetry_multiplicity
 _atom_site_fract_x
 _atom_site_fract_y
 _atom_site_fract_z
 _atom_site_occupancy
  Sr  Sr0  1  0.769282  0.485818  0.330957  1
  Sr  Sr1  1  0.730718  0.985818  0.830957  1
  Sr  Sr2  1  0.230534  0.511945  0.668604  1
  Sr  Sr3  1  0.269466  0.011945  0.168604  1
  Sr  Sr4  1  0.769217  0.986746  0.368360  1
  Sr  Sr5  1  0.730783  0.486746  0.868360  1
  Sr  Sr6  1  0.231360  0.016078  0.631123  1
  Sr  Sr7  1  0.268640  0.516078  0.131123  1
  Y  Y8  1  0.243987  0.729587  0.379117  1
  Y  Y9  1  0.256013  0.229587  0.879117  1
  Lu  Lu10  1  0.757557  0.268380  0.622244  1
  Lu  Lu11  1  0.742443  0.768380  0.122244  1
  Ga  Ga12  1  0.719591  0.741435  0.580105  1
  Ga  Ga13  1  0.780409  0.241435  0.080105  1
  Ga  Ga14  1  0.279395  0.259265  0.421856  1
  Ga  Ga15  1  0.220605  0.759265  0.921856  1
  O  O16  1  0.785729  0.972893  0.627624  1
  O  O17  1  0.714271  0.472893  0.127624  1
  O  O18  1  0.214687  0.029770  0.371963  1
  O  O19  1  0.285313  0.529770  0.871963  1
  O  O20  1  0.718421  0.063377  0.175322  1
  O  O21  1  0.781579  0.563377  0.675322  1
  O  O22  1  0.280741  0.931597  0.822609  1
  O  O23  1  0.219259  0.431597  0.322609  1
  O  O24  1  0.540424  0.746791  0.272445  1
  O  O25  1  0.959576  0.246791  0.772445  1
  O  O26  1  0.464513  0.253339  0.723218  1
  O  O27  1  0.035487  0.753339  0.223218  1
  O  O28  1  0.598637  0.214189  0.958769  1
  O  O29  1  0.901363  0.714189  0.458769  1
  O  O30  1  0.412741  0.786690  0.039822  1
  O  O31  1  0.087259  0.286690  0.539822  1
  O  O32  1  0.090699  0.236408  0.045724  1
  O  O33  1  0.409301  0.736408  0.545724  1
  O  O34  1  0.912029  0.765690  0.960137  1
  O  O35  1  0.587971  0.265690  0.460137  1
