# generated using pymatgen
data_Nd7PaTe12
_symmetry_space_group_name_H-M   'P 1'
_cell_length_a   12.30332376
_cell_length_b   4.41935900
_cell_length_c   12.02095076
_cell_angle_alpha   89.99986854
_cell_angle_beta   90.41235914
_cell_angle_gamma   89.99994171
_symmetry_Int_Tables_number   1
_chemical_formula_structural   Nd7PaTe12
_chemical_formula_sum   'Nd7 Pa1 Te12'
_cell_volume   653.59587926
_cell_formula_units_Z   1
loop_
 _symmetry_equiv_pos_site_id
 _symmetry_equiv_pos_as_xyz
  1  'x, y, z'
loop_
 _atom_site_type_symbol
 _atom_site_label
 _atom_site_symmetry_multiplicity
 _atom_site_fract_x
 _atom_site_fract_y
 _atom_site_fract_z
 _atom_site_occupancy
  Nd  Nd0  1  0.482311  0.749999  0.811142  1
  Nd  Nd1  1  0.517099  0.250000  0.189302  1
  Nd  Nd2  1  0.982893  0.749999  0.687635  1
  Nd  Nd3  1  0.196497  0.250000  0.002010  1
  Nd  Nd4  1  0.300918  0.750000  0.501548  1
  Nd  Nd5  1  0.696649  0.249998  0.498998  1
  Nd  Nd6  1  0.805671  0.750000  0.997162  1
  Pa  Pa7  1  0.014800  0.250009  0.312071  1
  Te  Te8  1  0.381052  0.750000  0.056213  1
  Te  Te9  1  0.619907  0.249998  0.946261  1
  Te  Te10  1  0.883079  0.750002  0.439291  1
  Te  Te11  1  0.268286  0.250003  0.299074  1
  Te  Te12  1  0.224294  0.750000  0.800303  1
  Te  Te13  1  0.779865  0.250002  0.199839  1
  Te  Te14  1  0.726178  0.749999  0.698018  1
  Te  Te15  1  0.456684  0.250001  0.622452  1
  Te  Te16  1  0.045943  0.750002  0.130307  1
  Te  Te17  1  0.958340  0.250000  0.878010  1
  Te  Te18  1  0.542806  0.750000  0.376510  1
  Te  Te19  1  0.116730  0.249998  0.553851  1
