# generated using pymatgen
data_Th5GaSn2Sb
_symmetry_space_group_name_H-M   'P 1'
_cell_length_a   9.57890762
_cell_length_b   9.58180491
_cell_length_c   6.54379700
_cell_angle_alpha   90.00000000
_cell_angle_beta   90.00000000
_cell_angle_gamma   120.01000646
_symmetry_Int_Tables_number   1
_chemical_formula_structural   Th5GaSn2Sb
_chemical_formula_sum   'Th10 Ga2 Sn4 Sb2'
_cell_volume   520.09174345
_cell_formula_units_Z   2
loop_
 _symmetry_equiv_pos_site_id
 _symmetry_equiv_pos_as_xyz
  1  'x, y, z'
loop_
 _atom_site_type_symbol
 _atom_site_label
 _atom_site_symmetry_multiplicity
 _atom_site_fract_x
 _atom_site_fract_y
 _atom_site_fract_z
 _atom_site_occupancy
  Th  Th0  1  0.732831  0.734201  0.750000  1
  Th  Th1  1  0.267169  0.001369  0.750000  1
  Th  Th2  1  0.000000  0.263981  0.750000  1
  Th  Th3  1  0.267327  0.267055  0.250000  1
  Th  Th4  1  0.732673  0.999729  0.250000  1
  Th  Th5  1  0.000000  0.732678  0.250000  1
  Th  Th6  1  0.666296  0.333230  0.999773  1
  Th  Th7  1  0.333704  0.666935  0.999773  1
  Th  Th8  1  0.333704  0.666935  0.500227  1
  Th  Th9  1  0.666296  0.333230  0.500227  1
  Ga  Ga10  1  0.000000  0.999944  0.001685  1
  Ga  Ga11  1  0.000000  0.999944  0.498315  1
  Sn  Sn12  1  0.000000  0.616608  0.750000  1
  Sn  Sn13  1  0.617635  0.617045  0.250000  1
  Sn  Sn14  1  0.382365  0.999410  0.250000  1
  Sn  Sn15  1  0.000000  0.383311  0.250000  1
  Sb  Sb16  1  0.384531  0.384464  0.750000  1
  Sb  Sb17  1  0.615469  0.999933  0.750000  1
