# generated using pymatgen
data_Ba8LiTc3O16
_symmetry_space_group_name_H-M   'P 1'
_cell_length_a   5.75411910
_cell_length_b   9.34237688
_cell_length_c   9.34237500
_cell_angle_alpha   87.08786773
_cell_angle_beta   71.99499109
_cell_angle_gamma   108.00657864
_symmetry_Int_Tables_number   1
_chemical_formula_structural   Ba8LiTc3O16
_chemical_formula_sum   'Ba8 Li1 Tc3 O16'
_cell_volume   448.24547143
_cell_formula_units_Z   1
loop_
 _symmetry_equiv_pos_site_id
 _symmetry_equiv_pos_as_xyz
  1  'x, y, z'
loop_
 _atom_site_type_symbol
 _atom_site_label
 _atom_site_symmetry_multiplicity
 _atom_site_fract_x
 _atom_site_fract_y
 _atom_site_fract_z
 _atom_site_occupancy
  Ba  Ba0  1  0.263525  0.408318  0.880483  1
  Ba  Ba1  1  0.999309  0.640886  0.641606  1
  Ba  Ba2  1  0.736925  0.881027  0.408738  1
  Ba  Ba3  1  0.500287  0.146145  0.145510  1
  Ba  Ba4  1  0.999349  0.358377  0.359123  1
  Ba  Ba5  1  0.736941  0.591282  0.118949  1
  Ba  Ba6  1  0.500247  0.854464  0.853890  1
  Ba  Ba7  1  0.263525  0.119522  0.591681  1
  Li  Li8  1  0.500334  0.499999  0.499962  1
  Tc  Tc9  1  0.251531  0.751953  0.248059  1
  Tc  Tc10  1  0.999941  0.000087  0.999919  1
  Tc  Tc11  1  0.746974  0.247187  0.752801  1
  O  O12  1  0.255531  0.603666  0.095605  1
  O  O13  1  0.999954  0.852630  0.852815  1
  O  O14  1  0.744459  0.095239  0.603070  1
  O  O15  1  0.499951  0.332159  0.332123  1
  O  O16  1  0.000056  0.147288  0.147276  1
  O  O17  1  0.744398  0.396889  0.904799  1
  O  O18  1  0.500082  0.667940  0.667791  1
  O  O19  1  0.255463  0.904346  0.396389  1
  O  O20  1  0.874806  0.123833  0.876124  1
  O  O21  1  0.628712  0.363421  0.636614  1
  O  O22  1  0.371142  0.637048  0.362904  1
  O  O23  1  0.125554  0.875851  0.124201  1
  O  O24  1  0.366170  0.121587  0.878373  1
  O  O25  1  0.101225  0.365264  0.634793  1
  O  O26  1  0.899698  0.635091  0.364851  1
  O  O27  1  0.633909  0.878500  0.121546  1
