# generated using pymatgen
data_Rb(CrSe2)3
_symmetry_space_group_name_H-M   'P 1'
_cell_length_a   9.33200620
_cell_length_b   9.33200556
_cell_length_c   9.33200545
_cell_angle_alpha   38.41152736
_cell_angle_beta   38.41153782
_cell_angle_gamma   38.41153679
_symmetry_Int_Tables_number   1
_chemical_formula_structural   Rb(CrSe2)3
_chemical_formula_sum   'Rb1 Cr3 Se6'
_cell_volume   281.81893318
_cell_formula_units_Z   1
loop_
 _symmetry_equiv_pos_site_id
 _symmetry_equiv_pos_as_xyz
  1  'x, y, z'
loop_
 _atom_site_type_symbol
 _atom_site_label
 _atom_site_symmetry_multiplicity
 _atom_site_fract_x
 _atom_site_fract_y
 _atom_site_fract_z
 _atom_site_occupancy
  Rb  Rb0  1  0.000174  0.000174  0.000174  1
  Cr  Cr1  1  0.500394  0.500394  0.500394  1
  Cr  Cr2  1  0.833329  0.833329  0.833329  1
  Cr  Cr3  1  0.166179  0.166179  0.166179  1
  Se  Se4  1  0.553405  0.223910  0.890218  1
  Se  Se5  1  0.890218  0.553405  0.223910  1
  Se  Se6  1  0.223910  0.890218  0.553405  1
  Se  Se7  1  0.774681  0.111114  0.446597  1
  Se  Se8  1  0.111114  0.446597  0.774681  1
  Se  Se9  1  0.446597  0.774681  0.111114  1
