# generated using pymatgen
data_Dy13Y(Tm3Sn8)2
_symmetry_space_group_name_H-M   'P 1'
_cell_length_a   7.99962664
_cell_length_b   8.14620912
_cell_length_c   15.41078019
_cell_angle_alpha   90.00276430
_cell_angle_beta   89.98154401
_cell_angle_gamma   90.00959326
_symmetry_Int_Tables_number   1
_chemical_formula_structural   Dy13Y(Tm3Sn8)2
_chemical_formula_sum   'Dy13 Y1 Tm6 Sn16'
_cell_volume   1004.26856603
_cell_formula_units_Z   1
loop_
 _symmetry_equiv_pos_site_id
 _symmetry_equiv_pos_as_xyz
  1  'x, y, z'
loop_
 _atom_site_type_symbol
 _atom_site_label
 _atom_site_symmetry_multiplicity
 _atom_site_fract_x
 _atom_site_fract_y
 _atom_site_fract_z
 _atom_site_occupancy
  Dy  Dy0  1  0.132508  0.336210  0.121968  1
  Dy  Dy1  1  0.632171  0.163867  0.122231  1
  Dy  Dy2  1  0.132034  0.336194  0.377992  1
  Dy  Dy3  1  0.367992  0.836258  0.622083  1
  Dy  Dy4  1  0.868057  0.663746  0.877851  1
  Dy  Dy5  1  0.521067  0.320414  0.902474  1
  Dy  Dy6  1  0.021343  0.179790  0.597562  1
  Dy  Dy7  1  0.478794  0.679933  0.402590  1
  Dy  Dy8  1  0.978744  0.820446  0.097540  1
  Dy  Dy9  1  0.479038  0.679563  0.097432  1
  Dy  Dy10  1  0.978684  0.820524  0.402885  1
  Dy  Dy11  1  0.521298  0.320531  0.597287  1
  Dy  Dy12  1  0.021061  0.179317  0.902241  1
  Y  Y13  1  0.367462  0.836611  0.877400  1
  Tm  Tm14  1  0.867267  0.663478  0.622261  1
  Tm  Tm15  1  0.632616  0.163419  0.377961  1
  Tm  Tm16  1  0.198437  0.502951  0.749944  1
  Tm  Tm17  1  0.698959  0.996908  0.749580  1
  Tm  Tm18  1  0.801108  0.496996  0.250486  1
  Tm  Tm19  1  0.301667  0.002914  0.250073  1
  Sn  Sn20  1  0.292476  0.034994  0.041857  1
  Sn  Sn21  1  0.791822  0.464168  0.458483  1
  Sn  Sn22  1  0.708253  0.964065  0.541632  1
  Sn  Sn23  1  0.207992  0.535729  0.957758  1
  Sn  Sn24  1  0.706665  0.964606  0.957661  1
  Sn  Sn25  1  0.205769  0.535558  0.542511  1
  Sn  Sn26  1  0.294145  0.035611  0.457596  1
  Sn  Sn27  1  0.792455  0.464870  0.042313  1
  Sn  Sn28  1  0.565302  0.619186  0.749600  1
  Sn  Sn29  1  0.064177  0.880388  0.749646  1
  Sn  Sn30  1  0.435804  0.380582  0.250518  1
  Sn  Sn31  1  0.934730  0.118779  0.250477  1
  Sn  Sn32  1  0.329916  0.148218  0.749989  1
  Sn  Sn33  1  0.829942  0.352530  0.749732  1
  Sn  Sn34  1  0.670072  0.852473  0.250290  1
  Sn  Sn35  1  0.170172  0.648178  0.250099  1
