# generated using pymatgen
data_Tb2ZrPa(Al3Ir)6
_symmetry_space_group_name_H-M   'P 1'
_cell_length_a   7.56171001
_cell_length_b   7.54897273
_cell_length_c   9.38274400
_cell_angle_alpha   90.00000000
_cell_angle_beta   90.00000000
_cell_angle_gamma   119.62226414
_symmetry_Int_Tables_number   1
_chemical_formula_structural   Tb2ZrPa(Al3Ir)6
_chemical_formula_sum   'Tb2 Zr1 Pa1 Al18 Ir6'
_cell_volume   465.59561731
_cell_formula_units_Z   1
loop_
 _symmetry_equiv_pos_site_id
 _symmetry_equiv_pos_as_xyz
  1  'x, y, z'
loop_
 _atom_site_type_symbol
 _atom_site_label
 _atom_site_symmetry_multiplicity
 _atom_site_fract_x
 _atom_site_fract_y
 _atom_site_fract_z
 _atom_site_occupancy
  Tb  Tb0  1  0.671533  0.993900  0.250000  1
  Tb  Tb1  1  0.329181  0.004972  0.750000  1
  Zr  Zr2  1  0.004907  0.328292  0.750000  1
  Pa  Pa3  1  0.996434  0.672866  0.250000  1
  Al  Al4  1  0.132794  0.132819  0.250000  1
  Al  Al5  1  0.873828  0.877931  0.750000  1
  Al  Al6  1  0.000247  0.332355  0.071447  1
  Al  Al7  1  0.998970  0.661471  0.919421  1
  Al  Al8  1  0.998970  0.661471  0.580579  1
  Al  Al9  1  0.339108  0.004397  0.425343  1
  Al  Al10  1  0.000247  0.332355  0.428553  1
  Al  Al11  1  0.668320  0.002666  0.577531  1
  Al  Al12  1  0.668320  0.002666  0.922469  1
  Al  Al13  1  0.339108  0.004397  0.074657  1
  Al  Al14  1  0.330026  0.332555  0.556822  1
  Al  Al15  1  0.663006  0.665457  0.449514  1
  Al  Al16  1  0.663006  0.665457  0.050486  1
  Al  Al17  1  0.330026  0.332555  0.943178  1
  Al  Al18  1  0.338222  0.545682  0.250000  1
  Al  Al19  1  0.662710  0.449317  0.750000  1
  Al  Al20  1  0.547554  0.343010  0.250000  1
  Al  Al21  1  0.445151  0.656561  0.750000  1
  Ir  Ir22  1  0.673739  0.329658  0.000830  1
  Ir  Ir23  1  0.325350  0.671848  0.001223  1
  Ir  Ir24  1  0.325350  0.671848  0.498777  1
  Ir  Ir25  1  0.673739  0.329658  0.499170  1
  Ir  Ir26  1  0.000076  0.996917  0.002380  1
  Ir  Ir27  1  0.000076  0.996917  0.497620  1
