# generated using pymatgen
data_Tb11Th9(Ir3Ru)3
_symmetry_space_group_name_H-M   'P 1'
_cell_length_a   11.16519209
_cell_length_b   11.12767687
_cell_length_c   6.39619816
_cell_angle_alpha   89.96695691
_cell_angle_beta   89.62342197
_cell_angle_gamma   89.96866798
_symmetry_Int_Tables_number   1
_chemical_formula_structural   Tb11Th9(Ir3Ru)3
_chemical_formula_sum   'Tb11 Th9 Ir9 Ru3'
_cell_volume   794.66319409
_cell_formula_units_Z   1
loop_
 _symmetry_equiv_pos_site_id
 _symmetry_equiv_pos_as_xyz
  1  'x, y, z'
loop_
 _atom_site_type_symbol
 _atom_site_label
 _atom_site_symmetry_multiplicity
 _atom_site_fract_x
 _atom_site_fract_y
 _atom_site_fract_z
 _atom_site_occupancy
  Tb  Tb0  1  0.205027  0.587598  0.117159  1
  Tb  Tb1  1  0.796405  0.414414  0.113329  1
  Tb  Tb2  1  0.795269  0.586592  0.615949  1
  Tb  Tb3  1  0.914834  0.703552  0.114108  1
  Tb  Tb4  1  0.908377  0.293712  0.615712  1
  Tb  Tb5  1  0.083778  0.709828  0.616653  1
  Tb  Tb6  1  0.083625  0.293239  0.117227  1
  Tb  Tb7  1  0.998764  0.001351  0.506269  1
  Tb  Tb8  1  0.000282  0.999443  0.005893  1
  Tb  Tb9  1  0.500101  0.498991  0.008780  1
  Tb  Tb10  1  0.503576  0.501212  0.508261  1
  Th  Th11  1  0.288503  0.092453  0.380201  1
  Th  Th12  1  0.288983  0.908401  0.879681  1
  Th  Th13  1  0.711475  0.091102  0.882098  1
  Th  Th14  1  0.712008  0.906697  0.381642  1
  Th  Th15  1  0.591773  0.788132  0.880882  1
  Th  Th16  1  0.593441  0.211090  0.381911  1
  Th  Th17  1  0.407304  0.788873  0.380417  1
  Th  Th18  1  0.409734  0.211350  0.880993  1
  Th  Th19  1  0.202829  0.413431  0.619051  1
  Ir  Ir20  1  0.840963  0.149356  0.251400  1
  Ir  Ir21  1  0.841402  0.848894  0.753457  1
  Ir  Ir22  1  0.157655  0.152930  0.748475  1
  Ir  Ir23  1  0.158285  0.850864  0.250416  1
  Ir  Ir24  1  0.650867  0.341758  0.752905  1
  Ir  Ir25  1  0.650950  0.658960  0.250568  1
  Ir  Ir26  1  0.348836  0.342403  0.262989  1
  Ir  Ir27  1  0.346454  0.656788  0.749549  1
  Ir  Ir28  1  0.001883  0.500101  0.378569  1
  Ru  Ru29  1  0.499940  0.000229  0.112570  1
  Ru  Ru30  1  0.500054  0.998700  0.613827  1
  Ru  Ru31  1  0.006625  0.497556  0.869054  1
