# generated using pymatgen
data_SrTbPr5RuI12
_symmetry_space_group_name_H-M   'P 1'
_cell_length_a   10.13921134
_cell_length_b   10.05049245
_cell_length_c   10.07425053
_cell_angle_alpha   106.40278835
_cell_angle_beta   106.11944976
_cell_angle_gamma   106.55569631
_symmetry_Int_Tables_number   1
_chemical_formula_structural   SrTbPr5RuI12
_chemical_formula_sum   'Sr1 Tb1 Pr5 Ru1 I12'
_cell_volume   869.46800453
_cell_formula_units_Z   1
loop_
 _symmetry_equiv_pos_site_id
 _symmetry_equiv_pos_as_xyz
  1  'x, y, z'
loop_
 _atom_site_type_symbol
 _atom_site_label
 _atom_site_symmetry_multiplicity
 _atom_site_fract_x
 _atom_site_fract_y
 _atom_site_fract_z
 _atom_site_occupancy
  Sr  Sr0  1  0.500362  0.499683  0.499888  1
  Tb  Tb1  1  0.298741  0.021947  0.096534  1
  Pr  Pr2  1  0.906527  0.703584  0.979311  1
  Pr  Pr3  1  0.980356  0.905086  0.705116  1
  Pr  Pr4  1  0.690787  0.978525  0.901134  1
  Pr  Pr5  1  0.097570  0.297316  0.021930  1
  Pr  Pr6  1  0.021059  0.094889  0.295530  1
  Ru  Ru7  1  0.000652  0.000738  0.000373  1
  I  I8  1  0.628810  0.855245  0.546059  1
  I  I9  1  0.548036  0.626232  0.855772  1
  I  I10  1  0.853930  0.545421  0.625890  1
  I  I11  1  0.371574  0.139953  0.443341  1
  I  I12  1  0.451690  0.364401  0.143401  1
  I  I13  1  0.146398  0.454781  0.374065  1
  I  I14  1  0.674639  0.073774  0.224916  1
  I  I15  1  0.229644  0.687993  0.075833  1
  I  I16  1  0.075357  0.226944  0.679185  1
  I  I17  1  0.321991  0.928277  0.784620  1
  I  I18  1  0.777084  0.322204  0.926314  1
  I  I19  1  0.924796  0.773007  0.320788  1
