# generated using pymatgen
data_Sr4Li3InSn6
_symmetry_space_group_name_H-M   'P 1'
_cell_length_a   10.85757183
_cell_length_b   10.85757256
_cell_length_c   7.77896466
_cell_angle_alpha   89.64970664
_cell_angle_beta   89.64970816
_cell_angle_gamma   26.18366002
_symmetry_Int_Tables_number   1
_chemical_formula_structural   Sr4Li3InSn6
_chemical_formula_sum   'Sr4 Li3 In1 Sn6'
_cell_volume   404.63492330
_cell_formula_units_Z   1
loop_
 _symmetry_equiv_pos_site_id
 _symmetry_equiv_pos_as_xyz
  1  'x, y, z'
loop_
 _atom_site_type_symbol
 _atom_site_label
 _atom_site_symmetry_multiplicity
 _atom_site_fract_x
 _atom_site_fract_y
 _atom_site_fract_z
 _atom_site_occupancy
  Sr  Sr0  1  0.657225  0.657225  0.247939  1
  Sr  Sr1  1  0.341116  0.341116  0.764253  1
  Sr  Sr2  1  0.446032  0.446032  0.251343  1
  Sr  Sr3  1  0.554416  0.554416  0.745282  1
  Li  Li4  1  0.191976  0.191976  0.561545  1
  Li  Li5  1  0.810048  0.810048  0.058571  1
  Li  Li6  1  0.191472  0.191472  0.933665  1
  In  In7  1  0.805059  0.805059  0.448657  1
  Sn  Sn8  1  0.276729  0.276729  0.232529  1
  Sn  Sn9  1  0.721083  0.721083  0.757913  1
  Sn  Sn10  1  0.936709  0.936709  0.940477  1
  Sn  Sn11  1  0.064537  0.064537  0.058045  1
  Sn  Sn12  1  0.939209  0.939209  0.571656  1
  Sn  Sn13  1  0.064386  0.064386  0.428125  1
