# generated using pymatgen
data_Tm5Sc(Si3Ru)8
_symmetry_space_group_name_H-M   'P 1'
_cell_length_a   10.07711136
_cell_length_b   10.07711101
_cell_length_c   8.09078302
_cell_angle_alpha   89.99601782
_cell_angle_beta   89.99602086
_cell_angle_gamma   132.65830492
_symmetry_Int_Tables_number   1
_chemical_formula_structural   Tm5Sc(Si3Ru)8
_chemical_formula_sum   'Tm5 Sc1 Si24 Ru8'
_cell_volume   604.21422341
_cell_formula_units_Z   1
loop_
 _symmetry_equiv_pos_site_id
 _symmetry_equiv_pos_as_xyz
  1  'x, y, z'
loop_
 _atom_site_type_symbol
 _atom_site_label
 _atom_site_symmetry_multiplicity
 _atom_site_fract_x
 _atom_site_fract_y
 _atom_site_fract_z
 _atom_site_occupancy
  Tm  Tm0  1  0.497776  0.997798  0.250023  1
  Tm  Tm1  1  0.002202  0.502224  0.749977  1
  Tm  Tm2  1  0.502224  0.002202  0.749977  1
  Tm  Tm3  1  0.997798  0.497776  0.250023  1
  Tm  Tm4  1  0.000000  0.000000  0.000000  1
  Sc  Sc5  1  0.500000  0.500000  0.500000  1
  Si  Si6  1  0.388550  0.154767  0.005080  1
  Si  Si7  1  0.653759  0.885786  0.495021  1
  Si  Si8  1  0.114214  0.346241  0.504979  1
  Si  Si9  1  0.845233  0.611450  0.994920  1
  Si  Si10  1  0.611450  0.845233  0.994920  1
  Si  Si11  1  0.346241  0.114214  0.504979  1
  Si  Si12  1  0.885786  0.653759  0.495021  1
  Si  Si13  1  0.154767  0.388550  0.005080  1
  Si  Si14  1  0.611775  0.379152  0.229925  1
  Si  Si15  1  0.878165  0.112640  0.271871  1
  Si  Si16  1  0.887360  0.121835  0.728129  1
  Si  Si17  1  0.620848  0.388225  0.770075  1
  Si  Si18  1  0.388225  0.620848  0.770075  1
  Si  Si19  1  0.121835  0.887360  0.728129  1
  Si  Si20  1  0.704834  0.295166  0.000000  1
  Si  Si21  1  0.794927  0.205073  0.500000  1
  Si  Si22  1  0.295166  0.704834  0.000000  1
  Si  Si23  1  0.205073  0.794927  0.500000  1
  Si  Si24  1  0.169747  0.169747  0.334353  1
  Si  Si25  1  0.666271  0.666271  0.169024  1
  Si  Si26  1  0.333729  0.333729  0.830976  1
  Si  Si27  1  0.830253  0.830253  0.665647  1
  Si  Si28  1  0.379152  0.611775  0.229925  1
  Si  Si29  1  0.112640  0.878165  0.271871  1
  Ru  Ru30  1  0.627544  0.627544  0.872624  1
  Ru  Ru31  1  0.126579  0.126579  0.628543  1
  Ru  Ru32  1  0.873421  0.873421  0.371457  1
  Ru  Ru33  1  0.372456  0.372456  0.127376  1
  Ru  Ru34  1  0.330787  0.669213  0.500000  1
  Ru  Ru35  1  0.169712  0.830288  0.000000  1
  Ru  Ru36  1  0.669213  0.330787  0.500000  1
  Ru  Ru37  1  0.830288  0.169712  0.000000  1
