# generated using pymatgen
data_SrYCo9Mo3As7
_symmetry_space_group_name_H-M   'P 1'
_cell_length_a   3.86815100
_cell_length_b   9.45249939
_cell_length_c   9.45249900
_cell_angle_alpha   119.99999514
_cell_angle_beta   90.00000000
_cell_angle_gamma   90.00000000
_symmetry_Int_Tables_number   1
_chemical_formula_structural   SrYCo9Mo3As7
_chemical_formula_sum   'Sr1 Y1 Co9 Mo3 As7'
_cell_volume   299.31423385
_cell_formula_units_Z   1
loop_
 _symmetry_equiv_pos_site_id
 _symmetry_equiv_pos_as_xyz
  1  'x, y, z'
loop_
 _atom_site_type_symbol
 _atom_site_label
 _atom_site_symmetry_multiplicity
 _atom_site_fract_x
 _atom_site_fract_y
 _atom_site_fract_z
 _atom_site_occupancy
  Sr  Sr0  1  0.500000  0.333333  0.666667  1
  Y  Y1  1  0.000000  0.666667  0.333333  1
  Co  Co2  1  0.000000  0.574140  0.946496  1
  Co  Co3  1  0.000000  0.372356  0.425860  1
  Co  Co4  1  0.000000  0.053504  0.627644  1
  Co  Co5  1  0.000000  0.877417  0.157210  1
  Co  Co6  1  0.000000  0.279792  0.122583  1
  Co  Co7  1  0.000000  0.842790  0.720208  1
  Co  Co8  1  0.500000  0.944827  0.377654  1
  Co  Co9  1  0.500000  0.432826  0.055173  1
  Co  Co10  1  0.500000  0.622346  0.567174  1
  Mo  Mo11  1  0.500000  0.784266  0.902038  1
  Mo  Mo12  1  0.500000  0.117772  0.215734  1
  Mo  Mo13  1  0.500000  0.097962  0.882228  1
  As  As14  1  0.000000  0.000000  0.000000  1
  As  As15  1  0.500000  0.705243  0.116858  1
  As  As16  1  0.500000  0.411617  0.294757  1
  As  As17  1  0.500000  0.883142  0.588383  1
  As  As18  1  0.000000  0.589134  0.699572  1
  As  As19  1  0.000000  0.110439  0.410866  1
  As  As20  1  0.000000  0.300428  0.889561  1
