# generated using pymatgen
data_Ca6CoHg(SeO3)8
_symmetry_space_group_name_H-M   'P 1'
_cell_length_a   12.64811198
_cell_length_b   7.81710166
_cell_length_c   7.81710100
_cell_angle_alpha   89.99999344
_cell_angle_beta   108.00032489
_cell_angle_gamma   108.00033040
_symmetry_Int_Tables_number   1
_chemical_formula_structural   Ca6CoHg(SeO3)8
_chemical_formula_sum   'Ca6 Co1 Hg1 Se8 O24'
_cell_volume   695.17510161
_cell_formula_units_Z   1
loop_
 _symmetry_equiv_pos_site_id
 _symmetry_equiv_pos_as_xyz
  1  'x, y, z'
loop_
 _atom_site_type_symbol
 _atom_site_label
 _atom_site_symmetry_multiplicity
 _atom_site_fract_x
 _atom_site_fract_y
 _atom_site_fract_z
 _atom_site_occupancy
  Ca  Ca0  1  0.898504  0.449253  0.199252  1
  Ca  Ca1  1  0.250000  0.624999  0.375000  1
  Ca  Ca2  1  0.391749  0.195875  0.445875  1
  Ca  Ca3  1  0.601495  0.800747  0.550748  1
  Ca  Ca4  1  0.750000  0.375000  0.625000  1
  Ca  Ca5  1  0.108250  0.554125  0.804125  1
  Co  Co6  1  0.250000  0.125000  0.875000  1
  Hg  Hg7  1  0.750000  0.874999  0.124999  1
  Se  Se8  1  0.384626  0.510397  0.118004  1
  Se  Se9  1  0.115375  0.881996  0.125771  1
  Se  Se10  1  0.611695  0.136431  0.230814  1
  Se  Se11  1  0.115375  0.233377  0.489603  1
  Se  Se12  1  0.888306  0.769186  0.524735  1
  Se  Se13  1  0.384626  0.874229  0.766623  1
  Se  Se14  1  0.888306  0.119119  0.863570  1
  Se  Se15  1  0.611695  0.475264  0.880881  1
  O  O16  1  0.252158  0.546524  0.074995  1
  O  O17  1  0.870934  0.139503  0.076995  1
  O  O18  1  0.346017  0.273309  0.112646  1
  O  O19  1  0.061447  0.652260  0.128999  1
  O  O20  1  0.629067  0.923006  0.268571  1
  O  O21  1  0.870934  0.731429  0.293939  1
  O  O22  1  0.247841  0.925004  0.294367  1
  O  O23  1  0.751931  0.285779  0.321624  1
  O  O24  1  0.438552  0.567552  0.347739  1
  O  O25  1  0.560331  0.158489  0.404043  1
  O  O26  1  0.061447  0.409187  0.432448  1
  O  O27  1  0.247841  0.322837  0.453476  1
  O  O28  1  0.748068  0.678376  0.533848  1
  O  O29  1  0.939669  0.595957  0.598157  1
  O  O30  1  0.438552  0.871001  0.590813  1
  O  O31  1  0.560331  0.401843  0.656289  1
  O  O32  1  0.252158  0.705633  0.677163  1
  O  O33  1  0.748068  0.069692  0.714221  1
  O  O34  1  0.153983  0.266629  0.726691  1
  O  O35  1  0.346017  0.072708  0.733371  1
  O  O36  1  0.939669  0.343711  0.841510  1
  O  O37  1  0.629067  0.706062  0.860496  1
  O  O38  1  0.153983  0.887354  0.927292  1
  O  O39  1  0.751931  0.466153  0.930307  1
