# generated using pymatgen
data_Zr10TlIn2AgBi4
_symmetry_space_group_name_H-M   'P 1'
_cell_length_a   8.90934500
_cell_length_b   8.90934595
_cell_length_c   6.00456208
_cell_angle_alpha   90.09417216
_cell_angle_beta   90.09417245
_cell_angle_gamma   119.72340776
_symmetry_Int_Tables_number   1
_chemical_formula_structural   Zr10TlIn2AgBi4
_chemical_formula_sum   'Zr10 Tl1 In2 Ag1 Bi4'
_cell_volume   413.90906911
_cell_formula_units_Z   1
loop_
 _symmetry_equiv_pos_site_id
 _symmetry_equiv_pos_as_xyz
  1  'x, y, z'
loop_
 _atom_site_type_symbol
 _atom_site_label
 _atom_site_symmetry_multiplicity
 _atom_site_fract_x
 _atom_site_fract_y
 _atom_site_fract_z
 _atom_site_occupancy
  Zr  Zr0  1  0.722726  0.722726  0.747935  1
  Zr  Zr1  1  0.277422  0.999506  0.746788  1
  Zr  Zr2  1  0.999506  0.277422  0.746788  1
  Zr  Zr3  1  0.281754  0.281754  0.252673  1
  Zr  Zr4  1  0.718222  0.004813  0.251982  1
  Zr  Zr5  1  0.004813  0.718222  0.251982  1
  Zr  Zr6  1  0.666431  0.331121  0.004198  1
  Zr  Zr7  1  0.331121  0.666431  0.004198  1
  Zr  Zr8  1  0.330654  0.666498  0.495658  1
  Zr  Zr9  1  0.666498  0.330654  0.495658  1
  Tl  Tl10  1  0.001824  0.001824  0.004793  1
  In  In11  1  0.377407  0.000062  0.250564  1
  In  In12  1  0.000062  0.377407  0.250564  1
  Ag  Ag13  1  0.002685  0.002685  0.493669  1
  Bi  Bi14  1  0.382900  0.382900  0.751297  1
  Bi  Bi15  1  0.614990  0.999350  0.750267  1
  Bi  Bi16  1  0.999350  0.614990  0.750267  1
  Bi  Bi17  1  0.621636  0.621636  0.250719  1
