# generated using pymatgen
data_K3Rb3Nb4(Cu3Te8)2
_symmetry_space_group_name_H-M   'P 1'
_cell_length_a   6.05571764
_cell_length_b   13.56118871
_cell_length_c   15.04800706
_cell_angle_alpha   70.41529604
_cell_angle_beta   78.40392228
_cell_angle_gamma   77.13887413
_symmetry_Int_Tables_number   1
_chemical_formula_structural   K3Rb3Nb4(Cu3Te8)2
_chemical_formula_sum   'K3 Rb3 Nb4 Cu6 Te16'
_cell_volume   1124.28133401
_cell_formula_units_Z   1
loop_
 _symmetry_equiv_pos_site_id
 _symmetry_equiv_pos_as_xyz
  1  'x, y, z'
loop_
 _atom_site_type_symbol
 _atom_site_label
 _atom_site_symmetry_multiplicity
 _atom_site_fract_x
 _atom_site_fract_y
 _atom_site_fract_z
 _atom_site_occupancy
  K  K0  1  0.653195  0.208012  0.404647  1
  K  K1  1  0.000504  0.499464  0.500015  1
  K  K2  1  0.999722  0.000466  0.000398  1
  Rb  Rb3  1  0.726266  0.712172  0.908345  1
  Rb  Rb4  1  0.346168  0.787734  0.591592  1
  Rb  Rb5  1  0.274118  0.288010  0.091749  1
  Nb  Nb6  1  0.157886  0.466854  0.776172  1
  Nb  Nb7  1  0.401219  0.034688  0.722932  1
  Nb  Nb8  1  0.842625  0.531666  0.225161  1
  Nb  Nb9  1  0.598658  0.966989  0.276637  1
  Cu  Cu10  1  0.272830  0.250182  0.750146  1
  Cu  Cu11  1  0.727229  0.749793  0.250065  1
  Cu  Cu12  1  0.899522  0.035932  0.723406  1
  Cu  Cu13  1  0.658892  0.465001  0.775709  1
  Cu  Cu14  1  0.100619  0.965082  0.276135  1
  Cu  Cu15  1  0.340988  0.533684  0.225355  1
  Te  Te16  1  0.937142  0.305999  0.874414  1
  Te  Te17  1  0.117440  0.195431  0.625558  1
  Te  Te18  1  0.063131  0.692525  0.126668  1
  Te  Te19  1  0.881816  0.805855  0.374328  1
  Te  Te20  1  0.496930  0.407118  0.653010  1
  Te  Te21  1  0.557760  0.093974  0.846462  1
  Te  Te22  1  0.503122  0.592715  0.347529  1
  Te  Te23  1  0.443352  0.906515  0.153512  1
  Te  Te24  1  0.870499  0.627440  0.681985  1
  Te  Te25  1  0.180623  0.873639  0.816981  1
  Te  Te26  1  0.129281  0.370049  0.319594  1
  Te  Te27  1  0.819476  0.128099  0.183729  1
  Te  Te28  1  0.743366  0.971455  0.605847  1
  Te  Te29  1  0.320459  0.533060  0.891040  1
  Te  Te30  1  0.255575  0.033777  0.391240  1
  Te  Te31  1  0.679589  0.466620  0.109639  1
