# generated using pymatgen
data_Tb3Mg3Ag2Ir
_symmetry_space_group_name_H-M   'P 1'
_cell_length_a   7.84408900
_cell_length_b   7.84408709
_cell_length_c   3.90481800
_cell_angle_alpha   90.00000000
_cell_angle_beta   90.00000000
_cell_angle_gamma   119.99999542
_symmetry_Int_Tables_number   1
_chemical_formula_structural   Tb3Mg3Ag2Ir
_chemical_formula_sum   'Tb3 Mg3 Ag2 Ir1'
_cell_volume   208.07330601
_cell_formula_units_Z   1
loop_
 _symmetry_equiv_pos_site_id
 _symmetry_equiv_pos_as_xyz
  1  'x, y, z'
loop_
 _atom_site_type_symbol
 _atom_site_label
 _atom_site_symmetry_multiplicity
 _atom_site_fract_x
 _atom_site_fract_y
 _atom_site_fract_z
 _atom_site_occupancy
  Tb  Tb0  1  0.568995  0.968398  0.000000  1
  Tb  Tb1  1  0.031602  0.600597  0.000000  1
  Tb  Tb2  1  0.399403  0.431005  0.000000  1
  Mg  Mg3  1  0.252818  0.998835  0.500000  1
  Mg  Mg4  1  0.001165  0.253983  0.500000  1
  Mg  Mg5  1  0.746017  0.747182  0.500000  1
  Ag  Ag6  1  0.666667  0.333333  0.500000  1
  Ag  Ag7  1  0.000000  0.000000  0.000000  1
  Ir  Ir8  1  0.333333  0.666667  0.500000  1
