# generated using pymatgen
data_Er4Al17Ga7Pt9
_symmetry_space_group_name_H-M   'P 1'
_cell_length_a   7.52007720
_cell_length_b   7.52216135
_cell_length_c   13.21586535
_cell_angle_alpha   84.63441848
_cell_angle_beta   100.81675282
_cell_angle_gamma   119.91437458
_symmetry_Int_Tables_number   1
_chemical_formula_structural   Er4Al17Ga7Pt9
_chemical_formula_sum   'Er4 Al17 Ga7 Pt9'
_cell_volume   636.47230989
_cell_formula_units_Z   1
loop_
 _symmetry_equiv_pos_site_id
 _symmetry_equiv_pos_as_xyz
  1  'x, y, z'
loop_
 _atom_site_type_symbol
 _atom_site_label
 _atom_site_symmetry_multiplicity
 _atom_site_fract_x
 _atom_site_fract_y
 _atom_site_fract_z
 _atom_site_occupancy
  Er  Er0  1  0.735856  0.002280  0.191596  1
  Er  Er1  1  0.262775  0.996566  0.807836  1
  Er  Er2  1  0.059553  0.666048  0.190722  1
  Er  Er3  1  0.940336  0.334982  0.808888  1
  Al  Al4  1  0.118384  0.334858  0.331026  1
  Al  Al5  1  0.601540  0.456413  0.815601  1
  Al  Al6  1  0.397897  0.543231  0.184372  1
  Al  Al7  1  0.230275  0.339511  0.669495  1
  Al  Al8  1  0.769853  0.660602  0.330697  1
  Al  Al9  1  0.853243  0.332352  0.558299  1
  Al  Al10  1  0.186158  0.999830  0.558342  1
  Al  Al11  1  0.813954  0.000794  0.440932  1
  Al  Al12  1  0.352500  0.000054  0.055828  1
  Al  Al13  1  0.647409  0.000312  0.944210  1
  Al  Al14  1  0.556225  0.994493  0.670168  1
  Al  Al15  1  0.443852  0.005277  0.330070  1
  Al  Al16  1  0.520680  0.668026  0.560411  1
  Al  Al17  1  0.479746  0.331961  0.439336  1
  Al  Al18  1  0.684546  0.667432  0.048866  1
  Al  Al19  1  0.315027  0.332348  0.951226  1
  Al  Al20  1  0.146377  0.666994  0.440710  1
  Ga  Ga21  1  0.803672  0.870748  0.815181  1
  Ga  Ga22  1  0.196251  0.130488  0.185076  1
  Ga  Ga23  1  0.982105  0.666122  0.940326  1
  Ga  Ga24  1  0.017639  0.333846  0.060299  1
  Ga  Ga25  1  0.400560  0.663217  0.816434  1
  Ga  Ga26  1  0.599766  0.336718  0.183611  1
  Ga  Ga27  1  0.883692  0.664777  0.671683  1
  Pt  Pt28  1  0.335775  0.674055  0.002869  1
  Pt  Pt29  1  0.543355  0.322181  0.637716  1
  Pt  Pt30  1  0.453547  0.674471  0.362139  1
  Pt  Pt31  1  0.888125  0.011744  0.637023  1
  Pt  Pt32  1  0.111804  0.991284  0.362793  1
  Pt  Pt33  1  0.663979  0.325905  0.997032  1
  Pt  Pt34  1  0.206620  0.666845  0.636549  1
  Pt  Pt35  1  0.796843  0.333166  0.362516  1
  Pt  Pt36  1  0.000081  0.000066  0.000123  1
