# generated using pymatgen
data_Dy4TaReOs6
_symmetry_space_group_name_H-M   'P 1'
_cell_length_a   5.26665219
_cell_length_b   5.26665433
_cell_length_c   9.00127300
_cell_angle_alpha   90.00000000
_cell_angle_beta   90.00000000
_cell_angle_gamma   116.38502858
_symmetry_Int_Tables_number   1
_chemical_formula_structural   Dy4TaReOs6
_chemical_formula_sum   'Dy4 Ta1 Re1 Os6'
_cell_volume   223.66497308
_cell_formula_units_Z   1
loop_
 _symmetry_equiv_pos_site_id
 _symmetry_equiv_pos_as_xyz
  1  'x, y, z'
loop_
 _atom_site_type_symbol
 _atom_site_label
 _atom_site_symmetry_multiplicity
 _atom_site_fract_x
 _atom_site_fract_y
 _atom_site_fract_z
 _atom_site_occupancy
  Dy  Dy0  1  0.329266  0.670734  0.438913  1
  Dy  Dy1  1  0.667450  0.332550  0.567260  1
  Dy  Dy2  1  0.667450  0.332550  0.932740  1
  Dy  Dy3  1  0.329266  0.670734  0.061087  1
  Ta  Ta4  1  0.838353  0.161647  0.250000  1
  Re  Re5  1  0.168300  0.831700  0.750000  1
  Os  Os6  1  0.001709  0.998291  0.504816  1
  Os  Os7  1  0.001709  0.998291  0.995184  1
  Os  Os8  1  0.823173  0.651224  0.250000  1
  Os  Os9  1  0.348776  0.176827  0.250000  1
  Os  Os10  1  0.172005  0.347459  0.750000  1
  Os  Os11  1  0.652541  0.827995  0.750000  1
