# generated using pymatgen
data_LiHo4Al17(Ni2Pd)2
_symmetry_space_group_name_H-M   'P 1'
_cell_length_a   7.44336432
_cell_length_b   7.44336363
_cell_length_c   9.30494700
_cell_angle_alpha   90.00000000
_cell_angle_beta   90.00000000
_cell_angle_gamma   118.67248282
_symmetry_Int_Tables_number   1
_chemical_formula_structural   LiHo4Al17(Ni2Pd)2
_chemical_formula_sum   'Li1 Ho4 Al17 Ni4 Pd2'
_cell_volume   452.31241835
_cell_formula_units_Z   1
loop_
 _symmetry_equiv_pos_site_id
 _symmetry_equiv_pos_as_xyz
  1  'x, y, z'
loop_
 _atom_site_type_symbol
 _atom_site_label
 _atom_site_symmetry_multiplicity
 _atom_site_fract_x
 _atom_site_fract_y
 _atom_site_fract_z
 _atom_site_occupancy
  Li  Li0  1  0.139390  0.139390  0.250000  1
  Ho  Ho1  1  0.994682  0.672195  0.250000  1
  Ho  Ho2  1  0.006799  0.323270  0.750000  1
  Ho  Ho3  1  0.672195  0.994682  0.250000  1
  Ho  Ho4  1  0.323270  0.006799  0.750000  1
  Al  Al5  1  0.857986  0.857986  0.750000  1
  Al  Al6  1  0.999263  0.336704  0.079097  1
  Al  Al7  1  0.002417  0.657056  0.925846  1
  Al  Al8  1  0.002417  0.657056  0.574154  1
  Al  Al9  1  0.336704  0.999263  0.420903  1
  Al  Al10  1  0.999263  0.336704  0.420903  1
  Al  Al11  1  0.657056  0.002417  0.574154  1
  Al  Al12  1  0.657056  0.002417  0.925846  1
  Al  Al13  1  0.336704  0.999263  0.079097  1
  Al  Al14  1  0.338801  0.338801  0.540215  1
  Al  Al15  1  0.666328  0.666329  0.447280  1
  Al  Al16  1  0.666328  0.666329  0.052720  1
  Al  Al17  1  0.338801  0.338801  0.959785  1
  Al  Al18  1  0.342298  0.553564  0.250000  1
  Al  Al19  1  0.657246  0.440931  0.750000  1
  Al  Al20  1  0.553564  0.342298  0.250000  1
  Al  Al21  1  0.440931  0.657246  0.750000  1
  Ni  Ni22  1  0.674230  0.331021  0.000232  1
  Ni  Ni23  1  0.331021  0.674230  0.000232  1
  Ni  Ni24  1  0.331021  0.674230  0.499768  1
  Ni  Ni25  1  0.674230  0.331021  0.499768  1
  Pd  Pd26  1  0.000001  0.000001  0.994647  1
  Pd  Pd27  1  0.000001  0.000001  0.505353  1
