# generated using pymatgen
data_TbYPa3O10
_symmetry_space_group_name_H-M   'P 1'
_cell_length_a   6.63027396
_cell_length_b   6.63027465
_cell_length_c   6.65103799
_cell_angle_alpha   99.75342757
_cell_angle_beta   99.44597305
_cell_angle_gamma   131.71529297
_symmetry_Int_Tables_number   1
_chemical_formula_structural   TbYPa3O10
_chemical_formula_sum   'Tb1 Y1 Pa3 O10'
_cell_volume   199.28610446
_cell_formula_units_Z   1
loop_
 _symmetry_equiv_pos_site_id
 _symmetry_equiv_pos_as_xyz
  1  'x, y, z'
loop_
 _atom_site_type_symbol
 _atom_site_label
 _atom_site_symmetry_multiplicity
 _atom_site_fract_x
 _atom_site_fract_y
 _atom_site_fract_z
 _atom_site_occupancy
  Tb  Tb0  1  0.398944  0.201811  0.600755  1
  Y  Y1  1  0.001002  0.998134  0.999135  1
  Pa  Pa2  1  0.796014  0.400575  0.196589  1
  Pa  Pa3  1  0.199943  0.600095  0.800039  1
  Pa  Pa4  1  0.604059  0.799366  0.403425  1
  O  O5  1  0.755642  0.250539  0.496574  1
  O  O6  1  0.153916  0.458828  0.103566  1
  O  O7  1  0.543977  0.653837  0.697577  1
  O  O8  1  0.940130  0.839990  0.299732  1
  O  O9  1  0.355811  0.046271  0.902580  1
  O  O10  1  0.856308  0.546768  0.902580  1
  O  O11  1  0.246035  0.740932  0.496574  1
  O  O12  1  0.644739  0.949650  0.103566  1
  O  O13  1  0.043741  0.153601  0.697577  1
  O  O14  1  0.459740  0.359601  0.299732  1
