# generated using pymatgen
data_Sc15Al7Os8
_symmetry_space_group_name_H-M   'P 1'
_cell_length_a   9.22729792
_cell_length_b   9.22729816
_cell_length_c   9.22729738
_cell_angle_alpha   59.80332054
_cell_angle_beta   59.80332187
_cell_angle_gamma   59.80332162
_symmetry_Int_Tables_number   1
_chemical_formula_structural   Sc15Al7Os8
_chemical_formula_sum   'Sc15 Al7 Os8'
_cell_volume   553.05113544
_cell_formula_units_Z   1
loop_
 _symmetry_equiv_pos_site_id
 _symmetry_equiv_pos_as_xyz
  1  'x, y, z'
loop_
 _atom_site_type_symbol
 _atom_site_label
 _atom_site_symmetry_multiplicity
 _atom_site_fract_x
 _atom_site_fract_y
 _atom_site_fract_z
 _atom_site_occupancy
  Sc  Sc0  1  0.148935  0.148935  0.148935  1
  Sc  Sc1  1  0.205487  0.765107  0.205487  1
  Sc  Sc2  1  0.192016  0.810481  0.810481  1
  Sc  Sc3  1  0.765107  0.205487  0.205487  1
  Sc  Sc4  1  0.810481  0.810481  0.192016  1
  Sc  Sc5  1  0.205487  0.205487  0.765107  1
  Sc  Sc6  1  0.810481  0.192016  0.810481  1
  Sc  Sc7  1  0.374502  0.374502  0.374502  1
  Sc  Sc8  1  0.130393  0.624152  0.624152  1
  Sc  Sc9  1  0.624152  0.130393  0.624152  1
  Sc  Sc10  1  0.624152  0.624152  0.130393  1
  Sc  Sc11  1  0.380365  0.865336  0.380365  1
  Sc  Sc12  1  0.380365  0.380365  0.865336  1
  Sc  Sc13  1  0.865336  0.380365  0.380365  1
  Sc  Sc14  1  0.627956  0.627956  0.627956  1
  Al  Al15  1  0.836878  0.836878  0.836878  1
  Al  Al16  1  0.499830  0.163963  0.163963  1
  Al  Al17  1  0.163963  0.163963  0.499830  1
  Al  Al18  1  0.163963  0.499830  0.163963  1
  Al  Al19  1  0.843180  0.843180  0.481087  1
  Al  Al20  1  0.843180  0.481087  0.843180  1
  Al  Al21  1  0.481087  0.843180  0.843180  1
  Os  Os22  1  0.500436  0.500436  0.002694  1
  Os  Os23  1  0.998033  0.998033  0.511044  1
  Os  Os24  1  0.500436  0.002694  0.500436  1
  Os  Os25  1  0.002694  0.500436  0.500436  1
  Os  Os26  1  0.511044  0.998033  0.998033  1
  Os  Os27  1  0.998033  0.511044  0.998033  1
  Os  Os28  1  0.500223  0.500223  0.500223  1
  Os  Os29  1  0.011807  0.011807  0.011807  1
