# generated using pymatgen
data_Sm3Co8P6W
_symmetry_space_group_name_H-M   'P 1'
_cell_length_a   3.76527800
_cell_length_b   10.66234100
_cell_length_c   12.37306800
_cell_angle_alpha   90.00000000
_cell_angle_beta   90.00000000
_cell_angle_gamma   90.00000000
_symmetry_Int_Tables_number   1
_chemical_formula_structural   Sm3Co8P6W
_chemical_formula_sum   'Sm6 Co16 P12 W2'
_cell_volume   496.73757682
_cell_formula_units_Z   2
loop_
 _symmetry_equiv_pos_site_id
 _symmetry_equiv_pos_as_xyz
  1  'x, y, z'
loop_
 _atom_site_type_symbol
 _atom_site_label
 _atom_site_symmetry_multiplicity
 _atom_site_fract_x
 _atom_site_fract_y
 _atom_site_fract_z
 _atom_site_occupancy
  Sm  Sm0  1  0.000000  0.500000  0.523843  1
  Sm  Sm1  1  0.500000  0.000000  0.476157  1
  Sm  Sm2  1  0.500000  0.818802  0.204936  1
  Sm  Sm3  1  0.500000  0.181198  0.204936  1
  Sm  Sm4  1  0.000000  0.681198  0.795064  1
  Sm  Sm5  1  0.000000  0.318802  0.795064  1
  Co  Co6  1  0.500000  0.500000  0.702227  1
  Co  Co7  1  0.000000  0.000000  0.297773  1
  Co  Co8  1  0.000000  0.500000  0.987583  1
  Co  Co9  1  0.500000  0.000000  0.012417  1
  Co  Co10  1  0.500000  0.332804  0.991324  1
  Co  Co11  1  0.500000  0.667196  0.991324  1
  Co  Co12  1  0.000000  0.167196  0.008676  1
  Co  Co13  1  0.000000  0.832804  0.008676  1
  Co  Co14  1  0.500000  0.295638  0.431016  1
  Co  Co15  1  0.500000  0.704362  0.431016  1
  Co  Co16  1  0.000000  0.204362  0.568984  1
  Co  Co17  1  0.000000  0.795638  0.568984  1
  Co  Co18  1  0.500000  0.879874  0.708581  1
  Co  Co19  1  0.500000  0.120126  0.708581  1
  Co  Co20  1  0.000000  0.620126  0.291419  1
  Co  Co21  1  0.000000  0.379874  0.291419  1
  P  P22  1  0.500000  0.500000  0.883314  1
  P  P23  1  0.000000  0.000000  0.116686  1
  P  P24  1  0.500000  0.500000  0.347073  1
  P  P25  1  0.000000  0.000000  0.652927  1
  P  P26  1  0.500000  0.308551  0.614880  1
  P  P27  1  0.500000  0.691449  0.614880  1
  P  P28  1  0.000000  0.191449  0.385120  1
  P  P29  1  0.000000  0.808551  0.385120  1
  P  P30  1  0.500000  0.845669  0.894638  1
  P  P31  1  0.500000  0.154331  0.894638  1
  P  P32  1  0.000000  0.654331  0.105362  1
  P  P33  1  0.000000  0.345669  0.105362  1
  W  W34  1  0.500000  0.500000  0.154980  1
  W  W35  1  0.000000  0.000000  0.845020  1
