# generated using pymatgen
data_Ti3PO
_symmetry_space_group_name_H-M   'P 1'
_cell_length_a   5.29870743
_cell_length_b   5.29870783
_cell_length_c   7.73920100
_cell_angle_alpha   90.00000000
_cell_angle_beta   90.00000000
_cell_angle_gamma   144.13103588
_symmetry_Int_Tables_number   1
_chemical_formula_structural   Ti3PO
_chemical_formula_sum   'Ti6 P2 O2'
_cell_volume   127.31640310
_cell_formula_units_Z   2
loop_
 _symmetry_equiv_pos_site_id
 _symmetry_equiv_pos_as_xyz
  1  'x, y, z'
loop_
 _atom_site_type_symbol
 _atom_site_label
 _atom_site_symmetry_multiplicity
 _atom_site_fract_x
 _atom_site_fract_y
 _atom_site_fract_z
 _atom_site_occupancy
  Ti  Ti0  1  0.939890  0.060110  0.250000  1
  Ti  Ti1  1  0.060110  0.939890  0.750000  1
  Ti  Ti2  1  0.640814  0.359186  0.443713  1
  Ti  Ti3  1  0.359186  0.640814  0.556287  1
  Ti  Ti4  1  0.640814  0.359186  0.056287  1
  Ti  Ti5  1  0.359186  0.640814  0.943713  1
  P  P6  1  0.255250  0.744750  0.250000  1
  P  P7  1  0.744750  0.255250  0.750000  1
  O  O8  1  0.000000  0.000000  0.500000  1
  O  O9  1  0.000000  0.000000  0.000000  1
