# generated using pymatgen
data_DyZn3CuPd
_symmetry_space_group_name_H-M   'P 1'
_cell_length_a   5.10972936
_cell_length_b   5.14877985
_cell_length_c   5.14877900
_cell_angle_alpha   59.99999905
_cell_angle_beta   59.74686750
_cell_angle_gamma   59.74686317
_symmetry_Int_Tables_number   1
_chemical_formula_structural   DyZn3CuPd
_chemical_formula_sum   'Dy1 Zn3 Cu1 Pd1'
_cell_volume   95.41555147
_cell_formula_units_Z   1
loop_
 _symmetry_equiv_pos_site_id
 _symmetry_equiv_pos_as_xyz
  1  'x, y, z'
loop_
 _atom_site_type_symbol
 _atom_site_label
 _atom_site_symmetry_multiplicity
 _atom_site_fract_x
 _atom_site_fract_y
 _atom_site_fract_z
 _atom_site_occupancy
  Dy  Dy0  1  0.248213  0.250596  0.250596  1
  Zn  Zn1  1  0.626333  0.626628  0.626628  1
  Zn  Zn2  1  0.626333  0.626628  0.120411  1
  Zn  Zn3  1  0.626333  0.120411  0.626628  1
  Cu  Cu4  1  0.123721  0.625426  0.625426  1
  Pd  Pd5  1  0.999065  0.000312  0.000312  1
