# generated using pymatgen
data_Tb5ErCoTe2
_symmetry_space_group_name_H-M   'P 1'
_cell_length_a   8.38988198
_cell_length_b   8.44612541
_cell_length_c   3.93185700
_cell_angle_alpha   90.00000000
_cell_angle_beta   90.00000000
_cell_angle_gamma   120.22201176
_symmetry_Int_Tables_number   1
_chemical_formula_structural   Tb5ErCoTe2
_chemical_formula_sum   'Tb5 Er1 Co1 Te2'
_cell_volume   240.74972149
_cell_formula_units_Z   1
loop_
 _symmetry_equiv_pos_site_id
 _symmetry_equiv_pos_as_xyz
  1  'x, y, z'
loop_
 _atom_site_type_symbol
 _atom_site_label
 _atom_site_symmetry_multiplicity
 _atom_site_fract_x
 _atom_site_fract_y
 _atom_site_fract_z
 _atom_site_occupancy
  Tb  Tb0  1  0.000000  0.402791  0.500000  1
  Tb  Tb1  1  0.600055  0.600227  0.500000  1
  Tb  Tb2  1  0.399945  0.000172  0.500000  1
  Tb  Tb3  1  0.235656  0.236369  0.000000  1
  Tb  Tb4  1  0.764344  0.000714  0.000000  1
  Er  Er5  1  0.000000  0.765891  0.000000  1
  Co  Co6  1  0.000000  0.992262  0.500000  1
  Te  Te7  1  0.331061  0.666318  0.000000  1
  Te  Te8  1  0.668939  0.335256  0.000000  1
