# generated using pymatgen
data_Tb4Al17CuPd6
_symmetry_space_group_name_H-M   'P 1'
_cell_length_a   7.60446498
_cell_length_b   7.60446535
_cell_length_c   9.46381300
_cell_angle_alpha   90.00000000
_cell_angle_beta   90.00000000
_cell_angle_gamma   119.15664422
_symmetry_Int_Tables_number   1
_chemical_formula_structural   Tb4Al17CuPd6
_chemical_formula_sum   'Tb4 Al17 Cu1 Pd6'
_cell_volume   477.92800513
_cell_formula_units_Z   1
loop_
 _symmetry_equiv_pos_site_id
 _symmetry_equiv_pos_as_xyz
  1  'x, y, z'
loop_
 _atom_site_type_symbol
 _atom_site_label
 _atom_site_symmetry_multiplicity
 _atom_site_fract_x
 _atom_site_fract_y
 _atom_site_fract_z
 _atom_site_occupancy
  Tb  Tb0  1  0.991402  0.669823  0.250000  1
  Tb  Tb1  1  0.006241  0.329398  0.750000  1
  Tb  Tb2  1  0.669823  0.991402  0.250000  1
  Tb  Tb3  1  0.329398  0.006241  0.750000  1
  Al  Al4  1  0.867191  0.867191  0.750000  1
  Al  Al5  1  0.004004  0.326983  0.083391  1
  Al  Al6  1  0.999585  0.664018  0.923796  1
  Al  Al7  1  0.999585  0.664018  0.576204  1
  Al  Al8  1  0.326983  0.004004  0.416609  1
  Al  Al9  1  0.004004  0.326983  0.416609  1
  Al  Al10  1  0.664016  0.999584  0.576205  1
  Al  Al11  1  0.664016  0.999584  0.923795  1
  Al  Al12  1  0.326983  0.004004  0.083391  1
  Al  Al13  1  0.333395  0.333395  0.551599  1
  Al  Al14  1  0.666337  0.666337  0.442123  1
  Al  Al15  1  0.666337  0.666337  0.057877  1
  Al  Al16  1  0.333395  0.333395  0.948401  1
  Al  Al17  1  0.337288  0.542661  0.250000  1
  Al  Al18  1  0.660313  0.451440  0.750000  1
  Al  Al19  1  0.542661  0.337288  0.250000  1
  Al  Al20  1  0.451440  0.660313  0.750000  1
  Cu  Cu21  1  0.155527  0.155527  0.250000  1
  Pd  Pd22  1  0.674930  0.328123  0.000687  1
  Pd  Pd23  1  0.328123  0.674930  0.000687  1
  Pd  Pd24  1  0.328123  0.674930  0.499313  1
  Pd  Pd25  1  0.674930  0.328123  0.499313  1
  Pd  Pd26  1  0.996984  0.996984  0.993796  1
  Pd  Pd27  1  0.996984  0.996984  0.506204  1
