# generated using pymatgen
data_Mg4Zn6PdRh
_symmetry_space_group_name_H-M   'P 1'
_cell_length_a   5.19042793
_cell_length_b   5.25311689
_cell_length_c   8.39055900
_cell_angle_alpha   90.00000000
_cell_angle_beta   90.00000000
_cell_angle_gamma   120.53750524
_symmetry_Int_Tables_number   1
_chemical_formula_structural   Mg4Zn6PdRh
_chemical_formula_sum   'Mg4 Zn6 Pd1 Rh1'
_cell_volume   197.04432522
_cell_formula_units_Z   1
loop_
 _symmetry_equiv_pos_site_id
 _symmetry_equiv_pos_as_xyz
  1  'x, y, z'
loop_
 _atom_site_type_symbol
 _atom_site_label
 _atom_site_symmetry_multiplicity
 _atom_site_fract_x
 _atom_site_fract_y
 _atom_site_fract_z
 _atom_site_occupancy
  Mg  Mg0  1  0.326176  0.659329  0.067888  1
  Mg  Mg1  1  0.674802  0.329786  0.562545  1
  Mg  Mg2  1  0.674802  0.329786  0.937455  1
  Mg  Mg3  1  0.326176  0.659329  0.432112  1
  Zn  Zn4  1  0.997153  0.010378  0.001594  1
  Zn  Zn5  1  0.997153  0.010378  0.498406  1
  Zn  Zn6  1  0.339618  0.166531  0.250000  1
  Zn  Zn7  1  0.661636  0.827812  0.750000  1
  Zn  Zn8  1  0.169033  0.832868  0.750000  1
  Zn  Zn9  1  0.830673  0.660392  0.250000  1
  Pd  Pd10  1  0.178078  0.345435  0.750000  1
  Rh  Rh11  1  0.824698  0.167974  0.250000  1
