# generated using pymatgen
data_Tb4PrNdCoBr10
_symmetry_space_group_name_H-M   'P 1'
_cell_length_a   7.44164472
_cell_length_b   9.29365476
_cell_length_c   9.31423599
_cell_angle_alpha   108.67143441
_cell_angle_beta   96.94027274
_cell_angle_gamma   104.41903747
_symmetry_Int_Tables_number   1
_chemical_formula_structural   Tb4PrNdCoBr10
_chemical_formula_sum   'Tb4 Pr1 Nd1 Co1 Br10'
_cell_volume   576.75511185
_cell_formula_units_Z   1
loop_
 _symmetry_equiv_pos_site_id
 _symmetry_equiv_pos_as_xyz
  1  'x, y, z'
loop_
 _atom_site_type_symbol
 _atom_site_label
 _atom_site_symmetry_multiplicity
 _atom_site_fract_x
 _atom_site_fract_y
 _atom_site_fract_z
 _atom_site_occupancy
  Tb  Tb0  1  0.877945  0.956278  0.745712  1
  Tb  Tb1  1  0.121996  0.043386  0.254144  1
  Tb  Tb2  1  0.355428  0.129567  0.678071  1
  Tb  Tb3  1  0.644671  0.869847  0.321843  1
  Pr  Pr4  1  0.967615  0.288686  0.591491  1
  Nd  Nd5  1  0.031985  0.712739  0.408805  1
  Co  Co6  1  0.999926  0.999737  0.499903  1
  Br  Br7  1  0.459577  0.825799  0.584619  1
  Br  Br8  1  0.539051  0.173499  0.414665  1
  Br  Br9  1  0.910224  0.638868  0.679514  1
  Br  Br10  1  0.090302  0.362119  0.319166  1
  Br  Br11  1  0.248681  0.084191  0.956251  1
  Br  Br12  1  0.751272  0.915752  0.043775  1
  Br  Br13  1  0.362255  0.448018  0.772898  1
  Br  Br14  1  0.640270  0.552254  0.227937  1
  Br  Br15  1  0.775111  0.248417  0.852497  1
  Br  Br16  1  0.223690  0.750841  0.148708  1
