# generated using pymatgen
data_Pm4Ru3
_symmetry_space_group_name_H-M   'P 1'
_cell_length_a   6.29453991
_cell_length_b   4.99100579
_cell_length_c   6.29097000
_cell_angle_alpha   113.32662016
_cell_angle_beta   75.98997713
_cell_angle_gamma   113.31185577
_symmetry_Int_Tables_number   1
_chemical_formula_structural   Pm4Ru3
_chemical_formula_sum   'Pm4 Ru3'
_cell_volume   165.81112108
_cell_formula_units_Z   1
loop_
 _symmetry_equiv_pos_site_id
 _symmetry_equiv_pos_as_xyz
  1  'x, y, z'
loop_
 _atom_site_type_symbol
 _atom_site_label
 _atom_site_symmetry_multiplicity
 _atom_site_fract_x
 _atom_site_fract_y
 _atom_site_fract_z
 _atom_site_occupancy
  Pm  Pm0  1  0.824760  0.072230  0.824473  1
  Pm  Pm1  1  0.337278  0.084170  0.337326  1
  Pm  Pm2  1  0.750121  0.744888  0.244577  1
  Pm  Pm3  1  0.244667  0.745466  0.750994  1
  Ru  Ru4  1  0.166420  0.411582  0.162406  1
  Ru  Ru5  1  0.837725  0.412676  0.492586  1
  Ru  Ru6  1  0.496641  0.412465  0.833160  1
