# generated using pymatgen
data_HoSi4(PdRh)3
_symmetry_space_group_name_H-M   'P 1'
_cell_length_a   7.12300800
_cell_length_b   7.12300724
_cell_length_c   3.78196100
_cell_angle_alpha   90.00000000
_cell_angle_beta   90.00000000
_cell_angle_gamma   120.00000354
_symmetry_Int_Tables_number   1
_chemical_formula_structural   HoSi4(PdRh)3
_chemical_formula_sum   'Ho1 Si4 Pd3 Rh3'
_cell_volume   166.17836436
_cell_formula_units_Z   1
loop_
 _symmetry_equiv_pos_site_id
 _symmetry_equiv_pos_as_xyz
  1  'x, y, z'
loop_
 _atom_site_type_symbol
 _atom_site_label
 _atom_site_symmetry_multiplicity
 _atom_site_fract_x
 _atom_site_fract_y
 _atom_site_fract_z
 _atom_site_occupancy
  Ho  Ho0  1  0.000000  0.000000  0.000000  1
  Si  Si1  1  0.333334  0.666667  0.000000  1
  Si  Si2  1  0.402807  0.201402  0.499999  1
  Si  Si3  1  0.798597  0.201402  0.499999  1
  Si  Si4  1  0.798597  0.597193  0.499999  1
  Pd  Pd5  1  0.195749  0.391499  0.499999  1
  Pd  Pd6  1  0.195749  0.804250  0.499999  1
  Pd  Pd7  1  0.608501  0.804250  0.499999  1
  Rh  Rh8  1  0.533755  0.067511  0.000000  1
  Rh  Rh9  1  0.932488  0.466245  0.000000  1
  Rh  Rh10  1  0.533756  0.466245  0.000000  1
