# generated using pymatgen
data_Ta4Cr3Ga4Ni
_symmetry_space_group_name_H-M   'P 1'
_cell_length_a   4.90938191
_cell_length_b   4.91020158
_cell_length_c   8.27018600
_cell_angle_alpha   90.00000000
_cell_angle_beta   90.00000000
_cell_angle_gamma   61.01830202
_symmetry_Int_Tables_number   1
_chemical_formula_structural   Ta4Cr3Ga4Ni
_chemical_formula_sum   'Ta4 Cr3 Ga4 Ni1'
_cell_volume   174.39641126
_cell_formula_units_Z   1
loop_
 _symmetry_equiv_pos_site_id
 _symmetry_equiv_pos_as_xyz
  1  'x, y, z'
loop_
 _atom_site_type_symbol
 _atom_site_label
 _atom_site_symmetry_multiplicity
 _atom_site_fract_x
 _atom_site_fract_y
 _atom_site_fract_z
 _atom_site_occupancy
  Ta  Ta0  1  0.334734  0.334655  0.554943  1
  Ta  Ta1  1  0.664634  0.664646  0.430741  1
  Ta  Ta2  1  0.664634  0.664646  0.069259  1
  Ta  Ta3  1  0.334734  0.334655  0.945057  1
  Cr  Cr4  1  0.173158  0.646270  0.250000  1
  Cr  Cr5  1  0.646167  0.173296  0.250000  1
  Cr  Cr6  1  0.172836  0.172982  0.250000  1
  Ga  Ga7  1  0.992647  0.992623  0.497470  1
  Ga  Ga8  1  0.992647  0.992623  0.002530  1
  Ga  Ga9  1  0.833785  0.352014  0.750000  1
  Ga  Ga10  1  0.352105  0.833708  0.750000  1
  Ni  Ni11  1  0.837916  0.837880  0.750000  1
