# generated using pymatgen
data_NaNd2Ga8Ag3
_symmetry_space_group_name_H-M   'P 1'
_cell_length_a   4.39856944
_cell_length_b   8.50771811
_cell_length_c   8.50771929
_cell_angle_alpha   70.74456879
_cell_angle_beta   75.01865266
_cell_angle_gamma   75.01865058
_symmetry_Int_Tables_number   1
_chemical_formula_structural   NaNd2Ga8Ag3
_chemical_formula_sum   'Na1 Nd2 Ga8 Ag3'
_cell_volume   285.05961687
_cell_formula_units_Z   1
loop_
 _symmetry_equiv_pos_site_id
 _symmetry_equiv_pos_as_xyz
  1  'x, y, z'
loop_
 _atom_site_type_symbol
 _atom_site_label
 _atom_site_symmetry_multiplicity
 _atom_site_fract_x
 _atom_site_fract_y
 _atom_site_fract_z
 _atom_site_occupancy
  Na  Na0  1  0.000000  0.000000  0.000000  1
  Nd  Nd1  1  0.295932  0.704068  0.704068  1
  Nd  Nd2  1  0.704068  0.295932  0.295932  1
  Ga  Ga3  1  0.338497  0.296964  0.026041  1
  Ga  Ga4  1  0.661503  0.703036  0.973959  1
  Ga  Ga5  1  0.338497  0.026041  0.296964  1
  Ga  Ga6  1  0.661503  0.973959  0.703036  1
  Ga  Ga7  1  0.140609  0.580253  0.138529  1
  Ga  Ga8  1  0.859391  0.419747  0.861471  1
  Ga  Ga9  1  0.140609  0.138529  0.580253  1
  Ga  Ga10  1  0.859391  0.861471  0.419747  1
  Ag  Ag11  1  0.500000  0.305670  0.694330  1
  Ag  Ag12  1  0.500000  0.694330  0.305670  1
  Ag  Ag13  1  0.000000  0.500000  0.500000  1
