# generated using pymatgen
data_Ta12Mn3Al8CrC4
_symmetry_space_group_name_H-M   'P 1'
_cell_length_a   8.23674576
_cell_length_b   8.23674611
_cell_length_c   8.23579503
_cell_angle_alpha   59.99617590
_cell_angle_beta   59.99617971
_cell_angle_gamma   59.99999846
_symmetry_Int_Tables_number   1
_chemical_formula_structural   Ta12Mn3Al8CrC4
_chemical_formula_sum   'Ta12 Mn3 Al8 Cr1 C4'
_cell_volume   395.07247605
_cell_formula_units_Z   1
loop_
 _symmetry_equiv_pos_site_id
 _symmetry_equiv_pos_as_xyz
  1  'x, y, z'
loop_
 _atom_site_type_symbol
 _atom_site_label
 _atom_site_symmetry_multiplicity
 _atom_site_fract_x
 _atom_site_fract_y
 _atom_site_fract_z
 _atom_site_occupancy
  Ta  Ta0  1  0.555332  0.944122  0.556424  1
  Ta  Ta1  1  0.305878  0.694668  0.693576  1
  Ta  Ta2  1  0.693796  0.306464  0.305944  1
  Ta  Ta3  1  0.306464  0.693796  0.305944  1
  Ta  Ta4  1  0.693796  0.693796  0.305944  1
  Ta  Ta5  1  0.305878  0.305878  0.693576  1
  Ta  Ta6  1  0.556204  0.556204  0.944056  1
  Ta  Ta7  1  0.944122  0.555332  0.556424  1
  Ta  Ta8  1  0.556204  0.943536  0.944056  1
  Ta  Ta9  1  0.944122  0.944122  0.556424  1
  Ta  Ta10  1  0.694668  0.305878  0.693576  1
  Ta  Ta11  1  0.943536  0.556204  0.944056  1
  Mn  Mn12  1  0.125000  0.125000  0.125000  1
  Mn  Mn13  1  0.625000  0.125000  0.125000  1
  Mn  Mn14  1  0.125000  0.625000  0.125000  1
  Al  Al15  1  0.916174  0.916174  0.917568  1
  Al  Al16  1  0.999915  0.333826  0.332432  1
  Al  Al17  1  0.333826  0.999915  0.332432  1
  Al  Al18  1  0.333213  0.333213  0.000359  1
  Al  Al19  1  0.916174  0.250085  0.917568  1
  Al  Al20  1  0.916787  0.916787  0.249641  1
  Al  Al21  1  0.250085  0.916174  0.917568  1
  Al  Al22  1  0.333826  0.333826  0.332432  1
  Cr  Cr23  1  0.125000  0.125000  0.625000  1
  C  C24  1  0.625000  0.625000  0.625000  1
  C  C25  1  0.125000  0.625000  0.625000  1
  C  C26  1  0.625000  0.125000  0.625000  1
  C  C27  1  0.625000  0.625000  0.125000  1
