# generated using pymatgen
data_Tm3Al12Ru3Au
_symmetry_space_group_name_H-M   'P 1'
_cell_length_a   8.85140250
_cell_length_b   8.80128987
_cell_length_c   9.54654740
_cell_angle_alpha   90.00000049
_cell_angle_beta   89.97061972
_cell_angle_gamma   119.81290234
_symmetry_Int_Tables_number   1
_chemical_formula_structural   Tm3Al12Ru3Au
_chemical_formula_sum   'Tm6 Al24 Ru6 Au2'
_cell_volume   645.28415972
_cell_formula_units_Z   2
loop_
 _symmetry_equiv_pos_site_id
 _symmetry_equiv_pos_as_xyz
  1  'x, y, z'
loop_
 _atom_site_type_symbol
 _atom_site_label
 _atom_site_symmetry_multiplicity
 _atom_site_fract_x
 _atom_site_fract_y
 _atom_site_fract_z
 _atom_site_occupancy
  Tm  Tm0  1  0.807818  0.196698  0.746133  1
  Tm  Tm1  1  0.192182  0.803302  0.253867  1
  Tm  Tm2  1  0.387416  0.193708  0.750474  1
  Tm  Tm3  1  0.612584  0.806292  0.249526  1
  Tm  Tm4  1  0.807818  0.611120  0.746133  1
  Tm  Tm5  1  0.192182  0.388880  0.253867  1
  Al  Al6  1  0.678644  0.339322  0.969395  1
  Al  Al7  1  0.321356  0.660678  0.030605  1
  Al  Al8  1  0.333744  0.666873  0.473663  1
  Al  Al9  1  0.666256  0.333127  0.526337  1
  Al  Al10  1  0.836105  0.162871  0.423683  1
  Al  Al11  1  0.163895  0.837129  0.576317  1
  Al  Al12  1  0.325718  0.162859  0.426533  1
  Al  Al13  1  0.151947  0.829023  0.918145  1
  Al  Al14  1  0.674282  0.837141  0.573467  1
  Al  Al15  1  0.848053  0.170977  0.081855  1
  Al  Al16  1  0.836105  0.673234  0.423683  1
  Al  Al17  1  0.682388  0.841194  0.915122  1
  Al  Al18  1  0.163895  0.326766  0.576317  1
  Al  Al19  1  0.317612  0.158806  0.084878  1
  Al  Al20  1  0.151947  0.322923  0.918145  1
  Al  Al21  1  0.848053  0.677077  0.081855  1
  Al  Al22  1  0.436164  0.563298  0.743310  1
  Al  Al23  1  0.563836  0.436702  0.256690  1
  Al  Al24  1  0.121495  0.560748  0.750385  1
  Al  Al25  1  0.878505  0.439252  0.249615  1
  Al  Al26  1  0.436164  0.872867  0.743310  1
  Al  Al27  1  0.563836  0.127133  0.256690  1
  Al  Al28  1  0.003149  0.001575  0.749118  1
  Al  Al29  1  0.996851  0.998425  0.250882  1
  Ru  Ru30  1  0.000000  0.500000  0.000000  1
  Ru  Ru31  1  0.500000  0.500000  0.500000  1
  Ru  Ru32  1  0.000000  0.500000  0.500000  1
  Ru  Ru33  1  0.500000  0.000000  0.500000  1
  Ru  Ru34  1  0.000000  0.000000  0.000000  1
  Ru  Ru35  1  0.000000  0.000000  0.500000  1
  Au  Au36  1  0.500000  0.500000  0.000000  1
  Au  Au37  1  0.500000  0.000000  0.000000  1
