# generated using pymatgen
data_NaPH4
_symmetry_space_group_name_H-M   'P 1'
_cell_length_a   3.92084228
_cell_length_b   4.64490059
_cell_length_c   5.88970650
_cell_angle_alpha   83.44113549
_cell_angle_beta   82.66312734
_cell_angle_gamma   92.43134267
_symmetry_Int_Tables_number   1
_chemical_formula_structural   NaPH4
_chemical_formula_sum   'Na1 P1 H4'
_cell_volume   105.51132780
_cell_formula_units_Z   1
loop_
 _symmetry_equiv_pos_site_id
 _symmetry_equiv_pos_as_xyz
  1  'x, y, z'
loop_
 _atom_site_type_symbol
 _atom_site_label
 _atom_site_symmetry_multiplicity
 _atom_site_fract_x
 _atom_site_fract_y
 _atom_site_fract_z
 _atom_site_occupancy
  Na  Na0  1  0.056488  0.337089  0.281828  1
  P  P1  1  0.577458  0.827626  0.292035  1
  H  H2  1  0.372625  0.866207  0.106825  1
  H  H3  1  0.282779  0.827044  0.463258  1
  H  H4  1  0.006508  0.196918  0.809280  1
  H  H5  1  0.087720  0.339318  0.747744  1
