# generated using pymatgen
data_Er3Pa(Co5P3)4
_symmetry_space_group_name_H-M   'P 1'
_cell_length_a   3.65391800
_cell_length_b   10.27639800
_cell_length_c   11.69524700
_cell_angle_alpha   90.00105455
_cell_angle_beta   90.00000000
_cell_angle_gamma   90.00000000
_symmetry_Int_Tables_number   1
_chemical_formula_structural   Er3Pa(Co5P3)4
_chemical_formula_sum   'Er3 Pa1 Co20 P12'
_cell_volume   439.14618186
_cell_formula_units_Z   1
loop_
 _symmetry_equiv_pos_site_id
 _symmetry_equiv_pos_as_xyz
  1  'x, y, z'
loop_
 _atom_site_type_symbol
 _atom_site_label
 _atom_site_symmetry_multiplicity
 _atom_site_fract_x
 _atom_site_fract_y
 _atom_site_fract_z
 _atom_site_occupancy
  Er  Er0  1  0.250000  0.917069  0.202044  1
  Er  Er1  1  0.750000  0.416740  0.298364  1
  Er  Er2  1  0.750000  0.082609  0.797436  1
  Pa  Pa3  1  0.250000  0.582601  0.703007  1
  Co  Co4  1  0.250000  0.717256  0.990162  1
  Co  Co5  1  0.250000  0.781649  0.490992  1
  Co  Co6  1  0.750000  0.282486  0.006430  1
  Co  Co7  1  0.750000  0.216060  0.505964  1
  Co  Co8  1  0.250000  0.407863  0.487794  1
  Co  Co9  1  0.250000  0.092529  0.988009  1
  Co  Co10  1  0.750000  0.592641  0.516881  1
  Co  Co11  1  0.750000  0.906540  0.011859  1
  Co  Co12  1  0.250000  0.221643  0.176584  1
  Co  Co13  1  0.250000  0.277823  0.677495  1
  Co  Co14  1  0.750000  0.777073  0.822059  1
  Co  Co15  1  0.750000  0.721260  0.323841  1
  Co  Co16  1  0.250000  0.883140  0.698614  1
  Co  Co17  1  0.250000  0.617237  0.198876  1
  Co  Co18  1  0.750000  0.116428  0.300304  1
  Co  Co19  1  0.750000  0.386951  0.800297  1
  Co  Co20  1  0.250000  0.467107  0.931724  1
  Co  Co21  1  0.250000  0.032114  0.431115  1
  Co  Co22  1  0.750000  0.530967  0.070542  1
  Co  Co23  1  0.750000  0.970884  0.567934  1
  P  P24  1  0.250000  0.418301  0.114036  1
  P  P25  1  0.250000  0.081807  0.612752  1
  P  P26  1  0.750000  0.583141  0.892291  1
  P  P27  1  0.750000  0.918843  0.386876  1
  P  P28  1  0.250000  0.268936  0.870814  1
  P  P29  1  0.250000  0.229345  0.368968  1
  P  P30  1  0.750000  0.729849  0.130047  1
  P  P31  1  0.750000  0.775958  0.628504  1
  P  P32  1  0.250000  0.601180  0.389735  1
  P  P33  1  0.250000  0.899945  0.891147  1
  P  P34  1  0.750000  0.393058  0.607780  1
  P  P35  1  0.750000  0.100965  0.108725  1
