# generated using pymatgen
data_TbYbCo6(GeB)2
_symmetry_space_group_name_H-M   'P 1'
_cell_length_a   5.19255200
_cell_length_b   5.19307217
_cell_length_c   6.53381400
_cell_angle_alpha   90.00000000
_cell_angle_beta   90.00000000
_cell_angle_gamma   119.99669930
_symmetry_Int_Tables_number   1
_chemical_formula_structural   TbYbCo6(GeB)2
_chemical_formula_sum   'Tb1 Yb1 Co6 Ge2 B2'
_cell_volume   152.58683168
_cell_formula_units_Z   1
loop_
 _symmetry_equiv_pos_site_id
 _symmetry_equiv_pos_as_xyz
  1  'x, y, z'
loop_
 _atom_site_type_symbol
 _atom_site_label
 _atom_site_symmetry_multiplicity
 _atom_site_fract_x
 _atom_site_fract_y
 _atom_site_fract_z
 _atom_site_occupancy
  Tb  Tb0  1  0.999988  0.000000  0.500000  1
  Yb  Yb1  1  0.999976  0.000000  0.000000  1
  Co  Co2  1  0.499987  0.000000  0.291798  1
  Co  Co3  1  0.499986  0.500001  0.291786  1
  Co  Co4  1  0.999984  0.499999  0.291786  1
  Co  Co5  1  0.499987  0.000000  0.708202  1
  Co  Co6  1  0.499986  0.500001  0.708214  1
  Co  Co7  1  0.999984  0.499999  0.708214  1
  Ge  Ge8  1  0.333308  0.666658  0.000000  1
  Ge  Ge9  1  0.666650  0.333342  0.000000  1
  B  B10  1  0.333316  0.666665  0.500000  1
  B  B11  1  0.666650  0.333335  0.500000  1
