# generated using pymatgen
data_MnZn6Ru12W5
_symmetry_space_group_name_H-M   'P 1'
_cell_length_a   4.32088100
_cell_length_b   6.12392300
_cell_length_c   12.94794300
_cell_angle_alpha   89.99973133
_cell_angle_beta   89.99808502
_cell_angle_gamma   90.00005459
_symmetry_Int_Tables_number   1
_chemical_formula_structural   MnZn6Ru12W5
_chemical_formula_sum   'Mn1 Zn6 Ru12 W5'
_cell_volume   342.61218600
_cell_formula_units_Z   1
loop_
 _symmetry_equiv_pos_site_id
 _symmetry_equiv_pos_as_xyz
  1  'x, y, z'
loop_
 _atom_site_type_symbol
 _atom_site_label
 _atom_site_symmetry_multiplicity
 _atom_site_fract_x
 _atom_site_fract_y
 _atom_site_fract_z
 _atom_site_occupancy
  Mn  Mn0  1  0.999994  0.999936  0.999983  1
  Zn  Zn1  1  0.000000  0.499994  0.000001  1
  Zn  Zn2  1  0.499877  0.000011  0.166019  1
  Zn  Zn3  1  0.999874  0.499999  0.331944  1
  Zn  Zn4  1  0.500002  0.000007  0.500002  1
  Zn  Zn5  1  0.000129  0.500000  0.668055  1
  Zn  Zn6  1  0.500124  0.000010  0.833982  1
  Ru  Ru7  1  0.499990  0.245602  0.000004  1
  Ru  Ru8  1  0.499989  0.754396  0.000004  1
  Ru  Ru9  1  0.999876  0.248305  0.165574  1
  Ru  Ru10  1  0.999874  0.751696  0.165575  1
  Ru  Ru11  1  0.499884  0.250126  0.333035  1
  Ru  Ru12  1  0.499884  0.749885  0.333035  1
  Ru  Ru13  1  0.999999  0.250338  0.499996  1
  Ru  Ru14  1  0.999999  0.749661  0.499997  1
  Ru  Ru15  1  0.500119  0.250134  0.666961  1
  Ru  Ru16  1  0.500120  0.749875  0.666961  1
  Ru  Ru17  1  0.000129  0.248292  0.834430  1
  Ru  Ru18  1  0.000130  0.751710  0.834430  1
  W  W19  1  0.499661  0.500004  0.162655  1
  W  W20  1  0.999715  0.000005  0.331170  1
  W  W21  1  0.500001  0.500004  0.500013  1
  W  W22  1  0.000289  0.000009  0.668845  1
  W  W23  1  0.500341  0.499997  0.837335  1
