# generated using pymatgen
data_Hf8Al14BRh7
_symmetry_space_group_name_H-M   'P 1'
_cell_length_a   8.83153851
_cell_length_b   8.83153562
_cell_length_c   8.83154100
_cell_angle_alpha   120.12153950
_cell_angle_beta   119.76087938
_cell_angle_gamma   90.10215804
_symmetry_Int_Tables_number   1
_chemical_formula_structural   Hf8Al14BRh7
_chemical_formula_sum   'Hf8 Al14 B1 Rh7'
_cell_volume   487.49892124
_cell_formula_units_Z   1
loop_
 _symmetry_equiv_pos_site_id
 _symmetry_equiv_pos_as_xyz
  1  'x, y, z'
loop_
 _atom_site_type_symbol
 _atom_site_label
 _atom_site_symmetry_multiplicity
 _atom_site_fract_x
 _atom_site_fract_y
 _atom_site_fract_z
 _atom_site_occupancy
  Hf  Hf0  1  0.816712  0.312828  0.123164  1
  Hf  Hf1  1  0.189667  0.312824  0.496118  1
  Hf  Hf2  1  0.183704  0.683710  0.500002  1
  Hf  Hf3  1  0.189672  0.693562  0.876855  1
  Hf  Hf4  1  0.816708  0.693560  0.503895  1
  Hf  Hf5  1  0.806116  0.306121  0.499997  1
  Hf  Hf6  1  0.380216  0.119376  0.739155  1
  Hf  Hf7  1  0.380217  0.641065  0.260854  1
  Al  Al8  1  0.162087  0.329745  0.167663  1
  Al  Al9  1  0.162093  0.994431  0.832340  1
  Al  Al10  1  0.155720  0.335865  0.819881  1
  Al  Al11  1  0.515975  0.335862  0.180120  1
  Al  Al12  1  0.834951  0.663638  0.828703  1
  Al  Al13  1  0.834956  0.006256  0.171309  1
  Al  Al14  1  0.835038  0.664478  0.170591  1
  Al  Al15  1  0.493885  0.664476  0.829415  1
  Al  Al16  1  0.380416  0.119502  0.260909  1
  Al  Al17  1  0.858595  0.119507  0.739099  1
  Al  Al18  1  0.622567  0.880868  0.258294  1
  Al  Al19  1  0.622573  0.364279  0.741709  1
  Al  Al20  1  0.624458  0.880345  0.744110  1
  Al  Al21  1  0.136241  0.880351  0.255907  1
  B  B22  1  0.994009  0.494004  0.500003  1
  Rh  Rh23  1  0.001214  0.000624  0.501630  1
  Rh  Rh24  1  0.499021  0.000703  0.999468  1
  Rh  Rh25  1  0.498436  0.498497  0.999884  1
  Rh  Rh26  1  0.498917  0.499441  0.498301  1
  Rh  Rh27  1  0.001160  0.499468  0.000567  1
  Rh  Rh28  1  0.999697  0.999646  0.000047  1
  Rh  Rh29  1  0.504973  0.004967  0.500010  1
