# generated using pymatgen
data_Ho9Er(In2Pt)4
_symmetry_space_group_name_H-M   'P 1'
_cell_length_a   3.62285800
_cell_length_b   8.13614109
_cell_length_c   18.22583521
_cell_angle_alpha   90.01737038
_cell_angle_beta   90.00000000
_cell_angle_gamma   90.00000000
_symmetry_Int_Tables_number   1
_chemical_formula_structural   Ho9Er(In2Pt)4
_chemical_formula_sum   'Ho9 Er1 In8 Pt4'
_cell_volume   537.22622217
_cell_formula_units_Z   1
loop_
 _symmetry_equiv_pos_site_id
 _symmetry_equiv_pos_as_xyz
  1  'x, y, z'
loop_
 _atom_site_type_symbol
 _atom_site_label
 _atom_site_symmetry_multiplicity
 _atom_site_fract_x
 _atom_site_fract_y
 _atom_site_fract_z
 _atom_site_occupancy
  Ho  Ho0  1  0.000000  0.884444  0.585416  1
  Ho  Ho1  1  0.000000  0.384396  0.914565  1
  Ho  Ho2  1  0.000000  0.615607  0.085484  1
  Ho  Ho3  1  0.000000  0.243336  0.219864  1
  Ho  Ho4  1  0.000000  0.756611  0.780176  1
  Ho  Ho5  1  0.000000  0.256575  0.719822  1
  Ho  Ho6  1  0.000000  0.743488  0.280246  1
  Ho  Ho7  1  0.000000  0.000011  0.000014  1
  Ho  Ho8  1  0.000000  0.499928  0.499982  1
  Er  Er9  1  0.000000  0.115423  0.414208  1
  In  In10  1  0.500000  0.423920  0.351192  1
  In  In11  1  0.500000  0.575741  0.648867  1
  In  In12  1  0.500000  0.075761  0.851214  1
  In  In13  1  0.500000  0.924277  0.148851  1
  In  In14  1  0.500000  0.292322  0.066669  1
  In  In15  1  0.500000  0.707680  0.933343  1
  In  In16  1  0.500000  0.207679  0.566481  1
  In  In17  1  0.500000  0.792549  0.433355  1
  Pt  Pt18  1  0.500000  0.025635  0.303225  1
  Pt  Pt19  1  0.500000  0.974624  0.697025  1
  Pt  Pt20  1  0.500000  0.474589  0.802952  1
  Pt  Pt21  1  0.500000  0.525407  0.197049  1
