# generated using pymatgen
data_HoPa3Zn4Ir3Rh
_symmetry_space_group_name_H-M   'P 1'
_cell_length_a   3.94463300
_cell_length_b   7.03160870
_cell_length_c   8.31271504
_cell_angle_alpha   90.18680235
_cell_angle_beta   90.00000000
_cell_angle_gamma   90.00000000
_symmetry_Int_Tables_number   1
_chemical_formula_structural   HoPa3Zn4Ir3Rh
_chemical_formula_sum   'Ho1 Pa3 Zn4 Ir3 Rh1'
_cell_volume   230.56951367
_cell_formula_units_Z   1
loop_
 _symmetry_equiv_pos_site_id
 _symmetry_equiv_pos_as_xyz
  1  'x, y, z'
loop_
 _atom_site_type_symbol
 _atom_site_label
 _atom_site_symmetry_multiplicity
 _atom_site_fract_x
 _atom_site_fract_y
 _atom_site_fract_z
 _atom_site_occupancy
  Ho  Ho0  1  0.750000  0.946288  0.685833  1
  Pa  Pa1  1  0.250000  0.549757  0.186176  1
  Pa  Pa2  1  0.750000  0.443919  0.809931  1
  Pa  Pa3  1  0.250000  0.050924  0.316621  1
  Zn  Zn4  1  0.250000  0.115198  0.938896  1
  Zn  Zn5  1  0.750000  0.878145  0.052637  1
  Zn  Zn6  1  0.250000  0.636952  0.560347  1
  Zn  Zn7  1  0.750000  0.381024  0.442914  1
  Ir  Ir8  1  0.750000  0.767255  0.359316  1
  Ir  Ir9  1  0.250000  0.249370  0.632603  1
  Ir  Ir10  1  0.750000  0.266488  0.133639  1
  Rh  Rh11  1  0.250000  0.714681  0.881086  1
