# generated using pymatgen
data_Gd7Ho(BeB14)2
_symmetry_space_group_name_H-M   'P 1'
_cell_length_a   7.24775448
_cell_length_b   7.24785448
_cell_length_c   7.45260100
_cell_angle_alpha   90.00000000
_cell_angle_beta   90.00000000
_cell_angle_gamma   90.09483151
_symmetry_Int_Tables_number   1
_chemical_formula_structural   Gd7Ho(BeB14)2
_chemical_formula_sum   'Gd7 Ho1 Be2 B28'
_cell_volume   391.48958609
_cell_formula_units_Z   1
loop_
 _symmetry_equiv_pos_site_id
 _symmetry_equiv_pos_as_xyz
  1  'x, y, z'
loop_
 _atom_site_type_symbol
 _atom_site_label
 _atom_site_symmetry_multiplicity
 _atom_site_fract_x
 _atom_site_fract_y
 _atom_site_fract_z
 _atom_site_occupancy
  Gd  Gd0  1  0.194608  0.328812  0.000000  1
  Gd  Gd1  1  0.671170  0.194854  0.000000  1
  Gd  Gd2  1  0.328693  0.805036  0.000000  1
  Gd  Gd3  1  0.695087  0.171678  0.500000  1
  Gd  Gd4  1  0.305277  0.828816  0.500000  1
  Gd  Gd5  1  0.805273  0.671085  0.000000  1
  Gd  Gd6  1  0.828623  0.694862  0.500000  1
  Ho  Ho7  1  0.171100  0.305239  0.500000  1
  Be  Be8  1  0.000087  0.999967  0.000000  1
  Be  Be9  1  0.499369  0.499592  0.500000  1
  B  B10  1  0.173856  0.039517  0.228871  1
  B  B11  1  0.961643  0.174077  0.229173  1
  B  B12  1  0.039159  0.826689  0.228994  1
  B  B13  1  0.673255  0.460856  0.271836  1
  B  B14  1  0.325967  0.538313  0.272019  1
  B  B15  1  0.826653  0.961230  0.228921  1
  B  B16  1  0.538808  0.673318  0.271717  1
  B  B17  1  0.460255  0.326115  0.272046  1
  B  B18  1  0.826653  0.961230  0.771079  1
  B  B19  1  0.039159  0.826689  0.771006  1
  B  B20  1  0.961643  0.174077  0.770827  1
  B  B21  1  0.325967  0.538313  0.727981  1
  B  B22  1  0.673255  0.460856  0.728164  1
  B  B23  1  0.173856  0.039517  0.771129  1
  B  B24  1  0.460255  0.326115  0.727954  1
  B  B25  1  0.538808  0.673318  0.728283  1
  B  B26  1  0.088913  0.588614  0.250870  1
  B  B27  1  0.411227  0.088769  0.250366  1
  B  B28  1  0.588763  0.911241  0.250307  1
  B  B29  1  0.911589  0.411028  0.251286  1
  B  B30  1  0.911589  0.411028  0.748714  1
  B  B31  1  0.588763  0.911241  0.749693  1
  B  B32  1  0.411227  0.088769  0.749634  1
  B  B33  1  0.088913  0.588614  0.749130  1
  B  B34  1  0.000465  0.000556  0.388203  1
  B  B35  1  0.499803  0.499707  0.112238  1
  B  B36  1  0.000465  0.000556  0.611797  1
  B  B37  1  0.499803  0.499707  0.887762  1
