# generated using pymatgen
data_Tb2YAl3Ge2Pd
_symmetry_space_group_name_H-M   'P 1'
_cell_length_a   7.01608716
_cell_length_b   7.01608803
_cell_length_c   4.25901500
_cell_angle_alpha   90.00000000
_cell_angle_beta   90.00000000
_cell_angle_gamma   119.97544100
_symmetry_Int_Tables_number   1
_chemical_formula_structural   Tb2YAl3Ge2Pd
_chemical_formula_sum   'Tb2 Y1 Al3 Ge2 Pd1'
_cell_volume   181.60894235
_cell_formula_units_Z   1
loop_
 _symmetry_equiv_pos_site_id
 _symmetry_equiv_pos_as_xyz
  1  'x, y, z'
loop_
 _atom_site_type_symbol
 _atom_site_label
 _atom_site_symmetry_multiplicity
 _atom_site_fract_x
 _atom_site_fract_y
 _atom_site_fract_z
 _atom_site_occupancy
  Tb  Tb0  1  0.414705  0.000086  0.000000  1
  Tb  Tb1  1  0.000086  0.414705  0.000000  1
  Y  Y2  1  0.585244  0.585244  0.000000  1
  Al  Al3  1  0.767457  0.999946  0.500001  1
  Al  Al4  1  0.232596  0.232595  0.500001  1
  Al  Al5  1  0.999946  0.767458  0.500001  1
  Ge  Ge6  1  0.666616  0.333418  0.500001  1
  Ge  Ge7  1  0.333419  0.666617  0.500001  1
  Pd  Pd8  1  0.999933  0.999933  0.000000  1
