# generated using pymatgen
data_YTh7(MnSi3)4
_symmetry_space_group_name_H-M   'P 1'
_cell_length_a   8.24863312
_cell_length_b   8.20985332
_cell_length_c   8.23669500
_cell_angle_alpha   90.00000000
_cell_angle_beta   90.00000000
_cell_angle_gamma   119.84460439
_symmetry_Int_Tables_number   1
_chemical_formula_structural   YTh7(MnSi3)4
_chemical_formula_sum   'Y1 Th7 Mn4 Si12'
_cell_volume   483.81454706
_cell_formula_units_Z   1
loop_
 _symmetry_equiv_pos_site_id
 _symmetry_equiv_pos_as_xyz
  1  'x, y, z'
loop_
 _atom_site_type_symbol
 _atom_site_label
 _atom_site_symmetry_multiplicity
 _atom_site_fract_x
 _atom_site_fract_y
 _atom_site_fract_z
 _atom_site_occupancy
  Y  Y0  1  0.999472  0.499737  0.750000  1
  Th  Th1  1  0.999947  0.999973  0.250000  1
  Th  Th2  1  0.000012  0.000006  0.750000  1
  Th  Th3  1  0.999847  0.499924  0.250000  1
  Th  Th4  1  0.500025  0.500073  0.250000  1
  Th  Th5  1  0.500102  0.000127  0.750000  1
  Th  Th6  1  0.500025  0.999950  0.250000  1
  Th  Th7  1  0.500102  0.499976  0.750000  1
  Mn  Mn8  1  0.337298  0.668650  0.998060  1
  Mn  Mn9  1  0.337298  0.668650  0.501940  1
  Mn  Mn10  1  0.662706  0.331352  0.000322  1
  Mn  Mn11  1  0.662706  0.331352  0.499678  1
  Si  Si12  1  0.168100  0.339648  0.997616  1
  Si  Si13  1  0.665656  0.832829  0.000344  1
  Si  Si14  1  0.168100  0.339648  0.502384  1
  Si  Si15  1  0.334475  0.167238  0.000531  1
  Si  Si16  1  0.168100  0.828451  0.997616  1
  Si  Si17  1  0.665656  0.832829  0.499656  1
  Si  Si18  1  0.831949  0.660482  0.997816  1
  Si  Si19  1  0.334475  0.167238  0.499469  1
  Si  Si20  1  0.168100  0.828451  0.502384  1
  Si  Si21  1  0.831949  0.660482  0.502184  1
  Si  Si22  1  0.831949  0.171468  0.997816  1
  Si  Si23  1  0.831949  0.171468  0.502184  1
