# generated using pymatgen
data_Hf7Zr3Ga2(SnSb2)2
_symmetry_space_group_name_H-M   'P 1'
_cell_length_a   8.64293911
_cell_length_b   8.64294070
_cell_length_c   5.84180400
_cell_angle_alpha   90.00000000
_cell_angle_beta   90.00000000
_cell_angle_gamma   119.89794197
_symmetry_Int_Tables_number   1
_chemical_formula_structural   Hf7Zr3Ga2(SnSb2)2
_chemical_formula_sum   'Hf7 Zr3 Ga2 Sn2 Sb4'
_cell_volume   378.30868572
_cell_formula_units_Z   1
loop_
 _symmetry_equiv_pos_site_id
 _symmetry_equiv_pos_as_xyz
  1  'x, y, z'
loop_
 _atom_site_type_symbol
 _atom_site_label
 _atom_site_symmetry_multiplicity
 _atom_site_fract_x
 _atom_site_fract_y
 _atom_site_fract_z
 _atom_site_occupancy
  Hf  Hf0  1  0.276256  0.276256  0.250000  1
  Hf  Hf1  1  0.725730  0.000175  0.250000  1
  Hf  Hf2  1  0.000175  0.725730  0.250000  1
  Hf  Hf3  1  0.666565  0.333839  0.002340  1
  Hf  Hf4  1  0.333839  0.666565  0.002340  1
  Hf  Hf5  1  0.333839  0.666565  0.497660  1
  Hf  Hf6  1  0.666565  0.333839  0.497660  1
  Zr  Zr7  1  0.737460  0.737460  0.750000  1
  Zr  Zr8  1  0.261083  0.999215  0.750000  1
  Zr  Zr9  1  0.999215  0.261083  0.750000  1
  Ga  Ga10  1  0.000722  0.000722  0.015248  1
  Ga  Ga11  1  0.000722  0.000722  0.484752  1
  Sn  Sn12  1  0.384409  0.000249  0.250000  1
  Sn  Sn13  1  0.000249  0.384409  0.250000  1
  Sb  Sb14  1  0.391654  0.391654  0.750000  1
  Sb  Sb15  1  0.606098  0.000423  0.750000  1
  Sb  Sb16  1  0.000423  0.606098  0.750000  1
  Sb  Sb17  1  0.614993  0.614993  0.250000  1
