# generated using pymatgen
data_LaTbCd(Si3Pd10)2
_symmetry_space_group_name_H-M   'P 1'
_cell_length_a   8.73237208
_cell_length_b   8.73220253
_cell_length_c   8.73218000
_cell_angle_alpha   59.99992073
_cell_angle_beta   60.00020921
_cell_angle_gamma   59.99991700
_symmetry_Int_Tables_number   1
_chemical_formula_structural   LaTbCd(Si3Pd10)2
_chemical_formula_sum   'La1 Tb1 Cd1 Si6 Pd20'
_cell_volume   470.82971911
_cell_formula_units_Z   1
loop_
 _symmetry_equiv_pos_site_id
 _symmetry_equiv_pos_as_xyz
  1  'x, y, z'
loop_
 _atom_site_type_symbol
 _atom_site_label
 _atom_site_symmetry_multiplicity
 _atom_site_fract_x
 _atom_site_fract_y
 _atom_site_fract_z
 _atom_site_occupancy
  La  La0  1  0.250009  0.250003  0.249983  1
  Tb  Tb1  1  0.749991  0.749997  0.750012  1
  Cd  Cd2  1  0.999999  0.999999  0.000003  1
  Si  Si3  1  0.733238  0.733228  0.266753  1
  Si  Si4  1  0.266763  0.266773  0.733245  1
  Si  Si5  1  0.733227  0.266767  0.733217  1
  Si  Si6  1  0.266777  0.733233  0.266780  1
  Si  Si7  1  0.266754  0.733227  0.733232  1
  Si  Si8  1  0.733247  0.266772  0.266768  1
  Pd  Pd9  1  0.616108  0.616117  0.616096  1
  Pd  Pd10  1  0.385498  0.385488  0.385505  1
  Pd  Pd11  1  0.151679  0.616107  0.616107  1
  Pd  Pd12  1  0.616104  0.151691  0.616097  1
  Pd  Pd13  1  0.843514  0.385495  0.385497  1
  Pd  Pd14  1  0.385497  0.843501  0.385506  1
  Pd  Pd15  1  0.616101  0.616097  0.151712  1
  Pd  Pd16  1  0.385505  0.385505  0.843479  1
  Pd  Pd17  1  0.999124  0.999120  0.656385  1
  Pd  Pd18  1  0.999107  0.999112  0.345381  1
  Pd  Pd19  1  0.345371  0.656386  0.999118  1
  Pd  Pd20  1  0.656396  0.345378  0.999115  1
  Pd  Pd21  1  0.999134  0.656374  0.999123  1
  Pd  Pd22  1  0.656392  0.999122  0.345373  1
  Pd  Pd23  1  0.999099  0.345393  0.999113  1
  Pd  Pd24  1  0.345377  0.999106  0.656396  1
  Pd  Pd25  1  0.656373  0.999135  0.999121  1
  Pd  Pd26  1  0.345387  0.999103  0.999119  1
  Pd  Pd27  1  0.999129  0.656388  0.345365  1
  Pd  Pd28  1  0.999101  0.345382  0.656399  1
