# generated using pymatgen
data_Li3Al2VPd10
_symmetry_space_group_name_H-M   'P 1'
_cell_length_a   4.07643300
_cell_length_b   5.39380527
_cell_length_c   10.46967344
_cell_angle_alpha   91.14207038
_cell_angle_beta   90.00000000
_cell_angle_gamma   90.00000000
_symmetry_Int_Tables_number   1
_chemical_formula_structural   Li3Al2VPd10
_chemical_formula_sum   'Li3 Al2 V1 Pd10'
_cell_volume   230.15606559
_cell_formula_units_Z   1
loop_
 _symmetry_equiv_pos_site_id
 _symmetry_equiv_pos_as_xyz
  1  'x, y, z'
loop_
 _atom_site_type_symbol
 _atom_site_label
 _atom_site_symmetry_multiplicity
 _atom_site_fract_x
 _atom_site_fract_y
 _atom_site_fract_z
 _atom_site_occupancy
  Li  Li0  1  0.500000  0.834559  0.642553  1
  Li  Li1  1  0.500000  0.662488  0.130142  1
  Li  Li2  1  0.500000  0.339952  0.862868  1
  Al  Al3  1  0.000000  0.998305  0.997992  1
  Al  Al4  1  0.000000  0.501110  0.503749  1
  V  V5  1  0.500000  0.159527  0.359826  1
  Pd  Pd6  1  0.500000  0.173752  0.113832  1
  Pd  Pd7  1  0.500000  0.824929  0.890860  1
  Pd  Pd8  1  0.500000  0.677617  0.390633  1
  Pd  Pd9  1  0.500000  0.313646  0.603787  1
  Pd  Pd10  1  0.000000  0.997312  0.499214  1
  Pd  Pd11  1  0.000000  0.496457  0.999201  1
  Pd  Pd12  1  0.000000  0.905272  0.240783  1
  Pd  Pd13  1  0.000000  0.108286  0.764096  1
  Pd  Pd14  1  0.000000  0.401766  0.262963  1
  Pd  Pd15  1  0.000000  0.605024  0.737502  1
