# generated using pymatgen
data_Tb5AsRhO12
_symmetry_space_group_name_H-M   'P 1'
_cell_length_a   6.86617553
_cell_length_b   6.86617564
_cell_length_c   7.27157123
_cell_angle_alpha   74.54536407
_cell_angle_beta   74.54536534
_cell_angle_gamma   50.79058440
_symmetry_Int_Tables_number   1
_chemical_formula_structural   Tb5AsRhO12
_chemical_formula_sum   'Tb5 As1 Rh1 O12'
_cell_volume   253.80655916
_cell_formula_units_Z   1
loop_
 _symmetry_equiv_pos_site_id
 _symmetry_equiv_pos_as_xyz
  1  'x, y, z'
loop_
 _atom_site_type_symbol
 _atom_site_label
 _atom_site_symmetry_multiplicity
 _atom_site_fract_x
 _atom_site_fract_y
 _atom_site_fract_z
 _atom_site_occupancy
  Tb  Tb0  1  0.306423  0.297776  0.359309  1
  Tb  Tb1  1  0.702224  0.693577  0.640691  1
  Tb  Tb2  1  0.308014  0.303773  0.833227  1
  Tb  Tb3  1  0.696227  0.691986  0.166773  1
  Tb  Tb4  1  0.009819  0.990181  0.500000  1
  As  As5  1  0.239110  0.760890  0.000000  1
  Rh  Rh6  1  0.748206  0.251794  0.000000  1
  O  O7  1  0.903548  0.431027  0.918409  1
  O  O8  1  0.413609  0.898225  0.920227  1
  O  O9  1  0.101775  0.586391  0.079773  1
  O  O10  1  0.568973  0.096452  0.081591  1
  O  O11  1  0.102597  0.592672  0.572988  1
  O  O12  1  0.602969  0.091565  0.576691  1
  O  O13  1  0.908435  0.397031  0.423309  1
  O  O14  1  0.407328  0.897403  0.427012  1
  O  O15  1  0.011940  0.988097  0.823438  1
  O  O16  1  0.011903  0.988060  0.176562  1
  O  O17  1  0.478247  0.521345  0.821530  1
  O  O18  1  0.478655  0.521753  0.178470  1
