# generated using pymatgen
data_TbPa(ZnIr)2
_symmetry_space_group_name_H-M   'P 1'
_cell_length_a   3.87044300
_cell_length_b   7.16868676
_cell_length_c   8.38848462
_cell_angle_alpha   90.85795045
_cell_angle_beta   90.00000000
_cell_angle_gamma   90.00000000
_symmetry_Int_Tables_number   1
_chemical_formula_structural   TbPa(ZnIr)2
_chemical_formula_sum   'Tb2 Pa2 Zn4 Ir4'
_cell_volume   232.72074652
_cell_formula_units_Z   2
loop_
 _symmetry_equiv_pos_site_id
 _symmetry_equiv_pos_as_xyz
  1  'x, y, z'
loop_
 _atom_site_type_symbol
 _atom_site_label
 _atom_site_symmetry_multiplicity
 _atom_site_fract_x
 _atom_site_fract_y
 _atom_site_fract_z
 _atom_site_occupancy
  Tb  Tb0  1  0.250000  0.056311  0.314006  1
  Tb  Tb1  1  0.750000  0.943689  0.685994  1
  Pa  Pa2  1  0.250000  0.552526  0.189666  1
  Pa  Pa3  1  0.750000  0.447474  0.810334  1
  Zn  Zn4  1  0.250000  0.118168  0.938530  1
  Zn  Zn5  1  0.750000  0.881832  0.061470  1
  Zn  Zn6  1  0.250000  0.630797  0.558870  1
  Zn  Zn7  1  0.750000  0.369203  0.441130  1
  Ir  Ir8  1  0.750000  0.748513  0.358852  1
  Ir  Ir9  1  0.250000  0.251487  0.641148  1
  Ir  Ir10  1  0.750000  0.279141  0.121906  1
  Ir  Ir11  1  0.250000  0.720859  0.878094  1
