# generated using pymatgen
data_TaTc4B4W3
_symmetry_space_group_name_H-M   'P 1'
_cell_length_a   3.10692000
_cell_length_b   8.97973839
_cell_length_c   15.62057937
_cell_angle_alpha   89.80936388
_cell_angle_beta   90.00000000
_cell_angle_gamma   90.00000000
_symmetry_Int_Tables_number   1
_chemical_formula_structural   TaTc4B4W3
_chemical_formula_sum   'Ta3 Tc12 B12 W9'
_cell_volume   435.80126765
_cell_formula_units_Z   3
loop_
 _symmetry_equiv_pos_site_id
 _symmetry_equiv_pos_as_xyz
  1  'x, y, z'
loop_
 _atom_site_type_symbol
 _atom_site_label
 _atom_site_symmetry_multiplicity
 _atom_site_fract_x
 _atom_site_fract_y
 _atom_site_fract_z
 _atom_site_occupancy
  Ta  Ta0  1  0.000000  0.318485  0.796621  1
  Ta  Ta1  1  0.000000  0.183717  0.296672  1
  Ta  Ta2  1  0.000000  0.819398  0.704181  1
  Tc  Tc3  1  0.500000  0.714166  0.354442  1
  Tc  Tc4  1  0.500000  0.286561  0.642541  1
  Tc  Tc5  1  0.500000  0.212501  0.143236  1
  Tc  Tc6  1  0.500000  0.785253  0.857980  1
  Tc  Tc7  1  0.500000  0.513669  0.091831  1
  Tc  Tc8  1  0.500000  0.484522  0.909469  1
  Tc  Tc9  1  0.500000  0.016092  0.408875  1
  Tc  Tc10  1  0.500000  0.985669  0.591017  1
  Tc  Tc11  1  0.500000  0.567167  0.731664  1
  Tc  Tc12  1  0.500000  0.438041  0.267253  1
  Tc  Tc13  1  0.500000  0.066902  0.768607  1
  Tc  Tc14  1  0.500000  0.931888  0.232195  1
  B  B15  1  0.500000  0.607862  0.494275  1
  B  B16  1  0.500000  0.394813  0.504803  1
  B  B17  1  0.500000  0.104715  0.004843  1
  B  B18  1  0.500000  0.891563  0.996140  1
  B  B19  1  0.000000  0.609792  0.832756  1
  B  B20  1  0.000000  0.387400  0.167317  1
  B  B21  1  0.000000  0.110694  0.667452  1
  B  B22  1  0.000000  0.892051  0.333976  1
  B  B23  1  0.500000  0.718704  0.599329  1
  B  B24  1  0.500000  0.284136  0.400039  1
  B  B25  1  0.500000  0.216365  0.900814  1
  B  B26  1  0.500000  0.779813  0.101081  1
  W  W27  1  0.000000  0.797624  0.494747  1
  W  W28  1  0.000000  0.204059  0.504911  1
  W  W29  1  0.000000  0.293656  0.004531  1
  W  W30  1  0.000000  0.701149  0.996013  1
  W  W31  1  0.000000  0.520324  0.591559  1
  W  W32  1  0.000000  0.481959  0.407798  1
  W  W33  1  0.000000  0.017299  0.908203  1
  W  W34  1  0.000000  0.978695  0.092663  1
  W  W35  1  0.000000  0.683294  0.200164  1
