# generated using pymatgen
data_Zn22PdRh2
_symmetry_space_group_name_H-M   'P 1'
_cell_length_a   7.79594294
_cell_length_b   7.79594343
_cell_length_c   7.84440102
_cell_angle_alpha   72.44230376
_cell_angle_beta   72.44230546
_cell_angle_gamma   57.79066371
_symmetry_Int_Tables_number   1
_chemical_formula_structural   Zn22PdRh2
_chemical_formula_sum   'Zn22 Pd1 Rh2'
_cell_volume   378.68504931
_cell_formula_units_Z   1
loop_
 _symmetry_equiv_pos_site_id
 _symmetry_equiv_pos_as_xyz
  1  'x, y, z'
loop_
 _atom_site_type_symbol
 _atom_site_label
 _atom_site_symmetry_multiplicity
 _atom_site_fract_x
 _atom_site_fract_y
 _atom_site_fract_z
 _atom_site_occupancy
  Zn  Zn0  1  0.341778  0.735562  0.317336  1
  Zn  Zn1  1  0.655028  0.264749  0.685397  1
  Zn  Zn2  1  0.264749  0.655028  0.685397  1
  Zn  Zn3  1  0.735562  0.341778  0.317336  1
  Zn  Zn4  1  0.679890  0.318812  0.998852  1
  Zn  Zn5  1  0.318812  0.679890  0.998852  1
  Zn  Zn6  1  0.832148  0.832148  0.781141  1
  Zn  Zn7  1  0.169364  0.169364  0.217180  1
  Zn  Zn8  1  0.975069  0.975069  0.174335  1
  Zn  Zn9  1  0.025459  0.025459  0.824515  1
  Zn  Zn10  1  0.352833  0.352833  0.275821  1
  Zn  Zn11  1  0.647139  0.647139  0.722908  1
  Zn  Zn12  1  0.686532  0.686532  0.379960  1
  Zn  Zn13  1  0.314247  0.314247  0.620720  1
  Zn  Zn14  1  0.659822  0.023123  0.460071  1
  Zn  Zn15  1  0.341803  0.975140  0.539419  1
  Zn  Zn16  1  0.975140  0.341803  0.539419  1
  Zn  Zn17  1  0.023123  0.659822  0.460071  1
  Zn  Zn18  1  0.621509  0.998514  0.105277  1
  Zn  Zn19  1  0.376749  0.004333  0.894631  1
  Zn  Zn20  1  0.004333  0.376749  0.894631  1
  Zn  Zn21  1  0.998514  0.621509  0.105277  1
  Pd  Pd22  1  0.658193  0.658193  0.054962  1
  Rh  Rh23  1  0.341543  0.341543  0.946267  1
  Rh  Rh24  1  0.000662  0.000662  0.500226  1
