# generated using pymatgen
data_YTm4Ti3(Co4As3)4
_symmetry_space_group_name_H-M   'P 1'
_cell_length_a   12.56487300
_cell_length_b   12.56487357
_cell_length_c   3.79019000
_cell_angle_alpha   90.00000000
_cell_angle_beta   90.00000000
_cell_angle_gamma   120.00000641
_symmetry_Int_Tables_number   1
_chemical_formula_structural   YTm4Ti3(Co4As3)4
_chemical_formula_sum   'Y1 Tm4 Ti3 Co16 As12'
_cell_volume   518.21241250
_cell_formula_units_Z   1
loop_
 _symmetry_equiv_pos_site_id
 _symmetry_equiv_pos_as_xyz
  1  'x, y, z'
loop_
 _atom_site_type_symbol
 _atom_site_label
 _atom_site_symmetry_multiplicity
 _atom_site_fract_x
 _atom_site_fract_y
 _atom_site_fract_z
 _atom_site_occupancy
  Y  Y0  1  0.666667  0.333333  0.000000  1
  Tm  Tm1  1  0.185780  0.185788  0.500000  1
  Tm  Tm2  1  0.814212  0.999992  0.500000  1
  Tm  Tm3  1  0.000008  0.814220  0.500000  1
  Tm  Tm4  1  0.333333  0.666667  0.000000  1
  Ti  Ti5  1  0.563191  0.563484  0.000000  1
  Ti  Ti6  1  0.436516  0.999707  0.000000  1
  Ti  Ti7  1  0.000293  0.436809  0.000000  1
  Co  Co8  1  0.716798  0.717185  0.500000  1
  Co  Co9  1  0.282815  0.999613  0.500000  1
  Co  Co10  1  0.000387  0.283202  0.500000  1
  Co  Co11  1  0.177335  0.375675  0.000000  1
  Co  Co12  1  0.624325  0.801660  0.000000  1
  Co  Co13  1  0.198340  0.822665  0.000000  1
  Co  Co14  1  0.801974  0.625030  0.000000  1
  Co  Co15  1  0.823057  0.198026  0.000000  1
  Co  Co16  1  0.374970  0.176943  0.000000  1
  Co  Co17  1  0.355662  0.480062  0.500000  1
  Co  Co18  1  0.519938  0.875599  0.500000  1
  Co  Co19  1  0.124401  0.644338  0.500000  1
  Co  Co20  1  0.876650  0.520918  0.500000  1
  Co  Co21  1  0.644269  0.123350  0.500000  1
  Co  Co22  1  0.479082  0.355731  0.500000  1
  Co  Co23  1  0.000000  0.000000  0.000000  1
  As  As24  1  0.822591  0.822746  0.000000  1
  As  As25  1  0.177254  0.999845  0.000000  1
  As  As26  1  0.000155  0.177409  0.000000  1
  As  As27  1  0.169514  0.484006  0.500000  1
  As  As28  1  0.515994  0.685510  0.500000  1
  As  As29  1  0.314490  0.830486  0.500000  1
  As  As30  1  0.685605  0.517254  0.500000  1
  As  As31  1  0.831650  0.314395  0.500000  1
  As  As32  1  0.482746  0.168350  0.500000  1
  As  As33  1  0.358500  0.358507  0.000000  1
  As  As34  1  0.641493  0.999993  0.000000  1
  As  As35  1  0.000007  0.641500  0.000000  1
