# generated using pymatgen
data_Cs4K11Rb(SnSe4)4
_symmetry_space_group_name_H-M   'P 1'
_cell_length_a   8.33960871
_cell_length_b   10.63767700
_cell_length_c   15.89011029
_cell_angle_alpha   90.00000000
_cell_angle_beta   90.12358636
_cell_angle_gamma   90.00000000
_symmetry_Int_Tables_number   1
_chemical_formula_structural   Cs4K11Rb(SnSe4)4
_chemical_formula_sum   'Cs4 K11 Rb1 Sn4 Se16'
_cell_volume   1409.67297926
_cell_formula_units_Z   1
loop_
 _symmetry_equiv_pos_site_id
 _symmetry_equiv_pos_as_xyz
  1  'x, y, z'
loop_
 _atom_site_type_symbol
 _atom_site_label
 _atom_site_symmetry_multiplicity
 _atom_site_fract_x
 _atom_site_fract_y
 _atom_site_fract_z
 _atom_site_occupancy
  Cs  Cs0  1  0.999715  0.999687  0.999601  1
  Cs  Cs1  1  0.501561  0.000699  0.499945  1
  Cs  Cs2  1  0.999715  0.500313  0.999601  1
  Cs  Cs3  1  0.501561  0.499301  0.499945  1
  K  K4  1  0.467053  0.250000  0.070994  1
  K  K5  1  0.034884  0.250000  0.570865  1
  K  K6  1  0.532956  0.750000  0.928303  1
  K  K7  1  0.825561  0.050982  0.260680  1
  K  K8  1  0.324396  0.949768  0.236449  1
  K  K9  1  0.174547  0.551061  0.739558  1
  K  K10  1  0.674608  0.448131  0.763262  1
  K  K11  1  0.174547  0.948939  0.739558  1
  K  K12  1  0.674608  0.051869  0.763262  1
  K  K13  1  0.825561  0.449018  0.260680  1
  K  K14  1  0.324396  0.550232  0.236449  1
  Rb  Rb15  1  0.975947  0.750000  0.427197  1
  Sn  Sn16  1  0.784741  0.750000  0.675042  1
  Sn  Sn17  1  0.215851  0.250000  0.325749  1
  Sn  Sn18  1  0.711325  0.750000  0.172168  1
  Sn  Sn19  1  0.286375  0.250000  0.827135  1
  Se  Se20  1  0.978330  0.250000  0.818927  1
  Se  Se21  1  0.524208  0.250000  0.318202  1
  Se  Se22  1  0.475962  0.750000  0.681523  1
  Se  Se23  1  0.019725  0.750000  0.181566  1
  Se  Se24  1  0.610897  0.555842  0.093704  1
  Se  Se25  1  0.113656  0.442726  0.404109  1
  Se  Se26  1  0.388586  0.056342  0.905770  1
  Se  Se27  1  0.885920  0.945318  0.598341  1
  Se  Se28  1  0.388586  0.443658  0.905770  1
  Se  Se29  1  0.885920  0.554682  0.598341  1
  Se  Se30  1  0.610897  0.944158  0.093704  1
  Se  Se31  1  0.113656  0.057274  0.404109  1
  Se  Se32  1  0.598395  0.750000  0.324232  1
  Se  Se33  1  0.105511  0.250000  0.173075  1
  Se  Se34  1  0.395688  0.250000  0.674256  1
  Se  Se35  1  0.894154  0.750000  0.827930  1
