# generated using pymatgen
data_CaDy2Tm(Ga2Ag)4
_symmetry_space_group_name_H-M   'P 1'
_cell_length_a   4.35272300
_cell_length_b   6.98811908
_cell_length_c   10.29461200
_cell_angle_alpha   89.49426977
_cell_angle_beta   90.00000000
_cell_angle_gamma   90.00000000
_symmetry_Int_Tables_number   1
_chemical_formula_structural   CaDy2Tm(Ga2Ag)4
_chemical_formula_sum   'Ca1 Dy2 Tm1 Ga8 Ag4'
_cell_volume   313.12258364
_cell_formula_units_Z   1
loop_
 _symmetry_equiv_pos_site_id
 _symmetry_equiv_pos_as_xyz
  1  'x, y, z'
loop_
 _atom_site_type_symbol
 _atom_site_label
 _atom_site_symmetry_multiplicity
 _atom_site_fract_x
 _atom_site_fract_y
 _atom_site_fract_z
 _atom_site_occupancy
  Ca  Ca0  1  0.750000  0.223788  0.173932  1
  Dy  Dy1  1  0.250000  0.779010  0.827096  1
  Dy  Dy2  1  0.750000  0.719953  0.326378  1
  Tm  Tm3  1  0.250000  0.277931  0.672703  1
  Ga  Ga4  1  0.250000  0.924687  0.151533  1
  Ga  Ga5  1  0.750000  0.072173  0.842576  1
  Ga  Ga6  1  0.750000  0.573714  0.655970  1
  Ga  Ga7  1  0.250000  0.429583  0.350203  1
  Ga  Ga8  1  0.250000  0.704871  0.537304  1
  Ga  Ga9  1  0.750000  0.300230  0.466991  1
  Ga  Ga10  1  0.750000  0.795686  0.034562  1
  Ga  Ga11  1  0.250000  0.201085  0.962378  1
  Ag  Ag12  1  0.250000  0.542241  0.096656  1
  Ag  Ag13  1  0.750000  0.454227  0.901887  1
  Ag  Ag14  1  0.750000  0.956830  0.596359  1
  Ag  Ag15  1  0.250000  0.043993  0.403475  1
