# generated using pymatgen
data_GaSb4
_symmetry_space_group_name_H-M   'P 1'
_cell_length_a   11.87656246
_cell_length_b   11.87656432
_cell_length_c   11.87656300
_cell_angle_alpha   164.23299101
_cell_angle_beta   115.22068157
_cell_angle_gamma   67.14001595
_symmetry_Int_Tables_number   1
_chemical_formula_structural   GaSb4
_chemical_formula_sum   'Ga3 Sb12'
_cell_volume   410.21697139
_cell_formula_units_Z   3
loop_
 _symmetry_equiv_pos_site_id
 _symmetry_equiv_pos_as_xyz
  1  'x, y, z'
loop_
 _atom_site_type_symbol
 _atom_site_label
 _atom_site_symmetry_multiplicity
 _atom_site_fract_x
 _atom_site_fract_y
 _atom_site_fract_z
 _atom_site_occupancy
  Ga  Ga0  1  0.000712  0.000712  0.000000  1
  Ga  Ga1  1  0.333674  0.000596  0.333078  1
  Ga  Ga2  1  0.667519  0.000596  0.666923  1
  Sb  Sb3  1  0.408800  0.408800  0.000000  1
  Sb  Sb4  1  0.592680  0.592680  0.000000  1
  Sb  Sb5  1  0.864951  0.698355  0.166594  1
  Sb  Sb6  1  0.469850  0.303234  0.166616  1
  Sb  Sb7  1  0.925991  0.592718  0.333273  1
  Sb  Sb8  1  0.742107  0.408755  0.333352  1
  Sb  Sb9  1  0.803139  0.303138  0.500000  1
  Sb  Sb10  1  0.198351  0.698351  0.500000  1
  Sb  Sb11  1  0.075402  0.408755  0.666647  1
  Sb  Sb12  1  0.259446  0.592717  0.666726  1
  Sb  Sb13  1  0.136620  0.303234  0.833383  1
  Sb  Sb14  1  0.531762  0.698355  0.833406  1
