# generated using pymatgen
data_KPa2F11
_symmetry_space_group_name_H-M   'P 1'
_cell_length_a   9.20022850
_cell_length_b   9.20022768
_cell_length_c   9.20022965
_cell_angle_alpha   124.01729640
_cell_angle_beta   107.17110833
_cell_angle_gamma   98.35642820
_symmetry_Int_Tables_number   1
_chemical_formula_structural   KPa2F11
_chemical_formula_sum   'K2 Pa4 F22'
_cell_volume   567.32998274
_cell_formula_units_Z   2
loop_
 _symmetry_equiv_pos_site_id
 _symmetry_equiv_pos_as_xyz
  1  'x, y, z'
loop_
 _atom_site_type_symbol
 _atom_site_label
 _atom_site_symmetry_multiplicity
 _atom_site_fract_x
 _atom_site_fract_y
 _atom_site_fract_z
 _atom_site_occupancy
  K  K0  1  0.750000  0.750000  0.000000  1
  K  K1  1  0.250000  0.250000  0.000000  1
  Pa  Pa2  1  0.680248  0.142794  0.823041  1
  Pa  Pa3  1  0.319752  0.857206  0.176959  1
  Pa  Pa4  1  0.180248  0.357206  0.537455  1
  Pa  Pa5  1  0.819752  0.642794  0.462545  1
  F  F6  1  0.500000  0.000000  0.500000  1
  F  F7  1  0.000000  0.500000  0.500000  1
  F  F8  1  0.779400  0.370164  0.149564  1
  F  F9  1  0.220600  0.629836  0.850436  1
  F  F10  1  0.279400  0.129836  0.409236  1
  F  F11  1  0.720600  0.870164  0.590764  1
  F  F12  1  0.701127  0.375181  0.828724  1
  F  F13  1  0.546458  0.872403  0.171276  1
  F  F14  1  0.953542  0.124819  0.325946  1
  F  F15  1  0.798873  0.627597  0.674054  1
  F  F16  1  0.298873  0.624819  0.171276  1
  F  F17  1  0.453542  0.127597  0.828724  1
  F  F18  1  0.046458  0.875181  0.674054  1
  F  F19  1  0.201127  0.372403  0.325946  1
  F  F20  1  0.932526  0.229445  0.903031  1
  F  F21  1  0.326414  0.029496  0.096969  1
  F  F22  1  0.173586  0.270555  0.703081  1
  F  F23  1  0.567474  0.470504  0.296919  1
  F  F24  1  0.067474  0.770555  0.096969  1
  F  F25  1  0.673586  0.970504  0.903031  1
  F  F26  1  0.826414  0.729445  0.296919  1
  F  F27  1  0.432526  0.529496  0.703081  1
