# generated using pymatgen
data_Li6ReTc2H27
_symmetry_space_group_name_H-M   'P 1'
_cell_length_a   8.10553800
_cell_length_b   8.10553816
_cell_length_c   4.79723300
_cell_angle_alpha   90.00000000
_cell_angle_beta   90.00000000
_cell_angle_gamma   119.99999936
_symmetry_Int_Tables_number   1
_chemical_formula_structural   Li6ReTc2H27
_chemical_formula_sum   'Li6 Re1 Tc2 H27'
_cell_volume   272.95128783
_cell_formula_units_Z   1
loop_
 _symmetry_equiv_pos_site_id
 _symmetry_equiv_pos_as_xyz
  1  'x, y, z'
loop_
 _atom_site_type_symbol
 _atom_site_label
 _atom_site_symmetry_multiplicity
 _atom_site_fract_x
 _atom_site_fract_y
 _atom_site_fract_z
 _atom_site_occupancy
  Li  Li0  1  0.277892  0.000019  0.500000  1
  Li  Li1  1  0.999981  0.277873  0.500000  1
  Li  Li2  1  0.722127  0.722108  0.500000  1
  Li  Li3  1  0.617777  0.000083  0.000000  1
  Li  Li4  1  0.999917  0.617694  0.000000  1
  Li  Li5  1  0.382306  0.382223  0.000000  1
  Re  Re6  1  0.333333  0.666667  0.500000  1
  Tc  Tc7  1  0.000000  0.000000  0.000000  1
  Tc  Tc8  1  0.666667  0.333333  0.500000  1
  H  H9  1  0.851286  0.000010  0.247995  1
  H  H10  1  0.999990  0.851276  0.247995  1
  H  H11  1  0.851286  0.000010  0.752005  1
  H  H12  1  0.999990  0.851276  0.752005  1
  H  H13  1  0.148724  0.148714  0.247995  1
  H  H14  1  0.148724  0.148714  0.752005  1
  H  H15  1  0.205188  0.000007  0.000000  1
  H  H16  1  0.999993  0.205181  0.000000  1
  H  H17  1  0.794819  0.794812  0.000000  1
  H  H18  1  0.173595  0.534433  0.246302  1
  H  H19  1  0.465567  0.639161  0.246302  1
  H  H20  1  0.173595  0.534433  0.753698  1
  H  H21  1  0.535566  0.175130  0.751244  1
  H  H22  1  0.360839  0.826405  0.246302  1
  H  H23  1  0.465567  0.639161  0.753698  1
  H  H24  1  0.639564  0.464434  0.751244  1
  H  H25  1  0.535566  0.175130  0.248756  1
  H  H26  1  0.360839  0.826405  0.753698  1
  H  H27  1  0.639564  0.464434  0.248756  1
  H  H28  1  0.824870  0.360436  0.751244  1
  H  H29  1  0.824870  0.360436  0.248756  1
  H  H30  1  0.295926  0.443723  0.500000  1
  H  H31  1  0.556277  0.852203  0.500000  1
  H  H32  1  0.446209  0.296342  0.500000  1
  H  H33  1  0.147797  0.704074  0.500000  1
  H  H34  1  0.850132  0.553791  0.500000  1
  H  H35  1  0.703658  0.149868  0.500000  1
