# generated using pymatgen
data_Y4Ti2Ga2Ir3Pt
_symmetry_space_group_name_H-M   'P 1'
_cell_length_a   4.40634900
_cell_length_b   6.96877226
_cell_length_c   7.84739654
_cell_angle_alpha   92.12930679
_cell_angle_beta   90.00000000
_cell_angle_gamma   90.00000000
_symmetry_Int_Tables_number   1
_chemical_formula_structural   Y4Ti2Ga2Ir3Pt
_chemical_formula_sum   'Y4 Ti2 Ga2 Ir3 Pt1'
_cell_volume   240.80238691
_cell_formula_units_Z   1
loop_
 _symmetry_equiv_pos_site_id
 _symmetry_equiv_pos_as_xyz
  1  'x, y, z'
loop_
 _atom_site_type_symbol
 _atom_site_label
 _atom_site_symmetry_multiplicity
 _atom_site_fract_x
 _atom_site_fract_y
 _atom_site_fract_z
 _atom_site_occupancy
  Y  Y0  1  0.250000  0.976290  0.303204  1
  Y  Y1  1  0.250000  0.482811  0.174450  1
  Y  Y2  1  0.750000  0.021132  0.696254  1
  Y  Y3  1  0.750000  0.524025  0.824105  1
  Ti  Ti4  1  0.250000  0.366949  0.567891  1
  Ti  Ti5  1  0.750000  0.636473  0.424815  1
  Ga  Ga6  1  0.250000  0.836858  0.926718  1
  Ga  Ga7  1  0.750000  0.158562  0.079239  1
  Ir  Ir8  1  0.250000  0.721837  0.595753  1
  Ir  Ir9  1  0.750000  0.775005  0.118813  1
  Ir  Ir10  1  0.750000  0.278775  0.406149  1
  Pt  Pt11  1  0.250000  0.221281  0.882609  1
