# generated using pymatgen
data_YHo5Tm10(CdPt)4
_symmetry_space_group_name_H-M   'P 1'
_cell_length_a   9.58167209
_cell_length_b   9.58167259
_cell_length_c   9.57954600
_cell_angle_alpha   60.00733467
_cell_angle_beta   60.00733294
_cell_angle_gamma   59.97164795
_symmetry_Int_Tables_number   1
_chemical_formula_structural   YHo5Tm10(CdPt)4
_chemical_formula_sum   'Y1 Ho5 Tm10 Cd4 Pt4'
_cell_volume   621.82407101
_cell_formula_units_Z   1
loop_
 _symmetry_equiv_pos_site_id
 _symmetry_equiv_pos_as_xyz
  1  'x, y, z'
loop_
 _atom_site_type_symbol
 _atom_site_label
 _atom_site_symmetry_multiplicity
 _atom_site_fract_x
 _atom_site_fract_y
 _atom_site_fract_z
 _atom_site_occupancy
  Y  Y0  1  0.936893  0.936893  0.563107  1
  Ho  Ho1  1  0.936329  0.562903  0.564042  1
  Ho  Ho2  1  0.562903  0.936329  0.936726  1
  Ho  Ho3  1  0.562903  0.936329  0.564042  1
  Ho  Ho4  1  0.936329  0.562903  0.936726  1
  Ho  Ho5  1  0.564913  0.564913  0.935087  1
  Tm  Tm6  1  0.352327  0.352327  0.350355  1
  Tm  Tm7  1  0.352327  0.352327  0.944990  1
  Tm  Tm8  1  0.355022  0.939799  0.352589  1
  Tm  Tm9  1  0.939799  0.355022  0.352589  1
  Tm  Tm10  1  0.811174  0.189101  0.189090  1
  Tm  Tm11  1  0.189101  0.811174  0.810635  1
  Tm  Tm12  1  0.189101  0.811174  0.189090  1
  Tm  Tm13  1  0.811174  0.189101  0.810635  1
  Tm  Tm14  1  0.189739  0.189739  0.810261  1
  Tm  Tm15  1  0.811582  0.811582  0.188418  1
  Cd  Cd16  1  0.581325  0.581325  0.581915  1
  Cd  Cd17  1  0.581325  0.581325  0.255436  1
  Cd  Cd18  1  0.580973  0.255223  0.581902  1
  Cd  Cd19  1  0.255223  0.580973  0.581902  1
  Pt  Pt20  1  0.143250  0.143250  0.144154  1
  Pt  Pt21  1  0.143250  0.143250  0.569347  1
  Pt  Pt22  1  0.142491  0.570548  0.143481  1
  Pt  Pt23  1  0.570548  0.142491  0.143481  1
