# generated using pymatgen
data_Er5Th3(Ta3Si4)4
_symmetry_space_group_name_H-M   'P 1'
_cell_length_a   7.07692122
_cell_length_b   7.08150684
_cell_length_c   13.13089883
_cell_angle_alpha   89.87567090
_cell_angle_beta   90.03494727
_cell_angle_gamma   90.09871718
_symmetry_Int_Tables_number   1
_chemical_formula_structural   Er5Th3(Ta3Si4)4
_chemical_formula_sum   'Er5 Th3 Ta12 Si16'
_cell_volume   658.05584084
_cell_formula_units_Z   1
loop_
 _symmetry_equiv_pos_site_id
 _symmetry_equiv_pos_as_xyz
  1  'x, y, z'
loop_
 _atom_site_type_symbol
 _atom_site_label
 _atom_site_symmetry_multiplicity
 _atom_site_fract_x
 _atom_site_fract_y
 _atom_site_fract_z
 _atom_site_occupancy
  Er  Er0  1  0.998605  0.341652  0.216290  1
  Er  Er1  1  0.999861  0.659408  0.719080  1
  Er  Er2  1  0.159068  0.500006  0.467559  1
  Er  Er3  1  0.499699  0.840458  0.031678  1
  Er  Er4  1  0.839947  0.500507  0.968702  1
  Th  Th5  1  0.497338  0.161323  0.532039  1
  Th  Th6  1  0.339166  0.996296  0.782690  1
  Th  Th7  1  0.661093  0.003777  0.281680  1
  Ta  Ta8  1  0.168330  0.170500  0.999351  1
  Ta  Ta9  1  0.830414  0.830495  0.499516  1
  Ta  Ta10  1  0.329889  0.670433  0.248638  1
  Ta  Ta11  1  0.669189  0.330467  0.751042  1
  Ta  Ta12  1  0.156174  0.990282  0.373721  1
  Ta  Ta13  1  0.845861  0.007134  0.876356  1
  Ta  Ta14  1  0.509915  0.655065  0.626241  1
  Ta  Ta15  1  0.345599  0.495129  0.876200  1
  Ta  Ta16  1  0.491607  0.346232  0.125064  1
  Ta  Ta17  1  0.656232  0.502429  0.373522  1
  Ta  Ta18  1  0.997554  0.157027  0.625356  1
  Ta  Ta19  1  0.003342  0.844389  0.124581  1
  Si  Si20  1  0.287843  0.044014  0.182969  1
  Si  Si21  1  0.716011  0.953716  0.687367  1
  Si  Si22  1  0.453844  0.783897  0.436318  1
  Si  Si23  1  0.203643  0.542847  0.063775  1
  Si  Si24  1  0.546013  0.208355  0.938797  1
  Si  Si25  1  0.799544  0.461022  0.564308  1
  Si  Si26  1  0.038392  0.300269  0.815018  1
  Si  Si27  1  0.959037  0.700010  0.313187  1
  Si  Si28  1  0.361205  0.300991  0.315191  1
  Si  Si29  1  0.637377  0.700030  0.819015  1
  Si  Si30  1  0.198723  0.862209  0.566120  1
  Si  Si31  1  0.127650  0.791812  0.935297  1
  Si  Si32  1  0.797530  0.134536  0.066201  1
  Si  Si33  1  0.878904  0.207562  0.433432  1
  Si  Si34  1  0.291834  0.377915  0.684096  1
  Si  Si35  1  0.703567  0.627804  0.179606  1
