# generated using pymatgen
data_Ce3PaIn2CuRh3
_symmetry_space_group_name_H-M   'P 1'
_cell_length_a   7.68958519
_cell_length_b   7.78190659
_cell_length_c   3.70760200
_cell_angle_alpha   90.00000000
_cell_angle_beta   90.00000000
_cell_angle_gamma   88.57058631
_symmetry_Int_Tables_number   1
_chemical_formula_structural   Ce3PaIn2CuRh3
_chemical_formula_sum   'Ce3 Pa1 In2 Cu1 Rh3'
_cell_volume   221.79250547
_cell_formula_units_Z   1
loop_
 _symmetry_equiv_pos_site_id
 _symmetry_equiv_pos_as_xyz
  1  'x, y, z'
loop_
 _atom_site_type_symbol
 _atom_site_label
 _atom_site_symmetry_multiplicity
 _atom_site_fract_x
 _atom_site_fract_y
 _atom_site_fract_z
 _atom_site_occupancy
  Ce  Ce0  1  0.674205  0.172918  0.500000  1
  Ce  Ce1  1  0.336128  0.832785  0.500000  1
  Ce  Ce2  1  0.818754  0.672175  0.500000  1
  Pa  Pa3  1  0.162039  0.315357  0.500000  1
  In  In4  1  0.999537  0.990248  0.000000  1
  In  In5  1  0.493721  0.499127  0.000000  1
  Cu  Cu6  1  0.131581  0.624768  0.000000  1
  Rh  Rh7  1  0.898706  0.372748  0.000000  1
  Rh  Rh8  1  0.631182  0.868800  0.000000  1
  Rh  Rh9  1  0.354148  0.151074  0.000000  1
