# generated using pymatgen
data_YHo3Ti4Al4O20
_symmetry_space_group_name_H-M   'P 1'
_cell_length_a   5.70203700
_cell_length_b   7.40800845
_cell_length_c   8.45922752
_cell_angle_alpha   89.96003852
_cell_angle_beta   90.00000000
_cell_angle_gamma   90.00000000
_symmetry_Int_Tables_number   1
_chemical_formula_structural   YHo3Ti4Al4O20
_chemical_formula_sum   'Y1 Ho3 Ti4 Al4 O20'
_cell_volume   357.32392858
_cell_formula_units_Z   1
loop_
 _symmetry_equiv_pos_site_id
 _symmetry_equiv_pos_as_xyz
  1  'x, y, z'
loop_
 _atom_site_type_symbol
 _atom_site_label
 _atom_site_symmetry_multiplicity
 _atom_site_fract_x
 _atom_site_fract_y
 _atom_site_fract_z
 _atom_site_occupancy
  Y  Y0  1  0.000000  0.141393  0.829930  1
  Ho  Ho1  1  0.000000  0.357810  0.330006  1
  Ho  Ho2  1  0.000000  0.642018  0.670141  1
  Ho  Ho3  1  0.000000  0.857247  0.170380  1
  Ti  Ti4  1  0.500000  0.123594  0.146741  1
  Ti  Ti5  1  0.500000  0.875853  0.853949  1
  Ti  Ti6  1  0.500000  0.623723  0.353485  1
  Ti  Ti7  1  0.500000  0.376778  0.645823  1
  Al  Al8  1  0.242430  0.500461  0.000129  1
  Al  Al9  1  0.757437  0.999743  0.499683  1
  Al  Al10  1  0.757570  0.500461  0.000129  1
  Al  Al11  1  0.242563  0.999743  0.499683  1
  O  O12  1  0.000000  0.340389  0.059445  1
  O  O13  1  0.000000  0.660781  0.941222  1
  O  O14  1  0.000000  0.839433  0.441011  1
  O  O15  1  0.000000  0.160296  0.557659  1
  O  O16  1  0.500000  0.350185  0.071913  1
  O  O17  1  0.500000  0.649785  0.928752  1
  O  O18  1  0.500000  0.850401  0.427766  1
  O  O19  1  0.500000  0.149601  0.572210  1
  O  O20  1  0.249786  0.109196  0.294140  1
  O  O21  1  0.250210  0.890198  0.705514  1
  O  O22  1  0.750152  0.609218  0.205877  1
  O  O23  1  0.749518  0.393014  0.793909  1
  O  O24  1  0.749790  0.890198  0.705514  1
  O  O25  1  0.750214  0.109196  0.294140  1
  O  O26  1  0.250482  0.393014  0.793909  1
  O  O27  1  0.249848  0.609218  0.205877  1
  O  O28  1  0.276705  0.998571  0.000894  1
  O  O29  1  0.723964  0.499955  0.499635  1
  O  O30  1  0.723295  0.998571  0.000894  1
  O  O31  1  0.276036  0.499955  0.499635  1
