# generated using pymatgen
data_Pr5SmCo16(TcP6)2
_symmetry_space_group_name_H-M   'P 1'
_cell_length_a   3.77555800
_cell_length_b   10.66824655
_cell_length_c   12.42749763
_cell_angle_alpha   90.03677769
_cell_angle_beta   90.00000000
_cell_angle_gamma   90.00000000
_symmetry_Int_Tables_number   1
_chemical_formula_structural   Pr5SmCo16(TcP6)2
_chemical_formula_sum   'Pr5 Sm1 Co16 Tc2 P12'
_cell_volume   500.56189958
_cell_formula_units_Z   1
loop_
 _symmetry_equiv_pos_site_id
 _symmetry_equiv_pos_as_xyz
  1  'x, y, z'
loop_
 _atom_site_type_symbol
 _atom_site_label
 _atom_site_symmetry_multiplicity
 _atom_site_fract_x
 _atom_site_fract_y
 _atom_site_fract_z
 _atom_site_occupancy
  Pr  Pr0  1  0.000000  0.499748  0.523171  1
  Pr  Pr1  1  0.500000  0.000147  0.477328  1
  Pr  Pr2  1  0.500000  0.817623  0.205745  1
  Pr  Pr3  1  0.500000  0.182656  0.206202  1
  Pr  Pr4  1  0.000000  0.681939  0.793915  1
  Sm  Sm5  1  0.000000  0.316827  0.794567  1
  Co  Co6  1  0.500000  0.497831  0.705826  1
  Co  Co7  1  0.000000  0.000258  0.294730  1
  Co  Co8  1  0.000000  0.499018  0.987139  1
  Co  Co9  1  0.500000  0.000964  0.011213  1
  Co  Co10  1  0.500000  0.331730  0.990770  1
  Co  Co11  1  0.500000  0.667207  0.991669  1
  Co  Co12  1  0.000000  0.168807  0.007148  1
  Co  Co13  1  0.000000  0.832079  0.007358  1
  Co  Co14  1  0.500000  0.296691  0.431519  1
  Co  Co15  1  0.500000  0.703132  0.430484  1
  Co  Co16  1  0.000000  0.203740  0.571159  1
  Co  Co17  1  0.000000  0.796703  0.569679  1
  Co  Co18  1  0.500000  0.882290  0.709905  1
  Co  Co19  1  0.500000  0.119563  0.710833  1
  Co  Co20  1  0.000000  0.618161  0.289951  1
  Co  Co21  1  0.000000  0.381854  0.290531  1
  Tc  Tc22  1  0.500000  0.499568  0.154022  1
  Tc  Tc23  1  0.000000  0.000759  0.845597  1
  P  P24  1  0.500000  0.498274  0.885057  1
  P  P25  1  0.000000  0.000480  0.113065  1
  P  P26  1  0.500000  0.500107  0.343073  1
  P  P27  1  0.000000  0.000104  0.657074  1
  P  P28  1  0.500000  0.306681  0.616570  1
  P  P29  1  0.500000  0.693655  0.614013  1
  P  P30  1  0.000000  0.194259  0.386807  1
  P  P31  1  0.000000  0.806107  0.386040  1
  P  P32  1  0.500000  0.848060  0.895487  1
  P  P33  1  0.500000  0.153180  0.894250  1
  P  P34  1  0.000000  0.651509  0.103709  1
  P  P35  1  0.000000  0.348288  0.104397  1
