# generated using pymatgen
data_K2SrNdB24
_symmetry_space_group_name_H-M   'P 1'
_cell_length_a   7.25803563
_cell_length_b   7.25802677
_cell_length_c   5.93486800
_cell_angle_alpha   90.00000000
_cell_angle_beta   90.00000000
_cell_angle_gamma   109.41917244
_symmetry_Int_Tables_number   1
_chemical_formula_structural   K2SrNdB24
_chemical_formula_sum   'K2 Sr1 Nd1 B24'
_cell_volume   294.85720619
_cell_formula_units_Z   1
loop_
 _symmetry_equiv_pos_site_id
 _symmetry_equiv_pos_as_xyz
  1  'x, y, z'
loop_
 _atom_site_type_symbol
 _atom_site_label
 _atom_site_symmetry_multiplicity
 _atom_site_fract_x
 _atom_site_fract_y
 _atom_site_fract_z
 _atom_site_occupancy
  K  K0  1  0.751215  0.248786  0.500000  1
  K  K1  1  0.248785  0.751214  0.500000  1
  Sr  Sr2  1  0.000000  0.000000  0.000000  1
  Nd  Nd3  1  0.500000  0.500000  0.000000  1
  B  B4  1  0.176014  0.326295  0.648168  1
  B  B5  1  0.925044  0.573833  0.149762  1
  B  B6  1  0.673705  0.823986  0.648168  1
  B  B7  1  0.426167  0.074956  0.149762  1
  B  B8  1  0.176014  0.326295  0.351832  1
  B  B9  1  0.925044  0.573833  0.850238  1
  B  B10  1  0.673705  0.823986  0.351832  1
  B  B11  1  0.426167  0.074956  0.850238  1
  B  B12  1  0.399895  0.399895  0.500000  1
  B  B13  1  0.148807  0.649765  0.000000  1
  B  B14  1  0.898654  0.898654  0.500000  1
  B  B15  1  0.649764  0.148807  0.000000  1
  B  B16  1  0.326295  0.176014  0.648168  1
  B  B17  1  0.074956  0.426167  0.149762  1
  B  B18  1  0.823986  0.673705  0.648168  1
  B  B19  1  0.573833  0.925044  0.149762  1
  B  B20  1  0.101346  0.101346  0.500000  1
  B  B21  1  0.851193  0.350235  0.000000  1
  B  B22  1  0.600105  0.600105  0.500000  1
  B  B23  1  0.350236  0.851193  0.000000  1
  B  B24  1  0.326295  0.176014  0.351832  1
  B  B25  1  0.074956  0.426167  0.850238  1
  B  B26  1  0.823986  0.673705  0.351832  1
  B  B27  1  0.573833  0.925044  0.850238  1
