# generated using pymatgen
data_Ca2Yb3P8
_symmetry_space_group_name_H-M   'P 1'
_cell_length_a   6.86316123
_cell_length_b   6.86316134
_cell_length_c   7.46176119
_cell_angle_alpha   81.01485479
_cell_angle_beta   81.01485306
_cell_angle_gamma   119.69444053
_symmetry_Int_Tables_number   1
_chemical_formula_structural   Ca2Yb3P8
_chemical_formula_sum   'Ca2 Yb3 P8'
_cell_volume   290.18302457
_cell_formula_units_Z   1
loop_
 _symmetry_equiv_pos_site_id
 _symmetry_equiv_pos_as_xyz
  1  'x, y, z'
loop_
 _atom_site_type_symbol
 _atom_site_label
 _atom_site_symmetry_multiplicity
 _atom_site_fract_x
 _atom_site_fract_y
 _atom_site_fract_z
 _atom_site_occupancy
  Ca  Ca0  1  0.334589  0.665411  0.000000  1
  Ca  Ca1  1  0.665411  0.334589  0.000000  1
  Yb  Yb2  1  0.500000  0.500000  0.500000  1
  Yb  Yb3  1  0.825059  0.174941  0.500000  1
  Yb  Yb4  1  0.174941  0.825059  0.500000  1
  P  P5  1  0.777246  0.777246  0.754740  1
  P  P6  1  0.222754  0.222754  0.245260  1
  P  P7  1  0.079538  0.386742  0.758045  1
  P  P8  1  0.613258  0.920462  0.241955  1
  P  P9  1  0.920462  0.613258  0.241955  1
  P  P10  1  0.386742  0.079538  0.758045  1
  P  P11  1  0.053572  0.053572  0.834176  1
  P  P12  1  0.946428  0.946428  0.165824  1
