# generated using pymatgen
data_Y4Ho(Pd4Au)3
_symmetry_space_group_name_H-M   'P 1'
_cell_length_a   4.18450100
_cell_length_b   4.09169900
_cell_length_c   20.96783500
_cell_angle_alpha   90.00000000
_cell_angle_beta   90.00000000
_cell_angle_gamma   90.00000000
_symmetry_Int_Tables_number   1
_chemical_formula_structural   Y4Ho(Pd4Au)3
_chemical_formula_sum   'Y4 Ho1 Pd12 Au3'
_cell_volume   359.00536962
_cell_formula_units_Z   1
loop_
 _symmetry_equiv_pos_site_id
 _symmetry_equiv_pos_as_xyz
  1  'x, y, z'
loop_
 _atom_site_type_symbol
 _atom_site_label
 _atom_site_symmetry_multiplicity
 _atom_site_fract_x
 _atom_site_fract_y
 _atom_site_fract_z
 _atom_site_occupancy
  Y  Y0  1  0.000000  0.000000  0.199230  1
  Y  Y1  1  0.000000  0.000000  0.404388  1
  Y  Y2  1  0.000000  0.000000  0.597282  1
  Y  Y3  1  0.000000  0.000000  0.803663  1
  Ho  Ho4  1  0.000000  0.000000  0.995406  1
  Pd  Pd5  1  0.500000  0.500000  0.999552  1
  Pd  Pd6  1  0.500000  0.500000  0.199147  1
  Pd  Pd7  1  0.500000  0.500000  0.400215  1
  Pd  Pd8  1  0.500000  0.500000  0.599175  1
  Pd  Pd9  1  0.500000  0.500000  0.801820  1
  Pd  Pd10  1  0.500000  0.000000  0.499793  1
  Pd  Pd11  1  0.500000  0.000000  0.901279  1
  Pd  Pd12  1  0.000000  0.500000  0.098644  1
  Pd  Pd13  1  0.000000  0.500000  0.299719  1
  Pd  Pd14  1  0.000000  0.500000  0.499868  1
  Pd  Pd15  1  0.000000  0.500000  0.700498  1
  Pd  Pd16  1  0.000000  0.500000  0.901293  1
  Au  Au17  1  0.500000  0.000000  0.098035  1
  Au  Au18  1  0.500000  0.000000  0.300520  1
  Au  Au19  1  0.500000  0.000000  0.700476  1
