# generated using pymatgen
data_Tb2Y2P7Ir8
_symmetry_space_group_name_H-M   'P 1'
_cell_length_a   3.95408800
_cell_length_b   12.70315046
_cell_length_c   13.12968308
_cell_angle_alpha   80.85077825
_cell_angle_beta   90.00000000
_cell_angle_gamma   90.00000000
_symmetry_Int_Tables_number   1
_chemical_formula_structural   Tb2Y2P7Ir8
_chemical_formula_sum   'Tb4 Y4 P14 Ir16'
_cell_volume   651.10538465
_cell_formula_units_Z   2
loop_
 _symmetry_equiv_pos_site_id
 _symmetry_equiv_pos_as_xyz
  1  'x, y, z'
loop_
 _atom_site_type_symbol
 _atom_site_label
 _atom_site_symmetry_multiplicity
 _atom_site_fract_x
 _atom_site_fract_y
 _atom_site_fract_z
 _atom_site_occupancy
  Tb  Tb0  1  0.250000  0.102580  0.789502  1
  Tb  Tb1  1  0.750000  0.897420  0.210498  1
  Tb  Tb2  1  0.250000  0.279018  0.102030  1
  Tb  Tb3  1  0.750000  0.720982  0.897970  1
  Y  Y4  1  0.250000  0.520631  0.293814  1
  Y  Y5  1  0.750000  0.479369  0.706186  1
  Y  Y6  1  0.250000  0.209118  0.437963  1
  Y  Y7  1  0.750000  0.790882  0.562037  1
  P  P8  1  0.250000  0.051534  0.100337  1
  P  P9  1  0.750000  0.948466  0.899663  1
  P  P10  1  0.250000  0.312272  0.688895  1
  P  P11  1  0.750000  0.687728  0.311105  1
  P  P12  1  0.250000  0.607788  0.566812  1
  P  P13  1  0.750000  0.392212  0.433188  1
  P  P14  1  0.250000  0.843207  0.718064  1
  P  P15  1  0.750000  0.156793  0.281936  1
  P  P16  1  0.750000  0.258011  0.919845  1
  P  P17  1  0.250000  0.741989  0.080155  1
  P  P18  1  0.750000  0.093023  0.588320  1
  P  P19  1  0.250000  0.906977  0.411680  1
  P  P20  1  0.750000  0.472391  0.129139  1
  P  P21  1  0.250000  0.527609  0.870861  1
  Ir  Ir22  1  0.250000  0.990614  0.576225  1
  Ir  Ir23  1  0.750000  0.009386  0.423775  1
  Ir  Ir24  1  0.250000  0.662575  0.731133  1
  Ir  Ir25  1  0.750000  0.337425  0.268867  1
  Ir  Ir26  1  0.250000  0.555001  0.044811  1
  Ir  Ir27  1  0.750000  0.444999  0.955189  1
  Ir  Ir28  1  0.250000  0.060266  0.272690  1
  Ir  Ir29  1  0.750000  0.939734  0.727310  1
  Ir  Ir30  1  0.250000  0.421840  0.523500  1
  Ir  Ir31  1  0.750000  0.578160  0.476500  1
  Ir  Ir32  1  0.250000  0.914947  0.997658  1
  Ir  Ir33  1  0.750000  0.085053  0.002342  1
  Ir  Ir34  1  0.250000  0.729262  0.395330  1
  Ir  Ir35  1  0.750000  0.270738  0.604670  1
  Ir  Ir36  1  0.250000  0.341842  0.857802  1
  Ir  Ir37  1  0.750000  0.658158  0.142198  1
