# generated using pymatgen
data_Nd12IrPdRh2
_symmetry_space_group_name_H-M   'P 1'
_cell_length_a   6.54861302
_cell_length_b   7.35627531
_cell_length_c   9.98190400
_cell_angle_alpha   90.00000000
_cell_angle_beta   90.00000000
_cell_angle_gamma   90.21025014
_symmetry_Int_Tables_number   1
_chemical_formula_structural   Nd12IrPdRh2
_chemical_formula_sum   'Nd12 Ir1 Pd1 Rh2'
_cell_volume   480.85901935
_cell_formula_units_Z   1
loop_
 _symmetry_equiv_pos_site_id
 _symmetry_equiv_pos_as_xyz
  1  'x, y, z'
loop_
 _atom_site_type_symbol
 _atom_site_label
 _atom_site_symmetry_multiplicity
 _atom_site_fract_x
 _atom_site_fract_y
 _atom_site_fract_z
 _atom_site_occupancy
  Nd  Nd0  1  0.333995  0.670897  0.064552  1
  Nd  Nd1  1  0.170853  0.182475  0.437525  1
  Nd  Nd2  1  0.670772  0.324886  0.565779  1
  Nd  Nd3  1  0.833269  0.824552  0.932121  1
  Nd  Nd4  1  0.670772  0.324886  0.934221  1
  Nd  Nd5  1  0.833269  0.824552  0.567879  1
  Nd  Nd6  1  0.333995  0.670897  0.435448  1
  Nd  Nd7  1  0.170853  0.182475  0.062475  1
  Nd  Nd8  1  0.854061  0.523224  0.250000  1
  Nd  Nd9  1  0.631270  0.035068  0.250000  1
  Nd  Nd10  1  0.142919  0.465704  0.750000  1
  Nd  Nd11  1  0.359144  0.965341  0.750000  1
  Ir  Ir12  1  0.432233  0.380507  0.250000  1
  Pd  Pd13  1  0.070377  0.885593  0.250000  1
  Rh  Rh14  1  0.925272  0.120255  0.750000  1
  Rh  Rh15  1  0.566948  0.618688  0.750000  1
