# generated using pymatgen
data_LiTbHo15In3Ir4
_symmetry_space_group_name_H-M   'P 1'
_cell_length_a   9.64013322
_cell_length_b   9.64013379
_cell_length_c   9.63040900
_cell_angle_alpha   59.84290829
_cell_angle_beta   59.84290498
_cell_angle_gamma   59.84196199
_symmetry_Int_Tables_number   1
_chemical_formula_structural   LiTbHo15In3Ir4
_chemical_formula_sum   'Li1 Tb1 Ho15 In3 Ir4'
_cell_volume   630.58204182
_cell_formula_units_Z   1
loop_
 _symmetry_equiv_pos_site_id
 _symmetry_equiv_pos_as_xyz
  1  'x, y, z'
loop_
 _atom_site_type_symbol
 _atom_site_label
 _atom_site_symmetry_multiplicity
 _atom_site_fract_x
 _atom_site_fract_y
 _atom_site_fract_z
 _atom_site_occupancy
  Li  Li0  1  0.427831  0.427831  0.428310  1
  Tb  Tb1  1  0.437641  0.437641  0.062375  1
  Ho  Ho2  1  0.651154  0.651154  0.045274  1
  Ho  Ho3  1  0.188024  0.813637  0.188310  1
  Ho  Ho4  1  0.059385  0.439993  0.059680  1
  Ho  Ho5  1  0.191664  0.808293  0.807850  1
  Ho  Ho6  1  0.059598  0.438804  0.439829  1
  Ho  Ho7  1  0.813637  0.188024  0.188310  1
  Ho  Ho8  1  0.650400  0.650400  0.651113  1
  Ho  Ho9  1  0.808293  0.191664  0.807850  1
  Ho  Ho10  1  0.188609  0.188609  0.812609  1
  Ho  Ho11  1  0.046147  0.651380  0.650458  1
  Ho  Ho12  1  0.439993  0.059385  0.059680  1
  Ho  Ho13  1  0.060367  0.060367  0.439685  1
  Ho  Ho14  1  0.651380  0.046147  0.650458  1
  Ho  Ho15  1  0.808044  0.808044  0.191729  1
  Ho  Ho16  1  0.438804  0.059598  0.439829  1
  In  In17  1  0.417219  0.417219  0.745524  1
  In  In18  1  0.417332  0.745902  0.416991  1
  In  In19  1  0.745902  0.417332  0.416991  1
  Ir  Ir20  1  0.423788  0.859079  0.857581  1
  Ir  Ir21  1  0.857888  0.857888  0.857786  1
  Ir  Ir22  1  0.859079  0.423788  0.857581  1
  Ir  Ir23  1  0.857822  0.857822  0.424201  1
