# generated using pymatgen
data_Sc3Ti(Al3Rh)6
_symmetry_space_group_name_H-M   'P 1'
_cell_length_a   7.46270754
_cell_length_b   7.45389015
_cell_length_c   9.28036000
_cell_angle_alpha   90.00000000
_cell_angle_beta   90.00000000
_cell_angle_gamma   119.73604183
_symmetry_Int_Tables_number   1
_chemical_formula_structural   Sc3Ti(Al3Rh)6
_chemical_formula_sum   'Sc3 Ti1 Al18 Rh6'
_cell_volume   448.25369199
_cell_formula_units_Z   1
loop_
 _symmetry_equiv_pos_site_id
 _symmetry_equiv_pos_as_xyz
  1  'x, y, z'
loop_
 _atom_site_type_symbol
 _atom_site_label
 _atom_site_symmetry_multiplicity
 _atom_site_fract_x
 _atom_site_fract_y
 _atom_site_fract_z
 _atom_site_occupancy
  Sc  Sc0  1  0.005615  0.327858  0.750000  1
  Sc  Sc1  1  0.671870  0.995891  0.250000  1
  Sc  Sc2  1  0.328562  0.005759  0.750000  1
  Ti  Ti3  1  0.995831  0.671422  0.250000  1
  Al  Al4  1  0.118764  0.116816  0.250000  1
  Al  Al5  1  0.876239  0.875143  0.750000  1
  Al  Al6  1  0.997117  0.337978  0.081725  1
  Al  Al7  1  0.002487  0.665169  0.926116  1
  Al  Al8  1  0.002487  0.665169  0.573884  1
  Al  Al9  1  0.331945  0.994582  0.418201  1
  Al  Al10  1  0.997117  0.337978  0.418275  1
  Al  Al11  1  0.664863  0.001833  0.577257  1
  Al  Al12  1  0.664863  0.001833  0.922743  1
  Al  Al13  1  0.331945  0.994582  0.081799  1
  Al  Al14  1  0.331061  0.331013  0.556076  1
  Al  Al15  1  0.671936  0.669639  0.438658  1
  Al  Al16  1  0.671936  0.669639  0.061342  1
  Al  Al17  1  0.331061  0.331013  0.943924  1
  Al  Al18  1  0.337625  0.556872  0.250000  1
  Al  Al19  1  0.660611  0.446882  0.750000  1
  Al  Al20  1  0.561411  0.343689  0.250000  1
  Al  Al21  1  0.445087  0.659385  0.750000  1
  Rh  Rh22  1  0.672378  0.327175  0.000393  1
  Rh  Rh23  1  0.327871  0.672717  0.001095  1
  Rh  Rh24  1  0.327871  0.672717  0.498905  1
  Rh  Rh25  1  0.672378  0.327175  0.499607  1
  Rh  Rh26  1  0.999535  0.000036  0.000245  1
  Rh  Rh27  1  0.999535  0.000036  0.499755  1
