# generated using pymatgen
data_Tb4Al6Ga12Ir5Pt
_symmetry_space_group_name_H-M   'P 1'
_cell_length_a   7.58930821
_cell_length_b   7.58649999
_cell_length_c   9.52955185
_cell_angle_alpha   90.13274911
_cell_angle_beta   89.92034980
_cell_angle_gamma   119.82420857
_symmetry_Int_Tables_number   1
_chemical_formula_structural   Tb4Al6Ga12Ir5Pt
_chemical_formula_sum   'Tb4 Al6 Ga12 Ir5 Pt1'
_cell_volume   476.00570974
_cell_formula_units_Z   1
loop_
 _symmetry_equiv_pos_site_id
 _symmetry_equiv_pos_as_xyz
  1  'x, y, z'
loop_
 _atom_site_type_symbol
 _atom_site_label
 _atom_site_symmetry_multiplicity
 _atom_site_fract_x
 _atom_site_fract_y
 _atom_site_fract_z
 _atom_site_occupancy
  Tb  Tb0  1  0.999257  0.667485  0.250495  1
  Tb  Tb1  1  0.000743  0.332515  0.749505  1
  Tb  Tb2  1  0.671341  0.000630  0.254341  1
  Tb  Tb3  1  0.328659  0.999370  0.745659  1
  Al  Al4  1  0.664448  0.998152  0.928449  1
  Al  Al5  1  0.335552  0.001848  0.071551  1
  Al  Al6  1  0.335572  0.335640  0.554402  1
  Al  Al7  1  0.664428  0.664360  0.445598  1
  Al  Al8  1  0.667856  0.667440  0.054970  1
  Al  Al9  1  0.332144  0.332560  0.945030  1
  Ga  Ga10  1  0.129518  0.126300  0.247351  1
  Ga  Ga11  1  0.870482  0.873700  0.752649  1
  Ga  Ga12  1  0.998118  0.332859  0.077758  1
  Ga  Ga13  1  0.001882  0.667141  0.922242  1
  Ga  Ga14  1  0.998628  0.662228  0.581176  1
  Ga  Ga15  1  0.337390  0.999692  0.416340  1
  Ga  Ga16  1  0.001372  0.337772  0.418824  1
  Ga  Ga17  1  0.662610  0.000308  0.583660  1
  Ga  Ga18  1  0.346503  0.550993  0.249799  1
  Ga  Ga19  1  0.653497  0.449007  0.750201  1
  Ga  Ga20  1  0.548769  0.345275  0.248893  1
  Ga  Ga21  1  0.451231  0.654725  0.751107  1
  Ir  Ir22  1  0.667481  0.326129  0.999079  1
  Ir  Ir23  1  0.332519  0.673871  0.000921  1
  Ir  Ir24  1  0.330442  0.669273  0.500642  1
  Ir  Ir25  1  0.669558  0.330727  0.499358  1
  Ir  Ir26  1  0.000000  0.000000  0.000000  1
  Pt  Pt27  1  0.000000  0.000000  0.500000  1
