# generated using pymatgen
data_TbZr2Nb3(B2Ru5)2
_symmetry_space_group_name_H-M   'P 1'
_cell_length_a   9.54690314
_cell_length_b   9.54458656
_cell_length_c   3.10707000
_cell_angle_alpha   90.00000000
_cell_angle_beta   90.00000000
_cell_angle_gamma   90.44726380
_symmetry_Int_Tables_number   1
_chemical_formula_structural   TbZr2Nb3(B2Ru5)2
_chemical_formula_sum   'Tb1 Zr2 Nb3 B4 Ru10'
_cell_volume   283.11145532
_cell_formula_units_Z   1
loop_
 _symmetry_equiv_pos_site_id
 _symmetry_equiv_pos_as_xyz
  1  'x, y, z'
loop_
 _atom_site_type_symbol
 _atom_site_label
 _atom_site_symmetry_multiplicity
 _atom_site_fract_x
 _atom_site_fract_y
 _atom_site_fract_z
 _atom_site_occupancy
  Tb  Tb0  1  0.175386  0.324130  0.000000  1
  Zr  Zr1  1  0.823595  0.677115  0.000000  1
  Zr  Zr2  1  0.324628  0.824664  0.000000  1
  Nb  Nb3  1  0.675463  0.176508  0.000000  1
  Nb  Nb4  1  0.498953  0.501359  0.000000  1
  Nb  Nb5  1  0.001558  0.999724  0.000000  1
  B  B6  1  0.623779  0.878752  0.000000  1
  B  B7  1  0.381845  0.120492  0.000000  1
  B  B8  1  0.118409  0.621655  0.000000  1
  B  B9  1  0.875351  0.378959  0.000000  1
  Ru  Ru10  1  0.571599  0.718945  0.500000  1
  Ru  Ru11  1  0.442215  0.277090  0.500000  1
  Ru  Ru12  1  0.069341  0.782760  0.500000  1
  Ru  Ru13  1  0.916287  0.215534  0.500000  1
  Ru  Ru14  1  0.281466  0.577145  0.500000  1
  Ru  Ru15  1  0.714137  0.424941  0.500000  1
  Ru  Ru16  1  0.224088  0.061766  0.500000  1
  Ru  Ru17  1  0.782236  0.932827  0.500000  1
  Ru  Ru18  1  0.507114  0.001559  0.500000  1
  Ru  Ru19  1  0.992551  0.504073  0.500000  1
