# generated using pymatgen
data_Pr3Mn(Ni4P3)2
_symmetry_space_group_name_H-M   'P 1'
_cell_length_a   3.82340300
_cell_length_b   10.87181400
_cell_length_c   12.60933800
_cell_angle_alpha   90.00000000
_cell_angle_beta   90.00000000
_cell_angle_gamma   90.00000000
_symmetry_Int_Tables_number   1
_chemical_formula_structural   Pr3Mn(Ni4P3)2
_chemical_formula_sum   'Pr6 Mn2 Ni16 P12'
_cell_volume   524.13646661
_cell_formula_units_Z   2
loop_
 _symmetry_equiv_pos_site_id
 _symmetry_equiv_pos_as_xyz
  1  'x, y, z'
loop_
 _atom_site_type_symbol
 _atom_site_label
 _atom_site_symmetry_multiplicity
 _atom_site_fract_x
 _atom_site_fract_y
 _atom_site_fract_z
 _atom_site_occupancy
  Pr  Pr0  1  0.000000  0.500000  0.520640  1
  Pr  Pr1  1  0.500000  0.000000  0.479360  1
  Pr  Pr2  1  0.500000  0.814868  0.204453  1
  Pr  Pr3  1  0.500000  0.185132  0.204453  1
  Pr  Pr4  1  0.000000  0.685132  0.795547  1
  Pr  Pr5  1  0.000000  0.314868  0.795547  1
  Mn  Mn6  1  0.500000  0.500000  0.151303  1
  Mn  Mn7  1  0.000000  0.000000  0.848697  1
  Ni  Ni8  1  0.500000  0.500000  0.700982  1
  Ni  Ni9  1  0.000000  0.000000  0.299018  1
  Ni  Ni10  1  0.000000  0.500000  0.984407  1
  Ni  Ni11  1  0.500000  0.000000  0.015593  1
  Ni  Ni12  1  0.500000  0.333767  0.993755  1
  Ni  Ni13  1  0.500000  0.666233  0.993755  1
  Ni  Ni14  1  0.000000  0.166233  0.006245  1
  Ni  Ni15  1  0.000000  0.833767  0.006245  1
  Ni  Ni16  1  0.500000  0.301456  0.425554  1
  Ni  Ni17  1  0.500000  0.698544  0.425554  1
  Ni  Ni18  1  0.000000  0.198544  0.574446  1
  Ni  Ni19  1  0.000000  0.801456  0.574446  1
  Ni  Ni20  1  0.500000  0.882733  0.712370  1
  Ni  Ni21  1  0.500000  0.117267  0.712370  1
  Ni  Ni22  1  0.000000  0.617267  0.287630  1
  Ni  Ni23  1  0.000000  0.382733  0.287630  1
  P  P24  1  0.500000  0.500000  0.881194  1
  P  P25  1  0.000000  0.000000  0.118806  1
  P  P26  1  0.500000  0.500000  0.339722  1
  P  P27  1  0.000000  0.000000  0.660278  1
  P  P28  1  0.500000  0.309411  0.611977  1
  P  P29  1  0.500000  0.690589  0.611977  1
  P  P30  1  0.000000  0.190589  0.388023  1
  P  P31  1  0.000000  0.809411  0.388023  1
  P  P32  1  0.500000  0.848498  0.897295  1
  P  P33  1  0.500000  0.151502  0.897295  1
  P  P34  1  0.000000  0.651502  0.102705  1
  P  P35  1  0.000000  0.348498  0.102705  1
