# generated using pymatgen
data_BeV10Si3P2
_symmetry_space_group_name_H-M   'P 1'
_cell_length_a   9.30560095
_cell_length_b   6.95913351
_cell_length_c   6.98344082
_cell_angle_alpha   83.73260946
_cell_angle_beta   48.05560674
_cell_angle_gamma   48.32346591
_symmetry_Int_Tables_number   1
_chemical_formula_structural   BeV10Si3P2
_chemical_formula_sum   'Be1 V10 Si3 P2'
_cell_volume   200.33014127
_cell_formula_units_Z   1
loop_
 _symmetry_equiv_pos_site_id
 _symmetry_equiv_pos_as_xyz
  1  'x, y, z'
loop_
 _atom_site_type_symbol
 _atom_site_label
 _atom_site_symmetry_multiplicity
 _atom_site_fract_x
 _atom_site_fract_y
 _atom_site_fract_z
 _atom_site_occupancy
  Be  Be0  1  0.249930  0.249611  0.249954  1
  V  V1  1  0.783214  0.424650  0.569697  1
  V  V2  1  0.223281  0.567447  0.427079  1
  V  V3  1  0.715882  0.929172  0.077824  1
  V  V4  1  0.279317  0.079774  0.925221  1
  V  V5  1  0.928821  0.716021  0.277329  1
  V  V6  1  0.080821  0.278805  0.714830  1
  V  V7  1  0.424193  0.783816  0.222451  1
  V  V8  1  0.567429  0.223411  0.782583  1
  V  V9  1  0.747977  0.248016  0.252715  1
  V  V10  1  0.248483  0.748335  0.751082  1
  Si  Si11  1  0.665036  0.664907  0.334852  1
  Si  Si12  1  0.167138  0.833875  0.166220  1
  Si  Si13  1  0.833789  0.167308  0.832720  1
  P  P14  1  0.749586  0.750288  0.750206  1
  P  P15  1  0.335104  0.334564  0.665238  1
