# generated using pymatgen
data_TmHf(Al3Ir)3
_symmetry_space_group_name_H-M   'P 1'
_cell_length_a   7.50287808
_cell_length_b   7.49045652
_cell_length_c   9.31720700
_cell_angle_alpha   90.00000000
_cell_angle_beta   90.00000000
_cell_angle_gamma   119.75635898
_symmetry_Int_Tables_number   1
_chemical_formula_structural   TmHf(Al3Ir)3
_chemical_formula_sum   'Tm2 Hf2 Al18 Ir6'
_cell_volume   454.58338363
_cell_formula_units_Z   2
loop_
 _symmetry_equiv_pos_site_id
 _symmetry_equiv_pos_as_xyz
  1  'x, y, z'
loop_
 _atom_site_type_symbol
 _atom_site_label
 _atom_site_symmetry_multiplicity
 _atom_site_fract_x
 _atom_site_fract_y
 _atom_site_fract_z
 _atom_site_occupancy
  Tm  Tm0  1  0.670865  0.994657  0.250000  1
  Tm  Tm1  1  0.329135  0.005343  0.750000  1
  Hf  Hf2  1  0.995537  0.671051  0.250000  1
  Hf  Hf3  1  0.004463  0.328949  0.750000  1
  Al  Al4  1  0.126163  0.124074  0.250000  1
  Al  Al5  1  0.873837  0.875926  0.750000  1
  Al  Al6  1  0.999782  0.336783  0.075898  1
  Al  Al7  1  0.000218  0.663217  0.924102  1
  Al  Al8  1  0.000218  0.663217  0.575898  1
  Al  Al9  1  0.332466  0.998152  0.421910  1
  Al  Al10  1  0.999782  0.336783  0.424102  1
  Al  Al11  1  0.667534  0.001848  0.578090  1
  Al  Al12  1  0.667534  0.001848  0.921910  1
  Al  Al13  1  0.332466  0.998152  0.078090  1
  Al  Al14  1  0.331261  0.333375  0.557466  1
  Al  Al15  1  0.668739  0.666625  0.442534  1
  Al  Al16  1  0.668739  0.666625  0.057466  1
  Al  Al17  1  0.331261  0.333375  0.942534  1
  Al  Al18  1  0.335307  0.548248  0.250000  1
  Al  Al19  1  0.664693  0.451752  0.750000  1
  Al  Al20  1  0.553397  0.342968  0.250000  1
  Al  Al21  1  0.446603  0.657032  0.750000  1
  Ir  Ir22  1  0.672827  0.327596  0.999621  1
  Ir  Ir23  1  0.327173  0.672404  0.000379  1
  Ir  Ir24  1  0.327173  0.672404  0.499621  1
  Ir  Ir25  1  0.672827  0.327596  0.500379  1
  Ir  Ir26  1  0.000000  0.000000  0.000000  1
  Ir  Ir27  1  0.000000  0.000000  0.500000  1
