# generated using pymatgen
data_LuSc6(CoSe)2
_symmetry_space_group_name_H-M   'P 1'
_cell_length_a   8.49313036
_cell_length_b   8.45624317
_cell_length_c   8.45624285
_cell_angle_alpha   155.27672027
_cell_angle_beta   118.76168817
_cell_angle_gamma   67.05147246
_symmetry_Int_Tables_number   1
_chemical_formula_structural   LuSc6(CoSe)2
_chemical_formula_sum   'Lu1 Sc6 Co2 Se2'
_cell_volume   220.81943347
_cell_formula_units_Z   1
loop_
 _symmetry_equiv_pos_site_id
 _symmetry_equiv_pos_as_xyz
  1  'x, y, z'
loop_
 _atom_site_type_symbol
 _atom_site_label
 _atom_site_symmetry_multiplicity
 _atom_site_fract_x
 _atom_site_fract_y
 _atom_site_fract_z
 _atom_site_occupancy
  Lu  Lu0  1  0.904506  0.642771  0.261735  1
  Sc  Sc1  1  0.315308  0.685549  0.629758  1
  Sc  Sc2  1  0.942795  0.317868  0.624926  1
  Sc  Sc3  1  0.003326  0.998302  0.005024  1
  Sc  Sc4  1  0.541027  0.127343  0.413683  1
  Sc  Sc5  1  0.288081  0.872813  0.415268  1
  Sc  Sc6  1  0.622246  0.357185  0.265061  1
  Co  Co7  1  0.179067  0.239545  0.939522  1
  Co  Co8  1  0.696411  0.761752  0.934659  1
  Se  Se9  1  0.658113  0.996212  0.661901  1
  Se  Se10  1  0.260918  0.500661  0.760257  1
