# generated using pymatgen
data_Dy7Th(CdPt)2
_symmetry_space_group_name_H-M   'P 1'
_cell_length_a   9.75103814
_cell_length_b   9.75103722
_cell_length_c   9.73409200
_cell_angle_alpha   60.05746889
_cell_angle_beta   60.05747200
_cell_angle_gamma   60.03402676
_symmetry_Int_Tables_number   1
_chemical_formula_structural   Dy7Th(CdPt)2
_chemical_formula_sum   'Dy14 Th2 Cd4 Pt4'
_cell_volume   655.19500890
_cell_formula_units_Z   2
loop_
 _symmetry_equiv_pos_site_id
 _symmetry_equiv_pos_as_xyz
  1  'x, y, z'
loop_
 _atom_site_type_symbol
 _atom_site_label
 _atom_site_symmetry_multiplicity
 _atom_site_fract_x
 _atom_site_fract_y
 _atom_site_fract_z
 _atom_site_occupancy
  Dy  Dy0  1  0.352366  0.942326  0.352654  1
  Dy  Dy1  1  0.942326  0.352366  0.352654  1
  Dy  Dy2  1  0.811520  0.189896  0.189503  1
  Dy  Dy3  1  0.189896  0.811520  0.809081  1
  Dy  Dy4  1  0.189896  0.811520  0.189503  1
  Dy  Dy5  1  0.811520  0.189896  0.809081  1
  Dy  Dy6  1  0.188606  0.188606  0.811394  1
  Dy  Dy7  1  0.809693  0.809693  0.190307  1
  Dy  Dy8  1  0.935354  0.565499  0.566304  1
  Dy  Dy9  1  0.565499  0.935354  0.932843  1
  Dy  Dy10  1  0.565499  0.935354  0.566304  1
  Dy  Dy11  1  0.935354  0.565498  0.932843  1
  Dy  Dy12  1  0.567053  0.567053  0.932947  1
  Dy  Dy13  1  0.935105  0.935105  0.564894  1
  Th  Th14  1  0.350162  0.350162  0.353162  1
  Th  Th15  1  0.350162  0.350162  0.946516  1
  Cd  Cd16  1  0.582833  0.582833  0.580771  1
  Cd  Cd17  1  0.582833  0.582833  0.253563  1
  Cd  Cd18  1  0.584108  0.252008  0.581941  1
  Cd  Cd19  1  0.252008  0.584108  0.581941  1
  Pt  Pt20  1  0.142205  0.142205  0.145048  1
  Pt  Pt21  1  0.142205  0.142205  0.570542  1
  Pt  Pt22  1  0.142788  0.571009  0.143102  1
  Pt  Pt23  1  0.571009  0.142788  0.143102  1
