# generated using pymatgen
data_Cs2HfZr11(BI14)2
_symmetry_space_group_name_H-M   'P 1'
_cell_length_a   11.03299104
_cell_length_b   11.03299071
_cell_length_c   13.22191795
_cell_angle_alpha   90.08508264
_cell_angle_beta   90.08508614
_cell_angle_gamma   94.39520318
_symmetry_Int_Tables_number   1
_chemical_formula_structural   Cs2HfZr11(BI14)2
_chemical_formula_sum   'Cs2 Hf1 Zr11 B2 I28'
_cell_volume   1604.72593482
_cell_formula_units_Z   1
loop_
 _symmetry_equiv_pos_site_id
 _symmetry_equiv_pos_as_xyz
  1  'x, y, z'
loop_
 _atom_site_type_symbol
 _atom_site_label
 _atom_site_symmetry_multiplicity
 _atom_site_fract_x
 _atom_site_fract_y
 _atom_site_fract_z
 _atom_site_occupancy
  Cs  Cs0  1  0.000077  0.000077  0.000229  1
  Cs  Cs1  1  0.499813  0.499813  0.499974  1
  Hf  Hf2  1  0.871488  0.871488  0.595033  1
  Zr  Zr3  1  0.369369  0.369369  0.903356  1
  Zr  Zr4  1  0.543153  0.332193  0.108218  1
  Zr  Zr5  1  0.130076  0.130076  0.403852  1
  Zr  Zr6  1  0.957463  0.168157  0.607736  1
  Zr  Zr7  1  0.667775  0.456848  0.891797  1
  Zr  Zr8  1  0.456848  0.667775  0.891797  1
  Zr  Zr9  1  0.168157  0.957463  0.607736  1
  Zr  Zr10  1  0.043499  0.832779  0.391499  1
  Zr  Zr11  1  0.630648  0.630648  0.096625  1
  Zr  Zr12  1  0.332193  0.543153  0.108218  1
  Zr  Zr13  1  0.832779  0.043499  0.391499  1
  B  B14  1  0.499997  0.499997  0.000009  1
  B  B15  1  0.999490  0.999490  0.500380  1
  I  I16  1  0.711428  0.464524  0.247257  1
  I  I17  1  0.288573  0.535499  0.752742  1
  I  I18  1  0.395464  0.895641  0.750223  1
  I  I19  1  0.110393  0.359325  0.507112  1
  I  I20  1  0.346490  0.346490  0.257364  1
  I  I21  1  0.389577  0.140788  0.006884  1
  I  I22  1  0.153678  0.153678  0.757725  1
  I  I23  1  0.248781  0.751056  0.500030  1
  I  I24  1  0.653446  0.653446  0.742655  1
  I  I25  1  0.643169  0.888584  0.495174  1
  I  I26  1  0.751056  0.248781  0.500030  1
  I  I27  1  0.788921  0.032637  0.745451  1
  I  I28  1  0.859264  0.610455  0.993093  1
  I  I29  1  0.604066  0.103807  0.250149  1
  I  I30  1  0.464524  0.711428  0.247257  1
  I  I31  1  0.251090  0.748834  0.999974  1
  I  I32  1  0.895641  0.395464  0.750223  1
  I  I33  1  0.610455  0.859264  0.993093  1
  I  I34  1  0.535499  0.288573  0.752742  1
  I  I35  1  0.359325  0.110393  0.507112  1
  I  I36  1  0.748834  0.251090  0.999974  1
  I  I37  1  0.032637  0.788921  0.745451  1
  I  I38  1  0.888584  0.643169  0.495174  1
  I  I39  1  0.964359  0.211216  0.252837  1
  I  I40  1  0.846107  0.846107  0.242444  1
  I  I41  1  0.211216  0.964359  0.252837  1
  I  I42  1  0.140788  0.389577  0.006884  1
  I  I43  1  0.103807  0.604066  0.250149  1
