# generated using pymatgen
data_Ca2InSn3Rh2
_symmetry_space_group_name_H-M   'P 1'
_cell_length_a   5.90530020
_cell_length_b   5.90530082
_cell_length_c   7.50742685
_cell_angle_alpha   89.63633513
_cell_angle_beta   90.36366193
_cell_angle_gamma   135.71266002
_symmetry_Int_Tables_number   1
_chemical_formula_structural   Ca2InSn3Rh2
_chemical_formula_sum   'Ca2 In1 Sn3 Rh2'
_cell_volume   182.80172820
_cell_formula_units_Z   1
loop_
 _symmetry_equiv_pos_site_id
 _symmetry_equiv_pos_as_xyz
  1  'x, y, z'
loop_
 _atom_site_type_symbol
 _atom_site_label
 _atom_site_symmetry_multiplicity
 _atom_site_fract_x
 _atom_site_fract_y
 _atom_site_fract_z
 _atom_site_occupancy
  Ca  Ca0  1  0.933492  0.066508  0.751237  1
  Ca  Ca1  1  0.066483  0.933517  0.250920  1
  In  In2  1  0.643551  0.356449  0.951887  1
  Sn  Sn3  1  0.353861  0.646139  0.047506  1
  Sn  Sn4  1  0.355825  0.644175  0.449878  1
  Sn  Sn5  1  0.643595  0.356405  0.550412  1
  Rh  Rh6  1  0.212739  0.787261  0.743709  1
  Rh  Rh7  1  0.790455  0.209545  0.254450  1
