# generated using pymatgen
data_Ho4Tm4Ti12Si15Sn
_symmetry_space_group_name_H-M   'P 1'
_cell_length_a   7.08086045
_cell_length_b   7.04376775
_cell_length_c   12.96558801
_cell_angle_alpha   89.98922288
_cell_angle_beta   89.73724648
_cell_angle_gamma   89.90777079
_symmetry_Int_Tables_number   1
_chemical_formula_structural   Ho4Tm4Ti12Si15Sn
_chemical_formula_sum   'Ho4 Tm4 Ti12 Si15 Sn1'
_cell_volume   646.66319532
_cell_formula_units_Z   1
loop_
 _symmetry_equiv_pos_site_id
 _symmetry_equiv_pos_as_xyz
  1  'x, y, z'
loop_
 _atom_site_type_symbol
 _atom_site_label
 _atom_site_symmetry_multiplicity
 _atom_site_fract_x
 _atom_site_fract_y
 _atom_site_fract_z
 _atom_site_occupancy
  Ho  Ho0  1  0.159716  0.510362  0.785810  1
  Ho  Ho1  1  0.661387  0.996222  0.968881  1
  Ho  Ho2  1  0.993139  0.348070  0.527350  1
  Ho  Ho3  1  0.998595  0.659200  0.034443  1
  Tm  Tm4  1  0.343608  0.998814  0.461201  1
  Tm  Tm5  1  0.506601  0.835148  0.717975  1
  Tm  Tm6  1  0.501804  0.159887  0.216990  1
  Tm  Tm7  1  0.840775  0.497427  0.282319  1
  Ti  Ti8  1  0.326289  0.326580  0.001309  1
  Ti  Ti9  1  0.174230  0.826095  0.249862  1
  Ti  Ti10  1  0.816373  0.174914  0.751769  1
  Ti  Ti11  1  0.672308  0.673457  0.499346  1
  Ti  Ti12  1  0.152707  0.007280  0.883268  1
  Ti  Ti13  1  0.492504  0.649792  0.127152  1
  Ti  Ti14  1  0.514660  0.354537  0.626154  1
  Ti  Ti15  1  0.653637  0.493192  0.875559  1
  Ti  Ti16  1  0.348341  0.509125  0.372806  1
  Ti  Ti17  1  0.847150  0.992946  0.375676  1
  Ti  Ti18  1  0.009141  0.151544  0.123785  1
  Ti  Ti19  1  0.979308  0.835593  0.618434  1
  Si  Si20  1  0.370962  0.703117  0.935757  1
  Si  Si21  1  0.628186  0.296764  0.431904  1
  Si  Si22  1  0.703428  0.368746  0.067431  1
  Si  Si23  1  0.297504  0.632239  0.565887  1
  Si  Si24  1  0.796870  0.869561  0.184423  1
  Si  Si25  1  0.130911  0.202696  0.315403  1
  Si  Si26  1  0.869663  0.799959  0.815899  1
  Si  Si27  1  0.293063  0.952533  0.067150  1
  Si  Si28  1  0.549177  0.790349  0.313710  1
  Si  Si29  1  0.459386  0.209455  0.819838  1
  Si  Si30  1  0.793516  0.545261  0.686748  1
  Si  Si31  1  0.208870  0.452227  0.185433  1
  Si  Si32  1  0.705375  0.047833  0.564310  1
  Si  Si33  1  0.952471  0.291609  0.935404  1
  Si  Si34  1  0.048127  0.710938  0.432528  1
  Sn  Sn35  1  0.200214  0.126526  0.678082  1
