# generated using pymatgen
data_Er2ScAlIr2
_symmetry_space_group_name_H-M   'P 1'
_cell_length_a   6.89403100
_cell_length_b   4.27104600
_cell_length_c   8.25085100
_cell_angle_alpha   90.00000000
_cell_angle_beta   90.00000000
_cell_angle_gamma   90.00000000
_symmetry_Int_Tables_number   1
_chemical_formula_structural   Er2ScAlIr2
_chemical_formula_sum   'Er4 Sc2 Al2 Ir4'
_cell_volume   242.94402655
_cell_formula_units_Z   2
loop_
 _symmetry_equiv_pos_site_id
 _symmetry_equiv_pos_as_xyz
  1  'x, y, z'
loop_
 _atom_site_type_symbol
 _atom_site_label
 _atom_site_symmetry_multiplicity
 _atom_site_fract_x
 _atom_site_fract_y
 _atom_site_fract_z
 _atom_site_occupancy
  Er  Er0  1  0.963248  0.250000  0.177592  1
  Er  Er1  1  0.463248  0.250000  0.322408  1
  Er  Er2  1  0.027545  0.750000  0.826679  1
  Er  Er3  1  0.527545  0.750000  0.673321  1
  Sc  Sc4  1  0.867536  0.250000  0.561663  1
  Sc  Sc5  1  0.367536  0.250000  0.938337  1
  Al  Al6  1  0.139772  0.750000  0.438848  1
  Al  Al7  1  0.639772  0.750000  0.061152  1
  Ir  Ir8  1  0.742700  0.250000  0.887814  1
  Ir  Ir9  1  0.242700  0.250000  0.612186  1
  Ir  Ir10  1  0.259199  0.750000  0.123400  1
  Ir  Ir11  1  0.759199  0.750000  0.376600  1
