# generated using pymatgen
data_Cs2NaTbBi2
_symmetry_space_group_name_H-M   'P 1'
_cell_length_a   10.52377121
_cell_length_b   10.52377173
_cell_length_c   10.52377066
_cell_angle_alpha   136.31796049
_cell_angle_beta   63.17556508
_cell_angle_gamma   136.72521410
_symmetry_Int_Tables_number   1
_chemical_formula_structural   Cs2NaTbBi2
_chemical_formula_sum   'Cs4 Na2 Tb2 Bi4'
_cell_volume   544.78149115
_cell_formula_units_Z   2
loop_
 _symmetry_equiv_pos_site_id
 _symmetry_equiv_pos_as_xyz
  1  'x, y, z'
loop_
 _atom_site_type_symbol
 _atom_site_label
 _atom_site_symmetry_multiplicity
 _atom_site_fract_x
 _atom_site_fract_y
 _atom_site_fract_z
 _atom_site_occupancy
  Cs  Cs0  1  0.322507  0.720883  0.043389  1
  Cs  Cs1  1  0.177493  0.220883  0.398376  1
  Cs  Cs2  1  0.822507  0.779118  0.601624  1
  Cs  Cs3  1  0.677493  0.279118  0.956611  1
  Na  Na4  1  0.249999  0.249999  0.000000  1
  Na  Na5  1  0.750000  0.750000  0.000000  1
  Tb  Tb6  1  0.749999  0.249999  0.500000  1
  Tb  Tb7  1  0.249999  0.750000  0.500000  1
  Bi  Bi8  1  0.905016  0.271674  0.176690  1
  Bi  Bi9  1  0.594984  0.771675  0.366659  1
  Bi  Bi10  1  0.405016  0.228326  0.633342  1
  Bi  Bi11  1  0.094984  0.728325  0.823309  1
