# generated using pymatgen
data_Ba3Si2Rh7
_symmetry_space_group_name_H-M   'P 1'
_cell_length_a   8.73181707
_cell_length_b   8.73181589
_cell_length_c   8.73181669
_cell_angle_alpha   38.98449592
_cell_angle_beta   38.98450457
_cell_angle_gamma   38.98450778
_symmetry_Int_Tables_number   1
_chemical_formula_structural   Ba3Si2Rh7
_chemical_formula_sum   'Ba3 Si2 Rh7'
_cell_volume   236.95546473
_cell_formula_units_Z   1
loop_
 _symmetry_equiv_pos_site_id
 _symmetry_equiv_pos_as_xyz
  1  'x, y, z'
loop_
 _atom_site_type_symbol
 _atom_site_label
 _atom_site_symmetry_multiplicity
 _atom_site_fract_x
 _atom_site_fract_y
 _atom_site_fract_z
 _atom_site_occupancy
  Ba  Ba0  1  0.357325  0.357325  0.357325  1
  Ba  Ba1  1  0.500000  0.500000  0.500000  1
  Ba  Ba2  1  0.642675  0.642675  0.642675  1
  Si  Si3  1  0.168685  0.168685  0.168685  1
  Si  Si4  1  0.831315  0.831315  0.831315  1
  Rh  Rh5  1  0.000000  0.000000  0.000000  1
  Rh  Rh6  1  0.582294  0.064975  0.064974  1
  Rh  Rh7  1  0.064975  0.582294  0.064974  1
  Rh  Rh8  1  0.935025  0.935025  0.417707  1
  Rh  Rh9  1  0.064975  0.064975  0.582293  1
  Rh  Rh10  1  0.935025  0.417706  0.935026  1
  Rh  Rh11  1  0.417706  0.935025  0.935026  1
