# generated using pymatgen
data_Dy2YReB7
_symmetry_space_group_name_H-M   'P 1'
_cell_length_a   8.09268604
_cell_length_b   8.09268631
_cell_length_c   9.35609300
_cell_angle_alpha   90.00000000
_cell_angle_beta   90.00000000
_cell_angle_gamma   154.73827385
_symmetry_Int_Tables_number   1
_chemical_formula_structural   Dy2YReB7
_chemical_formula_sum   'Dy4 Y2 Re2 B14'
_cell_volume   261.49137145
_cell_formula_units_Z   2
loop_
 _symmetry_equiv_pos_site_id
 _symmetry_equiv_pos_as_xyz
  1  'x, y, z'
loop_
 _atom_site_type_symbol
 _atom_site_label
 _atom_site_symmetry_multiplicity
 _atom_site_fract_x
 _atom_site_fract_y
 _atom_site_fract_z
 _atom_site_occupancy
  Dy  Dy0  1  0.894625  0.105375  0.439760  1
  Dy  Dy1  1  0.105375  0.894625  0.560240  1
  Dy  Dy2  1  0.894625  0.105375  0.060240  1
  Dy  Dy3  1  0.105375  0.894625  0.939760  1
  Y  Y4  1  0.242706  0.757294  0.250000  1
  Y  Y5  1  0.757294  0.242706  0.750000  1
  Re  Re6  1  0.052647  0.947353  0.250000  1
  Re  Re7  1  0.947353  0.052647  0.750000  1
  B  B8  1  0.727029  0.272971  0.466570  1
  B  B9  1  0.272971  0.727029  0.533430  1
  B  B10  1  0.727029  0.272971  0.033430  1
  B  B11  1  0.272971  0.727029  0.966570  1
  B  B12  1  0.631811  0.368189  0.150551  1
  B  B13  1  0.368189  0.631811  0.849449  1
  B  B14  1  0.631811  0.368189  0.349449  1
  B  B15  1  0.368189  0.631811  0.650551  1
  B  B16  1  0.520761  0.479239  0.095295  1
  B  B17  1  0.479239  0.520761  0.904705  1
  B  B18  1  0.520761  0.479239  0.404705  1
  B  B19  1  0.479239  0.520761  0.595295  1
  B  B20  1  0.457332  0.542668  0.250000  1
  B  B21  1  0.542668  0.457332  0.750000  1
