# generated using pymatgen
data_Tm8Sc12GaSi14P
_symmetry_space_group_name_H-M   'P 1'
_cell_length_a   7.04817555
_cell_length_b   7.33629858
_cell_length_c   13.92161169
_cell_angle_alpha   89.98270943
_cell_angle_beta   90.02002994
_cell_angle_gamma   90.09196831
_symmetry_Int_Tables_number   1
_chemical_formula_structural   Tm8Sc12GaSi14P
_chemical_formula_sum   'Tm8 Sc12 Ga1 Si14 P1'
_cell_volume   719.85101445
_cell_formula_units_Z   1
loop_
 _symmetry_equiv_pos_site_id
 _symmetry_equiv_pos_as_xyz
  1  'x, y, z'
loop_
 _atom_site_type_symbol
 _atom_site_label
 _atom_site_symmetry_multiplicity
 _atom_site_fract_x
 _atom_site_fract_y
 _atom_site_fract_z
 _atom_site_occupancy
  Tm  Tm0  1  0.009905  0.175459  0.096112  1
  Tm  Tm1  1  0.990967  0.826298  0.901591  1
  Tm  Tm2  1  0.489399  0.677336  0.904723  1
  Tm  Tm3  1  0.990289  0.827941  0.600019  1
  Tm  Tm4  1  0.511392  0.322642  0.095687  1
  Tm  Tm5  1  0.008888  0.174116  0.402193  1
  Tm  Tm6  1  0.512548  0.322097  0.402329  1
  Tm  Tm7  1  0.491525  0.679462  0.596761  1
  Sc  Sc8  1  0.159979  0.503217  0.751993  1
  Sc  Sc9  1  0.838622  0.496818  0.249760  1
  Sc  Sc10  1  0.338510  0.003490  0.249354  1
  Sc  Sc11  1  0.663485  0.997818  0.750393  1
  Sc  Sc12  1  0.329117  0.170599  0.628503  1
  Sc  Sc13  1  0.667134  0.824508  0.374885  1
  Sc  Sc14  1  0.168812  0.677752  0.373489  1
  Sc  Sc15  1  0.668179  0.823721  0.124350  1
  Sc  Sc16  1  0.830780  0.322966  0.626834  1
  Sc  Sc17  1  0.327116  0.172578  0.873055  1
  Sc  Sc18  1  0.832404  0.321756  0.873821  1
  Sc  Sc19  1  0.167785  0.677312  0.125030  1
  Ga  Ga20  1  0.161783  0.461855  0.539480  1
  Si  Si21  1  0.964511  0.885374  0.249392  1
  Si  Si22  1  0.467464  0.612553  0.249623  1
  Si  Si23  1  0.530179  0.386606  0.750096  1
  Si  Si24  1  0.295046  0.861523  0.750914  1
  Si  Si25  1  0.713908  0.128868  0.249114  1
  Si  Si26  1  0.214456  0.370086  0.249123  1
  Si  Si27  1  0.787023  0.631341  0.751099  1
  Si  Si28  1  0.840463  0.535896  0.460992  1
  Si  Si29  1  0.337975  0.965234  0.460414  1
  Si  Si30  1  0.840503  0.535416  0.037639  1
  Si  Si31  1  0.661069  0.036971  0.539628  1
  Si  Si32  1  0.159108  0.463404  0.961579  1
  Si  Si33  1  0.661159  0.036245  0.960014  1
  Si  Si34  1  0.338493  0.965490  0.039402  1
  P  P35  1  0.030023  0.125249  0.750613  1
