# generated using pymatgen
data_PrLu2Th3In10
_symmetry_space_group_name_H-M   'P 1'
_cell_length_a   6.57183049
_cell_length_b   6.57183111
_cell_length_c   10.32969618
_cell_angle_alpha   89.95333943
_cell_angle_beta   89.95333869
_cell_angle_gamma   102.45874344
_symmetry_Int_Tables_number   1
_chemical_formula_structural   PrLu2Th3In10
_chemical_formula_sum   'Pr1 Lu2 Th3 In10'
_cell_volume   435.62284919
_cell_formula_units_Z   1
loop_
 _symmetry_equiv_pos_site_id
 _symmetry_equiv_pos_as_xyz
  1  'x, y, z'
loop_
 _atom_site_type_symbol
 _atom_site_label
 _atom_site_symmetry_multiplicity
 _atom_site_fract_x
 _atom_site_fract_y
 _atom_site_fract_z
 _atom_site_occupancy
  Pr  Pr0  1  0.705780  0.294220  0.000000  1
  Lu  Lu1  1  0.132334  0.131398  0.748910  1
  Lu  Lu2  1  0.868602  0.867666  0.251090  1
  Th  Th3  1  0.705860  0.294140  0.500000  1
  Th  Th4  1  0.293545  0.706455  0.000000  1
  Th  Th5  1  0.293912  0.706088  0.500000  1
  In  In6  1  0.509272  0.509406  0.749890  1
  In  In7  1  0.490594  0.490728  0.250110  1
  In  In8  1  0.812019  0.812057  0.545850  1
  In  In9  1  0.187943  0.187981  0.454150  1
  In  In10  1  0.811460  0.810978  0.954560  1
  In  In11  1  0.189022  0.188540  0.045440  1
  In  In12  1  0.993122  0.566217  0.749684  1
  In  In13  1  0.433783  0.006878  0.250316  1
  In  In14  1  0.006901  0.434148  0.249931  1
  In  In15  1  0.565852  0.993099  0.750069  1
