# generated using pymatgen
data_Gd9ErIr6
_symmetry_space_group_name_H-M   'P 1'
_cell_length_a   10.88827300
_cell_length_b   10.88827300
_cell_length_c   6.44947700
_cell_angle_alpha   90.00000000
_cell_angle_beta   90.00000000
_cell_angle_gamma   90.00000000
_symmetry_Int_Tables_number   1
_chemical_formula_structural   Gd9ErIr6
_chemical_formula_sum   'Gd18 Er2 Ir12'
_cell_volume   764.61444955
_cell_formula_units_Z   2
loop_
 _symmetry_equiv_pos_site_id
 _symmetry_equiv_pos_as_xyz
  1  'x, y, z'
loop_
 _atom_site_type_symbol
 _atom_site_label
 _atom_site_symmetry_multiplicity
 _atom_site_fract_x
 _atom_site_fract_y
 _atom_site_fract_z
 _atom_site_occupancy
  Gd  Gd0  1  0.289527  0.087540  0.379085  1
  Gd  Gd1  1  0.289527  0.912460  0.879085  1
  Gd  Gd2  1  0.710473  0.087540  0.879085  1
  Gd  Gd3  1  0.710473  0.912460  0.379085  1
  Gd  Gd4  1  0.588351  0.791521  0.878786  1
  Gd  Gd5  1  0.588351  0.208479  0.378786  1
  Gd  Gd6  1  0.411649  0.791521  0.378786  1
  Gd  Gd7  1  0.411649  0.208479  0.878786  1
  Gd  Gd8  1  0.208479  0.411649  0.621214  1
  Gd  Gd9  1  0.208479  0.588351  0.121214  1
  Gd  Gd10  1  0.791521  0.411649  0.121214  1
  Gd  Gd11  1  0.791521  0.588351  0.621214  1
  Gd  Gd12  1  0.912460  0.710473  0.120915  1
  Gd  Gd13  1  0.912460  0.289527  0.620915  1
  Gd  Gd14  1  0.087540  0.710473  0.620915  1
  Gd  Gd15  1  0.087540  0.289527  0.120915  1
  Gd  Gd16  1  0.500000  0.500000  0.000000  1
  Gd  Gd17  1  0.500000  0.500000  0.500000  1
  Er  Er18  1  0.000000  0.000000  0.500000  1
  Er  Er19  1  0.000000  0.000000  0.000000  1
  Ir  Ir20  1  0.848699  0.151301  0.250000  1
  Ir  Ir21  1  0.848699  0.848699  0.750000  1
  Ir  Ir22  1  0.151301  0.151301  0.750000  1
  Ir  Ir23  1  0.151301  0.848699  0.250000  1
  Ir  Ir24  1  0.653852  0.346148  0.750000  1
  Ir  Ir25  1  0.653852  0.653852  0.250000  1
  Ir  Ir26  1  0.346148  0.346148  0.250000  1
  Ir  Ir27  1  0.346148  0.653852  0.750000  1
  Ir  Ir28  1  0.500000  0.000000  0.123020  1
  Ir  Ir29  1  0.500000  0.000000  0.623020  1
  Ir  Ir30  1  0.000000  0.500000  0.876980  1
  Ir  Ir31  1  0.000000  0.500000  0.376980  1
