# generated using pymatgen
data_Dy17Ho3(Ir5Pt)2
_symmetry_space_group_name_H-M   'P 1'
_cell_length_a   10.94118386
_cell_length_b   10.94573400
_cell_length_c   6.34484102
_cell_angle_alpha   89.99905925
_cell_angle_beta   89.96254104
_cell_angle_gamma   90.00186354
_symmetry_Int_Tables_number   1
_chemical_formula_structural   Dy17Ho3(Ir5Pt)2
_chemical_formula_sum   'Dy17 Ho3 Ir10 Pt2'
_cell_volume   759.85348060
_cell_formula_units_Z   1
loop_
 _symmetry_equiv_pos_site_id
 _symmetry_equiv_pos_as_xyz
  1  'x, y, z'
loop_
 _atom_site_type_symbol
 _atom_site_label
 _atom_site_symmetry_multiplicity
 _atom_site_fract_x
 _atom_site_fract_y
 _atom_site_fract_z
 _atom_site_occupancy
  Dy  Dy0  1  0.291352  0.088392  0.376228  1
  Dy  Dy1  1  0.291308  0.911664  0.876291  1
  Dy  Dy2  1  0.705284  0.090117  0.874191  1
  Dy  Dy3  1  0.705257  0.909837  0.374177  1
  Dy  Dy4  1  0.584591  0.790843  0.878593  1
  Dy  Dy5  1  0.584561  0.209151  0.378626  1
  Dy  Dy6  1  0.410803  0.791310  0.377758  1
  Dy  Dy7  1  0.410765  0.208704  0.877725  1
  Dy  Dy8  1  0.208962  0.411448  0.622038  1
  Dy  Dy9  1  0.208951  0.588543  0.122080  1
  Dy  Dy10  1  0.790794  0.414592  0.122428  1
  Dy  Dy11  1  0.790790  0.585423  0.622387  1
  Dy  Dy12  1  0.913403  0.707110  0.126548  1
  Dy  Dy13  1  0.913400  0.292942  0.626580  1
  Dy  Dy14  1  0.091630  0.706739  0.622325  1
  Dy  Dy15  1  0.091627  0.293202  0.122272  1
  Dy  Dy16  1  0.003013  0.999574  0.499961  1
  Ho  Ho17  1  0.003065  0.000421  0.999963  1
  Ho  Ho18  1  0.499799  0.499570  0.999866  1
  Ho  Ho19  1  0.499806  0.500443  0.499870  1
  Ir  Ir20  1  0.152891  0.153751  0.750257  1
  Ir  Ir21  1  0.152918  0.846251  0.249878  1
  Ir  Ir22  1  0.654705  0.346087  0.749525  1
  Ir  Ir23  1  0.654688  0.653900  0.249520  1
  Ir  Ir24  1  0.346840  0.346430  0.250384  1
  Ir  Ir25  1  0.346834  0.653570  0.750388  1
  Ir  Ir26  1  0.500692  0.999812  0.123526  1
  Ir  Ir27  1  0.500693  0.000200  0.623501  1
  Ir  Ir28  1  0.999559  0.500196  0.876781  1
  Ir  Ir29  1  0.999565  0.499794  0.376763  1
  Pt  Pt30  1  0.845714  0.153290  0.249597  1
  Pt  Pt31  1  0.845741  0.846693  0.749974  1
