# generated using pymatgen
data_K7RbTi4Al4(PO4)12
_symmetry_space_group_name_H-M   'P 1'
_cell_length_a   9.84358700
_cell_length_b   9.84358700
_cell_length_c   9.84358700
_cell_angle_alpha   90.00000000
_cell_angle_beta   90.00000000
_cell_angle_gamma   90.00000000
_symmetry_Int_Tables_number   1
_chemical_formula_structural   K7RbTi4Al4(PO4)12
_chemical_formula_sum   'K7 Rb1 Ti4 Al4 P12 O48'
_cell_volume   953.80622415
_cell_formula_units_Z   1
loop_
 _symmetry_equiv_pos_site_id
 _symmetry_equiv_pos_as_xyz
  1  'x, y, z'
loop_
 _atom_site_type_symbol
 _atom_site_label
 _atom_site_symmetry_multiplicity
 _atom_site_fract_x
 _atom_site_fract_y
 _atom_site_fract_z
 _atom_site_occupancy
  K  K0  1  0.181834  0.681629  0.818222  1
  K  K1  1  0.318371  0.318222  0.318166  1
  K  K2  1  0.457684  0.042490  0.957473  1
  K  K3  1  0.542527  0.542316  0.542490  1
  K  K4  1  0.681778  0.818166  0.181629  1
  K  K5  1  0.817899  0.182101  0.682101  1
  K  K6  1  0.957510  0.457473  0.042316  1
  Rb  Rb7  1  0.039177  0.960823  0.460823  1
  Ti  Ti8  1  0.163545  0.336580  0.663347  1
  Ti  Ti9  1  0.336447  0.663553  0.163553  1
  Ti  Ti10  1  0.663420  0.163347  0.336455  1
  Ti  Ti11  1  0.836653  0.836455  0.836580  1
  Al  Al12  1  0.107846  0.108170  0.107585  1
  Al  Al13  1  0.392415  0.892154  0.608170  1
  Al  Al14  1  0.607833  0.392167  0.892167  1
  Al  Al15  1  0.891830  0.607585  0.392154  1
  P  P16  1  0.020825  0.796188  0.128555  1
  P  P17  1  0.129896  0.021072  0.796989  1
  P  P18  1  0.203812  0.628555  0.479175  1
  P  P19  1  0.296400  0.370711  0.979028  1
  P  P20  1  0.371445  0.979175  0.296188  1
  P  P21  1  0.479121  0.203690  0.629411  1
  P  P22  1  0.520972  0.703600  0.870711  1
  P  P23  1  0.629289  0.479028  0.203600  1
  P  P24  1  0.703011  0.870104  0.521072  1
  P  P25  1  0.796310  0.129411  0.020879  1
  P  P26  1  0.870589  0.520879  0.703690  1
  P  P27  1  0.978928  0.296989  0.370104  1
  O  O28  1  0.008149  0.445645  0.727470  1
  O  O29  1  0.016849  0.946877  0.168676  1
  O  O30  1  0.050831  0.207396  0.265459  1
  O  O31  1  0.054853  0.274541  0.507456  1
  O  O32  1  0.053123  0.668676  0.483151  1
  O  O33  1  0.104239  0.169188  0.748199  1
  O  O34  1  0.173091  0.018429  0.946856  1
  O  O35  1  0.169464  0.748440  0.103860  1
  O  O36  1  0.206305  0.266315  0.050707  1
  O  O37  1  0.229476  0.491591  0.554765  1
  O  O38  1  0.234541  0.949169  0.707396  1
  O  O39  1  0.248612  0.395787  0.830553  1
  O  O40  1  0.251560  0.603860  0.330536  1
  O  O41  1  0.265689  0.050645  0.207433  1
  O  O42  1  0.272673  0.508060  0.054449  1
  O  O43  1  0.292567  0.734311  0.550645  1
  O  O44  1  0.330456  0.250929  0.604405  1
  O  O45  1  0.331324  0.983151  0.446877  1
  O  O46  1  0.396140  0.830536  0.248440  1
  O  O47  1  0.446596  0.328170  0.982415  1
  O  O48  1  0.445551  0.727327  0.008060  1
  O  O49  1  0.449293  0.793695  0.766315  1
  O  O50  1  0.483036  0.053579  0.672356  1
  O  O51  1  0.491940  0.554449  0.227327  1
  O  O52  1  0.508409  0.054765  0.270524  1
  O  O53  1  0.517585  0.553404  0.828170  1
  O  O54  1  0.550705  0.294130  0.733613  1
  O  O55  1  0.554355  0.227470  0.491851  1
  O  O56  1  0.553144  0.826909  0.518429  1
  O  O57  1  0.604213  0.330553  0.251388  1
  O  O58  1  0.671830  0.482415  0.053404  1
  O  O59  1  0.669447  0.751388  0.895787  1
  O  O60  1  0.705870  0.233613  0.949295  1
  O  O61  1  0.725459  0.007456  0.445147  1
  O  O62  1  0.733685  0.550707  0.293695  1
  O  O63  1  0.749071  0.104405  0.169544  1
  O  O64  1  0.751801  0.895761  0.669188  1
  O  O65  1  0.766387  0.449295  0.794130  1
  O  O66  1  0.772530  0.991851  0.945645  1
  O  O67  1  0.792604  0.765459  0.449169  1
  O  O68  1  0.830812  0.248199  0.395761  1
  O  O69  1  0.827644  0.516964  0.553579  1
  O  O70  1  0.895595  0.669544  0.750929  1
  O  O71  1  0.946421  0.172356  0.016964  1
  O  O72  1  0.945235  0.770524  0.991591  1
  O  O73  1  0.949355  0.707433  0.234311  1
  O  O74  1  0.981571  0.446856  0.326909  1
  O  O75  1  0.992544  0.945147  0.774541  1
