# generated using pymatgen
data_GaSi15(Pt3W)4
_symmetry_space_group_name_H-M   'P 1'
_cell_length_a   3.53939000
_cell_length_b   5.56782605
_cell_length_c   24.64456373
_cell_angle_alpha   90.00605119
_cell_angle_beta   90.00000000
_cell_angle_gamma   90.00000000
_symmetry_Int_Tables_number   1
_chemical_formula_structural   GaSi15(Pt3W)4
_chemical_formula_sum   'Ga1 Si15 Pt12 W4'
_cell_volume   485.66321498
_cell_formula_units_Z   1
loop_
 _symmetry_equiv_pos_site_id
 _symmetry_equiv_pos_as_xyz
  1  'x, y, z'
loop_
 _atom_site_type_symbol
 _atom_site_label
 _atom_site_symmetry_multiplicity
 _atom_site_fract_x
 _atom_site_fract_y
 _atom_site_fract_z
 _atom_site_occupancy
  Ga  Ga0  1  0.250000  0.183505  0.520427  1
  Si  Si1  1  0.750000  0.320569  0.019627  1
  Si  Si2  1  0.250000  0.679547  0.980387  1
  Si  Si3  1  0.750000  0.824284  0.480822  1
  Si  Si4  1  0.750000  0.320503  0.644667  1
  Si  Si5  1  0.250000  0.179427  0.145001  1
  Si  Si6  1  0.750000  0.820113  0.855064  1
  Si  Si7  1  0.250000  0.678163  0.353868  1
  Si  Si8  1  0.250000  0.665166  0.609882  1
  Si  Si9  1  0.750000  0.839015  0.109151  1
  Si  Si10  1  0.250000  0.160685  0.890851  1
  Si  Si11  1  0.750000  0.335201  0.390120  1
  Si  Si12  1  0.750000  0.827340  0.726478  1
  Si  Si13  1  0.250000  0.670542  0.225299  1
  Si  Si14  1  0.750000  0.328130  0.774324  1
  Si  Si15  1  0.250000  0.169933  0.273879  1
  Pt  Pt16  1  0.750000  0.992164  0.578504  1
  Pt  Pt17  1  0.250000  0.497360  0.074453  1
  Pt  Pt18  1  0.750000  0.502517  0.925464  1
  Pt  Pt19  1  0.250000  0.999336  0.423254  1
  Pt  Pt20  1  0.250000  0.004196  0.672441  1
  Pt  Pt21  1  0.750000  0.495616  0.169574  1
  Pt  Pt22  1  0.250000  0.503450  0.830135  1
  Pt  Pt23  1  0.750000  0.994161  0.328514  1
  Pt  Pt24  1  0.750000  0.507799  0.549563  1
  Pt  Pt25  1  0.250000  0.996915  0.048393  1
  Pt  Pt26  1  0.750000  0.003068  0.951749  1
  Pt  Pt27  1  0.250000  0.504856  0.448453  1
  W  W28  1  0.250000  0.500967  0.710565  1
  W  W29  1  0.750000  0.996714  0.209851  1
  W  W30  1  0.250000  0.002598  0.790377  1
  W  W31  1  0.750000  0.496157  0.288864  1
