# generated using pymatgen
data_YHo11(Si3Ir)4
_symmetry_space_group_name_H-M   'P 1'
_cell_length_a   4.22786000
_cell_length_b   10.60869916
_cell_length_c   12.25351116
_cell_angle_alpha   90.02537920
_cell_angle_beta   90.00000000
_cell_angle_gamma   90.00000000
_symmetry_Int_Tables_number   1
_chemical_formula_structural   YHo11(Si3Ir)4
_chemical_formula_sum   'Y1 Ho11 Si12 Ir4'
_cell_volume   549.59559074
_cell_formula_units_Z   1
loop_
 _symmetry_equiv_pos_site_id
 _symmetry_equiv_pos_as_xyz
  1  'x, y, z'
loop_
 _atom_site_type_symbol
 _atom_site_label
 _atom_site_symmetry_multiplicity
 _atom_site_fract_x
 _atom_site_fract_y
 _atom_site_fract_z
 _atom_site_occupancy
  Y  Y0  1  0.750000  0.158451  0.699267  1
  Ho  Ho1  1  0.250000  0.880015  0.020247  1
  Ho  Ho2  1  0.250000  0.619856  0.520115  1
  Ho  Ho3  1  0.750000  0.120055  0.979639  1
  Ho  Ho4  1  0.750000  0.379731  0.479967  1
  Ho  Ho5  1  0.250000  0.918492  0.603293  1
  Ho  Ho6  1  0.250000  0.581186  0.103536  1
  Ho  Ho7  1  0.750000  0.080857  0.396835  1
  Ho  Ho8  1  0.750000  0.419223  0.896505  1
  Ho  Ho9  1  0.250000  0.659029  0.800661  1
  Ho  Ho10  1  0.250000  0.841556  0.300807  1
  Ho  Ho11  1  0.750000  0.340423  0.199364  1
  Si  Si12  1  0.250000  0.010187  0.821388  1
  Si  Si13  1  0.250000  0.489151  0.321130  1
  Si  Si14  1  0.750000  0.989950  0.178749  1
  Si  Si15  1  0.750000  0.510777  0.678784  1
  Si  Si16  1  0.250000  0.247244  0.840963  1
  Si  Si17  1  0.250000  0.253065  0.341199  1
  Si  Si18  1  0.750000  0.753651  0.159318  1
  Si  Si19  1  0.750000  0.746542  0.658954  1
  Si  Si20  1  0.250000  0.200332  0.543668  1
  Si  Si21  1  0.250000  0.299700  0.043538  1
  Si  Si22  1  0.750000  0.799312  0.456240  1
  Si  Si23  1  0.750000  0.700692  0.956182  1
  Ir  Ir24  1  0.250000  0.390250  0.680734  1
  Ir  Ir25  1  0.250000  0.110742  0.180788  1
  Ir  Ir26  1  0.750000  0.610289  0.319175  1
  Ir  Ir27  1  0.750000  0.889240  0.818954  1
