# generated using pymatgen
data_HfSc2P3
_symmetry_space_group_name_H-M   'P 1'
_cell_length_a   6.46454345
_cell_length_b   6.46454339
_cell_length_c   6.46454256
_cell_angle_alpha   146.55307154
_cell_angle_beta   131.79105789
_cell_angle_gamma   59.94621761
_symmetry_Int_Tables_number   1
_chemical_formula_structural   HfSc2P3
_chemical_formula_sum   'Hf1 Sc2 P3'
_cell_volume   110.00914038
_cell_formula_units_Z   1
loop_
 _symmetry_equiv_pos_site_id
 _symmetry_equiv_pos_as_xyz
  1  'x, y, z'
loop_
 _atom_site_type_symbol
 _atom_site_label
 _atom_site_symmetry_multiplicity
 _atom_site_fract_x
 _atom_site_fract_y
 _atom_site_fract_z
 _atom_site_occupancy
  Hf  Hf0  1  0.000000  0.000000  0.000000  1
  Sc  Sc1  1  0.667187  0.667187  0.000000  1
  Sc  Sc2  1  0.332813  0.332813  0.000000  1
  P  P3  1  0.500000  0.000000  0.500000  1
  P  P4  1  0.165425  0.665425  0.500000  1
  P  P5  1  0.834575  0.334575  0.500000  1
