# generated using pymatgen
data_Nb4Ga(Co3W)2
_symmetry_space_group_name_H-M   'P 1'
_cell_length_a   4.89733634
_cell_length_b   4.89733558
_cell_length_c   9.01786867
_cell_angle_alpha   74.24435292
_cell_angle_beta   74.24435411
_cell_angle_gamma   59.99998773
_symmetry_Int_Tables_number   1
_chemical_formula_structural   Nb4Ga(Co3W)2
_chemical_formula_sum   'Nb4 Ga1 Co6 W2'
_cell_volume   177.86203500
_cell_formula_units_Z   1
loop_
 _symmetry_equiv_pos_site_id
 _symmetry_equiv_pos_as_xyz
  1  'x, y, z'
loop_
 _atom_site_type_symbol
 _atom_site_label
 _atom_site_symmetry_multiplicity
 _atom_site_fract_x
 _atom_site_fract_y
 _atom_site_fract_z
 _atom_site_occupancy
  Nb  Nb0  1  0.347193  0.347193  0.958421  1
  Nb  Nb1  1  0.652807  0.652807  0.041579  1
  Nb  Nb2  1  0.450629  0.450629  0.648113  1
  Nb  Nb3  1  0.549371  0.549371  0.351887  1
  Ga  Ga4  1  0.000000  0.000000  0.000000  1
  Co  Co5  1  0.585400  0.088770  0.237059  1
  Co  Co6  1  0.088770  0.088770  0.237059  1
  Co  Co7  1  0.088770  0.585400  0.237059  1
  Co  Co8  1  0.414600  0.911230  0.762941  1
  Co  Co9  1  0.911230  0.911230  0.762941  1
  Co  Co10  1  0.911230  0.414600  0.762941  1
  W  W11  1  0.169262  0.169262  0.492213  1
  W  W12  1  0.830738  0.830738  0.507787  1
