# generated using pymatgen
data_Cs2SmF5
_symmetry_space_group_name_H-M   'P 1'
_cell_length_a   7.30191700
_cell_length_b   7.77694000
_cell_length_c   12.18922200
_cell_angle_alpha   90.00000000
_cell_angle_beta   90.00000000
_cell_angle_gamma   90.00000000
_symmetry_Int_Tables_number   1
_chemical_formula_structural   Cs2SmF5
_chemical_formula_sum   'Cs8 Sm4 F20'
_cell_volume   692.18411315
_cell_formula_units_Z   4
loop_
 _symmetry_equiv_pos_site_id
 _symmetry_equiv_pos_as_xyz
  1  'x, y, z'
loop_
 _atom_site_type_symbol
 _atom_site_label
 _atom_site_symmetry_multiplicity
 _atom_site_fract_x
 _atom_site_fract_y
 _atom_site_fract_z
 _atom_site_occupancy
  Cs  Cs0  1  0.533656  0.019545  0.170872  1
  Cs  Cs1  1  0.466344  0.519545  0.829128  1
  Cs  Cs2  1  0.966344  0.019545  0.670872  1
  Cs  Cs3  1  0.033656  0.519545  0.329128  1
  Cs  Cs4  1  0.033498  0.017904  0.329371  1
  Cs  Cs5  1  0.966502  0.517904  0.670629  1
  Cs  Cs6  1  0.466502  0.017904  0.829371  1
  Cs  Cs7  1  0.533498  0.517904  0.170629  1
  Sm  Sm8  1  0.444662  0.268246  0.501313  1
  Sm  Sm9  1  0.555338  0.768246  0.498687  1
  Sm  Sm10  1  0.055338  0.268246  0.001313  1
  Sm  Sm11  1  0.944662  0.768246  0.998687  1
  F  F12  1  0.137184  0.984884  0.067122  1
  F  F13  1  0.862816  0.484884  0.932878  1
  F  F14  1  0.362816  0.984884  0.567122  1
  F  F15  1  0.637184  0.484884  0.432878  1
  F  F16  1  0.363017  0.268886  0.017200  1
  F  F17  1  0.636983  0.768886  0.982800  1
  F  F18  1  0.136983  0.268886  0.517200  1
  F  F19  1  0.863017  0.768886  0.482800  1
  F  F20  1  0.135835  0.551371  0.068003  1
  F  F21  1  0.864165  0.051371  0.931997  1
  F  F22  1  0.364165  0.551371  0.568003  1
  F  F23  1  0.635835  0.051371  0.431997  1
  F  F24  1  0.354883  0.269003  0.322839  1
  F  F25  1  0.645117  0.769003  0.677161  1
  F  F26  1  0.145117  0.269003  0.822839  1
  F  F27  1  0.854883  0.769003  0.177161  1
  F  F28  1  0.380100  0.767160  0.344291  1
  F  F29  1  0.619900  0.267160  0.655709  1
  F  F30  1  0.119900  0.767160  0.844291  1
  F  F31  1  0.880100  0.267160  0.155709  1
