# generated using pymatgen
data_Y4MgBiRu2
_symmetry_space_group_name_H-M   'P 1'
_cell_length_a   9.20656586
_cell_length_b   9.20656647
_cell_length_c   9.20656720
_cell_angle_alpha   133.07812331
_cell_angle_beta   133.07813103
_cell_angle_gamma   68.53148057
_symmetry_Int_Tables_number   1
_chemical_formula_structural   Y4MgBiRu2
_chemical_formula_sum   'Y8 Mg2 Bi2 Ru4'
_cell_volume   408.88198220
_cell_formula_units_Z   2
loop_
 _symmetry_equiv_pos_site_id
 _symmetry_equiv_pos_as_xyz
  1  'x, y, z'
loop_
 _atom_site_type_symbol
 _atom_site_label
 _atom_site_symmetry_multiplicity
 _atom_site_fract_x
 _atom_site_fract_y
 _atom_site_fract_z
 _atom_site_occupancy
  Y  Y0  1  0.799870  0.299870  0.849630  1
  Y  Y1  1  0.200130  0.700130  0.150370  1
  Y  Y2  1  0.450241  0.950241  0.150370  1
  Y  Y3  1  0.299870  0.450241  0.500000  1
  Y  Y4  1  0.049759  0.200130  0.500000  1
  Y  Y5  1  0.549759  0.049759  0.849630  1
  Y  Y6  1  0.700130  0.549759  0.500000  1
  Y  Y7  1  0.950241  0.799870  0.500000  1
  Mg  Mg8  1  0.000000  0.000000  0.000000  1
  Mg  Mg9  1  0.500000  0.500000  0.000000  1
  Bi  Bi10  1  0.250000  0.250000  0.000000  1
  Bi  Bi11  1  0.750000  0.750000  0.000000  1
  Ru  Ru12  1  0.127989  0.627989  0.755978  1
  Ru  Ru13  1  0.872011  0.372011  0.244022  1
  Ru  Ru14  1  0.627989  0.872011  0.500000  1
  Ru  Ru15  1  0.372011  0.127989  0.500000  1
