# generated using pymatgen
data_La6Nd4Sn3Bi2PbCl2
_symmetry_space_group_name_H-M   'P 1'
_cell_length_a   9.67803900
_cell_length_b   9.65206859
_cell_length_c   6.77791200
_cell_angle_alpha   90.00000000
_cell_angle_beta   90.00000000
_cell_angle_gamma   120.08903591
_symmetry_Int_Tables_number   1
_chemical_formula_structural   La6Nd4Sn3Bi2PbCl2
_chemical_formula_sum   'La6 Nd4 Sn3 Bi2 Pb1 Cl2'
_cell_volume   547.82769400
_cell_formula_units_Z   1
loop_
 _symmetry_equiv_pos_site_id
 _symmetry_equiv_pos_as_xyz
  1  'x, y, z'
loop_
 _atom_site_type_symbol
 _atom_site_label
 _atom_site_symmetry_multiplicity
 _atom_site_fract_x
 _atom_site_fract_y
 _atom_site_fract_z
 _atom_site_occupancy
  La  La0  1  0.738497  0.004783  0.750000  1
  La  La1  1  0.734556  0.738053  0.250000  1
  La  La2  1  0.001264  0.260532  0.250000  1
  La  La3  1  0.004498  0.738852  0.750000  1
  La  La4  1  0.259460  0.259766  0.750000  1
  La  La5  1  0.265938  0.004816  0.250000  1
  Nd  Nd6  1  0.664781  0.329913  0.999568  1
  Nd  Nd7  1  0.333554  0.667378  0.500457  1
  Nd  Nd8  1  0.664781  0.329913  0.500432  1
  Nd  Nd9  1  0.333554  0.667378  0.999543  1
  Sn  Sn10  1  0.388733  0.000366  0.750000  1
  Sn  Sn11  1  0.000663  0.388799  0.750000  1
  Sn  Sn12  1  0.388180  0.389056  0.250000  1
  Bi  Bi13  1  0.613172  0.613024  0.750000  1
  Bi  Bi14  1  0.999743  0.612969  0.250000  1
  Pb  Pb15  1  0.611802  0.000287  0.250000  1
  Cl  Cl16  1  0.998412  0.997057  0.499956  1
  Cl  Cl17  1  0.998412  0.997057  0.000044  1
