# generated using pymatgen
data_Yb3Tm(WN2)4
_symmetry_space_group_name_H-M   'P 1'
_cell_length_a   3.08954900
_cell_length_b   5.61845766
_cell_length_c   10.86498582
_cell_angle_alpha   89.61751552
_cell_angle_beta   90.00000000
_cell_angle_gamma   90.00000000
_symmetry_Int_Tables_number   1
_chemical_formula_structural   Yb3Tm(WN2)4
_chemical_formula_sum   'Yb3 Tm1 W4 N8'
_cell_volume   188.59565678
_cell_formula_units_Z   1
loop_
 _symmetry_equiv_pos_site_id
 _symmetry_equiv_pos_as_xyz
  1  'x, y, z'
loop_
 _atom_site_type_symbol
 _atom_site_label
 _atom_site_symmetry_multiplicity
 _atom_site_fract_x
 _atom_site_fract_y
 _atom_site_fract_z
 _atom_site_occupancy
  Yb  Yb0  1  0.250000  0.581545  0.369588  1
  Yb  Yb1  1  0.250000  0.085680  0.132436  1
  Yb  Yb2  1  0.750000  0.417678  0.631351  1
  Tm  Tm3  1  0.750000  0.915425  0.867287  1
  W  W4  1  0.250000  0.926400  0.618174  1
  W  W5  1  0.250000  0.422796  0.880268  1
  W  W6  1  0.750000  0.074929  0.379213  1
  W  W7  1  0.750000  0.579078  0.121225  1
  N  N8  1  0.250000  0.672037  0.745487  1
  N  N9  1  0.250000  0.166422  0.758089  1
  N  N10  1  0.750000  0.328665  0.256232  1
  N  N11  1  0.750000  0.827673  0.243205  1
  N  N12  1  0.250000  0.226849  0.493559  1
  N  N13  1  0.250000  0.737154  0.005026  1
  N  N14  1  0.750000  0.771132  0.506909  1
  N  N15  1  0.750000  0.266534  0.991952  1
