# generated using pymatgen
data_PrAl2SiPd
_symmetry_space_group_name_H-M   'P 1'
_cell_length_a   6.05507500
_cell_length_b   6.05507382
_cell_length_c   5.84444200
_cell_angle_alpha   90.00000000
_cell_angle_beta   90.00000000
_cell_angle_gamma   115.33902053
_symmetry_Int_Tables_number   1
_chemical_formula_structural   PrAl2SiPd
_chemical_formula_sum   'Pr2 Al4 Si2 Pd2'
_cell_volume   193.66456977
_cell_formula_units_Z   2
loop_
 _symmetry_equiv_pos_site_id
 _symmetry_equiv_pos_as_xyz
  1  'x, y, z'
loop_
 _atom_site_type_symbol
 _atom_site_label
 _atom_site_symmetry_multiplicity
 _atom_site_fract_x
 _atom_site_fract_y
 _atom_site_fract_z
 _atom_site_occupancy
  Pr  Pr0  1  0.242610  0.757390  0.750000  1
  Pr  Pr1  1  0.757390  0.242610  0.250000  1
  Al  Al2  1  0.723568  0.723568  0.000000  1
  Al  Al3  1  0.723568  0.723568  0.500000  1
  Al  Al4  1  0.276432  0.276432  0.000000  1
  Al  Al5  1  0.276432  0.276432  0.500000  1
  Si  Si6  1  0.659299  0.340701  0.750000  1
  Si  Si7  1  0.340701  0.659299  0.250000  1
  Pd  Pd8  1  0.897628  0.102372  0.750000  1
  Pd  Pd9  1  0.102372  0.897628  0.250000  1
