# generated using pymatgen
data_Sc4(Al8Pd3)3
_symmetry_space_group_name_H-M   'P 1'
_cell_length_a   7.47369186
_cell_length_b   7.49727664
_cell_length_c   13.02981551
_cell_angle_alpha   84.59376972
_cell_angle_beta   79.11191804
_cell_angle_gamma   59.93758378
_symmetry_Int_Tables_number   1
_chemical_formula_structural   Sc4(Al8Pd3)3
_chemical_formula_sum   'Sc4 Al24 Pd9'
_cell_volume   620.50415582
_cell_formula_units_Z   1
loop_
 _symmetry_equiv_pos_site_id
 _symmetry_equiv_pos_as_xyz
  1  'x, y, z'
loop_
 _atom_site_type_symbol
 _atom_site_label
 _atom_site_symmetry_multiplicity
 _atom_site_fract_x
 _atom_site_fract_y
 _atom_site_fract_z
 _atom_site_occupancy
  Sc  Sc0  1  0.392959  0.168645  0.809306  1
  Sc  Sc1  1  0.607041  0.831355  0.190694  1
  Sc  Sc2  1  0.732809  0.498886  0.809173  1
  Sc  Sc3  1  0.267191  0.501114  0.190827  1
  Al  Al4  1  0.681808  0.833795  0.941678  1
  Al  Al5  1  0.318192  0.166205  0.058322  1
  Al  Al6  1  0.145370  0.833539  0.562452  1
  Al  Al7  1  0.854630  0.166461  0.437548  1
  Al  Al8  1  0.478913  0.166795  0.560118  1
  Al  Al9  1  0.521087  0.833205  0.439882  1
  Al  Al10  1  0.221914  0.165580  0.322968  1
  Al  Al11  1  0.778086  0.834420  0.677032  1
  Al  Al12  1  0.437085  0.503876  0.677566  1
  Al  Al13  1  0.562915  0.496124  0.322434  1
  Al  Al14  1  0.106773  0.162685  0.676515  1
  Al  Al15  1  0.893227  0.837315  0.323485  1
  Al  Al16  1  0.357128  0.495972  0.941748  1
  Al  Al17  1  0.642872  0.504028  0.058252  1
  Al  Al18  1  0.016912  0.170560  0.949804  1
  Al  Al19  1  0.983088  0.829440  0.050196  1
  Al  Al20  1  0.187134  0.499829  0.439808  1
  Al  Al21  1  0.812866  0.500171  0.560192  1
  Al  Al22  1  0.729475  0.163728  0.183160  1
  Al  Al23  1  0.270525  0.836272  0.816840  1
  Al  Al24  1  0.060934  0.626621  0.815814  1
  Al  Al25  1  0.939066  0.373379  0.184186  1
  Al  Al26  1  0.850287  0.046464  0.816763  1
  Al  Al27  1  0.149713  0.953536  0.183237  1
  Pd  Pd28  1  0.119935  0.491385  0.638894  1
  Pd  Pd29  1  0.880065  0.508615  0.361106  1
  Pd  Pd30  1  0.657262  0.171417  0.999775  1
  Pd  Pd31  1  0.342738  0.828583  0.000225  1
  Pd  Pd32  1  0.537651  0.166922  0.361041  1
  Pd  Pd33  1  0.462349  0.833077  0.638959  1
  Pd  Pd34  1  0.777382  0.175492  0.638173  1
  Pd  Pd35  1  0.222618  0.824508  0.361827  1
  Pd  Pd36  1  0.000000  0.500000  0.000000  1
