# generated using pymatgen
data_CsK9Rb2(AlTe3)4
_symmetry_space_group_name_H-M   'P 1'
_cell_length_a   14.54014636
_cell_length_b   8.83647025
_cell_length_c   11.29475861
_cell_angle_alpha   52.89359365
_cell_angle_beta   89.98546822
_cell_angle_gamma   89.97657417
_symmetry_Int_Tables_number   1
_chemical_formula_structural   CsK9Rb2(AlTe3)4
_chemical_formula_sum   'Cs1 K9 Rb2 Al4 Te12'
_cell_volume   1157.34857319
_cell_formula_units_Z   1
loop_
 _symmetry_equiv_pos_site_id
 _symmetry_equiv_pos_as_xyz
  1  'x, y, z'
loop_
 _atom_site_type_symbol
 _atom_site_label
 _atom_site_symmetry_multiplicity
 _atom_site_fract_x
 _atom_site_fract_y
 _atom_site_fract_z
 _atom_site_occupancy
  Cs  Cs0  1  0.815071  0.846573  0.436171  1
  K  K1  1  0.895872  0.315202  0.403906  1
  K  K2  1  0.610863  0.360457  0.475401  1
  K  K3  1  0.111828  0.639206  0.025114  1
  K  K4  1  0.386975  0.640755  0.525236  1
  K  K5  1  0.890046  0.360404  0.974750  1
  K  K6  1  0.606829  0.313037  0.905281  1
  K  K7  1  0.107753  0.685247  0.595659  1
  K  K8  1  0.392612  0.687519  0.094304  1
  K  K9  1  0.188220  0.150079  0.571618  1
  Rb  Rb10  1  0.311651  0.155200  0.066341  1
  Rb  Rb11  1  0.686343  0.847011  0.933540  1
  Al  Al12  1  0.067709  0.943798  0.157749  1
  Al  Al13  1  0.563570  0.053544  0.342216  1
  Al  Al14  1  0.431944  0.953158  0.655942  1
  Al  Al15  1  0.936143  0.049922  0.842206  1
  Te  Te16  1  0.402653  0.187641  0.359802  1
  Te  Te17  1  0.906080  0.814073  0.137374  1
  Te  Te18  1  0.591981  0.816149  0.639676  1
  Te  Te19  1  0.098347  0.179506  0.860250  1
  Te  Te20  1  0.688605  0.324171  0.198845  1
  Te  Te21  1  0.191064  0.670346  0.303681  1
  Te  Te22  1  0.303997  0.689817  0.795303  1
  Te  Te23  1  0.808212  0.312289  0.704601  1
  Te  Te24  1  0.551048  0.860954  0.235774  1
  Te  Te25  1  0.056861  0.140607  0.260957  1
  Te  Te26  1  0.447043  0.142619  0.764522  1
  Te  Te27  1  0.950678  0.860715  0.733779  1
