# generated using pymatgen
data_Pr2YCd3Sn2Au
_symmetry_space_group_name_H-M   'P 1'
_cell_length_a   7.67626500
_cell_length_b   7.57224400
_cell_length_c   4.63784100
_cell_angle_alpha   90.00000000
_cell_angle_beta   90.00000000
_cell_angle_gamma   120.45545789
_symmetry_Int_Tables_number   1
_chemical_formula_structural   Pr2YCd3Sn2Au
_chemical_formula_sum   'Pr2 Y1 Cd3 Sn2 Au1'
_cell_volume   232.38575433
_cell_formula_units_Z   1
loop_
 _symmetry_equiv_pos_site_id
 _symmetry_equiv_pos_as_xyz
  1  'x, y, z'
loop_
 _atom_site_type_symbol
 _atom_site_label
 _atom_site_symmetry_multiplicity
 _atom_site_fract_x
 _atom_site_fract_y
 _atom_site_fract_z
 _atom_site_occupancy
  Pr  Pr0  1  0.002269  0.592644  0.000000  1
  Pr  Pr1  1  0.409625  0.407356  0.000000  1
  Y  Y2  1  0.598121  0.000000  0.000000  1
  Cd  Cd3  1  0.234667  0.000000  0.500000  1
  Cd  Cd4  1  0.001244  0.240264  0.500000  1
  Cd  Cd5  1  0.760981  0.759736  0.500000  1
  Sn  Sn6  1  0.339403  0.675951  0.500000  1
  Sn  Sn7  1  0.663453  0.324049  0.500000  1
  Au  Au8  1  0.990236  0.000000  0.000000  1
