# generated using pymatgen
data_Tb8VSi16W11
_symmetry_space_group_name_H-M   'P 1'
_cell_length_a   6.88303224
_cell_length_b   6.88303236
_cell_length_c   12.83367196
_cell_angle_alpha   89.90684959
_cell_angle_beta   89.90684842
_cell_angle_gamma   89.89537198
_symmetry_Int_Tables_number   1
_chemical_formula_structural   Tb8VSi16W11
_chemical_formula_sum   'Tb8 V1 Si16 W11'
_cell_volume   608.00714037
_cell_formula_units_Z   1
loop_
 _symmetry_equiv_pos_site_id
 _symmetry_equiv_pos_as_xyz
  1  'x, y, z'
loop_
 _atom_site_type_symbol
 _atom_site_label
 _atom_site_symmetry_multiplicity
 _atom_site_fract_x
 _atom_site_fract_y
 _atom_site_fract_z
 _atom_site_occupancy
  Tb  Tb0  1  0.002093  0.336719  0.219117  1
  Tb  Tb1  1  0.999084  0.663496  0.718807  1
  Tb  Tb2  1  0.163052  0.502680  0.469373  1
  Tb  Tb3  1  0.497320  0.836948  0.030627  1
  Tb  Tb4  1  0.837070  0.499067  0.968959  1
  Tb  Tb5  1  0.500933  0.162930  0.531041  1
  Tb  Tb6  1  0.336504  0.000916  0.781193  1
  Tb  Tb7  1  0.663281  0.997907  0.280883  1
  V  V8  1  0.665685  0.334315  0.750000  1
  Si  Si9  1  0.376065  0.298572  0.316036  1
  Si  Si10  1  0.626737  0.700746  0.815077  1
  Si  Si11  1  0.200802  0.876048  0.566671  1
  Si  Si12  1  0.123952  0.799198  0.933329  1
  Si  Si13  1  0.797635  0.124580  0.065283  1
  Si  Si14  1  0.875420  0.202365  0.434717  1
  Si  Si15  1  0.299254  0.373263  0.684923  1
  Si  Si16  1  0.701428  0.623935  0.183964  1
  Si  Si17  1  0.287333  0.033743  0.187229  1
  Si  Si18  1  0.709445  0.963810  0.685422  1
  Si  Si19  1  0.464586  0.788203  0.437129  1
  Si  Si20  1  0.211797  0.535414  0.062871  1
  Si  Si21  1  0.536081  0.212261  0.935586  1
  Si  Si22  1  0.787739  0.463919  0.564414  1
  Si  Si23  1  0.036190  0.290555  0.814578  1
  Si  Si24  1  0.966257  0.712667  0.312771  1
  W  W25  1  0.166386  0.165296  0.001669  1
  W  W26  1  0.834704  0.833614  0.498331  1
  W  W27  1  0.334102  0.665898  0.250000  1
  W  W28  1  0.166479  0.000859  0.377655  1
  W  W29  1  0.833305  0.003011  0.873746  1
  W  W30  1  0.500365  0.661645  0.627348  1
  W  W31  1  0.338355  0.499635  0.872652  1
  W  W32  1  0.497798  0.333365  0.125962  1
  W  W33  1  0.666635  0.502202  0.374038  1
  W  W34  1  0.996989  0.166695  0.626254  1
  W  W35  1  0.999141  0.833521  0.122345  1
