# generated using pymatgen
data_Tb2Pr8InSi4Ge
_symmetry_space_group_name_H-M   'P 1'
_cell_length_a   7.75209000
_cell_length_b   9.26811776
_cell_length_c   7.75209000
_cell_angle_alpha   114.72180893
_cell_angle_beta   90.00000000
_cell_angle_gamma   114.72180893
_symmetry_Int_Tables_number   1
_chemical_formula_structural   Tb2Pr8InSi4Ge
_chemical_formula_sum   'Tb2 Pr8 In1 Si4 Ge1'
_cell_volume   449.10853354
_cell_formula_units_Z   1
loop_
 _symmetry_equiv_pos_site_id
 _symmetry_equiv_pos_as_xyz
  1  'x, y, z'
loop_
 _atom_site_type_symbol
 _atom_site_label
 _atom_site_symmetry_multiplicity
 _atom_site_fract_x
 _atom_site_fract_y
 _atom_site_fract_z
 _atom_site_occupancy
  Tb  Tb0  1  0.976997  0.953993  0.976997  1
  Tb  Tb1  1  0.523003  0.046007  0.523003  1
  Pr  Pr2  1  0.524253  0.721441  0.672677  1
  Pr  Pr3  1  0.197190  0.721441  0.048765  1
  Pr  Pr4  1  0.672677  0.721441  0.197190  1
  Pr  Pr5  1  0.048765  0.721441  0.524253  1
  Pr  Pr6  1  0.451235  0.278559  0.302810  1
  Pr  Pr7  1  0.827323  0.278559  0.975747  1
  Pr  Pr8  1  0.302810  0.278559  0.827323  1
  Pr  Pr9  1  0.975747  0.278559  0.451235  1
  In  In10  1  0.750000  0.500000  0.750000  1
  Si  Si11  1  0.881669  0.000000  0.618331  1
  Si  Si12  1  0.118331  0.000000  0.381669  1
  Si  Si13  1  0.618331  0.000000  0.118331  1
  Si  Si14  1  0.381669  0.000000  0.881669  1
  Ge  Ge15  1  0.250000  0.500000  0.250000  1
