# generated using pymatgen
data_Hf3Ti3Si2Se
_symmetry_space_group_name_H-M   'P 1'
_cell_length_a   6.93779900
_cell_length_b   6.93779859
_cell_length_c   3.73937500
_cell_angle_alpha   90.00000000
_cell_angle_beta   90.00000000
_cell_angle_gamma   119.99999717
_symmetry_Int_Tables_number   1
_chemical_formula_structural   Hf3Ti3Si2Se
_chemical_formula_sum   'Hf3 Ti3 Si2 Se1'
_cell_volume   155.87377941
_cell_formula_units_Z   1
loop_
 _symmetry_equiv_pos_site_id
 _symmetry_equiv_pos_as_xyz
  1  'x, y, z'
loop_
 _atom_site_type_symbol
 _atom_site_label
 _atom_site_symmetry_multiplicity
 _atom_site_fract_x
 _atom_site_fract_y
 _atom_site_fract_z
 _atom_site_occupancy
  Hf  Hf0  1  0.401647  0.991368  0.000000  1
  Hf  Hf1  1  0.008632  0.410280  0.000000  1
  Hf  Hf2  1  0.589720  0.598352  0.000000  1
  Ti  Ti3  1  0.753475  0.996079  0.499999  1
  Ti  Ti4  1  0.242605  0.246524  0.499999  1
  Ti  Ti5  1  0.003921  0.757395  0.499999  1
  Si  Si6  1  0.000000  0.000000  0.000000  1
  Si  Si7  1  0.333333  0.666667  0.499999  1
  Se  Se8  1  0.666667  0.333334  0.499999  1
