# generated using pymatgen
data_Pr3Nd9Ir3AuI12
_symmetry_space_group_name_H-M   'P 1'
_cell_length_a   10.97585809
_cell_length_b   10.97735361
_cell_length_c   10.98129842
_cell_angle_alpha   109.87076645
_cell_angle_beta   109.88696265
_cell_angle_gamma   109.74065286
_symmetry_Int_Tables_number   1
_chemical_formula_structural   Pr3Nd9Ir3AuI12
_chemical_formula_sum   'Pr3 Nd9 Ir3 Au1 I12'
_cell_volume   1004.64874464
_cell_formula_units_Z   1
loop_
 _symmetry_equiv_pos_site_id
 _symmetry_equiv_pos_as_xyz
  1  'x, y, z'
loop_
 _atom_site_type_symbol
 _atom_site_label
 _atom_site_symmetry_multiplicity
 _atom_site_fract_x
 _atom_site_fract_y
 _atom_site_fract_z
 _atom_site_occupancy
  Pr  Pr0  1  0.020562  0.479382  0.749959  1
  Pr  Pr1  1  0.276707  0.012289  0.040604  1
  Pr  Pr2  1  0.228129  0.271821  0.749958  1
  Nd  Nd3  1  0.458866  0.487696  0.222967  1
  Nd  Nd4  1  0.750324  0.227630  0.272624  1
  Nd  Nd5  1  0.749218  0.020705  0.478285  1
  Nd  Nd6  1  0.223004  0.458833  0.487132  1
  Nd  Nd7  1  0.272476  0.749772  0.227602  1
  Nd  Nd8  1  0.041094  0.277013  0.012787  1
  Nd  Nd9  1  0.012439  0.041269  0.277163  1
  Nd  Nd10  1  0.479246  0.750367  0.021499  1
  Nd  Nd11  1  0.487576  0.222942  0.458926  1
  Ir  Ir12  1  0.501963  0.998897  0.250758  1
  Ir  Ir13  1  0.998062  0.249267  0.499774  1
  Ir  Ir14  1  0.250718  0.501926  0.000167  1
  Au  Au15  1  0.249990  0.250610  0.250570  1
  I  I16  1  0.250447  0.759545  0.739949  1
  I  I17  1  0.514733  0.506738  0.756123  1
  I  I18  1  0.985226  0.743713  0.994148  1
  I  I19  1  0.739986  0.249562  0.759554  1
  I  I20  1  0.992951  0.985289  0.743563  1
  I  I21  1  0.250036  0.993427  0.505904  1
  I  I22  1  0.755758  0.514197  0.505890  1
  I  I23  1  0.507102  0.250514  0.994113  1
  I  I24  1  0.759562  0.740467  0.249987  1
  I  I25  1  0.743875  0.993767  0.985779  1
  I  I26  1  0.993740  0.506256  0.249991  1
  I  I27  1  0.506209  0.756104  0.514224  1
