# generated using pymatgen
data_Er3Ga2Sn
_symmetry_space_group_name_H-M   'P 1'
_cell_length_a   6.32061700
_cell_length_b   9.25939700
_cell_length_c   9.86539900
_cell_angle_alpha   90.00000000
_cell_angle_beta   90.00000000
_cell_angle_gamma   90.00000000
_symmetry_Int_Tables_number   1
_chemical_formula_structural   Er3Ga2Sn
_chemical_formula_sum   'Er12 Ga8 Sn4'
_cell_volume   577.37348361
_cell_formula_units_Z   4
loop_
 _symmetry_equiv_pos_site_id
 _symmetry_equiv_pos_as_xyz
  1  'x, y, z'
loop_
 _atom_site_type_symbol
 _atom_site_label
 _atom_site_symmetry_multiplicity
 _atom_site_fract_x
 _atom_site_fract_y
 _atom_site_fract_z
 _atom_site_occupancy
  Er  Er0  1  0.000000  0.750000  0.125606  1
  Er  Er1  1  0.500000  0.250000  0.874394  1
  Er  Er2  1  0.000000  0.250000  0.874394  1
  Er  Er3  1  0.500000  0.750000  0.125606  1
  Er  Er4  1  0.750000  0.478022  0.608492  1
  Er  Er5  1  0.250000  0.521978  0.391508  1
  Er  Er6  1  0.750000  0.978022  0.391508  1
  Er  Er7  1  0.250000  0.021978  0.608492  1
  Er  Er8  1  0.750000  0.368735  0.206228  1
  Er  Er9  1  0.250000  0.631265  0.793772  1
  Er  Er10  1  0.750000  0.868735  0.793772  1
  Er  Er11  1  0.250000  0.131265  0.206228  1
  Ga  Ga12  1  0.000000  0.750000  0.551440  1
  Ga  Ga13  1  0.500000  0.250000  0.448560  1
  Ga  Ga14  1  0.000000  0.250000  0.448560  1
  Ga  Ga15  1  0.500000  0.750000  0.551440  1
  Ga  Ga16  1  0.750000  0.142853  0.643407  1
  Ga  Ga17  1  0.250000  0.857147  0.356593  1
  Ga  Ga18  1  0.750000  0.642853  0.356593  1
  Ga  Ga19  1  0.250000  0.357147  0.643407  1
  Sn  Sn20  1  0.750000  0.054416  0.087660  1
  Sn  Sn21  1  0.250000  0.945584  0.912340  1
  Sn  Sn22  1  0.750000  0.554416  0.912340  1
  Sn  Sn23  1  0.250000  0.445584  0.087660  1
