# generated using pymatgen
data_La9Nd11(BiPb7)2
_symmetry_space_group_name_H-M   'P 1'
_cell_length_a   8.53938456
_cell_length_b   8.60705212
_cell_length_c   16.17049000
_cell_angle_alpha   90.05937903
_cell_angle_beta   90.11282856
_cell_angle_gamma   90.12795390
_symmetry_Int_Tables_number   1
_chemical_formula_structural   La9Nd11(BiPb7)2
_chemical_formula_sum   'La9 Nd11 Bi2 Pb14'
_cell_volume   1188.50776830
_cell_formula_units_Z   1
loop_
 _symmetry_equiv_pos_site_id
 _symmetry_equiv_pos_as_xyz
  1  'x, y, z'
loop_
 _atom_site_type_symbol
 _atom_site_label
 _atom_site_symmetry_multiplicity
 _atom_site_fract_x
 _atom_site_fract_y
 _atom_site_fract_z
 _atom_site_occupancy
  La  La0  1  0.129558  0.341502  0.618566  1
  La  La1  1  0.471466  0.677557  0.599374  1
  La  La2  1  0.972951  0.823638  0.902182  1
  La  La3  1  0.529387  0.322422  0.099227  1
  La  La4  1  0.031127  0.176119  0.398686  1
  La  La5  1  0.526073  0.324783  0.400696  1
  La  La6  1  0.025938  0.175431  0.098716  1
  La  La7  1  0.476791  0.679421  0.901477  1
  La  La8  1  0.974936  0.821950  0.599786  1
  Nd  Nd9  1  0.630847  0.159401  0.621828  1
  Nd  Nd10  1  0.131619  0.341028  0.879043  1
  Nd  Nd11  1  0.368516  0.845322  0.121328  1
  Nd  Nd12  1  0.869316  0.654125  0.378843  1
  Nd  Nd13  1  0.366423  0.842506  0.377295  1
  Nd  Nd14  1  0.864081  0.658189  0.121027  1
  Nd  Nd15  1  0.631922  0.157112  0.880303  1
  Nd  Nd16  1  0.797293  0.498096  0.751204  1
  Nd  Nd17  1  0.297989  0.001559  0.749908  1
  Nd  Nd18  1  0.203159  0.501591  0.250281  1
  Nd  Nd19  1  0.703773  0.998634  0.248634  1
  Bi  Bi20  1  0.712606  0.962775  0.455703  1
  Bi  Bi21  1  0.210991  0.538323  0.044218  1
  Pb  Pb22  1  0.289231  0.038091  0.956829  1
  Pb  Pb23  1  0.782914  0.465305  0.543578  1
  Pb  Pb24  1  0.290592  0.033098  0.543217  1
  Pb  Pb25  1  0.788918  0.461919  0.956576  1
  Pb  Pb26  1  0.709616  0.961747  0.044417  1
  Pb  Pb27  1  0.210897  0.539483  0.453619  1
  Pb  Pb28  1  0.434650  0.373837  0.752416  1
  Pb  Pb29  1  0.933177  0.124029  0.750742  1
  Pb  Pb30  1  0.565453  0.626389  0.250044  1
  Pb  Pb31  1  0.064589  0.872900  0.249355  1
  Pb  Pb32  1  0.664910  0.851533  0.750273  1
  Pb  Pb33  1  0.164526  0.649422  0.751674  1
  Pb  Pb34  1  0.336960  0.150091  0.249289  1
  Pb  Pb35  1  0.836808  0.350671  0.249643  1
