# generated using pymatgen
data_TbEuNi6(BIr)2
_symmetry_space_group_name_H-M   'P 1'
_cell_length_a   5.19181171
_cell_length_b   5.19181125
_cell_length_c   7.10435200
_cell_angle_alpha   90.00000000
_cell_angle_beta   90.00000000
_cell_angle_gamma   121.88097722
_symmetry_Int_Tables_number   1
_chemical_formula_structural   TbEuNi6(BIr)2
_chemical_formula_sum   'Tb1 Eu1 Ni6 B2 Ir2'
_cell_volume   162.60924161
_cell_formula_units_Z   1
loop_
 _symmetry_equiv_pos_site_id
 _symmetry_equiv_pos_as_xyz
  1  'x, y, z'
loop_
 _atom_site_type_symbol
 _atom_site_label
 _atom_site_symmetry_multiplicity
 _atom_site_fract_x
 _atom_site_fract_y
 _atom_site_fract_z
 _atom_site_occupancy
  Tb  Tb0  1  0.000000  0.000000  0.500000  1
  Eu  Eu1  1  0.000000  0.000000  0.000000  1
  Ni  Ni2  1  0.333165  0.666835  0.000000  1
  Ni  Ni3  1  0.666835  0.333165  0.000000  1
  Ni  Ni4  1  0.500000  0.000000  0.293719  1
  Ni  Ni5  1  0.000000  0.500000  0.293719  1
  Ni  Ni6  1  0.500000  0.000000  0.706281  1
  Ni  Ni7  1  0.000000  0.500000  0.706281  1
  B  B8  1  0.672170  0.327830  0.500000  1
  B  B9  1  0.327830  0.672170  0.500000  1
  Ir  Ir10  1  0.500000  0.500000  0.290403  1
  Ir  Ir11  1  0.500000  0.500000  0.709597  1
