# generated using pymatgen
data_Cs2Tc5(WSe2)7
_symmetry_space_group_name_H-M   'P 1'
_cell_length_a   9.96256502
_cell_length_b   9.98135207
_cell_length_c   9.99028157
_cell_angle_alpha   60.56178210
_cell_angle_beta   60.18906505
_cell_angle_gamma   60.13399437
_symmetry_Int_Tables_number   1
_chemical_formula_structural   Cs2Tc5(WSe2)7
_chemical_formula_sum   'Cs2 Tc5 W7 Se14'
_cell_volume   707.12821109
_cell_formula_units_Z   1
loop_
 _symmetry_equiv_pos_site_id
 _symmetry_equiv_pos_as_xyz
  1  'x, y, z'
loop_
 _atom_site_type_symbol
 _atom_site_label
 _atom_site_symmetry_multiplicity
 _atom_site_fract_x
 _atom_site_fract_y
 _atom_site_fract_z
 _atom_site_occupancy
  Cs  Cs0  1  0.375409  0.376836  0.379407  1
  Cs  Cs1  1  0.623873  0.621965  0.622057  1
  Tc  Tc2  1  0.876170  0.005852  0.701943  1
  Tc  Tc3  1  0.122671  0.994109  0.296144  1
  Tc  Tc4  1  0.007250  0.702612  0.877224  1
  Tc  Tc5  1  0.702245  0.877840  0.007524  1
  Tc  Tc6  1  0.060305  0.199188  0.881066  1
  W  W7  1  0.295394  0.122585  0.993820  1
  W  W8  1  0.193776  0.886628  0.059334  1
  W  W9  1  0.886101  0.060286  0.193868  1
  W  W10  1  0.940007  0.805240  0.114562  1
  W  W11  1  0.806862  0.114644  0.938827  1
  W  W12  1  0.112768  0.941624  0.804830  1
  W  W13  1  0.994831  0.295983  0.121204  1
  Se  Se14  1  0.982399  0.241812  0.640223  1
  Se  Se15  1  0.241842  0.635621  0.980288  1
  Se  Se16  1  0.636668  0.980476  0.242113  1
  Se  Se17  1  0.018240  0.759607  0.362808  1
  Se  Se18  1  0.761184  0.361267  0.013848  1
  Se  Se19  1  0.358333  0.020382  0.758074  1
  Se  Se20  1  0.170416  0.418622  0.814797  1
  Se  Se21  1  0.417410  0.814414  0.170917  1
  Se  Se22  1  0.818902  0.167462  0.418935  1
  Se  Se23  1  0.830670  0.585763  0.180032  1
  Se  Se24  1  0.584223  0.178583  0.833748  1
  Se  Se25  1  0.180606  0.830093  0.585721  1
  Se  Se26  1  0.781355  0.781548  0.782865  1
  Se  Se27  1  0.220092  0.218959  0.223822  1
