# generated using pymatgen
data_La5Pr11(HgIr)4
_symmetry_space_group_name_H-M   'P 1'
_cell_length_a   9.99360715
_cell_length_b   10.04779262
_cell_length_c   10.04779160
_cell_angle_alpha   59.93798228
_cell_angle_beta   60.17823640
_cell_angle_gamma   60.17823615
_symmetry_Int_Tables_number   1
_chemical_formula_structural   La5Pr11(HgIr)4
_chemical_formula_sum   'La5 Pr11 Hg4 Ir4'
_cell_volume   715.00367076
_cell_formula_units_Z   1
loop_
 _symmetry_equiv_pos_site_id
 _symmetry_equiv_pos_as_xyz
  1  'x, y, z'
loop_
 _atom_site_type_symbol
 _atom_site_label
 _atom_site_symmetry_multiplicity
 _atom_site_fract_x
 _atom_site_fract_y
 _atom_site_fract_z
 _atom_site_occupancy
  La  La0  1  0.347768  0.349148  0.349148  1
  La  La1  1  0.348933  0.348529  0.953603  1
  La  La2  1  0.348933  0.953603  0.348529  1
  La  La3  1  0.953934  0.349148  0.349148  1
  La  La4  1  0.811715  0.188285  0.188285  1
  Pr  Pr5  1  0.189955  0.810045  0.810045  1
  Pr  Pr6  1  0.192285  0.808147  0.189833  1
  Pr  Pr7  1  0.809735  0.189833  0.808147  1
  Pr  Pr8  1  0.192285  0.189833  0.808147  1
  Pr  Pr9  1  0.809735  0.808147  0.189833  1
  Pr  Pr10  1  0.937787  0.562213  0.562213  1
  Pr  Pr11  1  0.561844  0.938156  0.938156  1
  Pr  Pr12  1  0.561078  0.938526  0.561855  1
  Pr  Pr13  1  0.938541  0.561855  0.938526  1
  Pr  Pr14  1  0.561078  0.561855  0.938526  1
  Pr  Pr15  1  0.938541  0.938526  0.561855  1
  Hg  Hg16  1  0.583718  0.584095  0.584095  1
  Hg  Hg17  1  0.583409  0.585436  0.247744  1
  Hg  Hg18  1  0.583409  0.247744  0.585436  1
  Hg  Hg19  1  0.248091  0.584095  0.584095  1
  Ir  Ir20  1  0.137048  0.143816  0.143816  1
  Ir  Ir21  1  0.142427  0.142326  0.572819  1
  Ir  Ir22  1  0.142427  0.572819  0.142326  1
  Ir  Ir23  1  0.575320  0.143816  0.143816  1
