# generated using pymatgen
data_Tb9Y3IrRh3
_symmetry_space_group_name_H-M   'P 1'
_cell_length_a   6.29371837
_cell_length_b   7.20763944
_cell_length_c   9.57605000
_cell_angle_alpha   90.00000000
_cell_angle_beta   90.00000000
_cell_angle_gamma   89.86561375
_symmetry_Int_Tables_number   1
_chemical_formula_structural   Tb9Y3IrRh3
_chemical_formula_sum   'Tb9 Y3 Ir1 Rh3'
_cell_volume   434.39575115
_cell_formula_units_Z   1
loop_
 _symmetry_equiv_pos_site_id
 _symmetry_equiv_pos_as_xyz
  1  'x, y, z'
loop_
 _atom_site_type_symbol
 _atom_site_label
 _atom_site_symmetry_multiplicity
 _atom_site_fract_x
 _atom_site_fract_y
 _atom_site_fract_z
 _atom_site_occupancy
  Tb  Tb0  1  0.329686  0.677404  0.063663  1
  Tb  Tb1  1  0.170214  0.176721  0.436422  1
  Tb  Tb2  1  0.669305  0.322490  0.563889  1
  Tb  Tb3  1  0.830651  0.823117  0.937279  1
  Tb  Tb4  1  0.669305  0.322490  0.936111  1
  Tb  Tb5  1  0.830651  0.823117  0.562721  1
  Tb  Tb6  1  0.329686  0.677404  0.436337  1
  Tb  Tb7  1  0.170214  0.176721  0.063578  1
  Tb  Tb8  1  0.364861  0.967493  0.750000  1
  Y  Y9  1  0.865755  0.532867  0.250000  1
  Y  Y10  1  0.635178  0.031666  0.250000  1
  Y  Y11  1  0.134779  0.468104  0.750000  1
  Ir  Ir12  1  0.061027  0.882490  0.250000  1
  Rh  Rh13  1  0.437635  0.382273  0.250000  1
  Rh  Rh14  1  0.939019  0.117081  0.750000  1
  Rh  Rh15  1  0.562032  0.618563  0.750000  1
