# generated using pymatgen
data_Ac2Sm3Ir4
_symmetry_space_group_name_H-M   'P 1'
_cell_length_a   7.74501000
_cell_length_b   7.83051600
_cell_length_c   15.07554700
_cell_angle_alpha   90.00000000
_cell_angle_beta   90.00000000
_cell_angle_gamma   90.00000000
_symmetry_Int_Tables_number   1
_chemical_formula_structural   Ac2Sm3Ir4
_chemical_formula_sum   'Ac8 Sm12 Ir16'
_cell_volume   914.29310187
_cell_formula_units_Z   4
loop_
 _symmetry_equiv_pos_site_id
 _symmetry_equiv_pos_as_xyz
  1  'x, y, z'
loop_
 _atom_site_type_symbol
 _atom_site_label
 _atom_site_symmetry_multiplicity
 _atom_site_fract_x
 _atom_site_fract_y
 _atom_site_fract_z
 _atom_site_occupancy
  Ac  Ac0  1  0.482539  0.180269  0.596629  1
  Ac  Ac1  1  0.982539  0.319731  0.903371  1
  Ac  Ac2  1  0.517461  0.819731  0.096629  1
  Ac  Ac3  1  0.017461  0.680269  0.403371  1
  Ac  Ac4  1  0.517461  0.819731  0.403371  1
  Ac  Ac5  1  0.017461  0.680269  0.096629  1
  Ac  Ac6  1  0.482539  0.180269  0.903371  1
  Ac  Ac7  1  0.982539  0.319731  0.596629  1
  Sm  Sm8  1  0.336863  0.673567  0.622033  1
  Sm  Sm9  1  0.836863  0.826433  0.877967  1
  Sm  Sm10  1  0.663137  0.326433  0.122033  1
  Sm  Sm11  1  0.163137  0.173567  0.377967  1
  Sm  Sm12  1  0.663137  0.326433  0.377967  1
  Sm  Sm13  1  0.163137  0.173567  0.122033  1
  Sm  Sm14  1  0.336863  0.673567  0.877967  1
  Sm  Sm15  1  0.836863  0.826433  0.622033  1
  Sm  Sm16  1  0.665626  0.500575  0.750000  1
  Sm  Sm17  1  0.165626  0.999425  0.750000  1
  Sm  Sm18  1  0.334374  0.499425  0.250000  1
  Sm  Sm19  1  0.834374  0.000575  0.250000  1
  Ir  Ir20  1  0.835618  0.034886  0.456807  1
  Ir  Ir21  1  0.335618  0.465114  0.043193  1
  Ir  Ir22  1  0.164382  0.965114  0.956807  1
  Ir  Ir23  1  0.664382  0.534886  0.543193  1
  Ir  Ir24  1  0.164382  0.965114  0.543193  1
  Ir  Ir25  1  0.664382  0.534886  0.956807  1
  Ir  Ir26  1  0.835618  0.034886  0.043193  1
  Ir  Ir27  1  0.335618  0.465114  0.456807  1
  Ir  Ir28  1  0.284373  0.372154  0.750000  1
  Ir  Ir29  1  0.784373  0.127846  0.750000  1
  Ir  Ir30  1  0.715627  0.627846  0.250000  1
  Ir  Ir31  1  0.215627  0.872154  0.250000  1
  Ir  Ir32  1  0.540345  0.883478  0.750000  1
  Ir  Ir33  1  0.040345  0.616522  0.750000  1
  Ir  Ir34  1  0.459655  0.116522  0.250000  1
  Ir  Ir35  1  0.959655  0.383478  0.250000  1
