# generated using pymatgen
data_Ta4Co4Si3Ge
_symmetry_space_group_name_H-M   'P 1'
_cell_length_a   6.24738847
_cell_length_b   3.67618000
_cell_length_c   7.06740427
_cell_angle_alpha   90.00000000
_cell_angle_beta   89.76188723
_cell_angle_gamma   90.00000000
_symmetry_Int_Tables_number   1
_chemical_formula_structural   Ta4Co4Si3Ge
_chemical_formula_sum   'Ta4 Co4 Si3 Ge1'
_cell_volume   162.31231215
_cell_formula_units_Z   1
loop_
 _symmetry_equiv_pos_site_id
 _symmetry_equiv_pos_as_xyz
  1  'x, y, z'
loop_
 _atom_site_type_symbol
 _atom_site_label
 _atom_site_symmetry_multiplicity
 _atom_site_fract_x
 _atom_site_fract_y
 _atom_site_fract_z
 _atom_site_occupancy
  Ta  Ta0  1  0.020350  0.250000  0.821207  1
  Ta  Ta1  1  0.517946  0.250000  0.682979  1
  Ta  Ta2  1  0.983137  0.750000  0.177353  1
  Ta  Ta3  1  0.473822  0.750000  0.318066  1
  Co  Co4  1  0.147874  0.250000  0.437177  1
  Co  Co5  1  0.638059  0.250000  0.057062  1
  Co  Co6  1  0.862192  0.750000  0.571965  1
  Co  Co7  1  0.358313  0.750000  0.935475  1
  Si  Si8  1  0.274941  0.250000  0.116474  1
  Si  Si9  1  0.226030  0.750000  0.618746  1
  Si  Si10  1  0.725803  0.750000  0.883305  1
  Ge  Ge11  1  0.771533  0.250000  0.380191  1
