# generated using pymatgen
data_H4SeF8
_symmetry_space_group_name_H-M   'P 1'
_cell_length_a   4.85620729
_cell_length_b   5.26958076
_cell_length_c   7.09112279
_cell_angle_alpha   87.70700093
_cell_angle_beta   84.45946940
_cell_angle_gamma   89.12585733
_symmetry_Int_Tables_number   1
_chemical_formula_structural   H4SeF8
_chemical_formula_sum   'H4 Se1 F8'
_cell_volume   180.45885268
_cell_formula_units_Z   1
loop_
 _symmetry_equiv_pos_site_id
 _symmetry_equiv_pos_as_xyz
  1  'x, y, z'
loop_
 _atom_site_type_symbol
 _atom_site_label
 _atom_site_symmetry_multiplicity
 _atom_site_fract_x
 _atom_site_fract_y
 _atom_site_fract_z
 _atom_site_occupancy
  H  H0  1  0.064908  0.816103  0.014435  1
  H  H1  1  0.151546  0.911596  0.269865  1
  H  H2  1  0.754547  0.722024  0.809719  1
  H  H3  1  0.086219  0.440601  0.829583  1
  Se  Se4  1  0.428204  0.539236  0.482741  1
  F  F5  1  0.152747  0.956595  0.088167  1
  F  F6  1  0.657616  0.687603  0.309738  1
  F  F7  1  0.173534  0.311890  0.740630  1
  F  F8  1  0.609626  0.771601  0.719643  1
  F  F9  1  0.950609  0.643337  0.923064  1
  F  F10  1  0.158517  0.873502  0.415042  1
  F  F11  1  0.659549  0.285213  0.504306  1
  F  F12  1  0.256138  0.388763  0.313912  1
