# generated using pymatgen
data_Sm4Tm4Sc12Si15Au
_symmetry_space_group_name_H-M   'P 1'
_cell_length_a   7.14032858
_cell_length_b   7.39554420
_cell_length_c   14.10105516
_cell_angle_alpha   89.98441550
_cell_angle_beta   89.74030769
_cell_angle_gamma   90.29024372
_symmetry_Int_Tables_number   1
_chemical_formula_structural   Sm4Tm4Sc12Si15Au
_chemical_formula_sum   'Sm4 Tm4 Sc12 Si15 Au1'
_cell_volume   744.61176442
_cell_formula_units_Z   1
loop_
 _symmetry_equiv_pos_site_id
 _symmetry_equiv_pos_as_xyz
  1  'x, y, z'
loop_
 _atom_site_type_symbol
 _atom_site_label
 _atom_site_symmetry_multiplicity
 _atom_site_fract_x
 _atom_site_fract_y
 _atom_site_fract_z
 _atom_site_occupancy
  Sm  Sm0  1  0.011780  0.174515  0.098179  1
  Sm  Sm1  1  0.987713  0.827021  0.903764  1
  Sm  Sm2  1  0.488289  0.674703  0.905271  1
  Sm  Sm3  1  0.988653  0.829025  0.595729  1
  Tm  Tm4  1  0.511773  0.323078  0.098488  1
  Tm  Tm5  1  0.010652  0.176248  0.398284  1
  Tm  Tm6  1  0.509173  0.323784  0.400956  1
  Tm  Tm7  1  0.491012  0.676269  0.598278  1
  Sc  Sc8  1  0.163448  0.500987  0.750355  1
  Sc  Sc9  1  0.836689  0.497619  0.251416  1
  Sc  Sc10  1  0.338117  0.000851  0.250061  1
  Sc  Sc11  1  0.664186  0.997447  0.750382  1
  Sc  Sc12  1  0.339297  0.176964  0.624954  1
  Sc  Sc13  1  0.665930  0.822937  0.373439  1
  Sc  Sc14  1  0.169807  0.671701  0.373183  1
  Sc  Sc15  1  0.669810  0.824162  0.126715  1
  Sc  Sc16  1  0.828073  0.325873  0.623863  1
  Sc  Sc17  1  0.330081  0.176035  0.875727  1
  Sc  Sc18  1  0.829189  0.323756  0.875761  1
  Sc  Sc19  1  0.169946  0.674838  0.126138  1
  Si  Si20  1  0.036465  0.122944  0.750040  1
  Si  Si21  1  0.966482  0.882388  0.250979  1
  Si  Si22  1  0.467133  0.613291  0.248924  1
  Si  Si23  1  0.535851  0.383963  0.751157  1
  Si  Si24  1  0.287817  0.876127  0.749028  1
  Si  Si25  1  0.710519  0.128735  0.250843  1
  Si  Si26  1  0.216277  0.370915  0.249387  1
  Si  Si27  1  0.785693  0.624767  0.750572  1
  Si  Si28  1  0.833613  0.533249  0.457983  1
  Si  Si29  1  0.341095  0.964477  0.459138  1
  Si  Si30  1  0.841470  0.534845  0.040220  1
  Si  Si31  1  0.654567  0.037064  0.536310  1
  Si  Si32  1  0.153532  0.463194  0.962290  1
  Si  Si33  1  0.654341  0.039497  0.962998  1
  Si  Si34  1  0.346370  0.966119  0.040634  1
  Au  Au35  1  0.165159  0.460614  0.538552  1
