# generated using pymatgen
data_Cs12PaV3Se16
_symmetry_space_group_name_H-M   'P 1'
_cell_length_a   10.33815200
_cell_length_b   10.52967442
_cell_length_c   12.04041800
_cell_angle_alpha   90.00000000
_cell_angle_beta   90.00000000
_cell_angle_gamma   89.66181189
_symmetry_Int_Tables_number   1
_chemical_formula_structural   Cs12PaV3Se16
_chemical_formula_sum   'Cs12 Pa1 V3 Se16'
_cell_volume   1310.66546202
_cell_formula_units_Z   1
loop_
 _symmetry_equiv_pos_site_id
 _symmetry_equiv_pos_as_xyz
  1  'x, y, z'
loop_
 _atom_site_type_symbol
 _atom_site_label
 _atom_site_symmetry_multiplicity
 _atom_site_fract_x
 _atom_site_fract_y
 _atom_site_fract_z
 _atom_site_occupancy
  Cs  Cs0  1  0.641689  0.920158  0.250000  1
  Cs  Cs1  1  0.140384  0.575973  0.250000  1
  Cs  Cs2  1  0.847388  0.410580  0.750000  1
  Cs  Cs3  1  0.367510  0.082303  0.750000  1
  Cs  Cs4  1  0.044564  0.805403  0.964932  1
  Cs  Cs5  1  0.556149  0.711676  0.538990  1
  Cs  Cs6  1  0.453319  0.286121  0.049383  1
  Cs  Cs7  1  0.947399  0.206339  0.454982  1
  Cs  Cs8  1  0.947399  0.206339  0.045018  1
  Cs  Cs9  1  0.453319  0.286121  0.450617  1
  Cs  Cs10  1  0.556149  0.711676  0.961010  1
  Cs  Cs11  1  0.044564  0.805403  0.535068  1
  Pa  Pa12  1  0.267690  0.513715  0.750000  1
  V  V13  1  0.782573  0.980051  0.750000  1
  V  V14  1  0.220880  0.016463  0.250000  1
  V  V15  1  0.719798  0.482926  0.250000  1
  Se  Se16  1  0.330870  0.954958  0.093062  1
  Se  Se17  1  0.827250  0.545250  0.406868  1
  Se  Se18  1  0.158541  0.454892  0.941345  1
  Se  Se19  1  0.673160  0.040094  0.592625  1
  Se  Se20  1  0.015600  0.930150  0.250000  1
  Se  Se21  1  0.514658  0.569530  0.250000  1
  Se  Se22  1  0.504018  0.416047  0.750000  1
  Se  Se23  1  0.984549  0.071533  0.750000  1
  Se  Se24  1  0.673160  0.040094  0.907375  1
  Se  Se25  1  0.330870  0.954958  0.406938  1
  Se  Se26  1  0.827250  0.545250  0.093132  1
  Se  Se27  1  0.158541  0.454892  0.558655  1
  Se  Se28  1  0.802265  0.762204  0.750000  1
  Se  Se29  1  0.298544  0.761462  0.750000  1
  Se  Se30  1  0.707025  0.263784  0.250000  1
  Se  Se31  1  0.202934  0.233657  0.250000  1
