# generated using pymatgen
data_Y3Zr7Sn6
_symmetry_space_group_name_H-M   'P 1'
_cell_length_a   8.63078122
_cell_length_b   8.75588736
_cell_length_c   5.96608000
_cell_angle_alpha   90.00000000
_cell_angle_beta   90.00000000
_cell_angle_gamma   119.96028613
_symmetry_Int_Tables_number   1
_chemical_formula_structural   Y3Zr7Sn6
_chemical_formula_sum   'Y3 Zr7 Sn6'
_cell_volume   390.61025097
_cell_formula_units_Z   1
loop_
 _symmetry_equiv_pos_site_id
 _symmetry_equiv_pos_as_xyz
  1  'x, y, z'
loop_
 _atom_site_type_symbol
 _atom_site_label
 _atom_site_symmetry_multiplicity
 _atom_site_fract_x
 _atom_site_fract_y
 _atom_site_fract_z
 _atom_site_occupancy
  Y  Y0  1  0.763587  0.998731  0.750000  1
  Y  Y1  1  0.242376  0.242222  0.750000  1
  Y  Y2  1  0.233233  0.998976  0.250000  1
  Zr  Zr3  1  0.998415  0.746619  0.750000  1
  Zr  Zr4  1  0.998620  0.255021  0.250000  1
  Zr  Zr5  1  0.752400  0.751727  0.250000  1
  Zr  Zr6  1  0.335009  0.667845  0.499121  1
  Zr  Zr7  1  0.668020  0.333866  0.000930  1
  Zr  Zr8  1  0.668020  0.333866  0.499070  1
  Zr  Zr9  1  0.335009  0.667845  0.000879  1
  Sn  Sn10  1  0.393021  0.995264  0.750000  1
  Sn  Sn11  1  0.394666  0.398456  0.250000  1
  Sn  Sn12  1  0.997861  0.604926  0.250000  1
  Sn  Sn13  1  0.001020  0.400630  0.750000  1
  Sn  Sn14  1  0.608350  0.604064  0.750000  1
  Sn  Sn15  1  0.610393  0.999942  0.250000  1
