# generated using pymatgen
data_CaHoPaIr3
_symmetry_space_group_name_H-M   'P 1'
_cell_length_a   5.82213541
_cell_length_b   5.36531571
_cell_length_c   5.82213500
_cell_angle_alpha   57.14112815
_cell_angle_beta   59.99999665
_cell_angle_gamma   57.14113674
_symmetry_Int_Tables_number   1
_chemical_formula_structural   CaHoPaIr3
_chemical_formula_sum   'Ca1 Ho1 Pa1 Ir3'
_cell_volume   122.76070769
_cell_formula_units_Z   1
loop_
 _symmetry_equiv_pos_site_id
 _symmetry_equiv_pos_as_xyz
  1  'x, y, z'
loop_
 _atom_site_type_symbol
 _atom_site_label
 _atom_site_symmetry_multiplicity
 _atom_site_fract_x
 _atom_site_fract_y
 _atom_site_fract_z
 _atom_site_occupancy
  Ca  Ca0  1  0.500845  0.497467  0.500845  1
  Ho  Ho1  1  0.748677  0.753967  0.748677  1
  Pa  Pa2  1  0.125249  0.624253  0.125249  1
  Ir  Ir3  1  0.124893  0.124771  0.124893  1
  Ir  Ir4  1  0.625443  0.124771  0.124893  1
  Ir  Ir5  1  0.124893  0.124771  0.625443  1
