# generated using pymatgen
data_Sm6Al24NiPdRu6
_symmetry_space_group_name_H-M   'P 1'
_cell_length_a   8.86386426
_cell_length_b   8.84155336
_cell_length_c   9.60982096
_cell_angle_alpha   90.18603229
_cell_angle_beta   90.02784943
_cell_angle_gamma   119.70144502
_symmetry_Int_Tables_number   1
_chemical_formula_structural   Sm6Al24NiPdRu6
_chemical_formula_sum   'Sm6 Al24 Ni1 Pd1 Ru6'
_cell_volume   654.17319852
_cell_formula_units_Z   1
loop_
 _symmetry_equiv_pos_site_id
 _symmetry_equiv_pos_as_xyz
  1  'x, y, z'
loop_
 _atom_site_type_symbol
 _atom_site_label
 _atom_site_symmetry_multiplicity
 _atom_site_fract_x
 _atom_site_fract_y
 _atom_site_fract_z
 _atom_site_occupancy
  Sm  Sm0  1  0.190118  0.384772  0.250092  1
  Sm  Sm1  1  0.809882  0.615228  0.749908  1
  Sm  Sm2  1  0.618870  0.809900  0.250326  1
  Sm  Sm3  1  0.381130  0.190100  0.749674  1
  Sm  Sm4  1  0.189688  0.806590  0.251281  1
  Sm  Sm5  1  0.810312  0.193410  0.748719  1
  Al  Al6  1  0.331704  0.672331  0.019513  1
  Al  Al7  1  0.668296  0.327669  0.980487  1
  Al  Al8  1  0.666496  0.332445  0.518931  1
  Al  Al9  1  0.333504  0.667555  0.481069  1
  Al  Al10  1  0.163766  0.327498  0.574718  1
  Al  Al11  1  0.836234  0.672502  0.425282  1
  Al  Al12  1  0.673054  0.837114  0.574621  1
  Al  Al13  1  0.842130  0.674847  0.077555  1
  Al  Al14  1  0.326946  0.162886  0.425379  1
  Al  Al15  1  0.157870  0.325153  0.922445  1
  Al  Al16  1  0.163990  0.837396  0.576588  1
  Al  Al17  1  0.324847  0.158460  0.077312  1
  Al  Al18  1  0.836010  0.162604  0.423412  1
  Al  Al19  1  0.675153  0.841540  0.922688  1
  Al  Al20  1  0.837732  0.164645  0.076585  1
  Al  Al21  1  0.162268  0.835355  0.923415  1
  Al  Al22  1  0.560483  0.121564  0.247022  1
  Al  Al23  1  0.439517  0.878436  0.752978  1
  Al  Al24  1  0.875659  0.438243  0.248711  1
  Al  Al25  1  0.124341  0.561757  0.751289  1
  Al  Al26  1  0.562920  0.436096  0.252578  1
  Al  Al27  1  0.437080  0.563904  0.747422  1
  Al  Al28  1  0.998377  0.000496  0.250475  1
  Al  Al29  1  0.001623  0.999504  0.749525  1
  Ni  Ni30  1  0.500000  0.000000  0.000000  1
  Pd  Pd31  1  0.500000  0.500000  0.000000  1
  Ru  Ru32  1  0.000000  0.500000  0.000000  1
  Ru  Ru33  1  0.500000  0.000000  0.500000  1
  Ru  Ru34  1  0.000000  0.500000  0.500000  1
  Ru  Ru35  1  0.500000  0.500000  0.500000  1
  Ru  Ru36  1  0.000000  0.000000  0.000000  1
  Ru  Ru37  1  0.000000  0.000000  0.500000  1
