# generated using pymatgen
data_Tb5PuU4O20
_symmetry_space_group_name_H-M   'P 1'
_cell_length_a   6.66332660
_cell_length_b   7.52490950
_cell_length_c   8.43625600
_cell_angle_alpha   100.98305667
_cell_angle_beta   97.66711826
_cell_angle_gamma   107.24797536
_symmetry_Int_Tables_number   1
_chemical_formula_structural   Tb5PuU4O20
_chemical_formula_sum   'Tb5 Pu1 U4 O20'
_cell_volume   388.35887507
_cell_formula_units_Z   1
loop_
 _symmetry_equiv_pos_site_id
 _symmetry_equiv_pos_as_xyz
  1  'x, y, z'
loop_
 _atom_site_type_symbol
 _atom_site_label
 _atom_site_symmetry_multiplicity
 _atom_site_fract_x
 _atom_site_fract_y
 _atom_site_fract_z
 _atom_site_occupancy
  Tb  Tb0  1  0.609340  0.701633  0.700161  1
  Tb  Tb1  1  0.390660  0.298367  0.299839  1
  Tb  Tb2  1  0.199130  0.897536  0.895108  1
  Tb  Tb3  1  0.000000  0.500000  0.500000  1
  Tb  Tb4  1  0.800870  0.102464  0.104892  1
  Pu  Pu5  1  0.000000  0.000000  0.500000  1
  U  U6  1  0.400844  0.802548  0.300945  1
  U  U7  1  0.199036  0.400056  0.899776  1
  U  U8  1  0.800964  0.599944  0.100224  1
  U  U9  1  0.599156  0.197452  0.699055  1
  O  O10  1  0.443363  0.534294  0.139174  1
  O  O11  1  0.554170  0.987245  0.841400  1
  O  O12  1  0.262808  0.140959  0.743659  1
  O  O13  1  0.358006  0.592650  0.442558  1
  O  O14  1  0.053157  0.730513  0.335920  1
  O  O15  1  0.445830  0.012755  0.158600  1
  O  O16  1  0.151781  0.184695  0.034837  1
  O  O17  1  0.556637  0.465706  0.860826  1
  O  O18  1  0.854343  0.335641  0.948442  1
  O  O19  1  0.254852  0.608125  0.759133  1
  O  O20  1  0.953352  0.775848  0.649715  1
  O  O21  1  0.351333  0.063089  0.453847  1
  O  O22  1  0.648667  0.936911  0.546153  1
  O  O23  1  0.046648  0.224152  0.350285  1
  O  O24  1  0.745148  0.391875  0.240867  1
  O  O25  1  0.145657  0.664359  0.051558  1
  O  O26  1  0.848219  0.815305  0.965163  1
  O  O27  1  0.946843  0.269487  0.664080  1
  O  O28  1  0.641994  0.407350  0.557442  1
  O  O29  1  0.737192  0.859041  0.256341  1
