# generated using pymatgen
data_Ho6Cd23As
_symmetry_space_group_name_H-M   'P 1'
_cell_length_a   9.93442712
_cell_length_b   9.93442750
_cell_length_c   9.93442900
_cell_angle_alpha   59.99999833
_cell_angle_beta   59.99999706
_cell_angle_gamma   59.99999931
_symmetry_Int_Tables_number   1
_chemical_formula_structural   Ho6Cd23As
_chemical_formula_sum   'Ho6 Cd23 As1'
_cell_volume   693.28781545
_cell_formula_units_Z   1
loop_
 _symmetry_equiv_pos_site_id
 _symmetry_equiv_pos_as_xyz
  1  'x, y, z'
loop_
 _atom_site_type_symbol
 _atom_site_label
 _atom_site_symmetry_multiplicity
 _atom_site_fract_x
 _atom_site_fract_y
 _atom_site_fract_z
 _atom_site_occupancy
  Ho  Ho0  1  0.796963  0.796963  0.203037  1
  Ho  Ho1  1  0.203037  0.796963  0.203037  1
  Ho  Ho2  1  0.796963  0.203037  0.203037  1
  Ho  Ho3  1  0.203037  0.203037  0.796963  1
  Ho  Ho4  1  0.796963  0.203037  0.796963  1
  Ho  Ho5  1  0.203037  0.796963  0.796963  1
  Cd  Cd6  1  0.836709  0.836709  0.489871  1
  Cd  Cd7  1  0.836709  0.489871  0.836709  1
  Cd  Cd8  1  0.489871  0.836709  0.836709  1
  Cd  Cd9  1  0.836709  0.836709  0.836709  1
  Cd  Cd10  1  0.163291  0.163291  0.510129  1
  Cd  Cd11  1  0.163291  0.510129  0.163291  1
  Cd  Cd12  1  0.510129  0.163291  0.163291  1
  Cd  Cd13  1  0.163291  0.163291  0.163291  1
  Cd  Cd14  1  0.621421  0.621421  0.135735  1
  Cd  Cd15  1  0.621421  0.135735  0.621421  1
  Cd  Cd16  1  0.135735  0.621421  0.621421  1
  Cd  Cd17  1  0.621421  0.621421  0.621421  1
  Cd  Cd18  1  0.378579  0.378579  0.864265  1
  Cd  Cd19  1  0.378579  0.864265  0.378579  1
  Cd  Cd20  1  0.864265  0.378579  0.378579  1
  Cd  Cd21  1  0.378579  0.378579  0.378579  1
  Cd  Cd22  1  0.000000  0.000000  0.500000  1
  Cd  Cd23  1  0.500000  0.000000  0.500000  1
  Cd  Cd24  1  0.000000  0.500000  0.500000  1
  Cd  Cd25  1  0.500000  0.500000  0.000000  1
  Cd  Cd26  1  0.000000  0.500000  0.000000  1
  Cd  Cd27  1  0.500000  0.000000  0.000000  1
  Cd  Cd28  1  0.500000  0.500000  0.500000  1
  As  As29  1  0.000000  0.000000  0.000000  1
