# generated using pymatgen
data_Hf2V3GaSi3
_symmetry_space_group_name_H-M   'P 1'
_cell_length_a   6.48823476
_cell_length_b   6.59947694
_cell_length_c   12.71694880
_cell_angle_alpha   89.99028620
_cell_angle_beta   89.93961312
_cell_angle_gamma   90.08694628
_symmetry_Int_Tables_number   1
_chemical_formula_structural   Hf2V3GaSi3
_chemical_formula_sum   'Hf8 V12 Ga4 Si12'
_cell_volume   544.52552958
_cell_formula_units_Z   4
loop_
 _symmetry_equiv_pos_site_id
 _symmetry_equiv_pos_as_xyz
  1  'x, y, z'
loop_
 _atom_site_type_symbol
 _atom_site_label
 _atom_site_symmetry_multiplicity
 _atom_site_fract_x
 _atom_site_fract_y
 _atom_site_fract_z
 _atom_site_occupancy
  Hf  Hf0  1  0.994313  0.167824  0.092483  1
  Hf  Hf1  1  0.008035  0.832495  0.904559  1
  Hf  Hf2  1  0.502092  0.672588  0.904692  1
  Hf  Hf3  1  0.003025  0.832893  0.598586  1
  Hf  Hf4  1  0.489447  0.328205  0.093616  1
  Hf  Hf5  1  0.987632  0.167172  0.403185  1
  Hf  Hf6  1  0.494317  0.328385  0.403149  1
  Hf  Hf7  1  0.507878  0.671566  0.600143  1
  V  V8  1  0.165360  0.491419  0.755015  1
  V  V9  1  0.838265  0.508574  0.250191  1
  V  V10  1  0.337249  0.991879  0.245255  1
  V  V11  1  0.665591  0.007304  0.750133  1
  V  V12  1  0.345195  0.166372  0.630630  1
  V  V13  1  0.666177  0.839578  0.370912  1
  V  V14  1  0.162182  0.664134  0.368353  1
  V  V15  1  0.658529  0.841904  0.125470  1
  V  V16  1  0.829976  0.325273  0.629142  1
  V  V17  1  0.334780  0.168064  0.876319  1
  V  V18  1  0.839779  0.327632  0.873907  1
  V  V19  1  0.172731  0.666535  0.124218  1
  Ga  Ga20  1  0.172791  0.455745  0.541043  1
  Ga  Ga21  1  0.827892  0.544102  0.460933  1
  Ga  Ga22  1  0.324830  0.955050  0.460449  1
  Ga  Ga23  1  0.826731  0.545366  0.041207  1
  Si  Si24  1  0.040084  0.125756  0.750086  1
  Si  Si25  1  0.963165  0.874124  0.247016  1
  Si  Si26  1  0.466083  0.624471  0.249689  1
  Si  Si27  1  0.537590  0.375645  0.752916  1
  Si  Si28  1  0.302379  0.865916  0.750665  1
  Si  Si29  1  0.698419  0.139191  0.248482  1
  Si  Si30  1  0.196579  0.362596  0.249206  1
  Si  Si31  1  0.804835  0.631699  0.751403  1
  Si  Si32  1  0.668379  0.041769  0.538308  1
  Si  Si33  1  0.167094  0.457952  0.960103  1
  Si  Si34  1  0.668681  0.043442  0.959762  1
  Si  Si35  1  0.331917  0.957380  0.038774  1
