# generated using pymatgen
data_Th4ReTc5B12
_symmetry_space_group_name_H-M   'P 1'
_cell_length_a   6.34097301
_cell_length_b   6.34903224
_cell_length_c   7.65214551
_cell_angle_alpha   90.85036322
_cell_angle_beta   90.89827839
_cell_angle_gamma   115.04990090
_symmetry_Int_Tables_number   1
_chemical_formula_structural   Th4ReTc5B12
_chemical_formula_sum   'Th4 Re1 Tc5 B12'
_cell_volume   278.97821213
_cell_formula_units_Z   1
loop_
 _symmetry_equiv_pos_site_id
 _symmetry_equiv_pos_as_xyz
  1  'x, y, z'
loop_
 _atom_site_type_symbol
 _atom_site_label
 _atom_site_symmetry_multiplicity
 _atom_site_fract_x
 _atom_site_fract_y
 _atom_site_fract_z
 _atom_site_occupancy
  Th  Th0  1  0.096163  0.439521  0.325413  1
  Th  Th1  1  0.562203  0.904057  0.173423  1
  Th  Th2  1  0.904048  0.558191  0.674377  1
  Th  Th3  1  0.436210  0.095665  0.826402  1
  Re  Re4  1  0.805193  0.991674  0.587782  1
  Tc  Tc5  1  0.588827  0.411302  0.250064  1
  Tc  Tc6  1  0.410754  0.588452  0.749564  1
  Tc  Tc7  1  0.991830  0.804279  0.086672  1
  Tc  Tc8  1  0.195229  0.008547  0.413292  1
  Tc  Tc9  1  0.008020  0.196578  0.913575  1
  B  B10  1  0.245877  0.153556  0.133772  1
  B  B11  1  0.845914  0.754793  0.368063  1
  B  B12  1  0.755658  0.846859  0.864780  1
  B  B13  1  0.154011  0.248151  0.632448  1
  B  B14  1  0.583040  0.159717  0.482968  1
  B  B15  1  0.838511  0.417501  0.017884  1
  B  B16  1  0.416827  0.838613  0.517216  1
  B  B17  1  0.161368  0.583123  0.982740  1
  B  B18  1  0.444097  0.349277  0.533364  1
  B  B19  1  0.650242  0.556364  0.966303  1
  B  B20  1  0.555996  0.649572  0.466408  1
  B  B21  1  0.349984  0.444210  0.033489  1
