# generated using pymatgen
data_Er3Lu7Cd3Ru
_symmetry_space_group_name_H-M   'P 1'
_cell_length_a   9.41332429
_cell_length_b   9.41315568
_cell_length_c   9.67301800
_cell_angle_alpha   90.00000000
_cell_angle_beta   90.00000000
_cell_angle_gamma   119.92450500
_symmetry_Int_Tables_number   1
_chemical_formula_structural   Er3Lu7Cd3Ru
_chemical_formula_sum   'Er6 Lu14 Cd6 Ru2'
_cell_volume   742.84939042
_cell_formula_units_Z   2
loop_
 _symmetry_equiv_pos_site_id
 _symmetry_equiv_pos_as_xyz
  1  'x, y, z'
loop_
 _atom_site_type_symbol
 _atom_site_label
 _atom_site_symmetry_multiplicity
 _atom_site_fract_x
 _atom_site_fract_y
 _atom_site_fract_z
 _atom_site_occupancy
  Er  Er0  1  0.460407  0.920282  0.750000  1
  Er  Er1  1  0.079699  0.539597  0.750000  1
  Er  Er2  1  0.540579  0.459418  0.250000  1
  Er  Er3  1  0.540151  0.079471  0.250000  1
  Er  Er4  1  0.920540  0.459838  0.250000  1
  Er  Er5  1  0.461074  0.538920  0.750000  1
  Lu  Lu6  1  0.999710  0.000326  0.499788  1
  Lu  Lu7  1  0.999710  0.000326  0.000212  1
  Lu  Lu8  1  0.209874  0.790115  0.440809  1
  Lu  Lu9  1  0.210908  0.420524  0.440786  1
  Lu  Lu10  1  0.579473  0.789092  0.440784  1
  Lu  Lu11  1  0.789335  0.210671  0.558349  1
  Lu  Lu12  1  0.789445  0.579487  0.558200  1
  Lu  Lu13  1  0.420494  0.210550  0.558219  1
  Lu  Lu14  1  0.789335  0.210671  0.941651  1
  Lu  Lu15  1  0.789445  0.579487  0.941800  1
  Lu  Lu16  1  0.420494  0.210550  0.941781  1
  Lu  Lu17  1  0.209874  0.790115  0.059191  1
  Lu  Lu18  1  0.210908  0.420524  0.059214  1
  Lu  Lu19  1  0.579473  0.789092  0.059216  1
  Cd  Cd20  1  0.886262  0.113727  0.250000  1
  Cd  Cd21  1  0.885594  0.772457  0.250000  1
  Cd  Cd22  1  0.227552  0.114413  0.250000  1
  Cd  Cd23  1  0.112973  0.887027  0.750000  1
  Cd  Cd24  1  0.114714  0.226597  0.750000  1
  Cd  Cd25  1  0.773413  0.885282  0.750000  1
  Ru  Ru26  1  0.332608  0.667394  0.250000  1
  Ru  Ru27  1  0.665951  0.334049  0.750000  1
