# generated using pymatgen
data_Ho2Rh2O7
_symmetry_space_group_name_H-M   'P 1'
_cell_length_a   7.21008321
_cell_length_b   7.21008377
_cell_length_c   7.21008300
_cell_angle_alpha   59.99999896
_cell_angle_beta   59.99999639
_cell_angle_gamma   60.00000546
_symmetry_Int_Tables_number   1
_chemical_formula_structural   Ho2Rh2O7
_chemical_formula_sum   'Ho4 Rh4 O14'
_cell_volume   265.03660328
_cell_formula_units_Z   2
loop_
 _symmetry_equiv_pos_site_id
 _symmetry_equiv_pos_as_xyz
  1  'x, y, z'
loop_
 _atom_site_type_symbol
 _atom_site_label
 _atom_site_symmetry_multiplicity
 _atom_site_fract_x
 _atom_site_fract_y
 _atom_site_fract_z
 _atom_site_occupancy
  Ho  Ho0  1  0.125000  0.125000  0.625000  1
  Ho  Ho1  1  0.125000  0.625000  0.125000  1
  Ho  Ho2  1  0.125000  0.125000  0.125000  1
  Ho  Ho3  1  0.625000  0.125000  0.125000  1
  Rh  Rh4  1  0.125000  0.625000  0.625000  1
  Rh  Rh5  1  0.625000  0.625000  0.625000  1
  Rh  Rh6  1  0.625000  0.125000  0.625000  1
  Rh  Rh7  1  0.625000  0.625000  0.125000  1
  O  O8  1  0.287168  0.712832  0.712832  1
  O  O9  1  0.537168  0.962832  0.962832  1
  O  O10  1  0.712832  0.287168  0.712832  1
  O  O11  1  0.712832  0.712832  0.287168  1
  O  O12  1  0.287168  0.712832  0.287168  1
  O  O13  1  0.287168  0.287168  0.712832  1
  O  O14  1  0.000000  0.000000  0.000000  1
  O  O15  1  0.250000  0.250000  0.250000  1
  O  O16  1  0.962832  0.537168  0.962832  1
  O  O17  1  0.537168  0.537168  0.962832  1
  O  O18  1  0.962832  0.962832  0.537168  1
  O  O19  1  0.537168  0.962832  0.537168  1
  O  O20  1  0.712832  0.287168  0.287168  1
  O  O21  1  0.962832  0.537168  0.537168  1
