# generated using pymatgen
data_Dy8Re13B12
_symmetry_space_group_name_H-M   'P 1'
_cell_length_a   7.79792438
_cell_length_b   7.79792492
_cell_length_c   7.79792415
_cell_angle_alpha   86.39632398
_cell_angle_beta   86.39632419
_cell_angle_gamma   86.39632658
_symmetry_Int_Tables_number   1
_chemical_formula_structural   Dy8Re13B12
_chemical_formula_sum   'Dy8 Re13 B12'
_cell_volume   471.47336805
_cell_formula_units_Z   1
loop_
 _symmetry_equiv_pos_site_id
 _symmetry_equiv_pos_as_xyz
  1  'x, y, z'
loop_
 _atom_site_type_symbol
 _atom_site_label
 _atom_site_symmetry_multiplicity
 _atom_site_fract_x
 _atom_site_fract_y
 _atom_site_fract_z
 _atom_site_occupancy
  Dy  Dy0  1  0.641744  0.641744  0.641744  1
  Dy  Dy1  1  0.358256  0.358256  0.358256  1
  Dy  Dy2  1  0.188339  0.188339  0.686928  1
  Dy  Dy3  1  0.686928  0.188339  0.188339  1
  Dy  Dy4  1  0.188339  0.686928  0.188339  1
  Dy  Dy5  1  0.811661  0.811661  0.313072  1
  Dy  Dy6  1  0.313072  0.811661  0.811661  1
  Dy  Dy7  1  0.811661  0.313072  0.811661  1
  Re  Re8  1  0.000000  0.000000  0.000000  1
  Re  Re9  1  0.596796  0.063640  0.596796  1
  Re  Re10  1  0.596796  0.596796  0.063640  1
  Re  Re11  1  0.063640  0.596796  0.596796  1
  Re  Re12  1  0.403204  0.936360  0.403204  1
  Re  Re13  1  0.403204  0.403204  0.936360  1
  Re  Re14  1  0.936360  0.403204  0.403204  1
  Re  Re15  1  0.923038  0.923038  0.670585  1
  Re  Re16  1  0.670585  0.923038  0.923038  1
  Re  Re17  1  0.923038  0.670585  0.923038  1
  Re  Re18  1  0.076962  0.076962  0.329415  1
  Re  Re19  1  0.329415  0.076962  0.076962  1
  Re  Re20  1  0.076962  0.329415  0.076962  1
  B  B21  1  0.152405  0.847595  0.500000  1
  B  B22  1  0.500000  0.152405  0.847595  1
  B  B23  1  0.847595  0.500000  0.152405  1
  B  B24  1  0.500000  0.847595  0.152405  1
  B  B25  1  0.152405  0.500000  0.847595  1
  B  B26  1  0.847595  0.152405  0.500000  1
  B  B27  1  0.671174  0.500000  0.328826  1
  B  B28  1  0.328826  0.671174  0.500000  1
  B  B29  1  0.500000  0.328826  0.671174  1
  B  B30  1  0.328826  0.500000  0.671174  1
  B  B31  1  0.671174  0.328826  0.500000  1
  B  B32  1  0.500000  0.671174  0.328826  1
