# generated using pymatgen
data_Dy4YHo7Co5Sn
_symmetry_space_group_name_H-M   'P 1'
_cell_length_a   8.24020945
_cell_length_b   8.25122053
_cell_length_c   8.25122086
_cell_angle_alpha   107.01295611
_cell_angle_beta   110.65373424
_cell_angle_gamma   110.83254905
_symmetry_Int_Tables_number   1
_chemical_formula_structural   Dy4YHo7Co5Sn
_chemical_formula_sum   'Dy4 Y1 Ho7 Co5 Sn1'
_cell_volume   430.95987087
_cell_formula_units_Z   1
loop_
 _symmetry_equiv_pos_site_id
 _symmetry_equiv_pos_as_xyz
  1  'x, y, z'
loop_
 _atom_site_type_symbol
 _atom_site_label
 _atom_site_symmetry_multiplicity
 _atom_site_fract_x
 _atom_site_fract_y
 _atom_site_fract_z
 _atom_site_occupancy
  Dy  Dy0  1  0.193255  0.209515  0.403648  1
  Dy  Dy1  1  0.807418  0.791357  0.598171  1
  Dy  Dy2  1  0.193255  0.789608  0.983739  1
  Dy  Dy3  1  0.807418  0.209246  0.016063  1
  Y  Y4  1  0.477262  0.290845  0.186417  1
  Ho  Ho5  1  0.106086  0.291725  0.814362  1
  Ho  Ho6  1  0.894131  0.708983  0.185147  1
  Ho  Ho7  1  0.523730  0.709089  0.814640  1
  Ho  Ho8  1  0.305721  0.620108  0.314153  1
  Ho  Ho9  1  0.305721  0.991568  0.685613  1
  Ho  Ho10  1  0.694568  0.380338  0.686823  1
  Ho  Ho11  1  0.694568  0.007743  0.314230  1
  Co  Co12  1  0.499212  0.613180  0.110922  1
  Co  Co13  1  0.499212  0.388290  0.886033  1
  Co  Co14  1  0.376800  0.999677  0.377122  1
  Co  Co15  1  0.622709  0.999895  0.622814  1
  Co  Co16  1  0.999358  0.998963  0.000395  1
  Sn  Sn17  1  0.999580  0.499871  0.499708  1
