# generated using pymatgen
data_CsMn2VSe4
_symmetry_space_group_name_H-M   'P 1'
_cell_length_a   10.50990933
_cell_length_b   10.50990816
_cell_length_c   8.10234400
_cell_angle_alpha   90.00000000
_cell_angle_beta   90.00000000
_cell_angle_gamma   147.39790035
_symmetry_Int_Tables_number   1
_chemical_formula_structural   CsMn2VSe4
_chemical_formula_sum   'Cs2 Mn4 V2 Se8'
_cell_volume   482.21141948
_cell_formula_units_Z   2
loop_
 _symmetry_equiv_pos_site_id
 _symmetry_equiv_pos_as_xyz
  1  'x, y, z'
loop_
 _atom_site_type_symbol
 _atom_site_label
 _atom_site_symmetry_multiplicity
 _atom_site_fract_x
 _atom_site_fract_y
 _atom_site_fract_z
 _atom_site_occupancy
  Cs  Cs0  1  0.180422  0.810589  0.750000  1
  Cs  Cs1  1  0.810589  0.180422  0.250000  1
  Mn  Mn2  1  0.732068  0.732068  0.500000  1
  Mn  Mn3  1  0.732068  0.732068  0.000000  1
  Mn  Mn4  1  0.342078  0.138725  0.250000  1
  Mn  Mn5  1  0.138725  0.342078  0.750000  1
  V  V6  1  0.646241  0.857659  0.750000  1
  V  V7  1  0.857659  0.646241  0.250000  1
  Se  Se8  1  0.619836  0.408822  0.009706  1
  Se  Se9  1  0.408822  0.619837  0.509706  1
  Se  Se10  1  0.980900  0.986041  0.750000  1
  Se  Se11  1  0.408822  0.619837  0.990294  1
  Se  Se12  1  0.188707  0.790541  0.250000  1
  Se  Se13  1  0.790541  0.188707  0.750000  1
  Se  Se14  1  0.986041  0.980900  0.250000  1
  Se  Se15  1  0.619836  0.408822  0.490294  1
