# generated using pymatgen
data_YbDy2Ni19B10
_symmetry_space_group_name_H-M   'P 1'
_cell_length_a   7.85930807
_cell_length_b   7.85930812
_cell_length_c   5.74739854
_cell_angle_alpha   88.89924942
_cell_angle_beta   88.89925314
_cell_angle_gamma   67.26151376
_symmetry_Int_Tables_number   1
_chemical_formula_structural   YbDy2Ni19B10
_chemical_formula_sum   'Yb1 Dy2 Ni19 B10'
_cell_volume   327.33050348
_cell_formula_units_Z   1
loop_
 _symmetry_equiv_pos_site_id
 _symmetry_equiv_pos_as_xyz
  1  'x, y, z'
loop_
 _atom_site_type_symbol
 _atom_site_label
 _atom_site_symmetry_multiplicity
 _atom_site_fract_x
 _atom_site_fract_y
 _atom_site_fract_z
 _atom_site_occupancy
  Yb  Yb0  1  0.000000  0.000000  0.000000  1
  Dy  Dy1  1  0.625743  0.625743  0.611868  1
  Dy  Dy2  1  0.374257  0.374257  0.388132  1
  Ni  Ni3  1  0.622378  0.622378  0.125745  1
  Ni  Ni4  1  0.377622  0.377622  0.874255  1
  Ni  Ni5  1  0.837275  0.837275  0.704054  1
  Ni  Ni6  1  0.162725  0.162725  0.295946  1
  Ni  Ni7  1  0.818903  0.818903  0.269320  1
  Ni  Ni8  1  0.181097  0.181097  0.730680  1
  Ni  Ni9  1  0.000000  0.000000  0.500000  1
  Ni  Ni10  1  0.623788  0.121806  0.074300  1
  Ni  Ni11  1  0.376212  0.878194  0.925700  1
  Ni  Ni12  1  0.878194  0.376212  0.925700  1
  Ni  Ni13  1  0.121806  0.623788  0.074300  1
  Ni  Ni14  1  0.287397  0.771441  0.300510  1
  Ni  Ni15  1  0.712603  0.228559  0.699490  1
  Ni  Ni16  1  0.228559  0.712603  0.699490  1
  Ni  Ni17  1  0.771441  0.287397  0.300510  1
  Ni  Ni18  1  0.482503  0.954180  0.301246  1
  Ni  Ni19  1  0.517497  0.045820  0.698754  1
  Ni  Ni20  1  0.045820  0.517497  0.698754  1
  Ni  Ni21  1  0.954180  0.482503  0.301246  1
  B  B22  1  0.701206  0.064076  0.430854  1
  B  B23  1  0.298794  0.935924  0.569146  1
  B  B24  1  0.935924  0.298794  0.569146  1
  B  B25  1  0.064076  0.701206  0.430854  1
  B  B26  1  0.349190  0.142195  0.025585  1
  B  B27  1  0.650810  0.857805  0.974415  1
  B  B28  1  0.857805  0.650810  0.974415  1
  B  B29  1  0.142195  0.349190  0.025585  1
  B  B30  1  0.616330  0.383670  0.000000  1
  B  B31  1  0.383670  0.616330  0.000000  1
