# generated using pymatgen
data_SmH5Ru
_symmetry_space_group_name_H-M   'P 1'
_cell_length_a   4.49300300
_cell_length_b   4.70848900
_cell_length_c   11.90161500
_cell_angle_alpha   90.00000000
_cell_angle_beta   90.00000000
_cell_angle_gamma   90.00000000
_symmetry_Int_Tables_number   1
_chemical_formula_structural   SmH5Ru
_chemical_formula_sum   'Sm4 H20 Ru4'
_cell_volume   251.78170265
_cell_formula_units_Z   4
loop_
 _symmetry_equiv_pos_site_id
 _symmetry_equiv_pos_as_xyz
  1  'x, y, z'
loop_
 _atom_site_type_symbol
 _atom_site_label
 _atom_site_symmetry_multiplicity
 _atom_site_fract_x
 _atom_site_fract_y
 _atom_site_fract_z
 _atom_site_occupancy
  Sm  Sm0  1  0.727827  0.341045  0.142112  1
  Sm  Sm1  1  0.227827  0.158955  0.857888  1
  Sm  Sm2  1  0.272173  0.841045  0.357888  1
  Sm  Sm3  1  0.772173  0.658955  0.642112  1
  H  H4  1  0.850241  0.344228  0.958927  1
  H  H5  1  0.432817  0.016849  0.689688  1
  H  H6  1  0.957014  0.887964  0.009698  1
  H  H7  1  0.718393  0.981098  0.839060  1
  H  H8  1  0.424024  0.349666  0.319322  1
  H  H9  1  0.781607  0.018902  0.339060  1
  H  H10  1  0.457014  0.612036  0.990302  1
  H  H11  1  0.281607  0.481098  0.660940  1
  H  H12  1  0.932817  0.483151  0.310312  1
  H  H13  1  0.649759  0.655772  0.458927  1
  H  H14  1  0.042986  0.387964  0.490302  1
  H  H15  1  0.149759  0.844228  0.541073  1
  H  H16  1  0.575976  0.849666  0.180678  1
  H  H17  1  0.924024  0.150334  0.680678  1
  H  H18  1  0.075976  0.650334  0.819322  1
  H  H19  1  0.067183  0.983151  0.189688  1
  H  H20  1  0.350241  0.155772  0.041073  1
  H  H21  1  0.567183  0.516849  0.810312  1
  H  H22  1  0.542986  0.112036  0.509698  1
  H  H23  1  0.218393  0.518902  0.160940  1
  Ru  Ru24  1  0.217084  0.167563  0.593699  1
  Ru  Ru25  1  0.282916  0.832437  0.093699  1
  Ru  Ru26  1  0.782916  0.667563  0.906301  1
  Ru  Ru27  1  0.717084  0.332437  0.406301  1
