# generated using pymatgen
data_PrNd(BIr)4
_symmetry_space_group_name_H-M   'P 1'
_cell_length_a   7.11802057
_cell_length_b   6.14691402
_cell_length_c   5.60833562
_cell_angle_alpha   74.37385538
_cell_angle_beta   56.26891014
_cell_angle_gamma   49.35724502
_symmetry_Int_Tables_number   1
_chemical_formula_structural   PrNd(BIr)4
_chemical_formula_sum   'Pr1 Nd1 B4 Ir4'
_cell_volume   153.18376596
_cell_formula_units_Z   1
loop_
 _symmetry_equiv_pos_site_id
 _symmetry_equiv_pos_as_xyz
  1  'x, y, z'
loop_
 _atom_site_type_symbol
 _atom_site_label
 _atom_site_symmetry_multiplicity
 _atom_site_fract_x
 _atom_site_fract_y
 _atom_site_fract_z
 _atom_site_occupancy
  Pr  Pr0  1  0.500000  0.500000  0.500000  1
  Nd  Nd1  1  0.750000  0.750000  0.750000  1
  B  B2  1  0.178415  0.821585  0.178415  1
  B  B3  1  0.070561  0.429439  0.070561  1
  B  B4  1  0.821585  0.178415  0.821585  1
  B  B5  1  0.429439  0.070561  0.429439  1
  Ir  Ir6  1  0.869543  0.869543  0.130457  1
  Ir  Ir7  1  0.130457  0.130457  0.869543  1
  Ir  Ir8  1  0.379784  0.379784  0.120216  1
  Ir  Ir9  1  0.120216  0.120216  0.379784  1
