# generated using pymatgen
data_K8MgFe7P8(O7F2)4
_symmetry_space_group_name_H-M   'P 1'
_cell_length_a   6.94419900
_cell_length_b   10.57902200
_cell_length_c   11.41415900
_cell_angle_alpha   90.00000000
_cell_angle_beta   90.00000000
_cell_angle_gamma   90.00000000
_symmetry_Int_Tables_number   1
_chemical_formula_structural   K8MgFe7P8(O7F2)4
_chemical_formula_sum   'K8 Mg1 Fe7 P8 O28 F8'
_cell_volume   838.51646779
_cell_formula_units_Z   1
loop_
 _symmetry_equiv_pos_site_id
 _symmetry_equiv_pos_as_xyz
  1  'x, y, z'
loop_
 _atom_site_type_symbol
 _atom_site_label
 _atom_site_symmetry_multiplicity
 _atom_site_fract_x
 _atom_site_fract_y
 _atom_site_fract_z
 _atom_site_occupancy
  K  K0  1  0.500503  0.064597  0.826359  1
  K  K1  1  0.998121  0.565417  0.674276  1
  K  K2  1  0.001282  0.934948  0.674436  1
  K  K3  1  0.499077  0.435260  0.826343  1
  K  K4  1  0.499497  0.935403  0.173641  1
  K  K5  1  0.001879  0.434583  0.325724  1
  K  K6  1  0.998718  0.065052  0.325564  1
  K  K7  1  0.500923  0.564740  0.173657  1
  Mg  Mg8  1  0.000000  0.000000  0.000000  1
  Fe  Fe9  1  0.000483  0.248740  0.836600  1
  Fe  Fe10  1  0.500237  0.749967  0.664778  1
  Fe  Fe11  1  0.999517  0.751260  0.163400  1
  Fe  Fe12  1  0.499763  0.250033  0.335222  1
  Fe  Fe13  1  0.500000  0.500000  0.500000  1
  Fe  Fe14  1  0.500000  0.000000  0.500000  1
  Fe  Fe15  1  0.000000  0.500000  0.000000  1
  P  P16  1  0.217810  0.248076  0.579354  1
  P  P17  1  0.281852  0.749692  0.920775  1
  P  P18  1  0.717934  0.752767  0.921029  1
  P  P19  1  0.782128  0.251379  0.579243  1
  P  P20  1  0.782190  0.751924  0.420646  1
  P  P21  1  0.718148  0.250308  0.079225  1
  P  P22  1  0.282066  0.247233  0.078971  1
  P  P23  1  0.217872  0.748621  0.420757  1
  O  O24  1  0.000118  0.249953  0.521344  1
  O  O25  1  0.499248  0.751622  0.978972  1
  O  O26  1  0.999882  0.750047  0.478656  1
  O  O27  1  0.500752  0.248378  0.021028  1
  O  O28  1  0.174440  0.328242  0.987208  1
  O  O29  1  0.326543  0.828677  0.512291  1
  O  O30  1  0.673337  0.671687  0.511990  1
  O  O31  1  0.828516  0.167909  0.990319  1
  O  O32  1  0.825560  0.671758  0.012792  1
  O  O33  1  0.673457  0.171323  0.487709  1
  O  O34  1  0.326663  0.328313  0.488010  1
  O  O35  1  0.171484  0.832091  0.009681  1
  O  O36  1  0.279774  0.109044  0.583337  1
  O  O37  1  0.219879  0.610528  0.918207  1
  O  O38  1  0.781521  0.890991  0.917211  1
  O  O39  1  0.719876  0.390289  0.583040  1
  O  O40  1  0.720226  0.890956  0.416663  1
  O  O41  1  0.780121  0.389472  0.081793  1
  O  O42  1  0.218479  0.109009  0.082789  1
  O  O43  1  0.280124  0.609711  0.416960  1
  O  O44  1  0.205031  0.308075  0.701136  1
  O  O45  1  0.295222  0.808937  0.798679  1
  O  O46  1  0.704716  0.690969  0.800008  1
  O  O47  1  0.795482  0.190688  0.700670  1
  O  O48  1  0.794969  0.691925  0.298864  1
  O  O49  1  0.704778  0.191063  0.201321  1
  O  O50  1  0.295284  0.309031  0.199992  1
  O  O51  1  0.204518  0.809312  0.299330  1
  F  F52  1  0.107189  0.070897  0.851010  1
  F  F53  1  0.383356  0.575843  0.655566  1
  F  F54  1  0.616580  0.924062  0.655532  1
  F  F55  1  0.884798  0.423063  0.843854  1
  F  F56  1  0.892811  0.929103  0.148990  1
  F  F57  1  0.616644  0.424157  0.344434  1
  F  F58  1  0.383420  0.075938  0.344468  1
  F  F59  1  0.115202  0.576937  0.156146  1
