# generated using pymatgen
data_Ta6Be3BRu10
_symmetry_space_group_name_H-M   'P 1'
_cell_length_a   9.40997483
_cell_length_b   9.40997483
_cell_length_c   3.11592200
_cell_angle_alpha   90.00000000
_cell_angle_beta   90.00000000
_cell_angle_gamma   90.26322055
_symmetry_Int_Tables_number   1
_chemical_formula_structural   Ta6Be3BRu10
_chemical_formula_sum   'Ta6 Be3 B1 Ru10'
_cell_volume   275.90458499
_cell_formula_units_Z   1
loop_
 _symmetry_equiv_pos_site_id
 _symmetry_equiv_pos_as_xyz
  1  'x, y, z'
loop_
 _atom_site_type_symbol
 _atom_site_label
 _atom_site_symmetry_multiplicity
 _atom_site_fract_x
 _atom_site_fract_y
 _atom_site_fract_z
 _atom_site_occupancy
  Ta  Ta0  1  0.824039  0.677040  0.000000  1
  Ta  Ta1  1  0.177040  0.324039  0.000000  1
  Ta  Ta2  1  0.325567  0.825567  0.000000  1
  Ta  Ta3  1  0.674721  0.174721  0.000000  1
  Ta  Ta4  1  0.498199  0.500605  0.000000  1
  Ta  Ta5  1  0.000605  0.998199  0.000000  1
  Be  Be6  1  0.620565  0.879086  0.000000  1
  Be  Be7  1  0.379086  0.120565  0.000000  1
  Be  Be8  1  0.121259  0.621259  0.000000  1
  B  B9  1  0.879299  0.379299  0.000000  1
  Ru  Ru10  1  0.574279  0.710896  0.500000  1
  Ru  Ru11  1  0.429825  0.287919  0.500000  1
  Ru  Ru12  1  0.071082  0.786649  0.500000  1
  Ru  Ru13  1  0.925305  0.217156  0.500000  1
  Ru  Ru14  1  0.286649  0.571082  0.500000  1
  Ru  Ru15  1  0.717156  0.425305  0.500000  1
  Ru  Ru16  1  0.210896  0.074279  0.500000  1
  Ru  Ru17  1  0.787919  0.929825  0.500000  1
  Ru  Ru18  1  0.499967  0.999967  0.500000  1
  Ru  Ru19  1  0.996543  0.496543  0.500000  1
