# generated using pymatgen
data_Dy2Y3Ho3(CdNi)2
_symmetry_space_group_name_H-M   'P 1'
_cell_length_a   9.53503565
_cell_length_b   9.53503582
_cell_length_c   9.53503500
_cell_angle_alpha   59.99999937
_cell_angle_beta   59.99999879
_cell_angle_gamma   59.99999777
_symmetry_Int_Tables_number   1
_chemical_formula_structural   Dy2Y3Ho3(CdNi)2
_chemical_formula_sum   'Dy4 Y6 Ho6 Cd4 Ni4'
_cell_volume   612.98794021
_cell_formula_units_Z   2
loop_
 _symmetry_equiv_pos_site_id
 _symmetry_equiv_pos_as_xyz
  1  'x, y, z'
loop_
 _atom_site_type_symbol
 _atom_site_label
 _atom_site_symmetry_multiplicity
 _atom_site_fract_x
 _atom_site_fract_y
 _atom_site_fract_z
 _atom_site_occupancy
  Dy  Dy0  1  0.598708  0.598708  0.598708  1
  Dy  Dy1  1  0.598708  0.598708  0.203876  1
  Dy  Dy2  1  0.598708  0.203876  0.598708  1
  Dy  Dy3  1  0.203876  0.598708  0.598708  1
  Y  Y4  1  0.186803  0.813197  0.813197  1
  Y  Y5  1  0.813197  0.186803  0.186803  1
  Y  Y6  1  0.813197  0.186803  0.813197  1
  Y  Y7  1  0.186803  0.813197  0.186803  1
  Y  Y8  1  0.813197  0.813197  0.186803  1
  Y  Y9  1  0.186803  0.186803  0.813197  1
  Ho  Ho10  1  0.062298  0.437702  0.437702  1
  Ho  Ho11  1  0.437702  0.062298  0.062298  1
  Ho  Ho12  1  0.437702  0.062298  0.437702  1
  Ho  Ho13  1  0.062298  0.437702  0.062298  1
  Ho  Ho14  1  0.437702  0.437702  0.062298  1
  Ho  Ho15  1  0.062298  0.062298  0.437702  1
  Cd  Cd16  1  0.830982  0.830982  0.830982  1
  Cd  Cd17  1  0.830982  0.830982  0.507053  1
  Cd  Cd18  1  0.830982  0.507053  0.830982  1
  Cd  Cd19  1  0.507053  0.830982  0.830982  1
  Ni  Ni20  1  0.392244  0.392244  0.392244  1
  Ni  Ni21  1  0.392244  0.392244  0.823270  1
  Ni  Ni22  1  0.392244  0.823270  0.392244  1
  Ni  Ni23  1  0.823270  0.392244  0.392244  1
