# generated using pymatgen
data_NdSm9(Ga2Ru3)2
_symmetry_space_group_name_H-M   'P 1'
_cell_length_a   8.46227886
_cell_length_b   8.46670034
_cell_length_c   8.46669898
_cell_angle_alpha   109.59476798
_cell_angle_beta   109.39418127
_cell_angle_gamma   109.44588760
_symmetry_Int_Tables_number   1
_chemical_formula_structural   NdSm9(Ga2Ru3)2
_chemical_formula_sum   'Nd1 Sm9 Ga4 Ru6'
_cell_volume   466.85189824
_cell_formula_units_Z   1
loop_
 _symmetry_equiv_pos_site_id
 _symmetry_equiv_pos_as_xyz
  1  'x, y, z'
loop_
 _atom_site_type_symbol
 _atom_site_label
 _atom_site_symmetry_multiplicity
 _atom_site_fract_x
 _atom_site_fract_y
 _atom_site_fract_z
 _atom_site_occupancy
  Nd  Nd0  1  0.250000  0.686107  0.436108  1
  Sm  Sm1  1  0.750000  0.814958  0.064958  1
  Sm  Sm2  1  0.435378  0.250086  0.685371  1
  Sm  Sm3  1  0.684907  0.434977  0.249814  1
  Sm  Sm4  1  0.064623  0.749994  0.814709  1
  Sm  Sm5  1  0.815093  0.064907  0.750070  1
  Sm  Sm6  1  0.215251  0.215262  0.214843  1
  Sm  Sm7  1  0.500026  0.000190  0.283888  1
  Sm  Sm8  1  0.284749  0.499593  0.000012  1
  Sm  Sm9  1  0.999975  0.283863  0.500166  1
  Ga  Ga10  1  0.500539  0.000435  0.914777  1
  Ga  Ga11  1  0.586434  0.585319  0.586391  1
  Ga  Ga12  1  0.913566  0.499958  0.998885  1
  Ga  Ga13  1  0.999462  0.914240  0.499899  1
  Ru  Ru14  1  0.250001  0.121724  0.871724  1
  Ru  Ru15  1  0.750000  0.377636  0.627636  1
  Ru  Ru16  1  0.872320  0.250274  0.122179  1
  Ru  Ru17  1  0.121994  0.873701  0.248912  1
  Ru  Ru18  1  0.627679  0.749859  0.377952  1
  Ru  Ru19  1  0.378005  0.626916  0.751706  1
