# generated using pymatgen
data_Yb7Th(Si3Au)4
_symmetry_space_group_name_H-M   'P 1'
_cell_length_a   8.25625200
_cell_length_b   8.25625239
_cell_length_c   8.33135300
_cell_angle_alpha   90.00000000
_cell_angle_beta   90.00000000
_cell_angle_gamma   119.99999042
_symmetry_Int_Tables_number   1
_chemical_formula_structural   Yb7Th(Si3Au)4
_chemical_formula_sum   'Yb7 Th1 Si12 Au4'
_cell_volume   491.82670978
_cell_formula_units_Z   1
loop_
 _symmetry_equiv_pos_site_id
 _symmetry_equiv_pos_as_xyz
  1  'x, y, z'
loop_
 _atom_site_type_symbol
 _atom_site_label
 _atom_site_symmetry_multiplicity
 _atom_site_fract_x
 _atom_site_fract_y
 _atom_site_fract_z
 _atom_site_occupancy
  Yb  Yb0  1  0.499913  0.500082  0.750000  1
  Yb  Yb1  1  0.500081  0.499915  0.250000  1
  Yb  Yb2  1  0.000168  0.500084  0.750000  1
  Yb  Yb3  1  0.999846  0.499922  0.250000  1
  Yb  Yb4  1  0.499916  0.999835  0.750000  1
  Yb  Yb5  1  0.500083  0.000169  0.250000  1
  Yb  Yb6  1  0.000000  0.999999  0.750000  1
  Th  Th7  1  0.000001  0.000000  0.250000  1
  Si  Si8  1  0.837536  0.162465  0.997077  1
  Si  Si9  1  0.162466  0.837530  0.997385  1
  Si  Si10  1  0.324933  0.162466  0.997078  1
  Si  Si11  1  0.162466  0.837530  0.502615  1
  Si  Si12  1  0.675060  0.837530  0.997387  1
  Si  Si13  1  0.837536  0.162465  0.502923  1
  Si  Si14  1  0.837536  0.675070  0.997075  1
  Si  Si15  1  0.675060  0.837530  0.502613  1
  Si  Si16  1  0.162466  0.324935  0.997384  1
  Si  Si17  1  0.324933  0.162466  0.502922  1
  Si  Si18  1  0.162466  0.324935  0.502616  1
  Si  Si19  1  0.837536  0.675070  0.502925  1
  Au  Au20  1  0.666669  0.333335  0.001040  1
  Au  Au21  1  0.333332  0.666666  0.001431  1
  Au  Au22  1  0.333332  0.666666  0.498569  1
  Au  Au23  1  0.666669  0.333335  0.498960  1
