# generated using pymatgen
data_Th2Re5AsO24
_symmetry_space_group_name_H-M   'P 1'
_cell_length_a   10.20904391
_cell_length_b   10.61712716
_cell_length_c   6.28876200
_cell_angle_alpha   90.00000000
_cell_angle_beta   90.00000000
_cell_angle_gamma   119.69505142
_symmetry_Int_Tables_number   1
_chemical_formula_structural   Th2Re5AsO24
_chemical_formula_sum   'Th2 Re5 As1 O24'
_cell_volume   592.12612692
_cell_formula_units_Z   1
loop_
 _symmetry_equiv_pos_site_id
 _symmetry_equiv_pos_as_xyz
  1  'x, y, z'
loop_
 _atom_site_type_symbol
 _atom_site_label
 _atom_site_symmetry_multiplicity
 _atom_site_fract_x
 _atom_site_fract_y
 _atom_site_fract_z
 _atom_site_occupancy
  Th  Th0  1  0.684759  0.327652  0.750000  1
  Th  Th1  1  0.301829  0.641115  0.250000  1
  Re  Re2  1  0.389992  0.296146  0.250000  1
  Re  Re3  1  0.598919  0.682168  0.750000  1
  Re  Re4  1  0.900766  0.616165  0.250000  1
  Re  Re5  1  0.309932  0.911034  0.750000  1
  Re  Re6  1  0.703321  0.080374  0.250000  1
  As  As7  1  0.100512  0.411834  0.750000  1
  O  O8  1  0.487134  0.646187  0.520136  1
  O  O9  1  0.353394  0.843126  0.521034  1
  O  O10  1  0.827885  0.731992  0.250000  1
  O  O11  1  0.120788  0.858314  0.750000  1
  O  O12  1  0.257210  0.114569  0.250000  1
  O  O13  1  0.165130  0.296864  0.750000  1
  O  O14  1  0.507516  0.335084  0.024927  1
  O  O15  1  0.891496  0.131717  0.250000  1
  O  O16  1  0.098841  0.715493  0.250000  1
  O  O17  1  0.157891  0.526520  0.974687  1
  O  O18  1  0.157891  0.526520  0.525313  1
  O  O19  1  0.903622  0.339258  0.750000  1
  O  O20  1  0.304052  0.404314  0.250000  1
  O  O21  1  0.683246  0.572470  0.750000  1
  O  O22  1  0.835883  0.502445  0.474065  1
  O  O23  1  0.420397  0.101816  0.750000  1
  O  O24  1  0.661441  0.152867  0.022340  1
  O  O25  1  0.487134  0.646187  0.979864  1
  O  O26  1  0.353394  0.843126  0.978966  1
  O  O27  1  0.661441  0.152867  0.477660  1
  O  O28  1  0.507516  0.335084  0.475073  1
  O  O29  1  0.835883  0.502445  0.025935  1
  O  O30  1  0.735458  0.862843  0.750000  1
  O  O31  1  0.595329  0.891401  0.250000  1
