# generated using pymatgen
data_LiSc2Zn3(B2Rh5)2
_symmetry_space_group_name_H-M   'P 1'
_cell_length_a   9.43166716
_cell_length_b   9.37110908
_cell_length_c   2.95827600
_cell_angle_alpha   90.00000000
_cell_angle_beta   90.00000000
_cell_angle_gamma   90.17623767
_symmetry_Int_Tables_number   1
_chemical_formula_structural   LiSc2Zn3(B2Rh5)2
_chemical_formula_sum   'Li1 Sc2 Zn3 B4 Rh10'
_cell_volume   261.46652498
_cell_formula_units_Z   1
loop_
 _symmetry_equiv_pos_site_id
 _symmetry_equiv_pos_as_xyz
  1  'x, y, z'
loop_
 _atom_site_type_symbol
 _atom_site_label
 _atom_site_symmetry_multiplicity
 _atom_site_fract_x
 _atom_site_fract_y
 _atom_site_fract_z
 _atom_site_occupancy
  Li  Li0  1  0.822663  0.320997  0.000000  1
  Sc  Sc1  1  0.674038  0.828493  0.000000  1
  Sc  Sc2  1  0.174423  0.672485  0.000000  1
  Zn  Zn3  1  0.323877  0.181106  0.000000  1
  Zn  Zn4  1  0.997715  0.997865  0.000000  1
  Zn  Zn5  1  0.500571  0.502827  0.000000  1
  B  B6  1  0.634585  0.134136  0.000000  1
  B  B7  1  0.123888  0.371309  0.000000  1
  B  B8  1  0.873731  0.621120  0.000000  1
  B  B9  1  0.376179  0.875960  0.000000  1
  Rh  Rh10  1  0.083177  0.210218  0.500000  1
  Rh  Rh11  1  0.216167  0.928508  0.500000  1
  Rh  Rh12  1  0.782465  0.068602  0.500000  1
  Rh  Rh13  1  0.929907  0.780374  0.500000  1
  Rh  Rh14  1  0.429085  0.718321  0.500000  1
  Rh  Rh15  1  0.564607  0.284781  0.500000  1
  Rh  Rh16  1  0.715781  0.573762  0.500000  1
  Rh  Rh17  1  0.284118  0.428338  0.500000  1
  Rh  Rh18  1  0.494983  0.006651  0.500000  1
  Rh  Rh19  1  0.998043  0.494148  0.500000  1
