# generated using pymatgen
data_Na4YbNpS6
_symmetry_space_group_name_H-M   'P 1'
_cell_length_a   6.90199349
_cell_length_b   6.90199321
_cell_length_c   6.92876000
_cell_angle_alpha   80.37205334
_cell_angle_beta   80.37205374
_cell_angle_gamma   120.03113776
_symmetry_Int_Tables_number   1
_chemical_formula_structural   Na4YbNpS6
_chemical_formula_sum   'Na4 Yb1 Np1 S6'
_cell_volume   269.28150779
_cell_formula_units_Z   1
loop_
 _symmetry_equiv_pos_site_id
 _symmetry_equiv_pos_as_xyz
  1  'x, y, z'
loop_
 _atom_site_type_symbol
 _atom_site_label
 _atom_site_symmetry_multiplicity
 _atom_site_fract_x
 _atom_site_fract_y
 _atom_site_fract_z
 _atom_site_occupancy
  Na  Na0  1  0.000059  0.999941  0.000000  1
  Na  Na1  1  0.500786  0.499214  0.500000  1
  Na  Na2  1  0.838315  0.161685  0.500000  1
  Na  Na3  1  0.160391  0.839609  0.500000  1
  Yb  Yb4  1  0.666699  0.333301  0.000000  1
  Np  Np5  1  0.333001  0.666999  0.000000  1
  S  S6  1  0.266442  0.290251  0.227866  1
  S  S7  1  0.418491  0.051500  0.771696  1
  S  S8  1  0.101689  0.444122  0.776474  1
  S  S9  1  0.709749  0.733558  0.772134  1
  S  S10  1  0.555878  0.898311  0.223526  1
  S  S11  1  0.948500  0.581509  0.228304  1
