# generated using pymatgen
data_SmTa3(NbCl6)3
_symmetry_space_group_name_H-M   'P 1'
_cell_length_a   10.22288179
_cell_length_b   10.22308004
_cell_length_c   10.22507728
_cell_angle_alpha   55.93911713
_cell_angle_beta   55.93243035
_cell_angle_gamma   55.92642547
_symmetry_Int_Tables_number   1
_chemical_formula_structural   SmTa3(NbCl6)3
_chemical_formula_sum   'Sm1 Ta3 Nb3 Cl18'
_cell_volume   684.40267214
_cell_formula_units_Z   1
loop_
 _symmetry_equiv_pos_site_id
 _symmetry_equiv_pos_as_xyz
  1  'x, y, z'
loop_
 _atom_site_type_symbol
 _atom_site_label
 _atom_site_symmetry_multiplicity
 _atom_site_fract_x
 _atom_site_fract_y
 _atom_site_fract_z
 _atom_site_occupancy
  Sm  Sm0  1  0.999779  0.999712  0.000989  1
  Ta  Ta1  1  0.409861  0.301564  0.648056  1
  Ta  Ta2  1  0.351515  0.590491  0.698166  1
  Ta  Ta3  1  0.698775  0.351645  0.589740  1
  Nb  Nb4  1  0.300643  0.649453  0.408806  1
  Nb  Nb5  1  0.649250  0.409748  0.299934  1
  Nb  Nb6  1  0.590671  0.699742  0.350247  1
  Cl  Cl7  1  0.566946  0.162464  0.444181  1
  Cl  Cl8  1  0.225685  0.371305  0.904919  1
  Cl  Cl9  1  0.906482  0.224173  0.373320  1
  Cl  Cl10  1  0.370280  0.907621  0.224353  1
  Cl  Cl11  1  0.776015  0.629450  0.092498  1
  Cl  Cl12  1  0.094255  0.774410  0.631351  1
  Cl  Cl13  1  0.699553  0.957535  0.162651  1
  Cl  Cl14  1  0.952783  0.164173  0.699224  1
  Cl  Cl15  1  0.165584  0.697283  0.953766  1
  Cl  Cl16  1  0.302101  0.046366  0.835854  1
  Cl  Cl17  1  0.041706  0.837307  0.301558  1
  Cl  Cl18  1  0.838657  0.299943  0.042515  1
  Cl  Cl19  1  0.558453  0.431390  0.835657  1
  Cl  Cl20  1  0.164234  0.438867  0.570573  1
  Cl  Cl21  1  0.441249  0.568702  0.162362  1
  Cl  Cl22  1  0.429705  0.835596  0.561243  1
  Cl  Cl23  1  0.837334  0.555899  0.433378  1
  Cl  Cl24  1  0.628487  0.095161  0.774658  1
