# generated using pymatgen
data_Sm3Y5Re3B24Ru
_symmetry_space_group_name_H-M   'P 1'
_cell_length_a   3.70438600
_cell_length_b   9.21640756
_cell_length_c   11.62918731
_cell_angle_alpha   89.91134444
_cell_angle_beta   90.00000000
_cell_angle_gamma   90.00000000
_symmetry_Int_Tables_number   1
_chemical_formula_structural   Sm3Y5Re3B24Ru
_chemical_formula_sum   'Sm3 Y5 Re3 B24 Ru1'
_cell_volume   397.03313373
_cell_formula_units_Z   1
loop_
 _symmetry_equiv_pos_site_id
 _symmetry_equiv_pos_as_xyz
  1  'x, y, z'
loop_
 _atom_site_type_symbol
 _atom_site_label
 _atom_site_symmetry_multiplicity
 _atom_site_fract_x
 _atom_site_fract_y
 _atom_site_fract_z
 _atom_site_occupancy
  Sm  Sm0  1  0.000000  0.821823  0.085553  1
  Sm  Sm1  1  0.000000  0.177212  0.912556  1
  Sm  Sm2  1  0.000000  0.324518  0.415876  1
  Y  Y3  1  0.000000  0.676728  0.585971  1
  Y  Y4  1  0.000000  0.441637  0.130949  1
  Y  Y5  1  0.000000  0.556928  0.870145  1
  Y  Y6  1  0.000000  0.942524  0.369704  1
  Y  Y7  1  0.000000  0.057124  0.628924  1
  Re  Re8  1  0.000000  0.861734  0.820310  1
  Re  Re9  1  0.000000  0.638495  0.320662  1
  Re  Re10  1  0.000000  0.362388  0.679544  1
  B  B11  1  0.500000  0.054459  0.068536  1
  B  B12  1  0.500000  0.946036  0.931397  1
  B  B13  1  0.500000  0.554349  0.433141  1
  B  B14  1  0.500000  0.447495  0.568261  1
  B  B15  1  0.500000  0.248161  0.083212  1
  B  B16  1  0.500000  0.750859  0.916680  1
  B  B17  1  0.500000  0.749138  0.418510  1
  B  B18  1  0.500000  0.252113  0.582747  1
  B  B19  1  0.500000  0.289705  0.234511  1
  B  B20  1  0.500000  0.708467  0.764821  1
  B  B21  1  0.500000  0.790574  0.265988  1
  B  B22  1  0.500000  0.209170  0.733746  1
  B  B23  1  0.500000  0.130473  0.313815  1
  B  B24  1  0.500000  0.869312  0.685365  1
  B  B25  1  0.500000  0.630194  0.186110  1
  B  B26  1  0.500000  0.369944  0.813651  1
  B  B27  1  0.500000  0.483650  0.288467  1
  B  B28  1  0.500000  0.517969  0.712138  1
  B  B29  1  0.500000  0.984273  0.212245  1
  B  B30  1  0.500000  0.017000  0.787010  1
  B  B31  1  0.500000  0.100254  0.471573  1
  B  B32  1  0.500000  0.898704  0.527636  1
  B  B33  1  0.500000  0.598417  0.028017  1
  B  B34  1  0.500000  0.399686  0.972516  1
  Ru  Ru35  1  0.000000  0.138485  0.179711  1
