# generated using pymatgen
data_HfZr(RuI6)2
_symmetry_space_group_name_H-M   'P 1'
_cell_length_a   6.54055931
_cell_length_b   7.94844332
_cell_length_c   13.84650300
_cell_angle_alpha   90.00000000
_cell_angle_beta   90.00000000
_cell_angle_gamma   89.89789465
_symmetry_Int_Tables_number   1
_chemical_formula_structural   HfZr(RuI6)2
_chemical_formula_sum   'Hf1 Zr1 Ru2 I12'
_cell_volume   719.84067681
_cell_formula_units_Z   1
loop_
 _symmetry_equiv_pos_site_id
 _symmetry_equiv_pos_as_xyz
  1  'x, y, z'
loop_
 _atom_site_type_symbol
 _atom_site_label
 _atom_site_symmetry_multiplicity
 _atom_site_fract_x
 _atom_site_fract_y
 _atom_site_fract_z
 _atom_site_occupancy
  Hf  Hf0  1  0.226362  0.752228  0.500000  1
  Zr  Zr1  1  0.721332  0.248031  0.000000  1
  Ru  Ru2  1  0.766309  0.751923  0.500000  1
  Ru  Ru3  1  0.269293  0.247964  0.000000  1
  I  I4  1  0.987438  0.605865  0.645847  1
  I  I5  1  0.986169  0.044927  0.500000  1
  I  I6  1  0.019261  0.109976  0.862833  1
  I  I7  1  0.019261  0.109976  0.137167  1
  I  I8  1  0.515265  0.889462  0.362906  1
  I  I9  1  0.483904  0.396227  0.147763  1
  I  I10  1  0.515694  0.476375  0.500000  1
  I  I11  1  0.515265  0.889462  0.637094  1
  I  I12  1  0.483904  0.396227  0.852237  1
  I  I13  1  0.484944  0.951426  0.000000  1
  I  I14  1  0.018162  0.524069  0.000000  1
  I  I15  1  0.987438  0.605865  0.354153  1
