# generated using pymatgen
data_Na2Tl(P3Pd10)2
_symmetry_space_group_name_H-M   'P 1'
_cell_length_a   8.64410293
_cell_length_b   8.64410271
_cell_length_c   8.64410400
_cell_angle_alpha   60.00000272
_cell_angle_beta   60.00000356
_cell_angle_gamma   59.99999269
_symmetry_Int_Tables_number   1
_chemical_formula_structural   Na2Tl(P3Pd10)2
_chemical_formula_sum   'Na2 Tl1 P6 Pd20'
_cell_volume   456.71453198
_cell_formula_units_Z   1
loop_
 _symmetry_equiv_pos_site_id
 _symmetry_equiv_pos_as_xyz
  1  'x, y, z'
loop_
 _atom_site_type_symbol
 _atom_site_label
 _atom_site_symmetry_multiplicity
 _atom_site_fract_x
 _atom_site_fract_y
 _atom_site_fract_z
 _atom_site_occupancy
  Na  Na0  1  0.750000  0.750000  0.750000  1
  Na  Na1  1  0.000000  0.000000  0.000000  1
  Tl  Tl2  1  0.250000  0.250000  0.250000  1
  P  P3  1  0.736904  0.263096  0.263096  1
  P  P4  1  0.263096  0.736904  0.736904  1
  P  P5  1  0.263096  0.736904  0.263096  1
  P  P6  1  0.736904  0.263096  0.736904  1
  P  P7  1  0.263096  0.263096  0.736904  1
  P  P8  1  0.736904  0.736904  0.263096  1
  Pd  Pd9  1  0.382512  0.382512  0.382512  1
  Pd  Pd10  1  0.612748  0.612748  0.612748  1
  Pd  Pd11  1  0.382512  0.382512  0.852466  1
  Pd  Pd12  1  0.382512  0.852466  0.382512  1
  Pd  Pd13  1  0.612748  0.612748  0.161754  1
  Pd  Pd14  1  0.612748  0.161754  0.612748  1
  Pd  Pd15  1  0.852466  0.382512  0.382512  1
  Pd  Pd16  1  0.161754  0.612748  0.612748  1
  Pd  Pd17  1  0.345460  0.999252  0.999252  1
  Pd  Pd18  1  0.656035  0.999252  0.999252  1
  Pd  Pd19  1  0.999252  0.345460  0.656035  1
  Pd  Pd20  1  0.999252  0.656035  0.345460  1
  Pd  Pd21  1  0.999252  0.345460  0.999252  1
  Pd  Pd22  1  0.656035  0.999252  0.345460  1
  Pd  Pd23  1  0.999252  0.656035  0.999252  1
  Pd  Pd24  1  0.345460  0.999252  0.656035  1
  Pd  Pd25  1  0.999252  0.999252  0.345460  1
  Pd  Pd26  1  0.999252  0.999252  0.656035  1
  Pd  Pd27  1  0.656035  0.345460  0.999252  1
  Pd  Pd28  1  0.345460  0.656035  0.999252  1
