# generated using pymatgen
data_Ce3Th4PaH24
_symmetry_space_group_name_H-M   'P 1'
_cell_length_a   6.90904300
_cell_length_b   6.89306200
_cell_length_c   6.90394800
_cell_angle_alpha   90.00000000
_cell_angle_beta   90.00000000
_cell_angle_gamma   90.00000000
_symmetry_Int_Tables_number   1
_chemical_formula_structural   Ce3Th4PaH24
_chemical_formula_sum   'Ce3 Th4 Pa1 H24'
_cell_volume   328.79680752
_cell_formula_units_Z   1
loop_
 _symmetry_equiv_pos_site_id
 _symmetry_equiv_pos_as_xyz
  1  'x, y, z'
loop_
 _atom_site_type_symbol
 _atom_site_label
 _atom_site_symmetry_multiplicity
 _atom_site_fract_x
 _atom_site_fract_y
 _atom_site_fract_z
 _atom_site_occupancy
  Ce  Ce0  1  0.000000  0.500000  0.749813  1
  Ce  Ce1  1  0.500000  0.748944  0.998832  1
  Ce  Ce2  1  0.500000  0.251056  0.998832  1
  Th  Th3  1  0.000000  0.000000  0.998997  1
  Th  Th4  1  0.250321  0.000000  0.501258  1
  Th  Th5  1  0.749679  0.000000  0.501258  1
  Th  Th6  1  0.000000  0.500000  0.250239  1
  Pa  Pa7  1  0.500000  0.500000  0.499798  1
  H  H8  1  0.000000  0.154850  0.307009  1
  H  H9  1  0.500000  0.201579  0.650268  1
  H  H10  1  0.500000  0.798288  0.349388  1
  H  H11  1  0.795523  0.652893  0.497921  1
  H  H12  1  0.204477  0.652893  0.497921  1
  H  H13  1  0.347307  0.500000  0.792898  1
  H  H14  1  0.652693  0.500000  0.792898  1
  H  H15  1  0.302406  0.000000  0.156769  1
  H  H16  1  0.153444  0.306713  0.002640  1
  H  H17  1  0.846556  0.693287  0.002640  1
  H  H18  1  0.303016  0.000000  0.843425  1
  H  H19  1  0.846556  0.306713  0.002640  1
  H  H20  1  0.697594  0.000000  0.156769  1
  H  H21  1  0.696984  0.000000  0.843425  1
  H  H22  1  0.153444  0.693287  0.002640  1
  H  H23  1  0.000000  0.845857  0.692118  1
  H  H24  1  0.000000  0.154143  0.692118  1
  H  H25  1  0.000000  0.845150  0.307009  1
  H  H26  1  0.654111  0.500000  0.207490  1
  H  H27  1  0.345889  0.500000  0.207490  1
  H  H28  1  0.795523  0.347107  0.497921  1
  H  H29  1  0.204477  0.347107  0.497921  1
  H  H30  1  0.500000  0.798421  0.650268  1
  H  H31  1  0.500000  0.201712  0.349388  1
