# generated using pymatgen
data_Nd5SnBi2Br
_symmetry_space_group_name_H-M   'P 1'
_cell_length_a   9.66893800
_cell_length_b   9.57984788
_cell_length_c   6.75214600
_cell_angle_alpha   90.00000000
_cell_angle_beta   90.00000000
_cell_angle_gamma   120.30811972
_symmetry_Int_Tables_number   1
_chemical_formula_structural   Nd5SnBi2Br
_chemical_formula_sum   'Nd10 Sn2 Bi4 Br2'
_cell_volume   539.94938197
_cell_formula_units_Z   2
loop_
 _symmetry_equiv_pos_site_id
 _symmetry_equiv_pos_as_xyz
  1  'x, y, z'
loop_
 _atom_site_type_symbol
 _atom_site_label
 _atom_site_symmetry_multiplicity
 _atom_site_fract_x
 _atom_site_fract_y
 _atom_site_fract_z
 _atom_site_occupancy
  Nd  Nd0  1  0.724496  0.000000  0.750000  1
  Nd  Nd1  1  0.995322  0.267201  0.250000  1
  Nd  Nd2  1  0.728121  0.732799  0.250000  1
  Nd  Nd3  1  0.335721  0.671443  0.500000  1
  Nd  Nd4  1  0.335721  0.671443  0.000000  1
  Nd  Nd5  1  0.664279  0.328557  0.500000  1
  Nd  Nd6  1  0.664279  0.328557  0.000000  1
  Nd  Nd7  1  0.275504  0.000000  0.250000  1
  Nd  Nd8  1  0.271879  0.267201  0.750000  1
  Nd  Nd9  1  0.004678  0.732799  0.750000  1
  Sn  Sn10  1  0.385976  0.000000  0.750000  1
  Sn  Sn11  1  0.614024  0.000000  0.250000  1
  Bi  Bi12  1  0.999189  0.615555  0.250000  1
  Bi  Bi13  1  0.616365  0.615555  0.750000  1
  Bi  Bi14  1  0.000811  0.384445  0.750000  1
  Bi  Bi15  1  0.383635  0.384445  0.250000  1
  Br  Br16  1  0.000000  0.000000  0.500000  1
  Br  Br17  1  0.000000  0.000000  0.000000  1
