# generated using pymatgen
data_Li3(NiGe)2
_symmetry_space_group_name_H-M   'P 1'
_cell_length_a   6.45575424
_cell_length_b   6.45575376
_cell_length_c   6.45575300
_cell_angle_alpha   36.33661636
_cell_angle_beta   36.33660710
_cell_angle_gamma   36.33661093
_symmetry_Int_Tables_number   1
_chemical_formula_structural   Li3(NiGe)2
_chemical_formula_sum   'Li3 Ni2 Ge2'
_cell_volume   84.53974035
_cell_formula_units_Z   1
loop_
 _symmetry_equiv_pos_site_id
 _symmetry_equiv_pos_as_xyz
  1  'x, y, z'
loop_
 _atom_site_type_symbol
 _atom_site_label
 _atom_site_symmetry_multiplicity
 _atom_site_fract_x
 _atom_site_fract_y
 _atom_site_fract_z
 _atom_site_occupancy
  Li  Li0  1  0.644642  0.644642  0.644642  1
  Li  Li1  1  0.355358  0.355358  0.355358  1
  Li  Li2  1  0.500000  0.500000  0.500000  1
  Ni  Ni3  1  0.784536  0.784536  0.784536  1
  Ni  Ni4  1  0.215465  0.215465  0.215465  1
  Ge  Ge5  1  0.917079  0.917079  0.917079  1
  Ge  Ge6  1  0.082921  0.082921  0.082921  1
