# generated using pymatgen
data_Zr2InGaRh2
_symmetry_space_group_name_H-M   'P 1'
_cell_length_a   7.32142700
_cell_length_b   7.32142745
_cell_length_c   7.12151300
_cell_angle_alpha   90.00000000
_cell_angle_beta   90.00000000
_cell_angle_gamma   120.00000250
_symmetry_Int_Tables_number   1
_chemical_formula_structural   Zr2InGaRh2
_chemical_formula_sum   'Zr6 In3 Ga3 Rh6'
_cell_volume   330.59356181
_cell_formula_units_Z   3
loop_
 _symmetry_equiv_pos_site_id
 _symmetry_equiv_pos_as_xyz
  1  'x, y, z'
loop_
 _atom_site_type_symbol
 _atom_site_label
 _atom_site_symmetry_multiplicity
 _atom_site_fract_x
 _atom_site_fract_y
 _atom_site_fract_z
 _atom_site_occupancy
  Zr  Zr0  1  0.397477  0.403664  0.743882  1
  Zr  Zr1  1  0.006188  0.602523  0.743882  1
  Zr  Zr2  1  0.596336  0.993812  0.743882  1
  Zr  Zr3  1  0.602523  0.006188  0.256118  1
  Zr  Zr4  1  0.993812  0.596336  0.256118  1
  Zr  Zr5  1  0.403664  0.397477  0.256118  1
  In  In6  1  0.253121  0.000000  0.000000  1
  In  In7  1  0.746879  0.746879  0.000000  1
  In  In8  1  0.000000  0.253121  0.000000  1
  Ga  Ga9  1  0.720230  0.720230  0.500000  1
  Ga  Ga10  1  0.279770  0.000000  0.500000  1
  Ga  Ga11  1  0.000000  0.279770  0.500000  1
  Rh  Rh12  1  0.666667  0.333333  0.987842  1
  Rh  Rh13  1  0.000000  0.000000  0.709170  1
  Rh  Rh14  1  0.666667  0.333333  0.510959  1
  Rh  Rh15  1  0.333333  0.666667  0.489041  1
  Rh  Rh16  1  0.333333  0.666667  0.012158  1
  Rh  Rh17  1  0.000000  0.000000  0.290830  1
