# generated using pymatgen
data_Nb4(RhSe4)3
_symmetry_space_group_name_H-M   'P 1'
_cell_length_a   7.47415410
_cell_length_b   7.47415474
_cell_length_c   19.58382412
_cell_angle_alpha   69.90738000
_cell_angle_beta   69.90737791
_cell_angle_gamma   26.63240449
_symmetry_Int_Tables_number   1
_chemical_formula_structural   Nb4(RhSe4)3
_chemical_formula_sum   'Nb4 Rh3 Se12'
_cell_volume   458.83010508
_cell_formula_units_Z   1
loop_
 _symmetry_equiv_pos_site_id
 _symmetry_equiv_pos_as_xyz
  1  'x, y, z'
loop_
 _atom_site_type_symbol
 _atom_site_label
 _atom_site_symmetry_multiplicity
 _atom_site_fract_x
 _atom_site_fract_y
 _atom_site_fract_z
 _atom_site_occupancy
  Nb  Nb0  1  0.740686  0.740686  0.594500  1
  Nb  Nb1  1  0.259314  0.259314  0.405500  1
  Nb  Nb2  1  0.617233  0.617233  0.852891  1
  Nb  Nb3  1  0.382767  0.382767  0.147109  1
  Rh  Rh4  1  0.776207  0.776207  0.279371  1
  Rh  Rh5  1  0.223793  0.223793  0.720629  1
  Rh  Rh6  1  0.000000  0.000000  0.000000  1
  Se  Se7  1  0.861837  0.861837  0.452853  1
  Se  Se8  1  0.029041  0.029041  0.116061  1
  Se  Se9  1  0.800177  0.800177  0.773313  1
  Se  Se10  1  0.402442  0.402442  0.279589  1
  Se  Se11  1  0.177308  0.177308  0.930314  1
  Se  Se12  1  0.597558  0.597558  0.720411  1
  Se  Se13  1  0.138163  0.138163  0.547147  1
  Se  Se14  1  0.822692  0.822692  0.069686  1
  Se  Se15  1  0.368178  0.368178  0.604336  1
  Se  Se16  1  0.970959  0.970959  0.883939  1
  Se  Se17  1  0.199823  0.199823  0.226687  1
  Se  Se18  1  0.631822  0.631822  0.395664  1
