# generated using pymatgen
data_Er8ZnCo2Si12Rh
_symmetry_space_group_name_H-M   'P 1'
_cell_length_a   8.05063200
_cell_length_b   8.05063301
_cell_length_c   7.84010000
_cell_angle_alpha   90.00000000
_cell_angle_beta   90.00000000
_cell_angle_gamma   119.99999583
_symmetry_Int_Tables_number   1
_chemical_formula_structural   Er8ZnCo2Si12Rh
_chemical_formula_sum   'Er8 Zn1 Co2 Si12 Rh1'
_cell_volume   440.06036757
_cell_formula_units_Z   1
loop_
 _symmetry_equiv_pos_site_id
 _symmetry_equiv_pos_as_xyz
  1  'x, y, z'
loop_
 _atom_site_type_symbol
 _atom_site_label
 _atom_site_symmetry_multiplicity
 _atom_site_fract_x
 _atom_site_fract_y
 _atom_site_fract_z
 _atom_site_occupancy
  Er  Er0  1  0.977810  0.488906  0.254448  1
  Er  Er1  1  0.511094  0.488906  0.254448  1
  Er  Er2  1  0.497737  0.995472  0.746286  1
  Er  Er3  1  0.004528  0.502263  0.746286  1
  Er  Er4  1  0.497737  0.502263  0.746286  1
  Er  Er5  1  0.511094  0.022190  0.254448  1
  Er  Er6  1  0.000000  0.000000  0.747567  1
  Er  Er7  1  0.000000  0.000000  0.249543  1
  Zn  Zn8  1  0.333333  0.666667  0.035347  1
  Co  Co9  1  0.666667  0.333333  0.961621  1
  Co  Co10  1  0.666667  0.333333  0.533052  1
  Si  Si11  1  0.166237  0.833763  0.497571  1
  Si  Si12  1  0.166237  0.332473  0.497571  1
  Si  Si13  1  0.667527  0.833763  0.497571  1
  Si  Si14  1  0.347740  0.173871  0.999338  1
  Si  Si15  1  0.828561  0.657124  0.502453  1
  Si  Si16  1  0.826129  0.173871  0.999338  1
  Si  Si17  1  0.826129  0.652260  0.999338  1
  Si  Si18  1  0.162941  0.325881  0.997493  1
  Si  Si19  1  0.674119  0.837059  0.997493  1
  Si  Si20  1  0.342876  0.171439  0.502453  1
  Si  Si21  1  0.828561  0.171439  0.502453  1
  Si  Si22  1  0.162941  0.837059  0.997493  1
  Rh  Rh23  1  0.333333  0.666667  0.480102  1
