# generated using pymatgen
data_DyHo2PaIn2Ir3
_symmetry_space_group_name_H-M   'P 1'
_cell_length_a   7.49245036
_cell_length_b   7.35699359
_cell_length_c   4.18942300
_cell_angle_alpha   90.00000000
_cell_angle_beta   90.00000000
_cell_angle_gamma   119.44396025
_symmetry_Int_Tables_number   1
_chemical_formula_structural   DyHo2PaIn2Ir3
_chemical_formula_sum   'Dy1 Ho2 Pa1 In2 Ir3'
_cell_volume   201.10149151
_cell_formula_units_Z   1
loop_
 _symmetry_equiv_pos_site_id
 _symmetry_equiv_pos_as_xyz
  1  'x, y, z'
loop_
 _atom_site_type_symbol
 _atom_site_label
 _atom_site_symmetry_multiplicity
 _atom_site_fract_x
 _atom_site_fract_y
 _atom_site_fract_z
 _atom_site_occupancy
  Dy  Dy0  1  0.567959  0.592804  0.000000  1
  Ho  Ho1  1  0.431865  0.024709  0.000000  1
  Ho  Ho2  1  0.999861  0.376024  0.000000  1
  Pa  Pa3  1  0.000145  0.734153  0.500000  1
  In  In4  1  0.257618  0.256299  0.500000  1
  In  In5  1  0.742340  0.998952  0.500000  1
  Ir  Ir6  1  0.000383  0.982682  0.000000  1
  Ir  Ir7  1  0.682962  0.358379  0.500000  1
  Ir  Ir8  1  0.316868  0.675996  0.500000  1
