# generated using pymatgen
data_Sr2HoTm3Se8
_symmetry_space_group_name_H-M   'P 1'
_cell_length_a   4.12768200
_cell_length_b   12.58230800
_cell_length_c   14.89771100
_cell_angle_alpha   90.00000000
_cell_angle_beta   90.00000000
_cell_angle_gamma   90.00000000
_symmetry_Int_Tables_number   1
_chemical_formula_structural   Sr2HoTm3Se8
_chemical_formula_sum   'Sr4 Ho2 Tm6 Se16'
_cell_volume   773.72403616
_cell_formula_units_Z   2
loop_
 _symmetry_equiv_pos_site_id
 _symmetry_equiv_pos_as_xyz
  1  'x, y, z'
loop_
 _atom_site_type_symbol
 _atom_site_label
 _atom_site_symmetry_multiplicity
 _atom_site_fract_x
 _atom_site_fract_y
 _atom_site_fract_z
 _atom_site_occupancy
  Sr  Sr0  1  0.750000  0.741187  0.165314  1
  Sr  Sr1  1  0.750000  0.241187  0.334686  1
  Sr  Sr2  1  0.250000  0.258569  0.835502  1
  Sr  Sr3  1  0.250000  0.758569  0.664498  1
  Ho  Ho4  1  0.250000  0.936079  0.889322  1
  Ho  Ho5  1  0.250000  0.436080  0.610678  1
  Tm  Tm6  1  0.750000  0.081760  0.597892  1
  Tm  Tm7  1  0.750000  0.581760  0.902108  1
  Tm  Tm8  1  0.250000  0.918272  0.402062  1
  Tm  Tm9  1  0.250000  0.418272  0.097938  1
  Tm  Tm10  1  0.750000  0.063172  0.111789  1
  Tm  Tm11  1  0.750000  0.563172  0.388211  1
  Se  Se12  1  0.750000  0.292833  0.671776  1
  Se  Se13  1  0.750000  0.792833  0.828224  1
  Se  Se14  1  0.250000  0.706018  0.329492  1
  Se  Se15  1  0.250000  0.206018  0.170508  1
  Se  Se16  1  0.750000  0.371334  0.971001  1
  Se  Se17  1  0.750000  0.871334  0.528999  1
  Se  Se18  1  0.250000  0.629203  0.029167  1
  Se  Se19  1  0.250000  0.129203  0.470833  1
  Se  Se20  1  0.750000  0.973994  0.285347  1
  Se  Se21  1  0.750000  0.473994  0.214653  1
  Se  Se22  1  0.250000  0.026408  0.714702  1
  Se  Se23  1  0.250000  0.526408  0.785298  1
  Se  Se24  1  0.750000  0.088973  0.923968  1
  Se  Se25  1  0.750000  0.588973  0.576032  1
  Se  Se26  1  0.250000  0.912199  0.078582  1
  Se  Se27  1  0.250000  0.412199  0.421418  1
