# generated using pymatgen
data_GeTe5Ir2
_symmetry_space_group_name_H-M   'P 1'
_cell_length_a   4.05338900
_cell_length_b   8.30711243
_cell_length_c   13.81529361
_cell_angle_alpha   78.14319951
_cell_angle_beta   90.00000000
_cell_angle_gamma   90.00000000
_symmetry_Int_Tables_number   1
_chemical_formula_structural   GeTe5Ir2
_chemical_formula_sum   'Ge2 Te10 Ir4'
_cell_volume   455.26282086
_cell_formula_units_Z   2
loop_
 _symmetry_equiv_pos_site_id
 _symmetry_equiv_pos_as_xyz
  1  'x, y, z'
loop_
 _atom_site_type_symbol
 _atom_site_label
 _atom_site_symmetry_multiplicity
 _atom_site_fract_x
 _atom_site_fract_y
 _atom_site_fract_z
 _atom_site_occupancy
  Ge  Ge0  1  0.500000  0.166885  0.686414  1
  Ge  Ge1  1  0.500000  0.833115  0.313586  1
  Te  Te2  1  0.000000  0.951995  0.107978  1
  Te  Te3  1  0.000000  0.048005  0.892022  1
  Te  Te4  1  0.000000  0.466783  0.779099  1
  Te  Te5  1  0.000000  0.533217  0.220901  1
  Te  Te6  1  0.500000  0.674217  0.973552  1
  Te  Te7  1  0.500000  0.325783  0.026448  1
  Te  Te8  1  0.500000  0.169240  0.281885  1
  Te  Te9  1  0.500000  0.830760  0.718115  1
  Te  Te10  1  0.000000  0.235293  0.561530  1
  Te  Te11  1  0.000000  0.764707  0.438470  1
  Ir  Ir12  1  0.000000  0.248342  0.149908  1
  Ir  Ir13  1  0.000000  0.751658  0.850092  1
  Ir  Ir14  1  0.500000  0.748065  0.150656  1
  Ir  Ir15  1  0.500000  0.251935  0.849344  1
