# generated using pymatgen
data_Tm7Co3Sn23Ir3
_symmetry_space_group_name_H-M   'P 1'
_cell_length_a   9.74493900
_cell_length_b   9.74493848
_cell_length_c   10.04348400
_cell_angle_alpha   90.00000000
_cell_angle_beta   90.00000000
_cell_angle_gamma   119.99999158
_symmetry_Int_Tables_number   1
_chemical_formula_structural   Tm7Co3Sn23Ir3
_chemical_formula_sum   'Tm7 Co3 Sn23 Ir3'
_cell_volume   825.98714310
_cell_formula_units_Z   1
loop_
 _symmetry_equiv_pos_site_id
 _symmetry_equiv_pos_as_xyz
  1  'x, y, z'
loop_
 _atom_site_type_symbol
 _atom_site_label
 _atom_site_symmetry_multiplicity
 _atom_site_fract_x
 _atom_site_fract_y
 _atom_site_fract_z
 _atom_site_occupancy
  Tm  Tm0  1  0.000000  0.000000  0.977659  1
  Tm  Tm1  1  0.519337  0.480663  0.695289  1
  Tm  Tm2  1  0.519337  0.038672  0.695289  1
  Tm  Tm3  1  0.961328  0.480663  0.695289  1
  Tm  Tm4  1  0.040953  0.520477  0.307862  1
  Tm  Tm5  1  0.479523  0.959047  0.307862  1
  Tm  Tm6  1  0.479523  0.520477  0.307862  1
  Co  Co7  1  0.337274  0.168637  0.200860  1
  Co  Co8  1  0.831363  0.662726  0.200860  1
  Co  Co9  1  0.831363  0.168637  0.200860  1
  Sn  Sn10  1  0.666667  0.333333  0.183381  1
  Sn  Sn11  1  0.666667  0.333333  0.878384  1
  Sn  Sn12  1  0.333333  0.666667  0.125423  1
  Sn  Sn13  1  0.352242  0.345508  0.007087  1
  Sn  Sn14  1  0.993266  0.647758  0.007087  1
  Sn  Sn15  1  0.654492  0.006734  0.007087  1
  Sn  Sn16  1  0.654492  0.647758  0.007087  1
  Sn  Sn17  1  0.333333  0.666667  0.829126  1
  Sn  Sn18  1  0.441161  0.220580  0.450765  1
  Sn  Sn19  1  0.221966  0.778034  0.543311  1
  Sn  Sn20  1  0.221966  0.443930  0.543311  1
  Sn  Sn21  1  0.556070  0.778034  0.543311  1
  Sn  Sn22  1  0.117506  0.882494  0.272738  1
  Sn  Sn23  1  0.779420  0.558839  0.450765  1
  Sn  Sn24  1  0.779420  0.220580  0.450765  1
  Sn  Sn25  1  0.352242  0.006734  0.007087  1
  Sn  Sn26  1  0.117506  0.235011  0.272738  1
  Sn  Sn27  1  0.764989  0.882494  0.272738  1
  Sn  Sn28  1  0.242111  0.121055  0.712413  1
  Sn  Sn29  1  0.878945  0.757889  0.712413  1
  Sn  Sn30  1  0.878945  0.121055  0.712413  1
  Sn  Sn31  1  0.000000  0.000000  0.496990  1
  Sn  Sn32  1  0.993266  0.345508  0.007087  1
  Ir  Ir33  1  0.167552  0.832448  0.805602  1
  Ir  Ir34  1  0.167552  0.335103  0.805602  1
  Ir  Ir35  1  0.664897  0.832448  0.805602  1
