# generated using pymatgen
data_Sc4Mn4Fe(Co5P4)3
_symmetry_space_group_name_H-M   'P 1'
_cell_length_a   3.58097900
_cell_length_b   10.20817902
_cell_length_c   11.68323702
_cell_angle_alpha   89.99365024
_cell_angle_beta   90.00000000
_cell_angle_gamma   90.00000000
_symmetry_Int_Tables_number   1
_chemical_formula_structural   Sc4Mn4Fe(Co5P4)3
_chemical_formula_sum   'Sc4 Mn4 Fe1 Co15 P12'
_cell_volume   427.08393576
_cell_formula_units_Z   1
loop_
 _symmetry_equiv_pos_site_id
 _symmetry_equiv_pos_as_xyz
  1  'x, y, z'
loop_
 _atom_site_type_symbol
 _atom_site_label
 _atom_site_symmetry_multiplicity
 _atom_site_fract_x
 _atom_site_fract_y
 _atom_site_fract_z
 _atom_site_occupancy
  Sc  Sc0  1  0.250000  0.581734  0.705377  1
  Sc  Sc1  1  0.250000  0.918740  0.205203  1
  Sc  Sc2  1  0.750000  0.418974  0.295140  1
  Sc  Sc3  1  0.750000  0.081297  0.795238  1
  Mn  Mn4  1  0.250000  0.711624  0.989020  1
  Mn  Mn5  1  0.250000  0.789444  0.489128  1
  Mn  Mn6  1  0.750000  0.287593  0.010524  1
  Mn  Mn7  1  0.750000  0.210472  0.510164  1
  Fe  Fe8  1  0.250000  0.406195  0.486970  1
  Co  Co9  1  0.250000  0.092434  0.985128  1
  Co  Co10  1  0.750000  0.594011  0.514578  1
  Co  Co11  1  0.750000  0.907493  0.014763  1
  Co  Co12  1  0.250000  0.220920  0.176460  1
  Co  Co13  1  0.250000  0.277931  0.676547  1
  Co  Co14  1  0.750000  0.778818  0.823266  1
  Co  Co15  1  0.750000  0.721586  0.323155  1
  Co  Co16  1  0.250000  0.884088  0.699832  1
  Co  Co17  1  0.250000  0.616191  0.199898  1
  Co  Co18  1  0.750000  0.116055  0.299897  1
  Co  Co19  1  0.750000  0.384359  0.799565  1
  Co  Co20  1  0.250000  0.464788  0.931220  1
  Co  Co21  1  0.250000  0.035686  0.431915  1
  Co  Co22  1  0.750000  0.534901  0.068402  1
  Co  Co23  1  0.750000  0.964454  0.568514  1
  P  P24  1  0.250000  0.418958  0.115227  1
  P  P25  1  0.250000  0.080134  0.616003  1
  P  P26  1  0.750000  0.580966  0.884819  1
  P  P27  1  0.750000  0.919466  0.384081  1
  P  P28  1  0.250000  0.264886  0.866971  1
  P  P29  1  0.250000  0.236358  0.366273  1
  P  P30  1  0.750000  0.735004  0.133274  1
  P  P31  1  0.750000  0.764646  0.633854  1
  P  P32  1  0.250000  0.594168  0.389121  1
  P  P33  1  0.250000  0.902965  0.889579  1
  P  P34  1  0.750000  0.405538  0.610595  1
  P  P35  1  0.750000  0.097122  0.110297  1
