# generated using pymatgen
data_Ac6In4Pd13
_symmetry_space_group_name_H-M   'P 1'
_cell_length_a   8.82123689
_cell_length_b   8.82123619
_cell_length_c   8.82123600
_cell_angle_alpha   109.47122019
_cell_angle_beta   109.47121860
_cell_angle_gamma   109.47122426
_symmetry_Int_Tables_number   1
_chemical_formula_structural   Ac6In4Pd13
_chemical_formula_sum   'Ac6 In4 Pd13'
_cell_volume   528.40446645
_cell_formula_units_Z   1
loop_
 _symmetry_equiv_pos_site_id
 _symmetry_equiv_pos_as_xyz
  1  'x, y, z'
loop_
 _atom_site_type_symbol
 _atom_site_label
 _atom_site_symmetry_multiplicity
 _atom_site_fract_x
 _atom_site_fract_y
 _atom_site_fract_z
 _atom_site_occupancy
  Ac  Ac0  1  0.696248  0.696248  0.000000  1
  Ac  Ac1  1  0.303752  0.000000  0.303752  1
  Ac  Ac2  1  0.000000  0.303752  0.303752  1
  Ac  Ac3  1  0.303752  0.303752  0.000000  1
  Ac  Ac4  1  0.696248  0.000000  0.696248  1
  Ac  Ac5  1  0.000000  0.696248  0.696248  1
  In  In6  1  0.000000  0.000000  0.500000  1
  In  In7  1  0.000000  0.500000  0.000000  1
  In  In8  1  0.500000  0.000000  0.000000  1
  In  In9  1  0.500000  0.500000  0.500000  1
  Pd  Pd10  1  0.328975  0.328975  0.657951  1
  Pd  Pd11  1  0.671025  0.000000  0.328975  1
  Pd  Pd12  1  0.000000  0.671025  0.328975  1
  Pd  Pd13  1  0.671025  0.328975  0.000000  1
  Pd  Pd14  1  0.328975  0.657951  0.328975  1
  Pd  Pd15  1  0.000000  0.328975  0.671025  1
  Pd  Pd16  1  0.328975  0.671025  0.000000  1
  Pd  Pd17  1  0.328975  0.000000  0.671025  1
  Pd  Pd18  1  0.657951  0.328975  0.328975  1
  Pd  Pd19  1  0.671025  0.671025  0.342049  1
  Pd  Pd20  1  0.671025  0.342049  0.671025  1
  Pd  Pd21  1  0.342049  0.671025  0.671025  1
  Pd  Pd22  1  0.000000  0.000000  0.000000  1
