# generated using pymatgen
data_Y(Ga3Pt)3
_symmetry_space_group_name_H-M   'P 1'
_cell_length_a   10.46212628
_cell_length_b   10.46212607
_cell_length_c   10.46212790
_cell_angle_alpha   42.51553088
_cell_angle_beta   42.51553482
_cell_angle_gamma   42.51552972
_symmetry_Int_Tables_number   1
_chemical_formula_structural   Y(Ga3Pt)3
_chemical_formula_sum   'Y2 Ga18 Pt6'
_cell_volume   473.56165147
_cell_formula_units_Z   2
loop_
 _symmetry_equiv_pos_site_id
 _symmetry_equiv_pos_as_xyz
  1  'x, y, z'
loop_
 _atom_site_type_symbol
 _atom_site_label
 _atom_site_symmetry_multiplicity
 _atom_site_fract_x
 _atom_site_fract_y
 _atom_site_fract_z
 _atom_site_occupancy
  Y  Y0  1  0.166913  0.166913  0.166913  1
  Y  Y1  1  0.833087  0.833087  0.833087  1
  Ga  Ga2  1  0.108018  0.438348  0.768848  1
  Ga  Ga3  1  0.438348  0.768848  0.108018  1
  Ga  Ga4  1  0.561652  0.891982  0.231152  1
  Ga  Ga5  1  0.951183  0.951183  0.951183  1
  Ga  Ga6  1  0.048817  0.048817  0.048817  1
  Ga  Ga7  1  0.296855  0.703145  0.500000  1
  Ga  Ga8  1  0.891982  0.231152  0.561652  1
  Ga  Ga9  1  0.384034  0.384034  0.384034  1
  Ga  Ga10  1  0.500000  0.296855  0.703145  1
  Ga  Ga11  1  0.231152  0.561652  0.891982  1
  Ga  Ga12  1  0.714810  0.714810  0.714810  1
  Ga  Ga13  1  0.615966  0.615966  0.615966  1
  Ga  Ga14  1  0.334023  0.000000  0.665977  1
  Ga  Ga15  1  0.703145  0.500000  0.296855  1
  Ga  Ga16  1  0.665977  0.334023  0.000000  1
  Ga  Ga17  1  0.285190  0.285190  0.285190  1
  Ga  Ga18  1  0.000000  0.665977  0.334023  1
  Ga  Ga19  1  0.768848  0.108018  0.438348  1
  Pt  Pt20  1  0.418645  0.078128  0.759883  1
  Pt  Pt21  1  0.581355  0.240117  0.921872  1
  Pt  Pt22  1  0.078128  0.759883  0.418645  1
  Pt  Pt23  1  0.759883  0.418645  0.078128  1
  Pt  Pt24  1  0.921872  0.581355  0.240117  1
  Pt  Pt25  1  0.240117  0.921872  0.581355  1
