# generated using pymatgen
data_Ho12Fe4NiPb
_symmetry_space_group_name_H-M   'P 1'
_cell_length_a   8.27826746
_cell_length_b   8.27826872
_cell_length_c   8.27826800
_cell_angle_alpha   106.97468838
_cell_angle_beta   110.99388584
_cell_angle_gamma   110.47401078
_symmetry_Int_Tables_number   1
_chemical_formula_structural   Ho12Fe4NiPb
_chemical_formula_sum   'Ho12 Fe4 Ni1 Pb1'
_cell_volume   436.08558829
_cell_formula_units_Z   1
loop_
 _symmetry_equiv_pos_site_id
 _symmetry_equiv_pos_as_xyz
  1  'x, y, z'
loop_
 _atom_site_type_symbol
 _atom_site_label
 _atom_site_symmetry_multiplicity
 _atom_site_fract_x
 _atom_site_fract_y
 _atom_site_fract_z
 _atom_site_occupancy
  Ho  Ho0  1  0.476005  0.289822  0.186184  1
  Ho  Ho1  1  0.103639  0.289822  0.813816  1
  Ho  Ho2  1  0.896361  0.710178  0.186184  1
  Ho  Ho3  1  0.523995  0.710178  0.813816  1
  Ho  Ho4  1  0.302788  0.614525  0.311738  1
  Ho  Ho5  1  0.302788  0.991051  0.688262  1
  Ho  Ho6  1  0.697212  0.385475  0.688262  1
  Ho  Ho7  1  0.697212  0.008949  0.311738  1
  Ho  Ho8  1  0.197394  0.210775  0.408169  1
  Ho  Ho9  1  0.802606  0.789225  0.591831  1
  Ho  Ho10  1  0.197394  0.789225  0.986619  1
  Ho  Ho11  1  0.802606  0.210775  0.013381  1
  Fe  Fe12  1  0.500000  0.608126  0.108126  1
  Fe  Fe13  1  0.500000  0.391874  0.891874  1
  Fe  Fe14  1  0.384698  0.000000  0.384698  1
  Fe  Fe15  1  0.615302  0.000000  0.615302  1
  Ni  Ni16  1  0.000000  0.000000  0.000000  1
  Pb  Pb17  1  0.000000  0.500000  0.500000  1
