# generated using pymatgen
data_DyTmZr2(NiP)6
_symmetry_space_group_name_H-M   'P 1'
_cell_length_a   3.72669500
_cell_length_b   10.14919704
_cell_length_c   12.35023505
_cell_angle_alpha   90.01030539
_cell_angle_beta   90.00000000
_cell_angle_gamma   90.00000000
_symmetry_Int_Tables_number   1
_chemical_formula_structural   DyTmZr2(NiP)6
_chemical_formula_sum   'Dy2 Tm2 Zr4 Ni12 P12'
_cell_volume   467.12246178
_cell_formula_units_Z   2
loop_
 _symmetry_equiv_pos_site_id
 _symmetry_equiv_pos_as_xyz
  1  'x, y, z'
loop_
 _atom_site_type_symbol
 _atom_site_label
 _atom_site_symmetry_multiplicity
 _atom_site_fract_x
 _atom_site_fract_y
 _atom_site_fract_z
 _atom_site_occupancy
  Dy  Dy0  1  0.750000  0.571417  0.292715  1
  Dy  Dy1  1  0.250000  0.428583  0.707285  1
  Tm  Tm2  1  0.250000  0.071350  0.207488  1
  Tm  Tm3  1  0.750000  0.928650  0.792512  1
  Zr  Zr4  1  0.250000  0.158777  0.497243  1
  Zr  Zr5  1  0.750000  0.841223  0.502757  1
  Zr  Zr6  1  0.750000  0.659700  0.002469  1
  Zr  Zr7  1  0.250000  0.340300  0.997531  1
  Ni  Ni8  1  0.250000  0.728325  0.664344  1
  Ni  Ni9  1  0.750000  0.271675  0.335656  1
  Ni  Ni10  1  0.750000  0.227208  0.836011  1
  Ni  Ni11  1  0.250000  0.772792  0.163989  1
  Ni  Ni12  1  0.250000  0.364693  0.219489  1
  Ni  Ni13  1  0.750000  0.635307  0.780511  1
  Ni  Ni14  1  0.750000  0.866595  0.279935  1
  Ni  Ni15  1  0.250000  0.133405  0.720065  1
  Ni  Ni16  1  0.250000  0.598345  0.483233  1
  Ni  Ni17  1  0.750000  0.401655  0.516767  1
  Ni  Ni18  1  0.750000  0.097519  0.017726  1
  Ni  Ni19  1  0.250000  0.902481  0.982274  1
  P  P20  1  0.250000  0.945217  0.625335  1
  P  P21  1  0.750000  0.054783  0.374665  1
  P  P22  1  0.750000  0.445221  0.875894  1
  P  P23  1  0.250000  0.554779  0.124106  1
  P  P24  1  0.250000  0.394245  0.402239  1
  P  P25  1  0.750000  0.605755  0.597761  1
  P  P26  1  0.750000  0.895073  0.098403  1
  P  P27  1  0.250000  0.104927  0.901597  1
  P  P28  1  0.250000  0.770969  0.354196  1
  P  P29  1  0.750000  0.229031  0.645804  1
  P  P30  1  0.750000  0.269019  0.146326  1
  P  P31  1  0.250000  0.730981  0.853674  1
