# generated using pymatgen
data_Ce2Pa2CdPt4Pb
_symmetry_space_group_name_H-M   'P 1'
_cell_length_a   7.95523863
_cell_length_b   7.96050059
_cell_length_c   3.66715900
_cell_angle_alpha   90.00000000
_cell_angle_beta   90.00000000
_cell_angle_gamma   90.21195052
_symmetry_Int_Tables_number   1
_chemical_formula_structural   Ce2Pa2CdPt4Pb
_chemical_formula_sum   'Ce2 Pa2 Cd1 Pt4 Pb1'
_cell_volume   232.23108945
_cell_formula_units_Z   1
loop_
 _symmetry_equiv_pos_site_id
 _symmetry_equiv_pos_as_xyz
  1  'x, y, z'
loop_
 _atom_site_type_symbol
 _atom_site_label
 _atom_site_symmetry_multiplicity
 _atom_site_fract_x
 _atom_site_fract_y
 _atom_site_fract_z
 _atom_site_occupancy
  Ce  Ce0  1  0.827930  0.676964  0.500000  1
  Ce  Ce1  1  0.677071  0.171248  0.500000  1
  Pa  Pa2  1  0.167713  0.326719  0.500000  1
  Pa  Pa3  1  0.326506  0.832480  0.500000  1
  Cd  Cd4  1  0.997164  0.997275  0.000000  1
  Pt  Pt5  1  0.617484  0.874269  0.000000  1
  Pt  Pt6  1  0.138266  0.633977  0.000000  1
  Pt  Pt7  1  0.891128  0.365751  0.000000  1
  Pt  Pt8  1  0.353799  0.125137  0.000000  1
  Pb  Pb9  1  0.502938  0.496178  0.000000  1
