# generated using pymatgen
data_NdHg3Pd3PtO14
_symmetry_space_group_name_H-M   'P 1'
_cell_length_a   7.34842535
_cell_length_b   7.34842358
_cell_length_c   7.34842415
_cell_angle_alpha   59.64866209
_cell_angle_beta   59.64866535
_cell_angle_gamma   59.64867141
_symmetry_Int_Tables_number   1
_chemical_formula_structural   NdHg3Pd3PtO14
_chemical_formula_sum   'Nd1 Hg3 Pd3 Pt1 O14'
_cell_volume   278.34715646
_cell_formula_units_Z   1
loop_
 _symmetry_equiv_pos_site_id
 _symmetry_equiv_pos_as_xyz
  1  'x, y, z'
loop_
 _atom_site_type_symbol
 _atom_site_label
 _atom_site_symmetry_multiplicity
 _atom_site_fract_x
 _atom_site_fract_y
 _atom_site_fract_z
 _atom_site_occupancy
  Nd  Nd0  1  0.125000  0.125000  0.125000  1
  Hg  Hg1  1  0.625000  0.125000  0.125000  1
  Hg  Hg2  1  0.125000  0.625000  0.125000  1
  Hg  Hg3  1  0.125000  0.125000  0.625000  1
  Pd  Pd4  1  0.625000  0.625000  0.125000  1
  Pd  Pd5  1  0.625000  0.125000  0.625000  1
  Pd  Pd6  1  0.125000  0.625000  0.625000  1
  Pt  Pt7  1  0.625000  0.625000  0.625000  1
  O  O8  1  0.714543  0.292695  0.292695  1
  O  O9  1  0.703583  0.297889  0.703583  1
  O  O10  1  0.990133  0.990133  0.990133  1
  O  O11  1  0.292695  0.714543  0.292695  1
  O  O12  1  0.703583  0.703583  0.297889  1
  O  O13  1  0.952111  0.546417  0.546417  1
  O  O14  1  0.297889  0.703583  0.703583  1
  O  O15  1  0.259867  0.259867  0.259867  1
  O  O16  1  0.957305  0.535457  0.957305  1
  O  O17  1  0.546417  0.952111  0.546417  1
  O  O18  1  0.546417  0.546417  0.952111  1
  O  O19  1  0.957305  0.957305  0.535457  1
  O  O20  1  0.535457  0.957305  0.957305  1
  O  O21  1  0.292695  0.292695  0.714543  1
