# generated using pymatgen
data_TbHoEr14(Ga3Co)2
_symmetry_space_group_name_H-M   'P 1'
_cell_length_a   9.93798100
_cell_length_b   9.93798261
_cell_length_c   6.87084900
_cell_angle_alpha   90.00000000
_cell_angle_beta   90.00000000
_cell_angle_gamma   120.00000463
_symmetry_Int_Tables_number   1
_chemical_formula_structural   TbHoEr14(Ga3Co)2
_chemical_formula_sum   'Tb1 Ho1 Er14 Ga6 Co2'
_cell_volume   587.67526271
_cell_formula_units_Z   1
loop_
 _symmetry_equiv_pos_site_id
 _symmetry_equiv_pos_as_xyz
  1  'x, y, z'
loop_
 _atom_site_type_symbol
 _atom_site_label
 _atom_site_symmetry_multiplicity
 _atom_site_fract_x
 _atom_site_fract_y
 _atom_site_fract_z
 _atom_site_occupancy
  Tb  Tb0  1  0.000000  0.000000  0.270627  1
  Ho  Ho1  1  0.000000  0.000000  0.769778  1
  Er  Er2  1  0.173382  0.826618  0.990535  1
  Er  Er3  1  0.826609  0.173391  0.491664  1
  Er  Er4  1  0.173382  0.346765  0.990535  1
  Er  Er5  1  0.653235  0.826618  0.990535  1
  Er  Er6  1  0.346783  0.173391  0.491664  1
  Er  Er7  1  0.826609  0.653217  0.491664  1
  Er  Er8  1  0.333333  0.666667  0.672467  1
  Er  Er9  1  0.666667  0.333333  0.171976  1
  Er  Er10  1  0.463929  0.536071  0.292976  1
  Er  Er11  1  0.536052  0.463948  0.792990  1
  Er  Er12  1  0.463929  0.927858  0.292976  1
  Er  Er13  1  0.072142  0.536071  0.292976  1
  Er  Er14  1  0.927898  0.463948  0.792990  1
  Er  Er15  1  0.536052  0.072102  0.792990  1
  Ga  Ga16  1  0.163669  0.836331  0.540779  1
  Ga  Ga17  1  0.836284  0.163716  0.039580  1
  Ga  Ga18  1  0.163669  0.327338  0.540779  1
  Ga  Ga19  1  0.672662  0.836331  0.540779  1
  Ga  Ga20  1  0.327432  0.163716  0.039580  1
  Ga  Ga21  1  0.836284  0.672568  0.039580  1
  Co  Co22  1  0.333333  0.666667  0.058216  1
  Co  Co23  1  0.666667  0.333333  0.557483  1
