# generated using pymatgen
data_GdDy2Zr(NiAs)4
_symmetry_space_group_name_H-M   'P 1'
_cell_length_a   4.02338100
_cell_length_b   4.02338248
_cell_length_c   15.23668100
_cell_angle_alpha   90.00000000
_cell_angle_beta   90.00000000
_cell_angle_gamma   120.00001248
_symmetry_Int_Tables_number   1
_chemical_formula_structural   GdDy2Zr(NiAs)4
_chemical_formula_sum   'Gd1 Dy2 Zr1 Ni4 As4'
_cell_volume   213.60107471
_cell_formula_units_Z   1
loop_
 _symmetry_equiv_pos_site_id
 _symmetry_equiv_pos_as_xyz
  1  'x, y, z'
loop_
 _atom_site_type_symbol
 _atom_site_label
 _atom_site_symmetry_multiplicity
 _atom_site_fract_x
 _atom_site_fract_y
 _atom_site_fract_z
 _atom_site_occupancy
  Gd  Gd0  1  0.000000  0.000000  0.750000  1
  Dy  Dy1  1  0.000000  0.000000  0.007375  1
  Dy  Dy2  1  0.000000  0.000000  0.492625  1
  Zr  Zr3  1  0.000000  0.000000  0.250000  1
  Ni  Ni4  1  0.333333  0.666667  0.158758  1
  Ni  Ni5  1  0.666667  0.333333  0.877978  1
  Ni  Ni6  1  0.666667  0.333333  0.622022  1
  Ni  Ni7  1  0.333333  0.666667  0.341242  1
  As  As8  1  0.333333  0.666667  0.618370  1
  As  As9  1  0.666667  0.333333  0.375521  1
  As  As10  1  0.666667  0.333333  0.124479  1
  As  As11  1  0.333333  0.666667  0.881630  1
