# generated using pymatgen
data_Li2Sc2Co5(P2Rh)3
_symmetry_space_group_name_H-M   'P 1'
_cell_length_a   3.66229300
_cell_length_b   10.36640800
_cell_length_c   12.28625000
_cell_angle_alpha   90.00000000
_cell_angle_beta   90.00000000
_cell_angle_gamma   90.00000000
_symmetry_Int_Tables_number   1
_chemical_formula_structural   Li2Sc2Co5(P2Rh)3
_chemical_formula_sum   'Li4 Sc4 Co10 P12 Rh6'
_cell_volume   466.44531216
_cell_formula_units_Z   2
loop_
 _symmetry_equiv_pos_site_id
 _symmetry_equiv_pos_as_xyz
  1  'x, y, z'
loop_
 _atom_site_type_symbol
 _atom_site_label
 _atom_site_symmetry_multiplicity
 _atom_site_fract_x
 _atom_site_fract_y
 _atom_site_fract_z
 _atom_site_occupancy
  Li  Li0  1  0.250000  0.706409  0.992079  1
  Li  Li1  1  0.250000  0.793591  0.492079  1
  Li  Li2  1  0.750000  0.294524  0.010259  1
  Li  Li3  1  0.750000  0.205476  0.510259  1
  Sc  Sc4  1  0.250000  0.581381  0.712023  1
  Sc  Sc5  1  0.250000  0.918619  0.212023  1
  Sc  Sc6  1  0.750000  0.425293  0.289473  1
  Sc  Sc7  1  0.750000  0.074707  0.789473  1
  Co  Co8  1  0.750000  0.777767  0.823864  1
  Co  Co9  1  0.750000  0.722233  0.323864  1
  Co  Co10  1  0.250000  0.877451  0.698334  1
  Co  Co11  1  0.250000  0.622549  0.198334  1
  Co  Co12  1  0.750000  0.114774  0.304291  1
  Co  Co13  1  0.750000  0.385226  0.804291  1
  Co  Co14  1  0.250000  0.468155  0.933835  1
  Co  Co15  1  0.250000  0.031845  0.433835  1
  Co  Co16  1  0.750000  0.541648  0.065370  1
  Co  Co17  1  0.750000  0.958352  0.565370  1
  P  P18  1  0.250000  0.434804  0.114169  1
  P  P19  1  0.250000  0.065196  0.614169  1
  P  P20  1  0.750000  0.577756  0.883332  1
  P  P21  1  0.750000  0.922244  0.383332  1
  P  P22  1  0.250000  0.272223  0.860969  1
  P  P23  1  0.250000  0.227777  0.360969  1
  P  P24  1  0.750000  0.730807  0.145996  1
  P  P25  1  0.750000  0.769193  0.645996  1
  P  P26  1  0.250000  0.604567  0.378746  1
  P  P27  1  0.250000  0.895433  0.878746  1
  P  P28  1  0.750000  0.406631  0.617839  1
  P  P29  1  0.750000  0.093369  0.117839  1
  Rh  Rh30  1  0.250000  0.404964  0.472511  1
  Rh  Rh31  1  0.250000  0.095036  0.972511  1
  Rh  Rh32  1  0.750000  0.602339  0.522865  1
  Rh  Rh33  1  0.750000  0.897661  0.022865  1
  Rh  Rh34  1  0.250000  0.224896  0.174048  1
  Rh  Rh35  1  0.250000  0.275105  0.674048  1
