# generated using pymatgen
data_La7Nd9(HoSn4)4
_symmetry_space_group_name_H-M   'P 1'
_cell_length_a   8.26749309
_cell_length_b   8.42625558
_cell_length_c   15.99565600
_cell_angle_alpha   90.01344295
_cell_angle_beta   90.20338242
_cell_angle_gamma   89.85398447
_symmetry_Int_Tables_number   1
_chemical_formula_structural   La7Nd9(HoSn4)4
_chemical_formula_sum   'La7 Nd9 Ho4 Sn16'
_cell_volume   1114.31086792
_cell_formula_units_Z   1
loop_
 _symmetry_equiv_pos_site_id
 _symmetry_equiv_pos_as_xyz
  1  'x, y, z'
loop_
 _atom_site_type_symbol
 _atom_site_label
 _atom_site_symmetry_multiplicity
 _atom_site_fract_x
 _atom_site_fract_y
 _atom_site_fract_z
 _atom_site_occupancy
  La  La0  1  0.014085  0.180709  0.598052  1
  La  La1  1  0.486182  0.680419  0.402727  1
  La  La2  1  0.985056  0.819151  0.097335  1
  La  La3  1  0.484573  0.679674  0.097344  1
  La  La4  1  0.986328  0.819645  0.402736  1
  La  La5  1  0.513495  0.320077  0.597390  1
  La  La6  1  0.014830  0.181109  0.902315  1
  Nd  Nd7  1  0.362728  0.836696  0.878330  1
  Nd  Nd8  1  0.861029  0.663719  0.621875  1
  Nd  Nd9  1  0.638932  0.163930  0.377938  1
  Nd  Nd10  1  0.137082  0.337267  0.120580  1
  Nd  Nd11  1  0.636875  0.163020  0.121516  1
  Nd  Nd12  1  0.138747  0.336422  0.378496  1
  Nd  Nd13  1  0.361302  0.836298  0.622568  1
  Nd  Nd14  1  0.863059  0.662847  0.879157  1
  Nd  Nd15  1  0.516820  0.319873  0.901425  1
  Ho  Ho16  1  0.194968  0.501598  0.750501  1
  Ho  Ho17  1  0.694281  0.998444  0.750542  1
  Ho  Ho18  1  0.804744  0.498064  0.249567  1
  Ho  Ho19  1  0.305226  0.001700  0.249777  1
  Sn  Sn20  1  0.298239  0.036565  0.043360  1
  Sn  Sn21  1  0.799785  0.462859  0.456605  1
  Sn  Sn22  1  0.699614  0.963539  0.543647  1
  Sn  Sn23  1  0.205281  0.534768  0.955426  1
  Sn  Sn24  1  0.701296  0.964656  0.956126  1
  Sn  Sn25  1  0.199881  0.537918  0.543546  1
  Sn  Sn26  1  0.300504  0.036853  0.456838  1
  Sn  Sn27  1  0.795350  0.461845  0.042812  1
  Sn  Sn28  1  0.560067  0.616828  0.750579  1
  Sn  Sn29  1  0.059323  0.882386  0.750259  1
  Sn  Sn30  1  0.439523  0.382398  0.249866  1
  Sn  Sn31  1  0.940688  0.118145  0.249590  1
  Sn  Sn32  1  0.322231  0.146232  0.750772  1
  Sn  Sn33  1  0.819678  0.355025  0.750258  1
  Sn  Sn34  1  0.679076  0.854422  0.250091  1
  Sn  Sn35  1  0.179122  0.644896  0.250053  1
