# generated using pymatgen
data_Sc10In8Pt3Pb
_symmetry_space_group_name_H-M   'P 1'
_cell_length_a   3.47182900
_cell_length_b   7.82192501
_cell_length_c   17.78004705
_cell_angle_alpha   89.52950424
_cell_angle_beta   90.00000000
_cell_angle_gamma   90.00000000
_symmetry_Int_Tables_number   1
_chemical_formula_structural   Sc10In8Pt3Pb
_chemical_formula_sum   'Sc10 In8 Pt3 Pb1'
_cell_volume   482.82554289
_cell_formula_units_Z   1
loop_
 _symmetry_equiv_pos_site_id
 _symmetry_equiv_pos_as_xyz
  1  'x, y, z'
loop_
 _atom_site_type_symbol
 _atom_site_label
 _atom_site_symmetry_multiplicity
 _atom_site_fract_x
 _atom_site_fract_y
 _atom_site_fract_z
 _atom_site_occupancy
  Sc  Sc0  1  0.500000  0.500269  0.502767  1
  Sc  Sc1  1  0.500000  0.998047  0.998024  1
  Sc  Sc2  1  0.500000  0.878233  0.420986  1
  Sc  Sc3  1  0.500000  0.120513  0.585316  1
  Sc  Sc4  1  0.500000  0.618127  0.912460  1
  Sc  Sc5  1  0.500000  0.365419  0.068380  1
  Sc  Sc6  1  0.500000  0.228172  0.290756  1
  Sc  Sc7  1  0.500000  0.753308  0.721448  1
  Sc  Sc8  1  0.500000  0.251600  0.775928  1
  Sc  Sc9  1  0.500000  0.784846  0.224132  1
  In  In10  1  0.000000  0.203793  0.439793  1
  In  In11  1  0.000000  0.794963  0.567514  1
  In  In12  1  0.000000  0.289134  0.927480  1
  In  In13  1  0.000000  0.705573  0.057195  1
  In  In14  1  0.000000  0.581368  0.362023  1
  In  In15  1  0.000000  0.426317  0.647559  1
  In  In16  1  0.000000  0.926163  0.851005  1
  In  In17  1  0.000000  0.066892  0.143576  1
  Pt  Pt18  1  0.000000  0.965222  0.308359  1
  Pt  Pt19  1  0.000000  0.037126  0.694892  1
  Pt  Pt20  1  0.000000  0.536977  0.803375  1
  Pb  Pb21  1  0.000000  0.467939  0.197034  1
