# generated using pymatgen
data_Pr5CdGaRu3
_symmetry_space_group_name_H-M   'P 1'
_cell_length_a   8.70674214
_cell_length_b   8.70674166
_cell_length_c   8.63241559
_cell_angle_alpha   109.64170743
_cell_angle_beta   109.46155226
_cell_angle_gamma   109.65783590
_symmetry_Int_Tables_number   1
_chemical_formula_structural   Pr5CdGaRu3
_chemical_formula_sum   'Pr10 Cd2 Ga2 Ru6'
_cell_volume   501.58481294
_cell_formula_units_Z   2
loop_
 _symmetry_equiv_pos_site_id
 _symmetry_equiv_pos_as_xyz
  1  'x, y, z'
loop_
 _atom_site_type_symbol
 _atom_site_label
 _atom_site_symmetry_multiplicity
 _atom_site_fract_x
 _atom_site_fract_y
 _atom_site_fract_z
 _atom_site_occupancy
  Pr  Pr0  1  0.243699  0.680598  0.434143  1
  Pr  Pr1  1  0.746455  0.809557  0.065858  1
  Pr  Pr2  1  0.431401  0.248557  0.685609  1
  Pr  Pr3  1  0.692657  0.442658  0.250000  1
  Pr  Pr4  1  0.062949  0.745791  0.814391  1
  Pr  Pr5  1  0.820762  0.070762  0.750000  1
  Pr  Pr6  1  0.212867  0.210692  0.210182  1
  Pr  Pr7  1  0.500510  0.002686  0.289818  1
  Pr  Pr8  1  0.280844  0.501597  0.002341  1
  Pr  Pr9  1  0.999256  0.278504  0.497660  1
  Cd  Cd10  1  0.502590  0.002037  0.912996  1
  Cd  Cd11  1  0.589041  0.589593  0.587004  1
  Ga  Ga12  1  0.913429  0.502333  0.001497  1
  Ga  Ga13  1  0.000833  0.911932  0.498504  1
  Ru  Ru14  1  0.233986  0.122888  0.864911  1
  Ru  Ru15  1  0.757978  0.369074  0.635088  1
  Ru  Ru16  1  0.894440  0.269284  0.131138  1
  Ru  Ru17  1  0.118758  0.868758  0.250001  1
  Ru  Ru18  1  0.638145  0.763301  0.368861  1
  Ru  Ru19  1  0.359403  0.609403  0.750000  1
