# generated using pymatgen
data_Dy3Ho2Co15(P3Os)4
_symmetry_space_group_name_H-M   'P 1'
_cell_length_a   12.04575911
_cell_length_b   12.02300168
_cell_length_c   3.73109300
_cell_angle_alpha   90.00000000
_cell_angle_beta   90.00000000
_cell_angle_gamma   119.97402252
_symmetry_Int_Tables_number   1
_chemical_formula_structural   Dy3Ho2Co15(P3Os)4
_chemical_formula_sum   'Dy3 Ho2 Co15 P12 Os4'
_cell_volume   468.08789695
_cell_formula_units_Z   1
loop_
 _symmetry_equiv_pos_site_id
 _symmetry_equiv_pos_as_xyz
  1  'x, y, z'
loop_
 _atom_site_type_symbol
 _atom_site_label
 _atom_site_symmetry_multiplicity
 _atom_site_fract_x
 _atom_site_fract_y
 _atom_site_fract_z
 _atom_site_occupancy
  Dy  Dy0  1  0.661294  0.332352  0.000000  1
  Dy  Dy1  1  0.333725  0.667156  0.000000  1
  Dy  Dy2  1  0.815368  0.814214  0.500000  1
  Ho  Ho3  1  0.184239  0.000425  0.500000  1
  Ho  Ho4  1  0.000457  0.181733  0.500000  1
  Co  Co5  1  0.638796  0.515657  0.500000  1
  Co  Co6  1  0.481229  0.123337  0.500000  1
  Co  Co7  1  0.359206  0.874306  0.500000  1
  Co  Co8  1  0.515527  0.641481  0.500000  1
  Co  Co9  1  0.131099  0.488079  0.500000  1
  Co  Co10  1  0.801746  0.172985  0.000000  1
  Co  Co11  1  0.820962  0.623749  0.000000  1
  Co  Co12  1  0.375111  0.196724  0.000000  1
  Co  Co13  1  0.182094  0.806826  0.000000  1
  Co  Co14  1  0.623644  0.819948  0.000000  1
  Co  Co15  1  0.196376  0.375823  0.000000  1
  Co  Co16  1  0.282575  0.283737  0.500000  1
  Co  Co17  1  0.716153  0.998810  0.500000  1
  Co  Co18  1  0.001744  0.717887  0.500000  1
  Co  Co19  1  0.000529  0.000427  0.000000  1
  P  P20  1  0.681101  0.160503  0.500000  1
  P  P21  1  0.831568  0.525143  0.500000  1
  P  P22  1  0.476763  0.311917  0.500000  1
  P  P23  1  0.167715  0.689823  0.500000  1
  P  P24  1  0.521258  0.833379  0.500000  1
  P  P25  1  0.314178  0.479220  0.500000  1
  P  P26  1  0.179194  0.179036  0.000000  1
  P  P27  1  0.820885  0.997723  0.000000  1
  P  P28  1  0.000500  0.821255  0.000000  1
  P  P29  1  0.637375  0.637257  0.000000  1
  P  P30  1  0.361697  0.000927  0.000000  1
  P  P31  1  0.003986  0.364018  0.000000  1
  Os  Os32  1  0.874381  0.357541  0.500000  1
  Os  Os33  1  0.445395  0.446853  0.000000  1
  Os  Os34  1  0.552175  0.999540  0.000000  1
  Os  Os35  1  0.009959  0.560206  0.000000  1
