# generated using pymatgen
data_Tb5Dy(Tm2Sb3)2
_symmetry_space_group_name_H-M   'P 1'
_cell_length_a   8.96962419
_cell_length_b   8.97281138
_cell_length_c   6.27495500
_cell_angle_alpha   90.00000000
_cell_angle_beta   90.00000000
_cell_angle_gamma   120.01174838
_symmetry_Int_Tables_number   1
_chemical_formula_structural   Tb5Dy(Tm2Sb3)2
_chemical_formula_sum   'Tb5 Dy1 Tm4 Sb6'
_cell_volume   437.31322104
_cell_formula_units_Z   1
loop_
 _symmetry_equiv_pos_site_id
 _symmetry_equiv_pos_as_xyz
  1  'x, y, z'
loop_
 _atom_site_type_symbol
 _atom_site_label
 _atom_site_symmetry_multiplicity
 _atom_site_fract_x
 _atom_site_fract_y
 _atom_site_fract_z
 _atom_site_occupancy
  Tb  Tb0  1  0.000000  0.247568  0.250000  1
  Tb  Tb1  1  0.752529  0.752473  0.250000  1
  Tb  Tb2  1  0.752517  0.000012  0.750000  1
  Tb  Tb3  1  0.247483  0.247495  0.750000  1
  Tb  Tb4  1  0.247471  0.999944  0.250000  1
  Dy  Dy5  1  0.000000  0.752470  0.750000  1
  Tm  Tm6  1  0.333353  0.666681  0.499975  1
  Tm  Tm7  1  0.666647  0.333327  0.000025  1
  Tm  Tm8  1  0.666647  0.333327  0.499975  1
  Tm  Tm9  1  0.333353  0.666681  0.000025  1
  Sb  Sb10  1  0.389967  0.999819  0.750000  1
  Sb  Sb11  1  0.390172  0.390180  0.250000  1
  Sb  Sb12  1  0.000000  0.609847  0.250000  1
  Sb  Sb13  1  0.000000  0.390315  0.750000  1
  Sb  Sb14  1  0.610033  0.609853  0.750000  1
  Sb  Sb15  1  0.609828  0.000008  0.250000  1
