# generated using pymatgen
data_YEr2Ga(SiRh3)2
_symmetry_space_group_name_H-M   'P 1'
_cell_length_a   5.57308900
_cell_length_b   5.57308769
_cell_length_c   15.22916900
_cell_angle_alpha   90.00000000
_cell_angle_beta   90.00000000
_cell_angle_gamma   119.99998999
_symmetry_Int_Tables_number   1
_chemical_formula_structural   YEr2Ga(SiRh3)2
_chemical_formula_sum   'Y2 Er4 Ga2 Si4 Rh12'
_cell_volume   409.63658454
_cell_formula_units_Z   2
loop_
 _symmetry_equiv_pos_site_id
 _symmetry_equiv_pos_as_xyz
  1  'x, y, z'
loop_
 _atom_site_type_symbol
 _atom_site_label
 _atom_site_symmetry_multiplicity
 _atom_site_fract_x
 _atom_site_fract_y
 _atom_site_fract_z
 _atom_site_occupancy
  Y  Y0  1  0.333333  0.666667  0.750000  1
  Y  Y1  1  0.666667  0.333333  0.250000  1
  Er  Er2  1  0.333333  0.666667  0.537645  1
  Er  Er3  1  0.666667  0.333333  0.462355  1
  Er  Er4  1  0.666667  0.333333  0.037645  1
  Er  Er5  1  0.333333  0.666667  0.962355  1
  Ga  Ga6  1  0.000000  0.000000  0.000000  1
  Ga  Ga7  1  0.000000  0.000000  0.500000  1
  Si  Si8  1  0.000000  0.000000  0.250000  1
  Si  Si9  1  0.000000  0.000000  0.750000  1
  Si  Si10  1  0.333333  0.666667  0.250000  1
  Si  Si11  1  0.666667  0.333333  0.750000  1
  Rh  Rh12  1  0.167839  0.335679  0.132991  1
  Rh  Rh13  1  0.832161  0.664321  0.867009  1
  Rh  Rh14  1  0.664321  0.832161  0.132991  1
  Rh  Rh15  1  0.832161  0.664321  0.632991  1
  Rh  Rh16  1  0.335679  0.167839  0.867009  1
  Rh  Rh17  1  0.167839  0.335679  0.367009  1
  Rh  Rh18  1  0.167839  0.832161  0.132991  1
  Rh  Rh19  1  0.335679  0.167839  0.632991  1
  Rh  Rh20  1  0.832161  0.167839  0.867009  1
  Rh  Rh21  1  0.664321  0.832161  0.367009  1
  Rh  Rh22  1  0.832161  0.167839  0.632991  1
  Rh  Rh23  1  0.167839  0.832161  0.367009  1
