# generated using pymatgen
data_Y8In2RuRh
_symmetry_space_group_name_H-M   'P 1'
_cell_length_a   9.70522620
_cell_length_b   9.73073415
_cell_length_c   9.70522508
_cell_angle_alpha   59.91301806
_cell_angle_beta   59.82849315
_cell_angle_gamma   59.91301822
_symmetry_Int_Tables_number   1
_chemical_formula_structural   Y8In2RuRh
_chemical_formula_sum   'Y16 In4 Ru2 Rh2'
_cell_volume   646.40551132
_cell_formula_units_Z   2
loop_
 _symmetry_equiv_pos_site_id
 _symmetry_equiv_pos_as_xyz
  1  'x, y, z'
loop_
 _atom_site_type_symbol
 _atom_site_label
 _atom_site_symmetry_multiplicity
 _atom_site_fract_x
 _atom_site_fract_y
 _atom_site_fract_z
 _atom_site_occupancy
  Y  Y0  1  0.809964  0.807589  0.189702  1
  Y  Y1  1  0.809144  0.190856  0.809144  1
  Y  Y2  1  0.189702  0.192746  0.809964  1
  Y  Y3  1  0.651145  0.046997  0.651145  1
  Y  Y4  1  0.061100  0.059830  0.441538  1
  Y  Y5  1  0.441538  0.437532  0.061100  1
  Y  Y6  1  0.651145  0.650713  0.651145  1
  Y  Y7  1  0.809964  0.192746  0.189702  1
  Y  Y8  1  0.189702  0.807589  0.809964  1
  Y  Y9  1  0.045456  0.651426  0.651692  1
  Y  Y10  1  0.441538  0.059830  0.061100  1
  Y  Y11  1  0.437553  0.062447  0.437553  1
  Y  Y12  1  0.058515  0.441485  0.058515  1
  Y  Y13  1  0.651692  0.651426  0.045456  1
  Y  Y14  1  0.192294  0.807706  0.192294  1
  Y  Y15  1  0.061100  0.437532  0.441538  1
  In  In16  1  0.418014  0.417081  0.418014  1
  In  In17  1  0.417213  0.416968  0.748848  1
  In  In18  1  0.418014  0.746892  0.418014  1
  In  In19  1  0.748848  0.416968  0.417213  1
  Ru  Ru20  1  0.858059  0.422269  0.858059  1
  Ru  Ru21  1  0.858059  0.861614  0.858059  1
  Rh  Rh22  1  0.857818  0.859878  0.422425  1
  Rh  Rh23  1  0.422425  0.859878  0.857818  1
