# generated using pymatgen
data_Tb16InHg3Ir3Rh
_symmetry_space_group_name_H-M   'P 1'
_cell_length_a   9.66318165
_cell_length_b   9.66318113
_cell_length_c   9.64610200
_cell_angle_alpha   60.04220817
_cell_angle_beta   60.04221193
_cell_angle_gamma   60.08227939
_symmetry_Int_Tables_number   1
_chemical_formula_structural   Tb16InHg3Ir3Rh
_chemical_formula_sum   'Tb16 In1 Hg3 Ir3 Rh1'
_cell_volume   637.71051229
_cell_formula_units_Z   1
loop_
 _symmetry_equiv_pos_site_id
 _symmetry_equiv_pos_as_xyz
  1  'x, y, z'
loop_
 _atom_site_type_symbol
 _atom_site_label
 _atom_site_symmetry_multiplicity
 _atom_site_fract_x
 _atom_site_fract_y
 _atom_site_fract_z
 _atom_site_occupancy
  Tb  Tb0  1  0.100954  0.698978  0.100853  1
  Tb  Tb1  1  0.940108  0.940108  0.559510  1
  Tb  Tb2  1  0.942608  0.558663  0.939379  1
  Tb  Tb3  1  0.311882  0.689816  0.309686  1
  Tb  Tb4  1  0.939761  0.559740  0.559539  1
  Tb  Tb5  1  0.312348  0.312348  0.686805  1
  Tb  Tb6  1  0.099841  0.099841  0.099377  1
  Tb  Tb7  1  0.558636  0.558636  0.939189  1
  Tb  Tb8  1  0.101646  0.101646  0.697654  1
  Tb  Tb9  1  0.689863  0.312526  0.686256  1
  Tb  Tb10  1  0.688684  0.688684  0.310794  1
  Tb  Tb11  1  0.689816  0.311882  0.309686  1
  Tb  Tb12  1  0.312526  0.689863  0.686256  1
  Tb  Tb13  1  0.559740  0.939761  0.559539  1
  Tb  Tb14  1  0.698978  0.100954  0.100853  1
  Tb  Tb15  1  0.558663  0.942608  0.939379  1
  In  In16  1  0.330411  0.330411  0.006862  1
  Hg  Hg17  1  0.334777  0.334777  0.335636  1
  Hg  Hg18  1  0.993341  0.335469  0.335649  1
  Hg  Hg19  1  0.335469  0.993341  0.335649  1
  Ir  Ir20  1  0.892101  0.892101  0.323967  1
  Ir  Ir21  1  0.324652  0.891314  0.892493  1
  Ir  Ir22  1  0.891314  0.324652  0.892493  1
  Rh  Rh23  1  0.891880  0.891880  0.892494  1
