# generated using pymatgen
data_TbHo7GaPd24
_symmetry_space_group_name_H-M   'P 1'
_cell_length_a   8.33807400
_cell_length_b   8.33807400
_cell_length_c   8.33807400
_cell_angle_alpha   89.99982134
_cell_angle_beta   89.99982134
_cell_angle_gamma   89.99982134
_symmetry_Int_Tables_number   1
_chemical_formula_structural   TbHo7GaPd24
_chemical_formula_sum   'Tb1 Ho7 Ga1 Pd24'
_cell_volume   579.69190454
_cell_formula_units_Z   1
loop_
 _symmetry_equiv_pos_site_id
 _symmetry_equiv_pos_as_xyz
  1  'x, y, z'
loop_
 _atom_site_type_symbol
 _atom_site_label
 _atom_site_symmetry_multiplicity
 _atom_site_fract_x
 _atom_site_fract_y
 _atom_site_fract_z
 _atom_site_occupancy
  Tb  Tb0  1  0.251795  0.251795  0.251795  1
  Ho  Ho1  1  0.251788  0.251788  0.748210  1
  Ho  Ho2  1  0.251788  0.748210  0.251788  1
  Ho  Ho3  1  0.748210  0.251788  0.251788  1
  Ho  Ho4  1  0.748204  0.748204  0.748204  1
  Ho  Ho5  1  0.748225  0.748225  0.251778  1
  Ho  Ho6  1  0.748225  0.251778  0.748225  1
  Ho  Ho7  1  0.251778  0.748225  0.748225  1
  Ga  Ga8  1  0.999958  0.999958  0.999958  1
  Pd  Pd9  1  0.500009  0.500009  0.746990  1
  Pd  Pd10  1  0.500245  0.253014  0.500245  1
  Pd  Pd11  1  0.253014  0.500245  0.500245  1
  Pd  Pd12  1  0.500245  0.500245  0.253014  1
  Pd  Pd13  1  0.500009  0.746990  0.500009  1
  Pd  Pd14  1  0.746990  0.500009  0.500009  1
  Pd  Pd15  1  0.000005  0.000005  0.708204  1
  Pd  Pd16  1  0.999784  0.291821  0.999784  1
  Pd  Pd17  1  0.291821  0.999784  0.999784  1
  Pd  Pd18  1  0.999784  0.999784  0.291821  1
  Pd  Pd19  1  0.000005  0.708204  0.000005  1
  Pd  Pd20  1  0.708204  0.000005  0.000005  1
  Pd  Pd21  1  0.999994  0.500006  0.739672  1
  Pd  Pd22  1  0.500227  0.260306  0.999752  1
  Pd  Pd23  1  0.260306  0.999752  0.500227  1
  Pd  Pd24  1  0.999752  0.260306  0.500227  1
  Pd  Pd25  1  0.500006  0.999994  0.739672  1
  Pd  Pd26  1  0.260306  0.500227  0.999752  1
  Pd  Pd27  1  0.999752  0.500227  0.260306  1
  Pd  Pd28  1  0.500006  0.739672  0.999994  1
  Pd  Pd29  1  0.999994  0.739672  0.500006  1
  Pd  Pd30  1  0.500227  0.999752  0.260306  1
  Pd  Pd31  1  0.739672  0.999994  0.500006  1
  Pd  Pd32  1  0.739672  0.500006  0.999994  1
