# generated using pymatgen
data_HoEr3Fe4(CoO5)4
_symmetry_space_group_name_H-M   'P 1'
_cell_length_a   5.76068700
_cell_length_b   7.23532308
_cell_length_c   8.47948310
_cell_angle_alpha   90.01755939
_cell_angle_beta   90.00000000
_cell_angle_gamma   90.00000000
_symmetry_Int_Tables_number   1
_chemical_formula_structural   HoEr3Fe4(CoO5)4
_chemical_formula_sum   'Ho1 Er3 Fe4 Co4 O20'
_cell_volume   353.42849904
_cell_formula_units_Z   1
loop_
 _symmetry_equiv_pos_site_id
 _symmetry_equiv_pos_as_xyz
  1  'x, y, z'
loop_
 _atom_site_type_symbol
 _atom_site_label
 _atom_site_symmetry_multiplicity
 _atom_site_fract_x
 _atom_site_fract_y
 _atom_site_fract_z
 _atom_site_occupancy
  Ho  Ho0  1  0.500000  0.366438  0.330690  1
  Er  Er1  1  0.500000  0.634047  0.669442  1
  Er  Er2  1  0.500000  0.133910  0.830793  1
  Er  Er3  1  0.500000  0.866065  0.169159  1
  Fe  Fe4  1  0.000000  0.108532  0.147546  1
  Fe  Fe5  1  0.000000  0.891445  0.852265  1
  Fe  Fe6  1  0.000000  0.391242  0.647769  1
  Fe  Fe7  1  0.000000  0.608990  0.352529  1
  Co  Co8  1  0.251053  0.999810  0.500068  1
  Co  Co9  1  0.748947  0.999810  0.500068  1
  Co  Co10  1  0.748970  0.500068  0.999878  1
  Co  Co11  1  0.251030  0.500068  0.999878  1
  O  O12  1  0.235958  0.000002  0.999928  1
  O  O13  1  0.764042  0.000002  0.999928  1
  O  O14  1  0.764795  0.500560  0.500547  1
  O  O15  1  0.235205  0.500560  0.500547  1
  O  O16  1  0.000000  0.353597  0.070135  1
  O  O17  1  0.000000  0.646161  0.930025  1
  O  O18  1  0.000000  0.146283  0.569959  1
  O  O19  1  0.000000  0.853759  0.430193  1
  O  O20  1  0.260681  0.106406  0.297624  1
  O  O21  1  0.738898  0.892609  0.702308  1
  O  O22  1  0.261102  0.892609  0.702308  1
  O  O23  1  0.738825  0.392626  0.797637  1
  O  O24  1  0.739319  0.106406  0.297624  1
  O  O25  1  0.260708  0.607895  0.202076  1
  O  O26  1  0.739292  0.607895  0.202076  1
  O  O27  1  0.261175  0.392626  0.797637  1
  O  O28  1  0.500000  0.340509  0.056649  1
  O  O29  1  0.500000  0.659726  0.942370  1
  O  O30  1  0.500000  0.159035  0.557891  1
  O  O31  1  0.500000  0.840310  0.442456  1
