# generated using pymatgen
data_CeThCo7
_symmetry_space_group_name_H-M   'P 1'
_cell_length_a   4.89348264
_cell_length_b   4.89348273
_cell_length_c   12.68611952
_cell_angle_alpha   78.87982060
_cell_angle_beta   78.87982013
_cell_angle_gamma   60.00000108
_symmetry_Int_Tables_number   1
_chemical_formula_structural   CeThCo7
_chemical_formula_sum   'Ce2 Th2 Co14'
_cell_volume   256.47757658
_cell_formula_units_Z   2
loop_
 _symmetry_equiv_pos_site_id
 _symmetry_equiv_pos_as_xyz
  1  'x, y, z'
loop_
 _atom_site_type_symbol
 _atom_site_label
 _atom_site_symmetry_multiplicity
 _atom_site_fract_x
 _atom_site_fract_y
 _atom_site_fract_z
 _atom_site_occupancy
  Ce  Ce0  1  0.852118  0.852118  0.443645  1
  Ce  Ce1  1  0.147882  0.147882  0.556355  1
  Th  Th2  1  0.948779  0.948779  0.153663  1
  Th  Th3  1  0.051221  0.051221  0.846337  1
  Co  Co4  1  0.500000  0.500000  0.500000  1
  Co  Co5  1  0.722198  0.722198  0.833406  1
  Co  Co6  1  0.277802  0.277802  0.166594  1
  Co  Co7  1  0.611723  0.611723  0.164830  1
  Co  Co8  1  0.388277  0.388277  0.835170  1
  Co  Co9  1  0.000000  0.500000  0.000000  1
  Co  Co10  1  0.500000  0.000000  0.000000  1
  Co  Co11  1  0.500000  0.500000  0.000000  1
  Co  Co12  1  0.391869  0.391869  0.327130  1
  Co  Co13  1  0.889131  0.391869  0.327130  1
  Co  Co14  1  0.391869  0.889131  0.327130  1
  Co  Co15  1  0.608131  0.608131  0.672870  1
  Co  Co16  1  0.110869  0.608131  0.672870  1
  Co  Co17  1  0.608131  0.110869  0.672870  1
