# generated using pymatgen
data_Dy2HoBeCo9B4P
_symmetry_space_group_name_H-M   'P 1'
_cell_length_a   5.03120400
_cell_length_b   5.03120409
_cell_length_c   9.33762200
_cell_angle_alpha   90.00000000
_cell_angle_beta   90.00000000
_cell_angle_gamma   120.00001257
_symmetry_Int_Tables_number   1
_chemical_formula_structural   Dy2HoBeCo9B4P
_chemical_formula_sum   'Dy2 Ho1 Be1 Co9 B4 P1'
_cell_volume   204.69664632
_cell_formula_units_Z   1
loop_
 _symmetry_equiv_pos_site_id
 _symmetry_equiv_pos_as_xyz
  1  'x, y, z'
loop_
 _atom_site_type_symbol
 _atom_site_label
 _atom_site_symmetry_multiplicity
 _atom_site_fract_x
 _atom_site_fract_y
 _atom_site_fract_z
 _atom_site_occupancy
  Dy  Dy0  1  0.000000  0.000000  0.337688  1
  Dy  Dy1  1  0.000000  0.000000  0.999869  1
  Ho  Ho2  1  0.000000  0.000000  0.662550  1
  Be  Be3  1  0.666667  0.333333  0.999897  1
  Co  Co4  1  0.500150  0.499850  0.500204  1
  Co  Co5  1  0.999700  0.499850  0.500204  1
  Co  Co6  1  0.499558  0.999117  0.189361  1
  Co  Co7  1  0.499558  0.500442  0.189361  1
  Co  Co8  1  0.000883  0.500442  0.189361  1
  Co  Co9  1  0.499533  0.999065  0.810407  1
  Co  Co10  1  0.499533  0.500467  0.810407  1
  Co  Co11  1  0.000935  0.500467  0.810407  1
  Co  Co12  1  0.500150  0.000300  0.500204  1
  B  B13  1  0.333333  0.666667  0.657324  1
  B  B14  1  0.666667  0.333333  0.658739  1
  B  B15  1  0.666667  0.333333  0.341348  1
  B  B16  1  0.333333  0.666667  0.342755  1
  P  P17  1  0.333333  0.666667  0.999911  1
