# generated using pymatgen
data_Nd5Er11Cd4OsPd3
_symmetry_space_group_name_H-M   'P 1'
_cell_length_a   9.74137216
_cell_length_b   9.73142358
_cell_length_c   9.73142394
_cell_angle_alpha   59.72381390
_cell_angle_beta   59.52311166
_cell_angle_gamma   59.52310626
_symmetry_Int_Tables_number   1
_chemical_formula_structural   Nd5Er11Cd4OsPd3
_chemical_formula_sum   'Nd5 Er11 Cd4 Os1 Pd3'
_cell_volume   646.23142404
_cell_formula_units_Z   1
loop_
 _symmetry_equiv_pos_site_id
 _symmetry_equiv_pos_as_xyz
  1  'x, y, z'
loop_
 _atom_site_type_symbol
 _atom_site_label
 _atom_site_symmetry_multiplicity
 _atom_site_fract_x
 _atom_site_fract_y
 _atom_site_fract_z
 _atom_site_occupancy
  Nd  Nd0  1  0.553951  0.941258  0.941258  1
  Nd  Nd1  1  0.567375  0.933414  0.563649  1
  Nd  Nd2  1  0.940031  0.556419  0.936167  1
  Nd  Nd3  1  0.567375  0.563649  0.933414  1
  Nd  Nd4  1  0.940031  0.936167  0.556419  1
  Er  Er5  1  0.354072  0.352539  0.352539  1
  Er  Er6  1  0.347514  0.351622  0.949849  1
  Er  Er7  1  0.347514  0.949849  0.351622  1
  Er  Er8  1  0.946612  0.349970  0.349970  1
  Er  Er9  1  0.819497  0.185580  0.185580  1
  Er  Er10  1  0.184985  0.812954  0.812954  1
  Er  Er11  1  0.184895  0.818321  0.188186  1
  Er  Er12  1  0.812935  0.184902  0.812076  1
  Er  Er13  1  0.184895  0.188186  0.818321  1
  Er  Er14  1  0.812935  0.812076  0.184902  1
  Er  Er15  1  0.940855  0.558813  0.558813  1
  Cd  Cd16  1  0.580825  0.578917  0.578917  1
  Cd  Cd17  1  0.578646  0.579717  0.259605  1
  Cd  Cd18  1  0.578646  0.259605  0.579717  1
  Cd  Cd19  1  0.257313  0.578830  0.578830  1
  Os  Os20  1  0.142840  0.144318  0.144318  1
  Pd  Pd21  1  0.143008  0.148246  0.570264  1
  Pd  Pd22  1  0.143008  0.570264  0.148246  1
  Pd  Pd23  1  0.570236  0.144383  0.144383  1
