# generated using pymatgen
data_DyErOs3Ru
_symmetry_space_group_name_H-M   'P 1'
_cell_length_a   5.26232800
_cell_length_b   5.26232823
_cell_length_c   9.00567700
_cell_angle_alpha   90.00000000
_cell_angle_beta   90.00000000
_cell_angle_gamma   119.99999854
_symmetry_Int_Tables_number   1
_chemical_formula_structural   DyErOs3Ru
_chemical_formula_sum   'Dy2 Er2 Os6 Ru2'
_cell_volume   215.97468631
_cell_formula_units_Z   2
loop_
 _symmetry_equiv_pos_site_id
 _symmetry_equiv_pos_as_xyz
  1  'x, y, z'
loop_
 _atom_site_type_symbol
 _atom_site_label
 _atom_site_symmetry_multiplicity
 _atom_site_fract_x
 _atom_site_fract_y
 _atom_site_fract_z
 _atom_site_occupancy
  Dy  Dy0  1  0.333333  0.666667  0.433269  1
  Dy  Dy1  1  0.666667  0.333333  0.566731  1
  Er  Er2  1  0.666667  0.333333  0.933609  1
  Er  Er3  1  0.333333  0.666667  0.066391  1
  Os  Os4  1  0.170586  0.341174  0.751344  1
  Os  Os5  1  0.170586  0.829414  0.751344  1
  Os  Os6  1  0.341174  0.170586  0.248656  1
  Os  Os7  1  0.829414  0.658826  0.248656  1
  Os  Os8  1  0.658826  0.829414  0.751344  1
  Os  Os9  1  0.829414  0.170586  0.248656  1
  Ru  Ru10  1  0.000000  0.000000  0.000000  1
  Ru  Ru11  1  0.000000  0.000000  0.500000  1
