# generated using pymatgen
data_YbCeInS4
_symmetry_space_group_name_H-M   'P 1'
_cell_length_a   14.11634100
_cell_length_b   8.20955000
_cell_length_c   6.65530100
_cell_angle_alpha   90.00000000
_cell_angle_beta   90.00000000
_cell_angle_gamma   90.00000000
_symmetry_Int_Tables_number   1
_chemical_formula_structural   YbCeInS4
_chemical_formula_sum   'Yb4 Ce4 In4 S16'
_cell_volume   771.27489482
_cell_formula_units_Z   4
loop_
 _symmetry_equiv_pos_site_id
 _symmetry_equiv_pos_as_xyz
  1  'x, y, z'
loop_
 _atom_site_type_symbol
 _atom_site_label
 _atom_site_symmetry_multiplicity
 _atom_site_fract_x
 _atom_site_fract_y
 _atom_site_fract_z
 _atom_site_occupancy
  Yb  Yb0  1  0.000000  0.000000  0.000000  1
  Yb  Yb1  1  0.000000  0.499999  0.000000  1
  Yb  Yb2  1  0.500000  0.000000  0.500001  1
  Yb  Yb3  1  0.500000  0.499999  0.500001  1
  Ce  Ce4  1  0.729781  0.750000  0.008601  1
  Ce  Ce5  1  0.229781  0.750000  0.491398  1
  Ce  Ce6  1  0.770220  0.250000  0.508602  1
  Ce  Ce7  1  0.270219  0.250000  0.991399  1
  In  In8  1  0.589057  0.250000  0.080006  1
  In  In9  1  0.089057  0.250000  0.419993  1
  In  In10  1  0.910944  0.750000  0.580007  1
  In  In11  1  0.410943  0.750000  0.919992  1
  S  S12  1  0.908852  0.750000  0.214363  1
  S  S13  1  0.167934  0.016664  0.240119  1
  S  S14  1  0.167934  0.483336  0.240119  1
  S  S15  1  0.931348  0.250000  0.253177  1
  S  S16  1  0.431348  0.250000  0.246824  1
  S  S17  1  0.667934  0.016664  0.259882  1
  S  S18  1  0.667934  0.483336  0.259882  1
  S  S19  1  0.408853  0.750000  0.285637  1
  S  S20  1  0.591148  0.250000  0.714364  1
  S  S21  1  0.332065  0.516665  0.740119  1
  S  S22  1  0.332065  0.983335  0.740119  1
  S  S23  1  0.568653  0.750000  0.753178  1
  S  S24  1  0.068653  0.750000  0.746824  1
  S  S25  1  0.832066  0.516665  0.759881  1
  S  S26  1  0.832066  0.983335  0.759881  1
  S  S27  1  0.091148  0.250000  0.785637  1
