# generated using pymatgen
data_ScUCo2Sn
_symmetry_space_group_name_H-M   'P 1'
_cell_length_a   7.41912400
_cell_length_b   7.00353800
_cell_length_c   3.37117200
_cell_angle_alpha   90.00000000
_cell_angle_beta   90.00000000
_cell_angle_gamma   90.00000000
_symmetry_Int_Tables_number   1
_chemical_formula_structural   ScUCo2Sn
_chemical_formula_sum   'Sc2 U2 Co4 Sn2'
_cell_volume   175.16649108
_cell_formula_units_Z   2
loop_
 _symmetry_equiv_pos_site_id
 _symmetry_equiv_pos_as_xyz
  1  'x, y, z'
loop_
 _atom_site_type_symbol
 _atom_site_label
 _atom_site_symmetry_multiplicity
 _atom_site_fract_x
 _atom_site_fract_y
 _atom_site_fract_z
 _atom_site_occupancy
  Sc  Sc0  1  0.327504  0.833826  0.500000  1
  Sc  Sc1  1  0.827504  0.666174  0.500000  1
  U  U2  1  0.179469  0.338590  0.500000  1
  U  U3  1  0.679469  0.161410  0.500000  1
  Co  Co4  1  0.361162  0.160828  0.000000  1
  Co  Co5  1  0.861162  0.339172  0.000000  1
  Co  Co6  1  0.122073  0.588961  0.000000  1
  Co  Co7  1  0.622073  0.911039  0.000000  1
  Sn  Sn8  1  0.009793  0.976840  0.000000  1
  Sn  Sn9  1  0.509793  0.523160  0.000000  1
