# generated using pymatgen
data_YbYIr3W
_symmetry_space_group_name_H-M   'P 1'
_cell_length_a   5.19043729
_cell_length_b   5.19043668
_cell_length_c   5.19043781
_cell_angle_alpha   65.64780823
_cell_angle_beta   65.64781072
_cell_angle_gamma   65.64781274
_symmetry_Int_Tables_number   1
_chemical_formula_structural   YbYIr3W
_chemical_formula_sum   'Yb1 Y1 Ir3 W1'
_cell_volume   111.00157407
_cell_formula_units_Z   1
loop_
 _symmetry_equiv_pos_site_id
 _symmetry_equiv_pos_as_xyz
  1  'x, y, z'
loop_
 _atom_site_type_symbol
 _atom_site_label
 _atom_site_symmetry_multiplicity
 _atom_site_fract_x
 _atom_site_fract_y
 _atom_site_fract_z
 _atom_site_occupancy
  Yb  Yb0  1  0.999401  0.999401  0.999401  1
  Y  Y1  1  0.249923  0.249923  0.249923  1
  Ir  Ir2  1  0.625753  0.625753  0.124327  1
  Ir  Ir3  1  0.625753  0.124327  0.625753  1
  Ir  Ir4  1  0.124327  0.625753  0.625753  1
  W  W5  1  0.624843  0.624843  0.624843  1
