# generated using pymatgen
data_MnBi3(Pt2O7)2
_symmetry_space_group_name_H-M   'P 1'
_cell_length_a   7.40870411
_cell_length_b   7.30850775
_cell_length_c   7.40870500
_cell_angle_alpha   59.54544643
_cell_angle_beta   60.00000049
_cell_angle_gamma   59.54544364
_symmetry_Int_Tables_number   1
_chemical_formula_structural   MnBi3(Pt2O7)2
_chemical_formula_sum   'Mn1 Bi3 Pt4 O14'
_cell_volume   281.69554900
_cell_formula_units_Z   1
loop_
 _symmetry_equiv_pos_site_id
 _symmetry_equiv_pos_as_xyz
  1  'x, y, z'
loop_
 _atom_site_type_symbol
 _atom_site_label
 _atom_site_symmetry_multiplicity
 _atom_site_fract_x
 _atom_site_fract_y
 _atom_site_fract_z
 _atom_site_occupancy
  Mn  Mn0  1  0.125000  0.625000  0.125000  1
  Bi  Bi1  1  0.125000  0.125000  0.625000  1
  Bi  Bi2  1  0.625000  0.125000  0.125000  1
  Bi  Bi3  1  0.125000  0.125000  0.125000  1
  Pt  Pt4  1  0.625000  0.625000  0.125000  1
  Pt  Pt5  1  0.625000  0.125000  0.625000  1
  Pt  Pt6  1  0.125000  0.625000  0.625000  1
  Pt  Pt7  1  0.625000  0.625000  0.625000  1
  O  O8  1  0.241936  0.274192  0.241936  1
  O  O9  1  0.008064  0.975808  0.008064  1
  O  O10  1  0.540631  0.960964  0.540631  1
  O  O11  1  0.291119  0.705513  0.291119  1
  O  O12  1  0.537750  0.544487  0.958881  1
  O  O13  1  0.958881  0.544487  0.537750  1
  O  O14  1  0.540631  0.960964  0.957774  1
  O  O15  1  0.957774  0.960964  0.540631  1
  O  O16  1  0.958881  0.544487  0.958881  1
  O  O17  1  0.709369  0.289036  0.292226  1
  O  O18  1  0.291119  0.705513  0.712250  1
  O  O19  1  0.709369  0.289036  0.709369  1
  O  O20  1  0.292226  0.289036  0.709369  1
  O  O21  1  0.712250  0.705513  0.291119  1
