# generated using pymatgen
data_Tb3Cd3Hg2Ru
_symmetry_space_group_name_H-M   'P 1'
_cell_length_a   8.13144100
_cell_length_b   8.13144084
_cell_length_c   3.77649800
_cell_angle_alpha   90.00000000
_cell_angle_beta   90.00000000
_cell_angle_gamma   120.00000473
_symmetry_Int_Tables_number   1
_chemical_formula_structural   Tb3Cd3Hg2Ru
_chemical_formula_sum   'Tb3 Cd3 Hg2 Ru1'
_cell_volume   216.24939037
_cell_formula_units_Z   1
loop_
 _symmetry_equiv_pos_site_id
 _symmetry_equiv_pos_as_xyz
  1  'x, y, z'
loop_
 _atom_site_type_symbol
 _atom_site_label
 _atom_site_symmetry_multiplicity
 _atom_site_fract_x
 _atom_site_fract_y
 _atom_site_fract_z
 _atom_site_occupancy
  Tb  Tb0  1  0.617315  0.042078  0.000000  1
  Tb  Tb1  1  0.957922  0.575237  0.000000  1
  Tb  Tb2  1  0.424763  0.382685  0.000000  1
  Cd  Cd3  1  0.279261  0.000236  0.500000  1
  Cd  Cd4  1  0.999764  0.279025  0.500000  1
  Cd  Cd5  1  0.720975  0.720739  0.500000  1
  Hg  Hg6  1  0.333333  0.666667  0.500000  1
  Hg  Hg7  1  0.000000  0.000000  0.000000  1
  Ru  Ru8  1  0.666667  0.333333  0.500000  1
