# generated using pymatgen
data_Zr3Sc3(SnC2)2
_symmetry_space_group_name_H-M   'P 1'
_cell_length_a   3.36157300
_cell_length_b   3.36157308
_cell_length_c   20.44089400
_cell_angle_alpha   90.00000000
_cell_angle_beta   90.00000000
_cell_angle_gamma   119.99998934
_symmetry_Int_Tables_number   1
_chemical_formula_structural   Zr3Sc3(SnC2)2
_chemical_formula_sum   'Zr3 Sc3 Sn2 C4'
_cell_volume   200.03945791
_cell_formula_units_Z   1
loop_
 _symmetry_equiv_pos_site_id
 _symmetry_equiv_pos_as_xyz
  1  'x, y, z'
loop_
 _atom_site_type_symbol
 _atom_site_label
 _atom_site_symmetry_multiplicity
 _atom_site_fract_x
 _atom_site_fract_y
 _atom_site_fract_z
 _atom_site_occupancy
  Zr  Zr0  1  0.000000  0.000000  0.000924  1
  Zr  Zr1  1  0.000000  0.000000  0.500158  1
  Zr  Zr2  1  0.666666  0.333334  0.872536  1
  Sc  Sc3  1  0.333334  0.666667  0.125062  1
  Sc  Sc4  1  0.333334  0.666667  0.374734  1
  Sc  Sc5  1  0.666666  0.333334  0.625789  1
  Sn  Sn6  1  0.000000  0.000000  0.250013  1
  Sn  Sn7  1  0.000000  0.000000  0.750876  1
  C  C8  1  0.666666  0.333334  0.068241  1
  C  C9  1  0.666666  0.333334  0.431977  1
  C  C10  1  0.333334  0.666667  0.569146  1
  C  C11  1  0.333334  0.666667  0.930543  1
