# generated using pymatgen
data_Tb7NdCdAgPt2
_symmetry_space_group_name_H-M   'P 1'
_cell_length_a   9.71636223
_cell_length_b   9.71636251
_cell_length_c   9.70639800
_cell_angle_alpha   60.03392559
_cell_angle_beta   60.03392461
_cell_angle_gamma   59.88845058
_symmetry_Int_Tables_number   1
_chemical_formula_structural   Tb7NdCdAgPt2
_chemical_formula_sum   'Tb14 Nd2 Cd2 Ag2 Pt4'
_cell_volume   647.74664606
_cell_formula_units_Z   2
loop_
 _symmetry_equiv_pos_site_id
 _symmetry_equiv_pos_as_xyz
  1  'x, y, z'
loop_
 _atom_site_type_symbol
 _atom_site_label
 _atom_site_symmetry_multiplicity
 _atom_site_fract_x
 _atom_site_fract_y
 _atom_site_fract_z
 _atom_site_occupancy
  Tb  Tb0  1  0.352284  0.352284  0.350361  1
  Tb  Tb1  1  0.352284  0.352284  0.945069  1
  Tb  Tb2  1  0.354904  0.938169  0.353464  1
  Tb  Tb3  1  0.938169  0.354904  0.353464  1
  Tb  Tb4  1  0.811388  0.188812  0.190483  1
  Tb  Tb5  1  0.188812  0.811388  0.809316  1
  Tb  Tb6  1  0.188812  0.811388  0.190483  1
  Tb  Tb7  1  0.811388  0.188812  0.809316  1
  Tb  Tb8  1  0.190318  0.190318  0.809682  1
  Tb  Tb9  1  0.810847  0.810847  0.189153  1
  Tb  Tb10  1  0.935045  0.561404  0.563752  1
  Tb  Tb11  1  0.561404  0.935045  0.939799  1
  Tb  Tb12  1  0.561404  0.935045  0.563752  1
  Tb  Tb13  1  0.935045  0.561404  0.939799  1
  Nd  Nd14  1  0.565449  0.565449  0.934551  1
  Nd  Nd15  1  0.932961  0.932961  0.567039  1
  Cd  Cd16  1  0.579534  0.259053  0.580707  1
  Cd  Cd17  1  0.259053  0.579534  0.580707  1
  Ag  Ag18  1  0.585559  0.585559  0.580235  1
  Ag  Ag19  1  0.585559  0.585559  0.248647  1
  Pt  Pt20  1  0.144582  0.144582  0.143006  1
  Pt  Pt21  1  0.144582  0.144582  0.567832  1
  Pt  Pt22  1  0.140301  0.570318  0.144690  1
  Pt  Pt23  1  0.570318  0.140301  0.144690  1
