# generated using pymatgen
data_Tb3TmLu4Ga3Co
_symmetry_space_group_name_H-M   'P 1'
_cell_length_a   9.85095438
_cell_length_b   9.85095379
_cell_length_c   6.97668000
_cell_angle_alpha   89.99916214
_cell_angle_beta   90.00083911
_cell_angle_gamma   120.06062924
_symmetry_Int_Tables_number   1
_chemical_formula_structural   Tb3TmLu4Ga3Co
_chemical_formula_sum   'Tb6 Tm2 Lu8 Ga6 Co2'
_cell_volume   585.96324115
_cell_formula_units_Z   2
loop_
 _symmetry_equiv_pos_site_id
 _symmetry_equiv_pos_as_xyz
  1  'x, y, z'
loop_
 _atom_site_type_symbol
 _atom_site_label
 _atom_site_symmetry_multiplicity
 _atom_site_fract_x
 _atom_site_fract_y
 _atom_site_fract_z
 _atom_site_occupancy
  Tb  Tb0  1  0.536507  0.463493  0.791291  1
  Tb  Tb1  1  0.464385  0.928699  0.291209  1
  Tb  Tb2  1  0.071301  0.535615  0.291209  1
  Tb  Tb3  1  0.464116  0.535884  0.290654  1
  Tb  Tb4  1  0.999993  0.000007  0.768615  1
  Tb  Tb5  1  0.000082  0.999918  0.268764  1
  Tm  Tm6  1  0.537380  0.074299  0.792177  1
  Tm  Tm7  1  0.925701  0.462620  0.792177  1
  Lu  Lu8  1  0.826290  0.651237  0.487250  1
  Lu  Lu9  1  0.348763  0.173710  0.487250  1
  Lu  Lu10  1  0.825444  0.174556  0.488240  1
  Lu  Lu11  1  0.173200  0.348169  0.984880  1
  Lu  Lu12  1  0.651831  0.826800  0.984880  1
  Lu  Lu13  1  0.174451  0.825549  0.983993  1
  Lu  Lu14  1  0.667161  0.332839  0.174449  1
  Lu  Lu15  1  0.332905  0.667095  0.674907  1
  Ga  Ga16  1  0.836183  0.672078  0.045088  1
  Ga  Ga17  1  0.327922  0.163817  0.045088  1
  Ga  Ga18  1  0.835426  0.164574  0.044379  1
  Ga  Ga19  1  0.163797  0.327356  0.545248  1
  Ga  Ga20  1  0.672644  0.836203  0.545248  1
  Ga  Ga21  1  0.163736  0.836264  0.546166  1
  Co  Co22  1  0.667349  0.332651  0.552646  1
  Co  Co23  1  0.333433  0.666567  0.050264  1
