# generated using pymatgen
data_Ho3BiRuRh3O14
_symmetry_space_group_name_H-M   'P 1'
_cell_length_a   7.26624624
_cell_length_b   7.26624678
_cell_length_c   7.26624638
_cell_angle_alpha   59.59869909
_cell_angle_beta   59.59869498
_cell_angle_gamma   59.59870206
_symmetry_Int_Tables_number   1
_chemical_formula_structural   Ho3BiRuRh3O14
_chemical_formula_sum   'Ho3 Bi1 Ru1 Rh3 O14'
_cell_volume   268.80411948
_cell_formula_units_Z   1
loop_
 _symmetry_equiv_pos_site_id
 _symmetry_equiv_pos_as_xyz
  1  'x, y, z'
loop_
 _atom_site_type_symbol
 _atom_site_label
 _atom_site_symmetry_multiplicity
 _atom_site_fract_x
 _atom_site_fract_y
 _atom_site_fract_z
 _atom_site_occupancy
  Ho  Ho0  1  0.125000  0.625000  0.125000  1
  Ho  Ho1  1  0.625000  0.125000  0.125000  1
  Ho  Ho2  1  0.125000  0.125000  0.625000  1
  Bi  Bi3  1  0.125000  0.125000  0.125000  1
  Ru  Ru4  1  0.625000  0.625000  0.625000  1
  Rh  Rh5  1  0.625000  0.625000  0.125000  1
  Rh  Rh6  1  0.125000  0.625000  0.625000  1
  Rh  Rh7  1  0.625000  0.125000  0.625000  1
  O  O8  1  0.253573  0.253573  0.253573  1
  O  O9  1  0.286404  0.706318  0.286404  1
  O  O10  1  0.963596  0.963596  0.543682  1
  O  O11  1  0.541160  0.956652  0.541160  1
  O  O12  1  0.708840  0.708840  0.293348  1
  O  O13  1  0.956652  0.541160  0.541160  1
  O  O14  1  0.708840  0.293348  0.708840  1
  O  O15  1  0.286404  0.286404  0.706318  1
  O  O16  1  0.706318  0.286404  0.286404  1
  O  O17  1  0.293348  0.708840  0.708840  1
  O  O18  1  0.963596  0.543682  0.963596  1
  O  O19  1  0.541160  0.541160  0.956652  1
  O  O20  1  0.996427  0.996427  0.996427  1
  O  O21  1  0.543682  0.963596  0.963596  1
