# generated using pymatgen
data_TbEu4YNb2O12
_symmetry_space_group_name_H-M   'P 1'
_cell_length_a   5.96232202
_cell_length_b   5.79061890
_cell_length_c   10.08003969
_cell_angle_alpha   55.24941437
_cell_angle_beta   89.99264102
_cell_angle_gamma   89.99179094
_symmetry_Int_Tables_number   1
_chemical_formula_structural   TbEu4YNb2O12
_chemical_formula_sum   'Tb1 Eu4 Y1 Nb2 O12'
_cell_volume   285.94651637
_cell_formula_units_Z   1
loop_
 _symmetry_equiv_pos_site_id
 _symmetry_equiv_pos_as_xyz
  1  'x, y, z'
loop_
 _atom_site_type_symbol
 _atom_site_label
 _atom_site_symmetry_multiplicity
 _atom_site_fract_x
 _atom_site_fract_y
 _atom_site_fract_z
 _atom_site_occupancy
  Tb  Tb0  1  0.500000  0.000000  0.500000  1
  Eu  Eu1  1  0.449830  0.263117  0.750888  1
  Eu  Eu2  1  0.949893  0.736617  0.749385  1
  Eu  Eu3  1  0.050107  0.263383  0.250615  1
  Eu  Eu4  1  0.550170  0.736883  0.249112  1
  Y  Y5  1  0.000000  0.000000  0.000000  1
  Nb  Nb6  1  0.000000  0.500000  0.500000  1
  Nb  Nb7  1  0.500000  0.500000  0.000000  1
  O  O8  1  0.191420  0.732837  0.551453  1
  O  O9  1  0.691981  0.266799  0.948675  1
  O  O10  1  0.808580  0.267163  0.448547  1
  O  O11  1  0.308019  0.733201  0.051325  1
  O  O12  1  0.717358  0.629896  0.557064  1
  O  O13  1  0.217135  0.369463  0.943026  1
  O  O14  1  0.282642  0.370104  0.442936  1
  O  O15  1  0.782865  0.630537  0.056974  1
  O  O16  1  0.035605  0.162365  0.735967  1
  O  O17  1  0.535634  0.837402  0.764461  1
  O  O18  1  0.964395  0.837635  0.264033  1
  O  O19  1  0.464366  0.162598  0.235539  1
