# generated using pymatgen
data_Pr17Sm3Si15Ir
_symmetry_space_group_name_H-M   'P 1'
_cell_length_a   7.92164211
_cell_length_b   7.91142239
_cell_length_c   15.27552100
_cell_angle_alpha   90.23510287
_cell_angle_beta   89.89184041
_cell_angle_gamma   90.09504801
_symmetry_Int_Tables_number   1
_chemical_formula_structural   Pr17Sm3Si15Ir
_chemical_formula_sum   'Pr17 Sm3 Si15 Ir1'
_cell_volume   957.32808382
_cell_formula_units_Z   1
loop_
 _symmetry_equiv_pos_site_id
 _symmetry_equiv_pos_as_xyz
  1  'x, y, z'
loop_
 _atom_site_type_symbol
 _atom_site_label
 _atom_site_symmetry_multiplicity
 _atom_site_fract_x
 _atom_site_fract_y
 _atom_site_fract_z
 _atom_site_occupancy
  Pr  Pr0  1  0.695175  0.689304  0.501020  1
  Pr  Pr1  1  0.373750  0.011632  0.448583  1
  Pr  Pr2  1  0.488286  0.878644  0.698572  1
  Pr  Pr3  1  0.511364  0.123244  0.196933  1
  Pr  Pr4  1  0.876927  0.487732  0.300429  1
  Pr  Pr5  1  0.124387  0.506005  0.800189  1
  Pr  Pr6  1  0.625220  0.988527  0.947575  1
  Pr  Pr7  1  0.005769  0.374966  0.552723  1
  Pr  Pr8  1  0.987587  0.624341  0.051665  1
  Pr  Pr9  1  0.134580  0.984739  0.873632  1
  Pr  Pr10  1  0.518481  0.630350  0.125709  1
  Pr  Pr11  1  0.471720  0.362731  0.629859  1
  Pr  Pr12  1  0.626931  0.516106  0.873638  1
  Pr  Pr13  1  0.373745  0.482107  0.372940  1
  Pr  Pr14  1  0.873830  0.022327  0.376955  1
  Pr  Pr15  1  0.980894  0.125875  0.123551  1
  Pr  Pr16  1  0.026461  0.880438  0.625448  1
  Sm  Sm17  1  0.305337  0.306628  0.999059  1
  Sm  Sm18  1  0.190663  0.808954  0.249786  1
  Sm  Sm19  1  0.822626  0.188915  0.749803  1
  Si  Si20  1  0.331901  0.692409  0.952540  1
  Si  Si21  1  0.663616  0.303974  0.453638  1
  Si  Si22  1  0.694920  0.332872  0.047877  1
  Si  Si23  1  0.306416  0.669306  0.546362  1
  Si  Si24  1  0.807916  0.831414  0.204379  1
  Si  Si25  1  0.169323  0.194912  0.296099  1
  Si  Si26  1  0.831808  0.805011  0.798286  1
  Si  Si27  1  0.288021  0.922428  0.060029  1
  Si  Si28  1  0.578274  0.787370  0.310134  1
  Si  Si29  1  0.426467  0.207561  0.813256  1
  Si  Si30  1  0.781844  0.580801  0.691002  1
  Si  Si31  1  0.212809  0.422459  0.188362  1
  Si  Si32  1  0.705272  0.074992  0.560268  1
  Si  Si33  1  0.920258  0.285948  0.940425  1
  Si  Si34  1  0.082197  0.717394  0.439092  1
  Ir  Ir35  1  0.185227  0.177588  0.700184  1
