# generated using pymatgen
data_CeSm3(Ni2Hg)2
_symmetry_space_group_name_H-M   'P 1'
_cell_length_a   7.45402175
_cell_length_b   7.45402177
_cell_length_c   3.69897000
_cell_angle_alpha   90.00000000
_cell_angle_beta   90.00000000
_cell_angle_gamma   91.55960868
_symmetry_Int_Tables_number   1
_chemical_formula_structural   CeSm3(Ni2Hg)2
_chemical_formula_sum   'Ce1 Sm3 Ni4 Hg2'
_cell_volume   205.44766388
_cell_formula_units_Z   1
loop_
 _symmetry_equiv_pos_site_id
 _symmetry_equiv_pos_as_xyz
  1  'x, y, z'
loop_
 _atom_site_type_symbol
 _atom_site_label
 _atom_site_symmetry_multiplicity
 _atom_site_fract_x
 _atom_site_fract_y
 _atom_site_fract_z
 _atom_site_occupancy
  Ce  Ce0  1  0.322922  0.822922  0.500000  1
  Sm  Sm1  1  0.823563  0.676209  0.500000  1
  Sm  Sm2  1  0.176209  0.323563  0.500000  1
  Sm  Sm3  1  0.676467  0.176467  0.500000  1
  Ni  Ni4  1  0.375083  0.106427  0.000000  1
  Ni  Ni5  1  0.888601  0.388601  0.000000  1
  Ni  Ni6  1  0.131738  0.631738  0.000000  1
  Ni  Ni7  1  0.606427  0.875083  0.000000  1
  Hg  Hg8  1  0.996041  0.002949  0.000000  1
  Hg  Hg9  1  0.502949  0.496041  0.000000  1
