# generated using pymatgen
data_NaNp6(NCl)6
_symmetry_space_group_name_H-M   'P 1'
_cell_length_a   6.58459586
_cell_length_b   6.58459524
_cell_length_c   10.76790793
_cell_angle_alpha   84.14839337
_cell_angle_beta   84.14839747
_cell_angle_gamma   120.00472369
_symmetry_Int_Tables_number   1
_chemical_formula_structural   NaNp6(NCl)6
_chemical_formula_sum   'Na1 Np6 N6 Cl6'
_cell_volume   395.80087077
_cell_formula_units_Z   1
loop_
 _symmetry_equiv_pos_site_id
 _symmetry_equiv_pos_as_xyz
  1  'x, y, z'
loop_
 _atom_site_type_symbol
 _atom_site_label
 _atom_site_symmetry_multiplicity
 _atom_site_fract_x
 _atom_site_fract_y
 _atom_site_fract_z
 _atom_site_occupancy
  Na  Na0  1  0.000000  0.000000  0.000000  1
  Np  Np1  1  0.210274  0.210274  0.366973  1
  Np  Np2  1  0.544360  0.878479  0.366932  1
  Np  Np3  1  0.878479  0.544360  0.366932  1
  Np  Np4  1  0.121521  0.455640  0.633068  1
  Np  Np5  1  0.455640  0.121521  0.633068  1
  Np  Np6  1  0.789726  0.789726  0.633027  1
  N  N7  1  0.139630  0.139630  0.581014  1
  N  N8  1  0.472857  0.806232  0.581379  1
  N  N9  1  0.806232  0.472857  0.581379  1
  N  N10  1  0.193768  0.527143  0.418621  1
  N  N11  1  0.527143  0.193768  0.418621  1
  N  N12  1  0.860370  0.860370  0.418986  1
  Cl  Cl13  1  0.060593  0.730008  0.818257  1
  Cl  Cl14  1  0.391275  0.391275  0.817805  1
  Cl  Cl15  1  0.730008  0.060593  0.818257  1
  Cl  Cl16  1  0.269992  0.939407  0.181743  1
  Cl  Cl17  1  0.608725  0.608725  0.182195  1
  Cl  Cl18  1  0.939407  0.269992  0.181743  1
