# generated using pymatgen
data_Rb4GaAu8
_symmetry_space_group_name_H-M   'P 1'
_cell_length_a   5.75221900
_cell_length_b   11.25509315
_cell_length_c   11.46712081
_cell_angle_alpha   96.71494353
_cell_angle_beta   90.00000000
_cell_angle_gamma   104.80549814
_symmetry_Int_Tables_number   1
_chemical_formula_structural   Rb4GaAu8
_chemical_formula_sum   'Rb8 Ga2 Au16'
_cell_volume   712.48412083
_cell_formula_units_Z   2
loop_
 _symmetry_equiv_pos_site_id
 _symmetry_equiv_pos_as_xyz
  1  'x, y, z'
loop_
 _atom_site_type_symbol
 _atom_site_label
 _atom_site_symmetry_multiplicity
 _atom_site_fract_x
 _atom_site_fract_y
 _atom_site_fract_z
 _atom_site_occupancy
  Rb  Rb0  1  0.283557  0.567113  0.102550  1
  Rb  Rb1  1  0.485424  0.970848  0.167425  1
  Rb  Rb2  1  0.045812  0.091623  0.342956  1
  Rb  Rb3  1  0.224123  0.448246  0.408267  1
  Rb  Rb4  1  0.775877  0.551755  0.591733  1
  Rb  Rb5  1  0.954188  0.908376  0.657044  1
  Rb  Rb6  1  0.514576  0.029152  0.832574  1
  Rb  Rb7  1  0.716443  0.432887  0.897451  1
  Ga  Ga8  1  0.673492  0.346984  0.239028  1
  Ga  Ga9  1  0.326508  0.653015  0.760972  1
  Au  Au10  1  0.000000  0.000000  0.000000  1
  Au  Au11  1  0.357784  0.237029  0.078726  1
  Au  Au12  1  0.879245  0.237029  0.078726  1
  Au  Au13  1  0.897865  0.795729  0.146469  1
  Au  Au14  1  0.789550  0.579099  0.267351  1
  Au  Au15  1  0.146248  0.790565  0.367695  1
  Au  Au16  1  0.644316  0.790565  0.367695  1
  Au  Au17  1  0.624038  0.248075  0.426420  1
  Au  Au18  1  0.500000  0.000000  0.500000  1
  Au  Au19  1  0.375962  0.751925  0.573581  1
  Au  Au20  1  0.355682  0.209435  0.632305  1
  Au  Au21  1  0.853753  0.209435  0.632305  1
  Au  Au22  1  0.210450  0.420901  0.732648  1
  Au  Au23  1  0.102135  0.204271  0.853531  1
  Au  Au24  1  0.120754  0.762971  0.921274  1
  Au  Au25  1  0.642216  0.762971  0.921274  1
