# generated using pymatgen
data_Al2V12Ga5NiN4
_symmetry_space_group_name_H-M   'P 1'
_cell_length_a   6.58454440
_cell_length_b   6.58213017
_cell_length_c   6.58248778
_cell_angle_alpha   90.05025263
_cell_angle_beta   90.05151499
_cell_angle_gamma   90.05280456
_symmetry_Int_Tables_number   1
_chemical_formula_structural   Al2V12Ga5NiN4
_chemical_formula_sum   'Al2 V12 Ga5 Ni1 N4'
_cell_volume   285.28683537
_cell_formula_units_Z   1
loop_
 _symmetry_equiv_pos_site_id
 _symmetry_equiv_pos_as_xyz
  1  'x, y, z'
loop_
 _atom_site_type_symbol
 _atom_site_label
 _atom_site_symmetry_multiplicity
 _atom_site_fract_x
 _atom_site_fract_y
 _atom_site_fract_z
 _atom_site_occupancy
  Al  Al0  1  0.176251  0.820563  0.320007  1
  Al  Al1  1  0.320449  0.180281  0.823959  1
  V  V2  1  0.793713  0.960470  0.375004  1
  V  V3  1  0.706239  0.042414  0.873152  1
  V  V4  1  0.209350  0.459478  0.124962  1
  V  V5  1  0.288865  0.540566  0.622516  1
  V  V6  1  0.959690  0.372359  0.791747  1
  V  V7  1  0.041069  0.878362  0.709675  1
  V  V8  1  0.460772  0.122568  0.207936  1
  V  V9  1  0.541626  0.628459  0.292139  1
  V  V10  1  0.376285  0.790320  0.959652  1
  V  V11  1  0.875226  0.708395  0.041429  1
  V  V12  1  0.126618  0.207965  0.458717  1
  V  V13  1  0.623365  0.292064  0.539804  1
  Ga  Ga14  1  0.681325  0.676976  0.680565  1
  Ga  Ga15  1  0.580352  0.425262  0.942001  1
  Ga  Ga16  1  0.430348  0.930966  0.569527  1
  Ga  Ga17  1  0.925841  0.558658  0.419240  1
  Ga  Ga18  1  0.059025  0.080296  0.074479  1
  Ni  Ni19  1  0.818602  0.318573  0.181482  1
  N  N20  1  0.874425  0.127646  0.622712  1
  N  N21  1  0.628849  0.876862  0.123766  1
  N  N22  1  0.124142  0.625024  0.874265  1
  N  N23  1  0.377572  0.375474  0.371266  1
