# generated using pymatgen
data_Zr4H15
_symmetry_space_group_name_H-M   'P 1'
_cell_length_a   7.02342677
_cell_length_b   7.02342700
_cell_length_c   7.02342700
_cell_angle_alpha   109.47122640
_cell_angle_beta   109.47122706
_cell_angle_gamma   109.47121354
_symmetry_Int_Tables_number   1
_chemical_formula_structural   Zr4H15
_chemical_formula_sum   'Zr8 H30'
_cell_volume   266.70139440
_cell_formula_units_Z   2
loop_
 _symmetry_equiv_pos_site_id
 _symmetry_equiv_pos_as_xyz
  1  'x, y, z'
loop_
 _atom_site_type_symbol
 _atom_site_label
 _atom_site_symmetry_multiplicity
 _atom_site_fract_x
 _atom_site_fract_y
 _atom_site_fract_z
 _atom_site_occupancy
  Zr  Zr0  1  0.908549  0.908549  0.908549  1
  Zr  Zr1  1  0.500000  0.000000  0.091451  1
  Zr  Zr2  1  0.000000  0.091451  0.500000  1
  Zr  Zr3  1  0.091451  0.500000  0.000000  1
  Zr  Zr4  1  0.000000  0.591451  0.500000  1
  Zr  Zr5  1  0.591451  0.500000  0.000000  1
  Zr  Zr6  1  0.500000  0.000000  0.591451  1
  Zr  Zr7  1  0.408549  0.408549  0.408549  1
  H  H8  1  0.654492  0.968211  0.383646  1
  H  H9  1  0.229154  0.313720  0.845508  1
  H  H10  1  0.186280  0.415434  0.531789  1
  H  H11  1  0.084566  0.270846  0.116354  1
  H  H12  1  0.270846  0.116354  0.084566  1
  H  H13  1  0.116354  0.084566  0.270846  1
  H  H14  1  0.468211  0.154492  0.883646  1
  H  H15  1  0.729154  0.345508  0.813720  1
  H  H16  1  0.625000  0.375000  0.250000  1
  H  H17  1  0.250000  0.625000  0.375000  1
  H  H18  1  0.750000  0.875000  0.125000  1
  H  H19  1  0.125000  0.750000  0.875000  1
  H  H20  1  0.375000  0.250000  0.625000  1
  H  H21  1  0.875000  0.125000  0.750000  1
  H  H22  1  0.770846  0.584566  0.616354  1
  H  H23  1  0.313720  0.845508  0.229154  1
  H  H24  1  0.383646  0.654492  0.968211  1
  H  H25  1  0.968211  0.383646  0.654492  1
  H  H26  1  0.531789  0.186280  0.415434  1
  H  H27  1  0.415434  0.531789  0.186280  1
  H  H28  1  0.845508  0.229154  0.313720  1
  H  H29  1  0.915434  0.686280  0.031789  1
  H  H30  1  0.813720  0.729154  0.345508  1
  H  H31  1  0.154492  0.883646  0.468211  1
  H  H32  1  0.686280  0.031789  0.915434  1
  H  H33  1  0.345508  0.813720  0.729154  1
  H  H34  1  0.883646  0.468211  0.154492  1
  H  H35  1  0.616354  0.770846  0.584566  1
  H  H36  1  0.584566  0.616354  0.770846  1
  H  H37  1  0.031789  0.915434  0.686280  1
