# generated using pymatgen
data_Nd8Sn(Pd5Pt)4
_symmetry_space_group_name_H-M   'P 1'
_cell_length_a   8.54696200
_cell_length_b   8.54086100
_cell_length_c   8.54369900
_cell_angle_alpha   90.00000000
_cell_angle_beta   90.00000000
_cell_angle_gamma   90.00000000
_symmetry_Int_Tables_number   1
_chemical_formula_structural   Nd8Sn(Pd5Pt)4
_chemical_formula_sum   'Nd8 Sn1 Pd20 Pt4'
_cell_volume   623.67648023
_cell_formula_units_Z   1
loop_
 _symmetry_equiv_pos_site_id
 _symmetry_equiv_pos_as_xyz
  1  'x, y, z'
loop_
 _atom_site_type_symbol
 _atom_site_label
 _atom_site_symmetry_multiplicity
 _atom_site_fract_x
 _atom_site_fract_y
 _atom_site_fract_z
 _atom_site_occupancy
  Nd  Nd0  1  0.251774  0.252563  0.251586  1
  Nd  Nd1  1  0.748197  0.747035  0.746756  1
  Nd  Nd2  1  0.748197  0.747035  0.253244  1
  Nd  Nd3  1  0.748197  0.252965  0.746756  1
  Nd  Nd4  1  0.251774  0.252563  0.748414  1
  Nd  Nd5  1  0.251774  0.747437  0.251586  1
  Nd  Nd6  1  0.251774  0.747437  0.748414  1
  Nd  Nd7  1  0.748197  0.252965  0.253244  1
  Sn  Sn8  1  0.001781  0.000000  0.000000  1
  Pd  Pd9  1  0.733463  0.500000  0.000000  1
  Pd  Pd10  1  0.999840  0.266280  0.500000  1
  Pd  Pd11  1  0.499961  0.266111  0.000000  1
  Pd  Pd12  1  0.999840  0.733720  0.500000  1
  Pd  Pd13  1  0.499961  0.733889  0.000000  1
  Pd  Pd14  1  0.500018  0.000000  0.266299  1
  Pd  Pd15  1  0.266349  0.000000  0.500000  1
  Pd  Pd16  1  0.500018  0.000000  0.733701  1
  Pd  Pd17  1  0.733220  0.000000  0.500000  1
  Pd  Pd18  1  0.999937  0.500000  0.266675  1
  Pd  Pd19  1  0.999937  0.500000  0.733325  1
  Pd  Pd20  1  0.500289  0.255323  0.500000  1
  Pd  Pd21  1  0.500289  0.744677  0.500000  1
  Pd  Pd22  1  0.500004  0.500000  0.255201  1
  Pd  Pd23  1  0.500004  0.500000  0.744799  1
  Pd  Pd24  1  0.689448  0.000000  0.000000  1
  Pd  Pd25  1  0.999335  0.311853  0.000000  1
  Pd  Pd26  1  0.999335  0.688147  0.000000  1
  Pd  Pd27  1  0.999415  0.000000  0.311874  1
  Pd  Pd28  1  0.999415  0.000000  0.688126  1
  Pt  Pt29  1  0.265531  0.500000  0.000000  1
  Pt  Pt30  1  0.254552  0.500000  0.500000  1
  Pt  Pt31  1  0.745526  0.500000  0.500000  1
  Pt  Pt32  1  0.312646  0.000000  0.000000  1
