# generated using pymatgen
data_TbHo3(AlRe3)2
_symmetry_space_group_name_H-M   'P 1'
_cell_length_a   5.34809100
_cell_length_b   5.34809154
_cell_length_c   9.05234700
_cell_angle_alpha   90.00000000
_cell_angle_beta   90.00000000
_cell_angle_gamma   120.00000286
_symmetry_Int_Tables_number   1
_chemical_formula_structural   TbHo3(AlRe3)2
_chemical_formula_sum   'Tb1 Ho3 Al2 Re6'
_cell_volume   224.22778808
_cell_formula_units_Z   1
loop_
 _symmetry_equiv_pos_site_id
 _symmetry_equiv_pos_as_xyz
  1  'x, y, z'
loop_
 _atom_site_type_symbol
 _atom_site_label
 _atom_site_symmetry_multiplicity
 _atom_site_fract_x
 _atom_site_fract_y
 _atom_site_fract_z
 _atom_site_occupancy
  Tb  Tb0  1  0.333333  0.666667  0.433011  1
  Ho  Ho1  1  0.666667  0.333333  0.567657  1
  Ho  Ho2  1  0.666667  0.333333  0.932588  1
  Ho  Ho3  1  0.333333  0.666667  0.067103  1
  Al  Al4  1  0.000000  0.000000  0.499968  1
  Al  Al5  1  0.000000  0.000000  0.000058  1
  Re  Re6  1  0.830638  0.169362  0.249380  1
  Re  Re7  1  0.830638  0.661277  0.249380  1
  Re  Re8  1  0.338723  0.169362  0.249380  1
  Re  Re9  1  0.169366  0.830634  0.750491  1
  Re  Re10  1  0.169366  0.338730  0.750491  1
  Re  Re11  1  0.661270  0.830634  0.750491  1
