# generated using pymatgen
data_Ba2Yb(SnAu)3
_symmetry_space_group_name_H-M   'P 1'
_cell_length_a   4.80286800
_cell_length_b   4.80286739
_cell_length_c   12.54008900
_cell_angle_alpha   90.00000000
_cell_angle_beta   90.00000000
_cell_angle_gamma   120.00000417
_symmetry_Int_Tables_number   1
_chemical_formula_structural   Ba2Yb(SnAu)3
_chemical_formula_sum   'Ba2 Yb1 Sn3 Au3'
_cell_volume   250.51427556
_cell_formula_units_Z   1
loop_
 _symmetry_equiv_pos_site_id
 _symmetry_equiv_pos_as_xyz
  1  'x, y, z'
loop_
 _atom_site_type_symbol
 _atom_site_label
 _atom_site_symmetry_multiplicity
 _atom_site_fract_x
 _atom_site_fract_y
 _atom_site_fract_z
 _atom_site_occupancy
  Ba  Ba0  1  0.666667  0.333333  0.681363  1
  Ba  Ba1  1  0.666667  0.333333  0.318637  1
  Yb  Yb2  1  0.666667  0.333333  0.000000  1
  Sn  Sn3  1  0.333333  0.666667  0.878050  1
  Sn  Sn4  1  0.000000  0.000000  0.500000  1
  Sn  Sn5  1  0.333333  0.666667  0.121950  1
  Au  Au6  1  0.000000  0.000000  0.872058  1
  Au  Au7  1  0.000000  0.000000  0.127942  1
  Au  Au8  1  0.333333  0.666667  0.500000  1
