# generated using pymatgen
data_Sm5Tm(Si3Ru)8
_symmetry_space_group_name_H-M   'P 1'
_cell_length_a   10.14929325
_cell_length_b   10.14929427
_cell_length_c   8.19515904
_cell_angle_alpha   90.02055287
_cell_angle_beta   90.02054669
_cell_angle_gamma   132.40042272
_symmetry_Int_Tables_number   1
_chemical_formula_structural   Sm5Tm(Si3Ru)8
_chemical_formula_sum   'Sm5 Tm1 Si24 Ru8'
_cell_volume   623.37613249
_cell_formula_units_Z   1
loop_
 _symmetry_equiv_pos_site_id
 _symmetry_equiv_pos_as_xyz
  1  'x, y, z'
loop_
 _atom_site_type_symbol
 _atom_site_label
 _atom_site_symmetry_multiplicity
 _atom_site_fract_x
 _atom_site_fract_y
 _atom_site_fract_z
 _atom_site_occupancy
  Sm  Sm0  1  0.500000  0.500000  0.500000  1
  Sm  Sm1  1  0.002524  0.502387  0.249649  1
  Sm  Sm2  1  0.497613  0.997476  0.750351  1
  Sm  Sm3  1  0.997476  0.497613  0.750351  1
  Sm  Sm4  1  0.502387  0.002524  0.249649  1
  Tm  Tm5  1  0.000000  0.000000  0.000000  1
  Si  Si6  1  0.294413  0.705587  0.000000  1
  Si  Si7  1  0.794970  0.205030  0.500000  1
  Si  Si8  1  0.705587  0.294413  0.000000  1
  Si  Si9  1  0.205030  0.794970  0.500000  1
  Si  Si10  1  0.832585  0.832585  0.332864  1
  Si  Si11  1  0.167415  0.167415  0.667136  1
  Si  Si12  1  0.667350  0.667350  0.833339  1
  Si  Si13  1  0.332650  0.332650  0.166661  1
  Si  Si14  1  0.620902  0.386730  0.227533  1
  Si  Si15  1  0.613270  0.379098  0.772467  1
  Si  Si16  1  0.111267  0.878098  0.728725  1
  Si  Si17  1  0.121902  0.888733  0.271275  1
  Si  Si18  1  0.379098  0.613270  0.772467  1
  Si  Si19  1  0.386730  0.620902  0.227533  1
  Si  Si20  1  0.888733  0.121902  0.271275  1
  Si  Si21  1  0.878098  0.111267  0.728725  1
  Si  Si22  1  0.844794  0.611884  0.004717  1
  Si  Si23  1  0.388116  0.155206  0.995283  1
  Si  Si24  1  0.888358  0.655198  0.504498  1
  Si  Si25  1  0.344802  0.111642  0.495502  1
  Si  Si26  1  0.155206  0.388116  0.995283  1
  Si  Si27  1  0.611884  0.844794  0.004717  1
  Si  Si28  1  0.111642  0.344802  0.495502  1
  Si  Si29  1  0.655198  0.888358  0.504498  1
  Ru  Ru30  1  0.167273  0.832727  0.000000  1
  Ru  Ru31  1  0.668829  0.331171  0.500000  1
  Ru  Ru32  1  0.832727  0.167273  0.000000  1
  Ru  Ru33  1  0.331171  0.668829  0.500000  1
  Ru  Ru34  1  0.627359  0.627359  0.124538  1
  Ru  Ru35  1  0.372641  0.372641  0.875462  1
  Ru  Ru36  1  0.875636  0.875636  0.628508  1
  Ru  Ru37  1  0.124364  0.124364  0.371492  1
