# generated using pymatgen
data_Rb3CrS4
_symmetry_space_group_name_H-M   'P 1'
_cell_length_a   9.47843600
_cell_length_b   9.56515600
_cell_length_c   11.01958300
_cell_angle_alpha   90.00000000
_cell_angle_beta   90.00000000
_cell_angle_gamma   90.00000000
_symmetry_Int_Tables_number   1
_chemical_formula_structural   Rb3CrS4
_chemical_formula_sum   'Rb12 Cr4 S16'
_cell_volume   999.06535676
_cell_formula_units_Z   4
loop_
 _symmetry_equiv_pos_site_id
 _symmetry_equiv_pos_as_xyz
  1  'x, y, z'
loop_
 _atom_site_type_symbol
 _atom_site_label
 _atom_site_symmetry_multiplicity
 _atom_site_fract_x
 _atom_site_fract_y
 _atom_site_fract_z
 _atom_site_occupancy
  Rb  Rb0  1  0.643765  0.420263  0.250000  1
  Rb  Rb1  1  0.856235  0.920263  0.750000  1
  Rb  Rb2  1  0.143765  0.079737  0.250000  1
  Rb  Rb3  1  0.356235  0.579737  0.750000  1
  Rb  Rb4  1  0.449352  0.793529  0.042737  1
  Rb  Rb5  1  0.050648  0.293529  0.957263  1
  Rb  Rb6  1  0.949352  0.706471  0.457263  1
  Rb  Rb7  1  0.550648  0.206471  0.542737  1
  Rb  Rb8  1  0.550648  0.206471  0.957263  1
  Rb  Rb9  1  0.949352  0.706471  0.042737  1
  Rb  Rb10  1  0.050648  0.293529  0.542737  1
  Rb  Rb11  1  0.449352  0.793529  0.457263  1
  Cr  Cr12  1  0.720993  0.983446  0.250000  1
  Cr  Cr13  1  0.779007  0.483446  0.750000  1
  Cr  Cr14  1  0.220993  0.516554  0.250000  1
  Cr  Cr15  1  0.279007  0.016554  0.750000  1
  S  S16  1  0.701797  0.761018  0.250000  1
  S  S17  1  0.798203  0.261018  0.750000  1
  S  S18  1  0.201797  0.738982  0.250000  1
  S  S19  1  0.298203  0.238982  0.750000  1
  S  S20  1  0.514024  0.073999  0.250000  1
  S  S21  1  0.985976  0.573999  0.750000  1
  S  S22  1  0.014024  0.426001  0.250000  1
  S  S23  1  0.485976  0.926001  0.750000  1
  S  S24  1  0.830841  0.045086  0.090125  1
  S  S25  1  0.669159  0.545086  0.909875  1
  S  S26  1  0.330841  0.454914  0.409875  1
  S  S27  1  0.169159  0.954914  0.590125  1
  S  S28  1  0.169159  0.954914  0.909875  1
  S  S29  1  0.330841  0.454914  0.090125  1
  S  S30  1  0.669159  0.545086  0.590125  1
  S  S31  1  0.830841  0.045086  0.409875  1
