# generated using pymatgen
data_Dy2Tm3ReOsC7
_symmetry_space_group_name_H-M   'P 1'
_cell_length_a   8.20104216
_cell_length_b   8.18722305
_cell_length_c   3.44335100
_cell_angle_alpha   90.00000000
_cell_angle_beta   90.00000000
_cell_angle_gamma   122.02664295
_symmetry_Int_Tables_number   1
_chemical_formula_structural   Dy2Tm3ReOsC7
_chemical_formula_sum   'Dy2 Tm3 Re1 Os1 C7'
_cell_volume   196.01133548
_cell_formula_units_Z   1
loop_
 _symmetry_equiv_pos_site_id
 _symmetry_equiv_pos_as_xyz
  1  'x, y, z'
loop_
 _atom_site_type_symbol
 _atom_site_label
 _atom_site_symmetry_multiplicity
 _atom_site_fract_x
 _atom_site_fract_y
 _atom_site_fract_z
 _atom_site_occupancy
  Dy  Dy0  1  0.501118  0.499987  0.000000  1
  Dy  Dy1  1  0.074800  0.334858  0.500000  1
  Tm  Tm2  1  0.921215  0.661972  0.500000  1
  Tm  Tm3  1  0.661135  0.923168  0.500000  1
  Tm  Tm4  1  0.339490  0.077947  0.500000  1
  Re  Re5  1  0.283793  0.716347  0.000000  1
  Os  Os6  1  0.713667  0.286268  0.000000  1
  C  C7  1  0.631216  0.369070  0.500000  1
  C  C8  1  0.373945  0.626957  0.500000  1
  C  C9  1  0.000416  0.999889  0.000000  1
  C  C10  1  0.172735  0.168618  0.000000  1
  C  C11  1  0.828452  0.830012  0.000000  1
  C  C12  1  0.998717  0.503554  0.000000  1
  C  C13  1  0.499301  0.001354  0.000000  1
