# generated using pymatgen
data_La3Pa(NiAs)4
_symmetry_space_group_name_H-M   'P 1'
_cell_length_a   4.17294100
_cell_length_b   4.17294046
_cell_length_c   16.11715800
_cell_angle_alpha   90.00000000
_cell_angle_beta   90.00000000
_cell_angle_gamma   120.00001222
_symmetry_Int_Tables_number   1
_chemical_formula_structural   La3Pa(NiAs)4
_chemical_formula_sum   'La3 Pa1 Ni4 As4'
_cell_volume   243.05439245
_cell_formula_units_Z   1
loop_
 _symmetry_equiv_pos_site_id
 _symmetry_equiv_pos_as_xyz
  1  'x, y, z'
loop_
 _atom_site_type_symbol
 _atom_site_label
 _atom_site_symmetry_multiplicity
 _atom_site_fract_x
 _atom_site_fract_y
 _atom_site_fract_z
 _atom_site_occupancy
  La  La0  1  0.000000  0.000000  0.750000  1
  La  La1  1  0.000000  0.000000  0.003300  1
  La  La2  1  0.000000  0.000000  0.496700  1
  Pa  Pa3  1  0.000000  0.000000  0.250000  1
  Ni  Ni4  1  0.333333  0.666667  0.164004  1
  Ni  Ni5  1  0.666667  0.333333  0.880178  1
  Ni  Ni6  1  0.666667  0.333333  0.619822  1
  Ni  Ni7  1  0.333333  0.666667  0.335996  1
  As  As8  1  0.333333  0.666667  0.622573  1
  As  As9  1  0.666667  0.333333  0.373214  1
  As  As10  1  0.666667  0.333333  0.126786  1
  As  As11  1  0.333333  0.666667  0.877427  1
