# generated using pymatgen
data_Tm5Hf4ZrSn6
_symmetry_space_group_name_H-M   'P 1'
_cell_length_a   8.65854300
_cell_length_b   8.67820361
_cell_length_c   5.97382900
_cell_angle_alpha   90.00000000
_cell_angle_beta   90.00000000
_cell_angle_gamma   120.07513802
_symmetry_Int_Tables_number   1
_chemical_formula_structural   Tm5Hf4ZrSn6
_chemical_formula_sum   'Tm5 Hf4 Zr1 Sn6'
_cell_volume   388.44429894
_cell_formula_units_Z   1
loop_
 _symmetry_equiv_pos_site_id
 _symmetry_equiv_pos_as_xyz
  1  'x, y, z'
loop_
 _atom_site_type_symbol
 _atom_site_label
 _atom_site_symmetry_multiplicity
 _atom_site_fract_x
 _atom_site_fract_y
 _atom_site_fract_z
 _atom_site_occupancy
  Tm  Tm0  1  0.761121  0.759937  0.750000  1
  Tm  Tm1  1  0.238879  0.998815  0.750000  1
  Tm  Tm2  1  0.000000  0.243226  0.750000  1
  Tm  Tm3  1  0.240282  0.238979  0.250000  1
  Tm  Tm4  1  0.759718  0.998696  0.250000  1
  Hf  Hf5  1  0.667477  0.334799  0.001134  1
  Hf  Hf6  1  0.332523  0.667324  0.001134  1
  Hf  Hf7  1  0.332523  0.667324  0.498866  1
  Hf  Hf8  1  0.667477  0.334799  0.498866  1
  Zr  Zr9  1  0.000000  0.754271  0.250000  1
  Sn  Sn10  1  0.399153  0.398938  0.750000  1
  Sn  Sn11  1  0.600847  0.999785  0.750000  1
  Sn  Sn12  1  0.000000  0.602322  0.750000  1
  Sn  Sn13  1  0.606457  0.603609  0.250000  1
  Sn  Sn14  1  0.393543  0.997152  0.250000  1
  Sn  Sn15  1  0.000000  0.400023  0.250000  1
