# generated using pymatgen
data_Dy4GeAsS2
_symmetry_space_group_name_H-M   'P 1'
_cell_length_a   7.00296116
_cell_length_b   7.00296187
_cell_length_c   7.00296272
_cell_angle_alpha   132.10215868
_cell_angle_beta   132.10216518
_cell_angle_gamma   70.06772376
_symmetry_Int_Tables_number   1
_chemical_formula_structural   Dy4GeAsS2
_chemical_formula_sum   'Dy4 Ge1 As1 S2'
_cell_volume   185.34258163
_cell_formula_units_Z   1
loop_
 _symmetry_equiv_pos_site_id
 _symmetry_equiv_pos_as_xyz
  1  'x, y, z'
loop_
 _atom_site_type_symbol
 _atom_site_label
 _atom_site_symmetry_multiplicity
 _atom_site_fract_x
 _atom_site_fract_y
 _atom_site_fract_z
 _atom_site_occupancy
  Dy  Dy0  1  0.750833  0.750833  0.000000  1
  Dy  Dy1  1  0.249168  0.249168  0.000000  1
  Dy  Dy2  1  0.999214  0.499214  0.500000  1
  Dy  Dy3  1  0.500786  0.000786  0.500000  1
  Ge  Ge4  1  0.000000  0.000000  0.000000  1
  As  As5  1  0.250000  0.750000  0.500000  1
  S  S6  1  0.500000  0.500000  0.000000  1
  S  S7  1  0.750000  0.250000  0.500000  1
