# generated using pymatgen
data_Ca2Sm2Sn4Sb2Rh7
_symmetry_space_group_name_H-M   'P 1'
_cell_length_a   7.67037466
_cell_length_b   7.67479599
_cell_length_c   7.66585499
_cell_angle_alpha   109.44724336
_cell_angle_beta   109.43946418
_cell_angle_gamma   109.52335937
_symmetry_Int_Tables_number   1
_chemical_formula_structural   Ca2Sm2Sn4Sb2Rh7
_chemical_formula_sum   'Ca2 Sm2 Sn4 Sb2 Rh7'
_cell_volume   347.40909211
_cell_formula_units_Z   1
loop_
 _symmetry_equiv_pos_site_id
 _symmetry_equiv_pos_as_xyz
  1  'x, y, z'
loop_
 _atom_site_type_symbol
 _atom_site_label
 _atom_site_symmetry_multiplicity
 _atom_site_fract_x
 _atom_site_fract_y
 _atom_site_fract_z
 _atom_site_occupancy
  Ca  Ca0  1  0.500130  0.000174  0.000006  1
  Ca  Ca1  1  0.999293  0.491525  0.999691  1
  Sm  Sm2  1  0.999488  0.998643  0.499484  1
  Sm  Sm3  1  0.491870  0.490815  0.491208  1
  Sn  Sn4  1  0.316615  0.987909  0.311604  1
  Sn  Sn5  1  0.002153  0.685311  0.694394  1
  Sn  Sn6  1  0.688685  0.685912  0.996225  1
  Sn  Sn7  1  0.675951  0.998326  0.681125  1
  Sb  Sb8  1  0.992647  0.321415  0.320155  1
  Sb  Sb9  1  0.323936  0.321440  0.996900  1
  Rh  Rh10  1  0.252034  0.500593  0.748858  1
  Rh  Rh11  1  0.498022  0.250903  0.745227  1
  Rh  Rh12  1  0.748506  0.250711  0.501336  1
  Rh  Rh13  1  0.506043  0.747833  0.249628  1
  Rh  Rh14  1  0.007220  0.013896  0.007085  1
  Rh  Rh15  1  0.245175  0.747395  0.501692  1
  Rh  Rh16  1  0.752233  0.507198  0.255385  1
