# generated using pymatgen
data_K3BaZr6GaI18
_symmetry_space_group_name_H-M   'P 1'
_cell_length_a   11.26694109
_cell_length_b   11.42805793
_cell_length_c   11.52325770
_cell_angle_alpha   118.43942865
_cell_angle_beta   100.18604581
_cell_angle_gamma   104.10552398
_symmetry_Int_Tables_number   1
_chemical_formula_structural   K3BaZr6GaI18
_chemical_formula_sum   'K3 Ba1 Zr6 Ga1 I18'
_cell_volume   1188.35977501
_cell_formula_units_Z   1
loop_
 _symmetry_equiv_pos_site_id
 _symmetry_equiv_pos_as_xyz
  1  'x, y, z'
loop_
 _atom_site_type_symbol
 _atom_site_label
 _atom_site_symmetry_multiplicity
 _atom_site_fract_x
 _atom_site_fract_y
 _atom_site_fract_z
 _atom_site_occupancy
  K  K0  1  0.346706  0.461685  0.768854  1
  K  K1  1  0.685862  0.226460  0.565104  1
  K  K2  1  0.311264  0.775512  0.437213  1
  Ba  Ba3  1  0.647785  0.537420  0.227084  1
  Zr  Zr4  1  0.152931  0.057172  0.234481  1
  Zr  Zr5  1  0.848769  0.943283  0.768140  1
  Zr  Zr6  1  0.862922  0.128104  0.132718  1
  Zr  Zr7  1  0.139014  0.870128  0.864695  1
  Zr  Zr8  1  0.147043  0.240879  0.044696  1
  Zr  Zr9  1  0.852938  0.759567  0.955700  1
  Ga  Ga10  1  0.002244  0.999375  0.000403  1
  I  I11  1  0.009916  0.416215  0.199619  1
  I  I12  1  0.989389  0.584110  0.800444  1
  I  I13  1  0.334237  0.338751  0.315052  1
  I  I14  1  0.666132  0.662170  0.685839  1
  I  I15  1  0.336362  0.530612  0.103916  1
  I  I16  1  0.671782  0.471241  0.907100  1
  I  I17  1  0.003775  0.792310  0.212864  1
  I  I18  1  0.995401  0.206878  0.787627  1
  I  I19  1  0.697854  0.287091  0.292458  1
  I  I20  1  0.299885  0.718921  0.706336  1
  I  I21  1  0.320874  0.128644  0.901422  1
  I  I22  1  0.679528  0.872994  0.098905  1
  I  I23  1  0.014991  0.207769  0.413023  1
  I  I24  1  0.982472  0.790966  0.583579  1
  I  I25  1  0.323664  0.921290  0.111139  1
  I  I26  1  0.675479  0.077108  0.887355  1
  I  I27  1  0.339429  0.123055  0.509590  1
  I  I28  1  0.661352  0.870289  0.484644  1
