# generated using pymatgen
data_Nb7Co8Si14Tc
_symmetry_space_group_name_H-M   'P 1'
_cell_length_a   9.20778397
_cell_length_b   9.20778345
_cell_length_c   9.20778374
_cell_angle_alpha   94.33761087
_cell_angle_beta   94.14392816
_cell_angle_gamma   148.44131399
_symmetry_Int_Tables_number   1
_chemical_formula_structural   Nb7Co8Si14Tc
_chemical_formula_sum   'Nb7 Co8 Si14 Tc1'
_cell_volume   393.18100778
_cell_formula_units_Z   1
loop_
 _symmetry_equiv_pos_site_id
 _symmetry_equiv_pos_as_xyz
  1  'x, y, z'
loop_
 _atom_site_type_symbol
 _atom_site_label
 _atom_site_symmetry_multiplicity
 _atom_site_fract_x
 _atom_site_fract_y
 _atom_site_fract_z
 _atom_site_occupancy
  Nb  Nb0  1  0.690304  0.500000  0.190304  1
  Nb  Nb1  1  0.499577  0.691111  0.190687  1
  Nb  Nb2  1  0.499577  0.308889  0.808466  1
  Nb  Nb3  1  0.134165  0.132902  0.267067  1
  Nb  Nb4  1  0.865852  0.865011  0.730863  1
  Nb  Nb5  1  0.134165  0.867098  0.001263  1
  Nb  Nb6  1  0.865852  0.134989  0.000841  1
  Co  Co7  1  0.399128  0.897967  0.797877  1
  Co  Co8  1  0.101239  0.600372  0.200891  1
  Co  Co9  1  0.899912  0.102033  0.501161  1
  Co  Co10  1  0.600518  0.399628  0.500866  1
  Co  Co11  1  0.600518  0.099652  0.200891  1
  Co  Co12  1  0.899912  0.398750  0.797877  1
  Co  Co13  1  0.101239  0.900348  0.500866  1
  Co  Co14  1  0.399128  0.601250  0.501161  1
  Si  Si15  1  0.292701  0.295847  0.588548  1
  Si  Si16  1  0.707019  0.707349  0.414367  1
  Si  Si17  1  0.292701  0.704153  0.996854  1
  Si  Si18  1  0.707019  0.292651  0.999670  1
  Si  Si19  1  0.095979  0.500000  0.595979  1
  Si  Si20  1  0.906119  0.500000  0.406119  1
  Si  Si21  1  0.500122  0.905914  0.406036  1
  Si  Si22  1  0.500122  0.094086  0.594208  1
  Si  Si23  1  0.247406  0.249318  0.998087  1
  Si  Si24  1  0.748769  0.750682  0.998087  1
  Si  Si25  1  0.297932  0.000000  0.297932  1
  Si  Si26  1  0.704333  0.000000  0.704333  1
  Si  Si27  1  0.000023  0.702828  0.702851  1
  Si  Si28  1  0.000023  0.297172  0.297195  1
  Tc  Tc29  1  0.308647  0.500000  0.808647  1
