# generated using pymatgen
data_YbEr3(B6Os)2
_symmetry_space_group_name_H-M   'P 1'
_cell_length_a   3.62874000
_cell_length_b   9.11986338
_cell_length_c   11.50587080
_cell_angle_alpha   89.83577660
_cell_angle_beta   90.00000000
_cell_angle_gamma   90.00000000
_symmetry_Int_Tables_number   1
_chemical_formula_structural   YbEr3(B6Os)2
_chemical_formula_sum   'Yb2 Er6 B24 Os4'
_cell_volume   380.76927179
_cell_formula_units_Z   2
loop_
 _symmetry_equiv_pos_site_id
 _symmetry_equiv_pos_as_xyz
  1  'x, y, z'
loop_
 _atom_site_type_symbol
 _atom_site_label
 _atom_site_symmetry_multiplicity
 _atom_site_fract_x
 _atom_site_fract_y
 _atom_site_fract_z
 _atom_site_occupancy
  Yb  Yb0  1  0.000000  0.324572  0.414385  1
  Yb  Yb1  1  0.000000  0.675428  0.585615  1
  Er  Er2  1  0.000000  0.822039  0.086390  1
  Er  Er3  1  0.000000  0.177961  0.913610  1
  Er  Er4  1  0.000000  0.942364  0.370362  1
  Er  Er5  1  0.000000  0.057636  0.629638  1
  Er  Er6  1  0.000000  0.443179  0.129876  1
  Er  Er7  1  0.000000  0.556821  0.870124  1
  B  B8  1  0.500000  0.554124  0.432557  1
  B  B9  1  0.500000  0.445876  0.567443  1
  B  B10  1  0.500000  0.053369  0.066389  1
  B  B11  1  0.500000  0.946631  0.933611  1
  B  B12  1  0.500000  0.748488  0.418088  1
  B  B13  1  0.500000  0.251512  0.581912  1
  B  B14  1  0.500000  0.248438  0.080862  1
  B  B15  1  0.500000  0.751562  0.919138  1
  B  B16  1  0.500000  0.791576  0.264661  1
  B  B17  1  0.500000  0.208424  0.735339  1
  B  B18  1  0.500000  0.290415  0.234182  1
  B  B19  1  0.500000  0.709585  0.765818  1
  B  B20  1  0.500000  0.631471  0.185066  1
  B  B21  1  0.500000  0.368529  0.814934  1
  B  B22  1  0.500000  0.130577  0.313866  1
  B  B23  1  0.500000  0.869423  0.686134  1
  B  B24  1  0.500000  0.982634  0.211627  1
  B  B25  1  0.500000  0.017366  0.788373  1
  B  B26  1  0.500000  0.483748  0.287861  1
  B  B27  1  0.500000  0.516252  0.712139  1
  B  B28  1  0.500000  0.603867  0.028609  1
  B  B29  1  0.500000  0.396133  0.971391  1
  B  B30  1  0.500000  0.098829  0.472555  1
  B  B31  1  0.500000  0.901171  0.527445  1
  Os  Os32  1  0.000000  0.640017  0.318982  1
  Os  Os33  1  0.000000  0.359983  0.681018  1
  Os  Os34  1  0.000000  0.136723  0.177571  1
  Os  Os35  1  0.000000  0.863277  0.822429  1
