# generated using pymatgen
data_Ho4TmBe5P7Ir19
_symmetry_space_group_name_H-M   'P 1'
_cell_length_a   12.54398100
_cell_length_b   12.46684764
_cell_length_c   3.94421700
_cell_angle_alpha   90.00000000
_cell_angle_beta   90.00000000
_cell_angle_gamma   119.74554246
_symmetry_Int_Tables_number   1
_chemical_formula_structural   Ho4TmBe5P7Ir19
_chemical_formula_sum   'Ho4 Tm1 Be5 P7 Ir19'
_cell_volume   535.53928967
_cell_formula_units_Z   1
loop_
 _symmetry_equiv_pos_site_id
 _symmetry_equiv_pos_as_xyz
  1  'x, y, z'
loop_
 _atom_site_type_symbol
 _atom_site_label
 _atom_site_symmetry_multiplicity
 _atom_site_fract_x
 _atom_site_fract_y
 _atom_site_fract_z
 _atom_site_occupancy
  Ho  Ho0  1  0.334191  0.665799  0.500000  1
  Ho  Ho1  1  0.188879  0.190875  0.000000  1
  Ho  Ho2  1  0.812317  0.002100  0.000000  1
  Ho  Ho3  1  0.006365  0.816900  0.000000  1
  Tm  Tm4  1  0.663809  0.320613  0.500000  1
  Be  Be5  1  0.311775  0.834911  0.000000  1
  Be  Be6  1  0.164923  0.477628  0.000000  1
  Be  Be7  1  0.522416  0.687056  0.000000  1
  Be  Be8  1  0.831796  0.307684  0.000000  1
  Be  Be9  1  0.478386  0.165028  0.000000  1
  P  P10  1  0.692570  0.515168  0.000000  1
  P  P11  1  0.366621  0.373924  0.500000  1
  P  P12  1  0.624570  0.999392  0.500000  1
  P  P13  1  0.006335  0.630851  0.500000  1
  P  P14  1  0.817757  0.820092  0.500000  1
  P  P15  1  0.184924  0.003644  0.500000  1
  P  P16  1  0.998970  0.182923  0.500000  1
  Ir  Ir17  1  0.194313  0.818427  0.500000  1
  Ir  Ir18  1  0.181452  0.376681  0.500000  1
  Ir  Ir19  1  0.624790  0.809516  0.500000  1
  Ir  Ir20  1  0.814074  0.190035  0.500000  1
  Ir  Ir21  1  0.377099  0.189654  0.500000  1
  Ir  Ir22  1  0.809689  0.623350  0.500000  1
  Ir  Ir23  1  0.125831  0.639094  0.000000  1
  Ir  Ir24  1  0.358941  0.487744  0.000000  1
  Ir  Ir25  1  0.509886  0.870797  0.000000  1
  Ir  Ir26  1  0.637996  0.125163  0.000000  1
  Ir  Ir27  1  0.497167  0.364158  0.000000  1
  Ir  Ir28  1  0.871391  0.507387  0.000000  1
  Ir  Ir29  1  0.548319  0.557028  0.500000  1
  Ir  Ir30  1  0.444344  0.002663  0.500000  1
  Ir  Ir31  1  0.996055  0.443191  0.500000  1
  Ir  Ir32  1  0.719426  0.715960  0.000000  1
  Ir  Ir33  1  0.282917  0.003241  0.000000  1
  Ir  Ir34  1  0.999227  0.281168  0.000000  1
  Ir  Ir35  1  0.000477  0.000153  0.500000  1
