# generated using pymatgen
data_Tb5Dy(Si3Os)8
_symmetry_space_group_name_H-M   'P 1'
_cell_length_a   10.15091802
_cell_length_b   10.15091866
_cell_length_c   8.17538011
_cell_angle_alpha   90.11518289
_cell_angle_beta   89.88481469
_cell_angle_gamma   132.48826603
_symmetry_Int_Tables_number   1
_chemical_formula_structural   Tb5Dy(Si3Os)8
_chemical_formula_sum   'Tb5 Dy1 Si24 Os8'
_cell_volume   621.19784795
_cell_formula_units_Z   1
loop_
 _symmetry_equiv_pos_site_id
 _symmetry_equiv_pos_as_xyz
  1  'x, y, z'
loop_
 _atom_site_type_symbol
 _atom_site_label
 _atom_site_symmetry_multiplicity
 _atom_site_fract_x
 _atom_site_fract_y
 _atom_site_fract_z
 _atom_site_occupancy
  Tb  Tb0  1  0.499995  0.499982  0.499992  1
  Tb  Tb1  1  0.999982  0.999995  0.000008  1
  Tb  Tb2  1  0.501103  0.001103  0.750000  1
  Tb  Tb3  1  0.999125  0.499125  0.250000  1
  Tb  Tb4  1  0.498915  0.998915  0.250000  1
  Dy  Dy5  1  0.000696  0.500696  0.750000  1
  Si  Si6  1  0.794330  0.204099  0.500226  1
  Si  Si7  1  0.295799  0.705593  0.999956  1
  Si  Si8  1  0.205593  0.795799  0.500044  1
  Si  Si9  1  0.704099  0.294330  0.999774  1
  Si  Si10  1  0.332604  0.332182  0.833124  1
  Si  Si11  1  0.667566  0.667721  0.166948  1
  Si  Si12  1  0.167721  0.167566  0.333052  1
  Si  Si13  1  0.832182  0.832604  0.666876  1
  Si  Si14  1  0.121982  0.887220  0.727383  1
  Si  Si15  1  0.114532  0.879812  0.271851  1
  Si  Si16  1  0.612493  0.377476  0.227700  1
  Si  Si17  1  0.620470  0.385813  0.772087  1
  Si  Si18  1  0.877476  0.112493  0.272300  1
  Si  Si19  1  0.885813  0.120470  0.727913  1
  Si  Si20  1  0.387220  0.621982  0.772617  1
  Si  Si21  1  0.379812  0.614532  0.228149  1
  Si  Si22  1  0.346593  0.111566  0.504133  1
  Si  Si23  1  0.889592  0.656260  0.496428  1
  Si  Si24  1  0.388373  0.153387  0.004325  1
  Si  Si25  1  0.843899  0.610483  0.995875  1
  Si  Si26  1  0.653387  0.888373  0.495675  1
  Si  Si27  1  0.110483  0.343899  0.504125  1
  Si  Si28  1  0.611566  0.846593  0.995867  1
  Si  Si29  1  0.156260  0.389592  0.003572  1
  Os  Os30  1  0.671728  0.333737  0.499771  1
  Os  Os31  1  0.166321  0.828341  0.999072  1
  Os  Os32  1  0.328341  0.666321  0.500928  1
  Os  Os33  1  0.833737  0.171728  0.000229  1
  Os  Os34  1  0.126916  0.126596  0.627425  1
  Os  Os35  1  0.873143  0.873560  0.372432  1
  Os  Os36  1  0.373560  0.373143  0.127568  1
  Os  Os37  1  0.626596  0.626916  0.872575  1
