# generated using pymatgen
data_Y8CSBr12
_symmetry_space_group_name_H-M   'P 1'
_cell_length_a   3.95305000
_cell_length_b   12.99689043
_cell_length_c   13.72881900
_cell_angle_alpha   90.41530786
_cell_angle_beta   90.00000000
_cell_angle_gamma   90.00000000
_symmetry_Int_Tables_number   1
_chemical_formula_structural   Y8CSBr12
_chemical_formula_sum   'Y8 C1 S1 Br12'
_cell_volume   705.33191511
_cell_formula_units_Z   1
loop_
 _symmetry_equiv_pos_site_id
 _symmetry_equiv_pos_as_xyz
  1  'x, y, z'
loop_
 _atom_site_type_symbol
 _atom_site_label
 _atom_site_symmetry_multiplicity
 _atom_site_fract_x
 _atom_site_fract_y
 _atom_site_fract_z
 _atom_site_occupancy
  Y  Y0  1  0.500000  0.109122  0.355236  1
  Y  Y1  1  0.500000  0.890878  0.644764  1
  Y  Y2  1  0.500000  0.618522  0.156991  1
  Y  Y3  1  0.500000  0.381478  0.843009  1
  Y  Y4  1  0.000000  0.104036  0.570421  1
  Y  Y5  1  0.000000  0.895964  0.429579  1
  Y  Y6  1  0.000000  0.613667  0.923565  1
  Y  Y7  1  0.000000  0.386333  0.076435  1
  C  C8  1  0.500000  0.000000  0.500000  1
  S  S9  1  0.500000  0.500000  0.000000  1
  Br  Br10  1  0.500000  0.247378  0.164040  1
  Br  Br11  1  0.500000  0.752622  0.835960  1
  Br  Br12  1  0.500000  0.749539  0.337409  1
  Br  Br13  1  0.500000  0.250461  0.662591  1
  Br  Br14  1  0.000000  0.256680  0.416637  1
  Br  Br15  1  0.000000  0.743320  0.583363  1
  Br  Br16  1  0.000000  0.759838  0.086000  1
  Br  Br17  1  0.000000  0.240162  0.914000  1
  Br  Br18  1  0.000000  0.999925  0.242663  1
  Br  Br19  1  0.000000  0.000075  0.757337  1
  Br  Br20  1  0.000000  0.501350  0.260469  1
  Br  Br21  1  0.000000  0.498650  0.739531  1
