# generated using pymatgen
data_Ho3Np(SiPt)4
_symmetry_space_group_name_H-M   'P 1'
_cell_length_a   4.30063100
_cell_length_b   6.99217334
_cell_length_c   7.42378929
_cell_angle_alpha   89.75633043
_cell_angle_beta   90.00000000
_cell_angle_gamma   90.00000000
_symmetry_Int_Tables_number   1
_chemical_formula_structural   Ho3Np(SiPt)4
_chemical_formula_sum   'Ho3 Np1 Si4 Pt4'
_cell_volume   223.23694804
_cell_formula_units_Z   1
loop_
 _symmetry_equiv_pos_site_id
 _symmetry_equiv_pos_as_xyz
  1  'x, y, z'
loop_
 _atom_site_type_symbol
 _atom_site_label
 _atom_site_symmetry_multiplicity
 _atom_site_fract_x
 _atom_site_fract_y
 _atom_site_fract_z
 _atom_site_occupancy
  Ho  Ho0  1  0.250000  0.997499  0.797275  1
  Ho  Ho1  1  0.750000  0.504031  0.300299  1
  Ho  Ho2  1  0.750000  0.003363  0.202090  1
  Np  Np3  1  0.250000  0.496994  0.706033  1
  Si  Si4  1  0.250000  0.803034  0.411691  1
  Si  Si5  1  0.250000  0.311033  0.089309  1
  Si  Si6  1  0.750000  0.185669  0.586605  1
  Si  Si7  1  0.750000  0.683372  0.910729  1
  Pt  Pt8  1  0.250000  0.212561  0.418650  1
  Pt  Pt9  1  0.250000  0.703494  0.082092  1
  Pt  Pt10  1  0.750000  0.801836  0.585040  1
  Pt  Pt11  1  0.750000  0.297114  0.910186  1
