# generated using pymatgen
data_Sm2BeAlBO7
_symmetry_space_group_name_H-M   'P 1'
_cell_length_a   7.43214600
_cell_length_b   4.79399228
_cell_length_c   7.44397500
_cell_angle_alpha   89.78650844
_cell_angle_beta   90.00000000
_cell_angle_gamma   90.00000000
_symmetry_Int_Tables_number   1
_chemical_formula_structural   Sm2BeAlBO7
_chemical_formula_sum   'Sm4 Be2 Al2 B2 O14'
_cell_volume   265.22438673
_cell_formula_units_Z   2
loop_
 _symmetry_equiv_pos_site_id
 _symmetry_equiv_pos_as_xyz
  1  'x, y, z'
loop_
 _atom_site_type_symbol
 _atom_site_label
 _atom_site_symmetry_multiplicity
 _atom_site_fract_x
 _atom_site_fract_y
 _atom_site_fract_z
 _atom_site_occupancy
  Sm  Sm0  1  0.662607  0.511249  0.578869  1
  Sm  Sm1  1  0.162607  0.488751  0.421131  1
  Sm  Sm2  1  0.336093  0.503416  0.906026  1
  Sm  Sm3  1  0.836093  0.496584  0.093974  1
  Be  Be4  1  0.865296  0.949506  0.385418  1
  Be  Be5  1  0.365296  0.050494  0.614582  1
  Al  Al6  1  0.498033  0.000877  0.245734  1
  Al  Al7  1  0.998033  0.999123  0.754266  1
  B  B8  1  0.135462  0.938479  0.115115  1
  B  B9  1  0.635462  0.061521  0.884885  1
  O  O10  1  0.577129  0.205090  0.061721  1
  O  O11  1  0.077129  0.794910  0.938279  1
  O  O12  1  0.423565  0.211887  0.422387  1
  O  O13  1  0.923565  0.788113  0.577613  1
  O  O14  1  0.674858  0.785627  0.317657  1
  O  O15  1  0.174858  0.214373  0.682343  1
  O  O16  1  0.315000  0.799878  0.163110  1
  O  O17  1  0.815000  0.200122  0.836890  1
  O  O18  1  0.859967  0.279969  0.386324  1
  O  O19  1  0.359967  0.720031  0.613676  1
  O  O20  1  0.141460  0.240120  0.104429  1
  O  O21  1  0.641460  0.759880  0.895571  1
  O  O22  1  0.510528  0.171386  0.752585  1
  O  O23  1  0.010528  0.828614  0.247415  1
