# generated using pymatgen
data_YNp3O12
_symmetry_space_group_name_H-M   'P 1'
_cell_length_a   7.16813329
_cell_length_b   7.28189944
_cell_length_c   7.15805416
_cell_angle_alpha   109.78355782
_cell_angle_beta   109.45790707
_cell_angle_gamma   109.72728398
_symmetry_Int_Tables_number   1
_chemical_formula_structural   YNp3O12
_chemical_formula_sum   'Y1 Np3 O12'
_cell_volume   285.63382513
_cell_formula_units_Z   1
loop_
 _symmetry_equiv_pos_site_id
 _symmetry_equiv_pos_as_xyz
  1  'x, y, z'
loop_
 _atom_site_type_symbol
 _atom_site_label
 _atom_site_symmetry_multiplicity
 _atom_site_fract_x
 _atom_site_fract_y
 _atom_site_fract_z
 _atom_site_occupancy
  Y  Y0  1  0.499941  0.996532  0.996611  1
  Np  Np1  1  0.500041  0.496608  0.496554  1
  Np  Np2  1  0.999942  0.496536  0.996637  1
  Np  Np3  1  0.000048  0.996677  0.496648  1
  O  O4  1  0.243011  0.428104  0.230984  1
  O  O5  1  0.756944  0.565031  0.762126  1
  O  O6  1  0.198234  0.996920  0.752551  1
  O  O7  1  0.801886  0.996557  0.240817  1
  O  O8  1  0.263201  0.205359  0.514353  1
  O  O9  1  0.736895  0.788018  0.478930  1
  O  O10  1  0.745869  0.250832  0.951646  1
  O  O11  1  0.253900  0.742166  0.041604  1
  O  O12  1  0.008922  0.698761  0.257591  1
  O  O13  1  0.991035  0.294431  0.735682  1
  O  O14  1  0.549958  0.288794  0.301015  1
  O  O15  1  0.450171  0.704399  0.691970  1
