# generated using pymatgen
data_Dy4ErTa3(P3Ir4)4
_symmetry_space_group_name_H-M   'P 1'
_cell_length_a   12.75879700
_cell_length_b   12.75879734
_cell_length_c   3.99109000
_cell_angle_alpha   90.00000000
_cell_angle_beta   90.00000000
_cell_angle_gamma   119.99999654
_symmetry_Int_Tables_number   1
_chemical_formula_structural   Dy4ErTa3(P3Ir4)4
_chemical_formula_sum   'Dy4 Er1 Ta3 P12 Ir16'
_cell_volume   562.65429038
_cell_formula_units_Z   1
loop_
 _symmetry_equiv_pos_site_id
 _symmetry_equiv_pos_as_xyz
  1  'x, y, z'
loop_
 _atom_site_type_symbol
 _atom_site_label
 _atom_site_symmetry_multiplicity
 _atom_site_fract_x
 _atom_site_fract_y
 _atom_site_fract_z
 _atom_site_occupancy
  Dy  Dy0  1  0.666667  0.333333  0.500000  1
  Dy  Dy1  1  0.999994  0.813700  0.000000  1
  Dy  Dy2  1  0.186300  0.186294  0.000000  1
  Dy  Dy3  1  0.813706  0.000006  0.000000  1
  Er  Er4  1  0.333333  0.666667  0.500000  1
  Ta  Ta5  1  0.000010  0.452979  0.500000  1
  Ta  Ta6  1  0.547021  0.547031  0.500000  1
  Ta  Ta7  1  0.452969  0.999990  0.500000  1
  P  P8  1  0.999978  0.643347  0.500000  1
  P  P9  1  0.356653  0.356631  0.500000  1
  P  P10  1  0.643369  0.000022  0.500000  1
  P  P11  1  0.517123  0.685000  0.000000  1
  P  P12  1  0.315000  0.832123  0.000000  1
  P  P13  1  0.167877  0.482877  0.000000  1
  P  P14  1  0.482723  0.167729  0.000000  1
  P  P15  1  0.685007  0.517277  0.000000  1
  P  P16  1  0.832271  0.314993  0.000000  1
  P  P17  1  0.000006  0.176320  0.500000  1
  P  P18  1  0.823680  0.823686  0.500000  1
  P  P19  1  0.176314  0.999994  0.500000  1
  Ir  Ir20  1  0.506557  0.863584  0.000000  1
  Ir  Ir21  1  0.136416  0.642975  0.000000  1
  Ir  Ir22  1  0.357025  0.493443  0.000000  1
  Ir  Ir23  1  0.493168  0.357067  0.000000  1
  Ir  Ir24  1  0.863901  0.506832  0.000000  1
  Ir  Ir25  1  0.642933  0.136099  0.000000  1
  Ir  Ir26  1  0.000015  0.283728  0.000000  1
  Ir  Ir27  1  0.716272  0.716287  0.000000  1
  Ir  Ir28  1  0.283713  0.999985  0.000000  1
  Ir  Ir29  1  0.626791  0.804537  0.500000  1
  Ir  Ir30  1  0.195463  0.822254  0.500000  1
  Ir  Ir31  1  0.177746  0.373209  0.500000  1
  Ir  Ir32  1  0.373127  0.177693  0.500000  1
  Ir  Ir33  1  0.804565  0.626873  0.500000  1
  Ir  Ir34  1  0.822307  0.195435  0.500000  1
  Ir  Ir35  1  0.000000  0.000000  0.500000  1
