# generated using pymatgen
data_Hf4In2Cu3Ir
_symmetry_space_group_name_H-M   'P 1'
_cell_length_a   7.29066802
_cell_length_b   7.29066802
_cell_length_c   6.81241869
_cell_angle_alpha   90.17078965
_cell_angle_beta   90.17078965
_cell_angle_gamma   90.06565509
_symmetry_Int_Tables_number   1
_chemical_formula_structural   Hf4In2Cu3Ir
_chemical_formula_sum   'Hf8 In4 Cu6 Ir2'
_cell_volume   362.10275490
_cell_formula_units_Z   2
loop_
 _symmetry_equiv_pos_site_id
 _symmetry_equiv_pos_as_xyz
  1  'x, y, z'
loop_
 _atom_site_type_symbol
 _atom_site_label
 _atom_site_symmetry_multiplicity
 _atom_site_fract_x
 _atom_site_fract_y
 _atom_site_fract_z
 _atom_site_occupancy
  Hf  Hf0  1  0.150292  0.150292  0.008431  1
  Hf  Hf1  1  0.849708  0.849708  0.991569  1
  Hf  Hf2  1  0.651353  0.348647  0.500000  1
  Hf  Hf3  1  0.348647  0.651353  0.500000  1
  Hf  Hf4  1  0.683573  0.316427  0.000000  1
  Hf  Hf5  1  0.316427  0.683573  0.000000  1
  Hf  Hf6  1  0.809202  0.809202  0.504620  1
  Hf  Hf7  1  0.190798  0.190798  0.495380  1
  In  In8  1  0.503260  0.996630  0.249320  1
  In  In9  1  0.496740  0.003370  0.750680  1
  In  In10  1  0.996630  0.503260  0.249320  1
  In  In11  1  0.003370  0.496740  0.750680  1
  Cu  Cu12  1  0.633476  0.633476  0.202247  1
  Cu  Cu13  1  0.878695  0.123780  0.707881  1
  Cu  Cu14  1  0.876220  0.121305  0.292119  1
  Cu  Cu15  1  0.366524  0.366524  0.797753  1
  Cu  Cu16  1  0.121305  0.876220  0.292119  1
  Cu  Cu17  1  0.123780  0.878695  0.707881  1
  Ir  Ir18  1  0.377341  0.377341  0.225680  1
  Ir  Ir19  1  0.622659  0.622659  0.774320  1
