# generated using pymatgen
data_SmDyTa2Bi2O11
_symmetry_space_group_name_H-M   'P 1'
_cell_length_a   6.61007564
_cell_length_b   7.70886212
_cell_length_c   9.77485741
_cell_angle_alpha   101.41306859
_cell_angle_beta   90.18705367
_cell_angle_gamma   90.16443387
_symmetry_Int_Tables_number   1
_chemical_formula_structural   SmDyTa2Bi2O11
_chemical_formula_sum   'Sm2 Dy2 Ta4 Bi4 O22'
_cell_volume   488.23428851
_cell_formula_units_Z   2
loop_
 _symmetry_equiv_pos_site_id
 _symmetry_equiv_pos_as_xyz
  1  'x, y, z'
loop_
 _atom_site_type_symbol
 _atom_site_label
 _atom_site_symmetry_multiplicity
 _atom_site_fract_x
 _atom_site_fract_y
 _atom_site_fract_z
 _atom_site_occupancy
  Sm  Sm0  1  0.748433  0.368207  0.483491  1
  Sm  Sm1  1  0.251567  0.631793  0.516509  1
  Dy  Dy2  1  0.758895  0.872116  0.488193  1
  Dy  Dy3  1  0.241105  0.127884  0.511807  1
  Ta  Ta4  1  0.912178  0.702192  0.805998  1
  Ta  Ta5  1  0.087822  0.297808  0.194002  1
  Ta  Ta6  1  0.914344  0.199334  0.805484  1
  Ta  Ta7  1  0.085656  0.800666  0.194516  1
  Bi  Bi8  1  0.436059  0.957749  0.815241  1
  Bi  Bi9  1  0.563941  0.042251  0.184759  1
  Bi  Bi10  1  0.387388  0.455722  0.827405  1
  Bi  Bi11  1  0.612612  0.544278  0.172595  1
  O  O12  1  0.216853  0.726058  0.759857  1
  O  O13  1  0.783147  0.273942  0.240143  1
  O  O14  1  0.630575  0.663319  0.843975  1
  O  O15  1  0.369425  0.336681  0.156025  1
  O  O16  1  0.630366  0.254015  0.841171  1
  O  O17  1  0.369634  0.745985  0.158829  1
  O  O18  1  0.893132  0.148463  0.588641  1
  O  O19  1  0.106868  0.851537  0.411359  1
  O  O20  1  0.215854  0.150447  0.752184  1
  O  O21  1  0.784146  0.849553  0.247816  1
  O  O22  1  0.893238  0.645778  0.592251  1
  O  O23  1  0.106762  0.354222  0.407749  1
  O  O24  1  0.027526  0.551257  0.202328  1
  O  O25  1  0.972474  0.448743  0.797672  1
  O  O26  1  0.996448  0.781648  0.001929  1
  O  O27  1  0.003552  0.218352  0.998071  1
  O  O28  1  0.574705  0.600302  0.392521  1
  O  O29  1  0.425295  0.399698  0.607479  1
  O  O30  1  0.166977  0.054946  0.217641  1
  O  O31  1  0.833023  0.945054  0.782359  1
  O  O32  1  0.540827  0.100958  0.402597  1
  O  O33  1  0.459173  0.899042  0.597403  1
