# generated using pymatgen
data_Ta2MnV(PO4)6
_symmetry_space_group_name_H-M   'P 1'
_cell_length_a   8.56702763
_cell_length_b   8.56305510
_cell_length_c   8.83140700
_cell_angle_alpha   90.02293690
_cell_angle_beta   61.08069010
_cell_angle_gamma   119.44889005
_symmetry_Int_Tables_number   1
_chemical_formula_structural   Ta2MnV(PO4)6
_chemical_formula_sum   'Ta2 Mn1 V1 P6 O24'
_cell_volume   469.26034036
_cell_formula_units_Z   1
loop_
 _symmetry_equiv_pos_site_id
 _symmetry_equiv_pos_as_xyz
  1  'x, y, z'
loop_
 _atom_site_type_symbol
 _atom_site_label
 _atom_site_symmetry_multiplicity
 _atom_site_fract_x
 _atom_site_fract_y
 _atom_site_fract_z
 _atom_site_occupancy
  Ta  Ta0  1  0.776671  0.138948  0.085075  1
  Ta  Ta1  1  0.779803  0.639569  0.579655  1
  Mn  Mn2  1  0.213065  0.357006  0.427614  1
  V  V3  1  0.212966  0.858282  0.928333  1
  P  P4  1  0.274825  0.037167  0.252975  1
  P  P5  1  0.717707  0.742935  0.244288  1
  P  P6  1  0.277301  0.238285  0.745270  1
  P  P7  1  0.707997  0.972507  0.751284  1
  P  P8  1  0.016169  0.538440  0.745984  1
  P  P9  1  0.012451  0.472720  0.249683  1
  O  O10  1  0.485884  0.083134  0.231773  1
  O  O11  1  0.876316  0.370722  0.918961  1
  O  O12  1  0.880404  0.144786  0.588528  1
  O  O13  1  0.854220  0.555095  0.725585  1
  O  O14  1  0.120318  0.633725  0.081978  1
  O  O15  1  0.088522  0.858346  0.420437  1
  O  O16  1  0.184277  0.474404  0.259848  1
  O  O17  1  0.146889  0.721865  0.778460  1
  O  O18  1  0.172466  0.520470  0.578018  1
  O  O19  1  0.254297  0.202797  0.269159  1
  O  O20  1  0.287152  0.994533  0.078882  1
  O  O21  1  0.691216  0.909243  0.233266  1
  O  O22  1  0.545668  0.562500  0.253445  1
  O  O23  1  0.264003  0.245109  0.580779  1
  O  O24  1  0.855563  0.491208  0.422613  1
  O  O25  1  0.076597  0.203529  0.921645  1
  O  O26  1  0.939344  0.809138  0.068640  1
  O  O27  1  0.485239  0.910250  0.790393  1
  O  O28  1  0.733568  0.731809  0.411178  1
  O  O29  1  0.476003  0.423332  0.719720  1
  O  O30  1  0.306000  0.077841  0.773449  1
  O  O31  1  0.703362  0.998471  0.926192  1
  O  O32  1  0.718523  0.796886  0.726576  1
  O  O33  1  0.865216  0.284953  0.230315  1
