# generated using pymatgen
data_Eu5Ni2Hg
_symmetry_space_group_name_H-M   'P 1'
_cell_length_a   9.25925761
_cell_length_b   9.25925741
_cell_length_c   9.25925692
_cell_angle_alpha   129.82329593
_cell_angle_beta   129.82329394
_cell_angle_gamma   73.68940986
_symmetry_Int_Tables_number   1
_chemical_formula_structural   Eu5Ni2Hg
_chemical_formula_sum   'Eu10 Ni4 Hg2'
_cell_volume   456.86164023
_cell_formula_units_Z   2
loop_
 _symmetry_equiv_pos_site_id
 _symmetry_equiv_pos_as_xyz
  1  'x, y, z'
loop_
 _atom_site_type_symbol
 _atom_site_label
 _atom_site_symmetry_multiplicity
 _atom_site_fract_x
 _atom_site_fract_y
 _atom_site_fract_z
 _atom_site_occupancy
  Eu  Eu0  1  0.500000  0.500000  0.000000  1
  Eu  Eu1  1  0.000000  0.000000  0.000000  1
  Eu  Eu2  1  0.535337  0.035337  0.840368  1
  Eu  Eu3  1  0.194968  0.694968  0.159632  1
  Eu  Eu4  1  0.035337  0.194968  0.500000  1
  Eu  Eu5  1  0.694968  0.535337  0.500000  1
  Eu  Eu6  1  0.464663  0.964663  0.159632  1
  Eu  Eu7  1  0.805032  0.305032  0.840368  1
  Eu  Eu8  1  0.964663  0.805032  0.500000  1
  Eu  Eu9  1  0.305032  0.464663  0.500000  1
  Ni  Ni10  1  0.111542  0.611542  0.723082  1
  Ni  Ni11  1  0.888458  0.388458  0.276918  1
  Ni  Ni12  1  0.611542  0.888458  0.500000  1
  Ni  Ni13  1  0.388458  0.111542  0.500000  1
  Hg  Hg14  1  0.250000  0.250000  0.000000  1
  Hg  Hg15  1  0.750000  0.750000  0.000000  1
