# generated using pymatgen
data_Mo2Ir4OsRu
_symmetry_space_group_name_H-M   'P 1'
_cell_length_a   5.51592000
_cell_length_b   5.54470744
_cell_length_c   4.41035900
_cell_angle_alpha   90.00000000
_cell_angle_beta   90.00000000
_cell_angle_gamma   119.82840220
_symmetry_Int_Tables_number   1
_chemical_formula_structural   Mo2Ir4OsRu
_chemical_formula_sum   'Mo2 Ir4 Os1 Ru1'
_cell_volume   117.01715295
_cell_formula_units_Z   1
loop_
 _symmetry_equiv_pos_site_id
 _symmetry_equiv_pos_as_xyz
  1  'x, y, z'
loop_
 _atom_site_type_symbol
 _atom_site_label
 _atom_site_symmetry_multiplicity
 _atom_site_fract_x
 _atom_site_fract_y
 _atom_site_fract_z
 _atom_site_occupancy
  Mo  Mo0  1  0.667844  0.335687  0.250000  1
  Mo  Mo1  1  0.331574  0.663151  0.750000  1
  Ir  Ir2  1  0.835665  0.167538  0.750000  1
  Ir  Ir3  1  0.331875  0.167538  0.750000  1
  Ir  Ir4  1  0.165745  0.833234  0.250000  1
  Ir  Ir5  1  0.667488  0.833234  0.250000  1
  Os  Os6  1  0.833321  0.666642  0.750000  1
  Ru  Ru7  1  0.166487  0.332975  0.250000  1
