# generated using pymatgen
data_InGa7Cl16
_symmetry_space_group_name_H-M   'P 1'
_cell_length_a   7.28199100
_cell_length_b   10.05802489
_cell_length_c   10.03164908
_cell_angle_alpha   88.68689469
_cell_angle_beta   90.00000000
_cell_angle_gamma   90.00000000
_symmetry_Int_Tables_number   1
_chemical_formula_structural   InGa7Cl16
_chemical_formula_sum   'In1 Ga7 Cl16'
_cell_volume   734.54957522
_cell_formula_units_Z   1
loop_
 _symmetry_equiv_pos_site_id
 _symmetry_equiv_pos_as_xyz
  1  'x, y, z'
loop_
 _atom_site_type_symbol
 _atom_site_label
 _atom_site_symmetry_multiplicity
 _atom_site_fract_x
 _atom_site_fract_y
 _atom_site_fract_z
 _atom_site_occupancy
  In  In0  1  0.676444  0.250000  0.250000  1
  Ga  Ga1  1  0.250800  0.994341  0.179295  1
  Ga  Ga2  1  0.845817  0.750000  0.250000  1
  Ga  Ga3  1  0.250800  0.505659  0.320704  1
  Ga  Ga4  1  0.749558  0.502369  0.685375  1
  Ga  Ga5  1  0.150857  0.250000  0.750000  1
  Ga  Ga6  1  0.350718  0.750000  0.750000  1
  Ga  Ga7  1  0.749558  0.997631  0.814625  1
  Cl  Cl8  1  0.320811  0.170908  0.055558  1
  Cl  Cl9  1  0.165514  0.823532  0.059551  1
  Cl  Cl10  1  0.009475  0.472388  0.190507  1
  Cl  Cl11  1  0.493893  0.548043  0.195676  1
  Cl  Cl12  1  0.009475  0.027611  0.309494  1
  Cl  Cl13  1  0.493893  0.951956  0.304325  1
  Cl  Cl14  1  0.320811  0.329092  0.444442  1
  Cl  Cl15  1  0.165514  0.676468  0.440449  1
  Cl  Cl16  1  0.827175  0.328098  0.566824  1
  Cl  Cl17  1  0.670224  0.676515  0.559984  1
  Cl  Cl18  1  0.505465  0.035951  0.688754  1
  Cl  Cl19  1  0.995167  0.964111  0.690870  1
  Cl  Cl20  1  0.505465  0.464048  0.811247  1
  Cl  Cl21  1  0.995167  0.535888  0.809131  1
  Cl  Cl22  1  0.827175  0.171902  0.933176  1
  Cl  Cl23  1  0.670224  0.823485  0.940016  1
