# generated using pymatgen
data_Y5ErAl24Ir3Os5
_symmetry_space_group_name_H-M   'P 1'
_cell_length_a   8.78975855
_cell_length_b   8.80067982
_cell_length_c   9.58253806
_cell_angle_alpha   89.99226667
_cell_angle_beta   89.84299377
_cell_angle_gamma   119.45123510
_symmetry_Int_Tables_number   1
_chemical_formula_structural   Y5ErAl24Ir3Os5
_chemical_formula_sum   'Y5 Er1 Al24 Ir3 Os5'
_cell_volume   645.47162524
_cell_formula_units_Z   1
loop_
 _symmetry_equiv_pos_site_id
 _symmetry_equiv_pos_as_xyz
  1  'x, y, z'
loop_
 _atom_site_type_symbol
 _atom_site_label
 _atom_site_symmetry_multiplicity
 _atom_site_fract_x
 _atom_site_fract_y
 _atom_site_fract_z
 _atom_site_occupancy
  Y  Y0  1  0.188429  0.385236  0.251305  1
  Y  Y1  1  0.811549  0.614531  0.748685  1
  Y  Y2  1  0.613084  0.811588  0.250156  1
  Y  Y3  1  0.387223  0.188461  0.749835  1
  Y  Y4  1  0.194949  0.808517  0.250859  1
  Er  Er5  1  0.804402  0.191794  0.749073  1
  Al  Al6  1  0.333648  0.668175  0.024676  1
  Al  Al7  1  0.666552  0.331683  0.974997  1
  Al  Al8  1  0.667790  0.332276  0.524342  1
  Al  Al9  1  0.332396  0.667525  0.475981  1
  Al  Al10  1  0.162328  0.326571  0.576699  1
  Al  Al11  1  0.837358  0.673260  0.423545  1
  Al  Al12  1  0.672856  0.836917  0.575945  1
  Al  Al13  1  0.835742  0.673568  0.076677  1
  Al  Al14  1  0.327300  0.163383  0.424292  1
  Al  Al15  1  0.163971  0.326287  0.923080  1
  Al  Al16  1  0.164201  0.835264  0.575833  1
  Al  Al17  1  0.326829  0.163177  0.076443  1
  Al  Al18  1  0.835786  0.164742  0.424545  1
  Al  Al19  1  0.673323  0.837113  0.923316  1
  Al  Al20  1  0.834128  0.163026  0.075317  1
  Al  Al21  1  0.165874  0.836996  0.924313  1
  Al  Al22  1  0.561141  0.125771  0.249669  1
  Al  Al23  1  0.439339  0.874553  0.750321  1
  Al  Al24  1  0.875128  0.439507  0.250537  1
  Al  Al25  1  0.124530  0.560024  0.749490  1
  Al  Al26  1  0.561265  0.438842  0.249681  1
  Al  Al27  1  0.438713  0.561188  0.750314  1
  Al  Al28  1  0.998986  0.001616  0.250049  1
  Al  Al29  1  0.000620  0.998789  0.749944  1
  Ir  Ir30  1  0.999839  0.499717  0.999784  1
  Ir  Ir31  1  0.500057  0.499925  0.999971  1
  Ir  Ir32  1  0.500065  0.499927  0.500032  1
  Os  Os33  1  0.500388  0.000245  0.999686  1
  Os  Os34  1  0.500390  0.000229  0.500320  1
  Os  Os35  1  0.999778  0.499639  0.500292  1
  Os  Os36  1  0.000024  0.999982  0.999994  1
  Os  Os37  1  0.000018  0.999956  0.500000  1
