# generated using pymatgen
data_Cd22Ni2Rh
_symmetry_space_group_name_H-M   'P 1'
_cell_length_a   8.72360000
_cell_length_b   8.72359972
_cell_length_c   8.66950200
_cell_angle_alpha   71.13379742
_cell_angle_beta   71.13380498
_cell_angle_gamma   57.57916036
_symmetry_Int_Tables_number   1
_chemical_formula_structural   Cd22Ni2Rh
_chemical_formula_sum   'Cd22 Ni2 Rh1'
_cell_volume   517.62983680
_cell_formula_units_Z   1
loop_
 _symmetry_equiv_pos_site_id
 _symmetry_equiv_pos_as_xyz
  1  'x, y, z'
loop_
 _atom_site_type_symbol
 _atom_site_label
 _atom_site_symmetry_multiplicity
 _atom_site_fract_x
 _atom_site_fract_y
 _atom_site_fract_z
 _atom_site_occupancy
  Cd  Cd0  1  0.351912  0.738140  0.306157  1
  Cd  Cd1  1  0.648088  0.261860  0.693843  1
  Cd  Cd2  1  0.261860  0.648088  0.693843  1
  Cd  Cd3  1  0.738140  0.351912  0.306157  1
  Cd  Cd4  1  0.675949  0.324051  0.000000  1
  Cd  Cd5  1  0.324051  0.675949  0.000000  1
  Cd  Cd6  1  0.829316  0.829316  0.785716  1
  Cd  Cd7  1  0.170684  0.170684  0.214284  1
  Cd  Cd8  1  0.978826  0.978826  0.176253  1
  Cd  Cd9  1  0.021174  0.021174  0.823747  1
  Cd  Cd10  1  0.351233  0.351233  0.269468  1
  Cd  Cd11  1  0.648767  0.648767  0.730532  1
  Cd  Cd12  1  0.687605  0.687605  0.372753  1
  Cd  Cd13  1  0.312395  0.312395  0.627247  1
  Cd  Cd14  1  0.663015  0.026218  0.463217  1
  Cd  Cd15  1  0.336985  0.973782  0.536783  1
  Cd  Cd16  1  0.973782  0.336985  0.536783  1
  Cd  Cd17  1  0.026218  0.663015  0.463217  1
  Cd  Cd18  1  0.612791  0.001449  0.095780  1
  Cd  Cd19  1  0.387209  0.998551  0.904220  1
  Cd  Cd20  1  0.998551  0.387209  0.904220  1
  Cd  Cd21  1  0.001449  0.612791  0.095780  1
  Ni  Ni22  1  0.659967  0.659967  0.051771  1
  Ni  Ni23  1  0.340033  0.340033  0.948229  1
  Rh  Rh24  1  0.000000  0.000000  0.500000  1
