# generated using pymatgen
data_La3Sc3TcSb2
_symmetry_space_group_name_H-M   'P 1'
_cell_length_a   8.11935500
_cell_length_b   8.11935465
_cell_length_c   4.37232000
_cell_angle_alpha   90.00000000
_cell_angle_beta   90.00000000
_cell_angle_gamma   120.00000550
_symmetry_Int_Tables_number   1
_chemical_formula_structural   La3Sc3TcSb2
_chemical_formula_sum   'La3 Sc3 Tc1 Sb2'
_cell_volume   249.62356948
_cell_formula_units_Z   1
loop_
 _symmetry_equiv_pos_site_id
 _symmetry_equiv_pos_as_xyz
  1  'x, y, z'
loop_
 _atom_site_type_symbol
 _atom_site_label
 _atom_site_symmetry_multiplicity
 _atom_site_fract_x
 _atom_site_fract_y
 _atom_site_fract_z
 _atom_site_occupancy
  La  La0  1  0.602968  0.000000  0.500000  1
  La  La1  1  0.397032  0.397032  0.500000  1
  La  La2  1  0.000000  0.602968  0.500000  1
  Sc  Sc3  1  0.220048  0.000000  0.000000  1
  Sc  Sc4  1  0.779952  0.779952  0.000000  1
  Sc  Sc5  1  0.000000  0.220048  0.000000  1
  Tc  Tc6  1  0.000000  0.000000  0.500000  1
  Sb  Sb7  1  0.333333  0.666667  0.000000  1
  Sb  Sb8  1  0.666667  0.333333  0.000000  1
