# generated using pymatgen
data_La8Sc12Si15As
_symmetry_space_group_name_H-M   'P 1'
_cell_length_a   7.32312200
_cell_length_b   7.61129036
_cell_length_c   14.28716700
_cell_angle_alpha   90.00000000
_cell_angle_beta   90.00000000
_cell_angle_gamma   90.40670501
_symmetry_Int_Tables_number   1
_chemical_formula_structural   La8Sc12Si15As
_chemical_formula_sum   'La8 Sc12 Si15 As1'
_cell_volume   796.32387952
_cell_formula_units_Z   1
loop_
 _symmetry_equiv_pos_site_id
 _symmetry_equiv_pos_as_xyz
  1  'x, y, z'
loop_
 _atom_site_type_symbol
 _atom_site_label
 _atom_site_symmetry_multiplicity
 _atom_site_fract_x
 _atom_site_fract_y
 _atom_site_fract_z
 _atom_site_occupancy
  La  La0  1  0.012162  0.171772  0.402372  1
  La  La1  1  0.511636  0.327942  0.401856  1
  La  La2  1  0.491994  0.668109  0.904393  1
  La  La3  1  0.491994  0.668109  0.595607  1
  La  La4  1  0.988861  0.829629  0.598889  1
  La  La5  1  0.988861  0.829629  0.901111  1
  La  La6  1  0.511636  0.327942  0.098144  1
  La  La7  1  0.012162  0.171772  0.097628  1
  Sc  Sc8  1  0.328200  0.174824  0.626588  1
  Sc  Sc9  1  0.670132  0.824600  0.374046  1
  Sc  Sc10  1  0.661486  0.003271  0.750000  1
  Sc  Sc11  1  0.169553  0.675718  0.374496  1
  Sc  Sc12  1  0.828311  0.326374  0.875219  1
  Sc  Sc13  1  0.828311  0.326374  0.624781  1
  Sc  Sc14  1  0.840840  0.502718  0.250000  1
  Sc  Sc15  1  0.341398  0.997021  0.250000  1
  Sc  Sc16  1  0.328200  0.174824  0.873412  1
  Sc  Sc17  1  0.169553  0.675718  0.125504  1
  Sc  Sc18  1  0.670132  0.824600  0.125954  1
  Sc  Sc19  1  0.157037  0.493650  0.750000  1
  Si  Si20  1  0.465658  0.627435  0.250000  1
  Si  Si21  1  0.021893  0.140668  0.750000  1
  Si  Si22  1  0.531564  0.370529  0.750000  1
  Si  Si23  1  0.150739  0.464114  0.540666  1
  Si  Si24  1  0.967661  0.872494  0.250000  1
  Si  Si25  1  0.710133  0.114317  0.250000  1
  Si  Si26  1  0.849556  0.537890  0.040212  1
  Si  Si27  1  0.349946  0.963398  0.039384  1
  Si  Si28  1  0.150739  0.464114  0.959334  1
  Si  Si29  1  0.648872  0.036319  0.540666  1
  Si  Si30  1  0.349946  0.963398  0.460616  1
  Si  Si31  1  0.849556  0.537890  0.459788  1
  Si  Si32  1  0.791212  0.616771  0.750000  1
  Si  Si33  1  0.210270  0.386451  0.250000  1
  Si  Si34  1  0.648872  0.036319  0.959334  1
  As  As35  1  0.300926  0.873296  0.750000  1
