# generated using pymatgen
data_Er16InTc2Hg5
_symmetry_space_group_name_H-M   'P 1'
_cell_length_a   10.24148588
_cell_length_b   10.24148886
_cell_length_c   7.00402334
_cell_angle_alpha   89.70364229
_cell_angle_beta   90.29684059
_cell_angle_gamma   120.24136415
_symmetry_Int_Tables_number   1
_chemical_formula_structural   Er16InTc2Hg5
_chemical_formula_sum   'Er16 In1 Tc2 Hg5'
_cell_volume   634.65123623
_cell_formula_units_Z   1
loop_
 _symmetry_equiv_pos_site_id
 _symmetry_equiv_pos_as_xyz
  1  'x, y, z'
loop_
 _atom_site_type_symbol
 _atom_site_label
 _atom_site_symmetry_multiplicity
 _atom_site_fract_x
 _atom_site_fract_y
 _atom_site_fract_z
 _atom_site_occupancy
  Er  Er0  1  0.532728  0.068754  0.800551  1
  Er  Er1  1  0.931265  0.467283  0.800556  1
  Er  Er2  1  0.534790  0.465214  0.803795  1
  Er  Er3  1  0.469603  0.930756  0.299749  1
  Er  Er4  1  0.069237  0.530398  0.299745  1
  Er  Er5  1  0.464151  0.535852  0.301222  1
  Er  Er6  1  0.820251  0.647777  0.487004  1
  Er  Er7  1  0.352217  0.179747  0.487003  1
  Er  Er8  1  0.825768  0.174244  0.490790  1
  Er  Er9  1  0.173935  0.348547  0.988206  1
  Er  Er10  1  0.651455  0.826069  0.988214  1
  Er  Er11  1  0.173956  0.826051  0.002039  1
  Er  Er12  1  0.667418  0.332574  0.176022  1
  Er  Er13  1  0.334522  0.665483  0.676239  1
  Er  Er14  1  0.000713  0.999271  0.768018  1
  Er  Er15  1  0.000410  0.999588  0.269267  1
  In  In16  1  0.164105  0.835848  0.539642  1
  Tc  Tc17  1  0.666642  0.333363  0.569088  1
  Tc  Tc18  1  0.333670  0.666323  0.067194  1
  Hg  Hg19  1  0.833349  0.667602  0.043260  1
  Hg  Hg20  1  0.332386  0.166650  0.043248  1
  Hg  Hg21  1  0.833431  0.166585  0.045256  1
  Hg  Hg22  1  0.166369  0.332378  0.544896  1
  Hg  Hg23  1  0.667631  0.833641  0.544903  1
