# generated using pymatgen
data_PrSm7(SiI6)2
_symmetry_space_group_name_H-M   'P 1'
_cell_length_a   4.30168100
_cell_length_b   14.34839258
_cell_length_c   15.12270045
_cell_angle_alpha   90.13854467
_cell_angle_beta   90.00000000
_cell_angle_gamma   90.00000000
_symmetry_Int_Tables_number   1
_chemical_formula_structural   PrSm7(SiI6)2
_chemical_formula_sum   'Pr1 Sm7 Si2 I12'
_cell_volume   933.40372974
_cell_formula_units_Z   1
loop_
 _symmetry_equiv_pos_site_id
 _symmetry_equiv_pos_as_xyz
  1  'x, y, z'
loop_
 _atom_site_type_symbol
 _atom_site_label
 _atom_site_symmetry_multiplicity
 _atom_site_fract_x
 _atom_site_fract_y
 _atom_site_fract_z
 _atom_site_occupancy
  Pr  Pr0  1  0.000000  0.386458  0.076101  1
  Sm  Sm1  1  0.500000  0.114079  0.347609  1
  Sm  Sm2  1  0.500000  0.886006  0.652239  1
  Sm  Sm3  1  0.500000  0.614558  0.152922  1
  Sm  Sm4  1  0.500000  0.385602  0.846974  1
  Sm  Sm5  1  0.000000  0.112198  0.575021  1
  Sm  Sm6  1  0.000000  0.887918  0.424694  1
  Sm  Sm7  1  0.000000  0.613712  0.923828  1
  Si  Si8  1  0.500000  0.999999  0.499954  1
  Si  Si9  1  0.500000  0.502241  0.998499  1
  I  I10  1  0.500000  0.241840  0.164745  1
  I  I11  1  0.500000  0.755032  0.837448  1
  I  I12  1  0.500000  0.745690  0.338017  1
  I  I13  1  0.500000  0.254209  0.662105  1
  I  I14  1  0.000000  0.257596  0.414445  1
  I  I15  1  0.000000  0.742538  0.585648  1
  I  I16  1  0.000000  0.757669  0.085976  1
  I  I17  1  0.000000  0.240819  0.911727  1
  I  I18  1  0.000000  0.999089  0.241483  1
  I  I19  1  0.000000  0.000730  0.758310  1
  I  I20  1  0.000000  0.501368  0.260977  1
  I  I21  1  0.000000  0.500648  0.741279  1
