# generated using pymatgen
data_Pr2Al20TcIrRuRh
_symmetry_space_group_name_H-M   'P 1'
_cell_length_a   6.90654623
_cell_length_b   6.89939478
_cell_length_c   9.23493600
_cell_angle_alpha   90.17496704
_cell_angle_beta   90.16381868
_cell_angle_gamma   96.97094814
_symmetry_Int_Tables_number   1
_chemical_formula_structural   Pr2Al20TcIrRuRh
_chemical_formula_sum   'Pr2 Al20 Tc1 Ir1 Ru1 Rh1'
_cell_volume   436.79652651
_cell_formula_units_Z   1
loop_
 _symmetry_equiv_pos_site_id
 _symmetry_equiv_pos_as_xyz
  1  'x, y, z'
loop_
 _atom_site_type_symbol
 _atom_site_label
 _atom_site_symmetry_multiplicity
 _atom_site_fract_x
 _atom_site_fract_y
 _atom_site_fract_z
 _atom_site_occupancy
  Pr  Pr0  1  0.875364  0.125574  0.750314  1
  Pr  Pr1  1  0.124636  0.874426  0.249686  1
  Al  Al2  1  0.410285  0.140535  0.749257  1
  Al  Al3  1  0.140674  0.409383  0.249052  1
  Al  Al4  1  0.589715  0.859465  0.250743  1
  Al  Al5  1  0.859326  0.590617  0.750948  1
  Al  Al6  1  0.517347  0.776882  0.746377  1
  Al  Al7  1  0.778383  0.517528  0.247201  1
  Al  Al8  1  0.482653  0.223118  0.253623  1
  Al  Al9  1  0.221617  0.482472  0.752799  1
  Al  Al10  1  0.838039  0.157987  0.397622  1
  Al  Al11  1  0.161961  0.842013  0.602378  1
  Al  Al12  1  0.840761  0.161829  0.102565  1
  Al  Al13  1  0.159239  0.838171  0.897435  1
  Al  Al14  1  0.620168  0.377009  0.550871  1
  Al  Al15  1  0.379832  0.622991  0.449129  1
  Al  Al16  1  0.623483  0.380371  0.948644  1
  Al  Al17  1  0.376517  0.619629  0.051356  1
  Al  Al18  1  0.773763  0.772115  0.001361  1
  Al  Al19  1  0.772586  0.775044  0.500537  1
  Al  Al20  1  0.226237  0.227885  0.998639  1
  Al  Al21  1  0.227414  0.224956  0.499463  1
  Tc  Tc22  1  0.000000  0.500000  0.000000  1
  Ir  Ir23  1  0.000000  0.500000  0.500000  1
  Ru  Ru24  1  0.500000  0.000000  0.500000  1
  Rh  Rh25  1  0.500000  0.000000  0.000000  1
