# generated using pymatgen
data_LuZr7(Si4W3)4
_symmetry_space_group_name_H-M   'P 1'
_cell_length_a   6.62488725
_cell_length_b   6.78885162
_cell_length_c   12.72490759
_cell_angle_alpha   89.95159389
_cell_angle_beta   90.03132762
_cell_angle_gamma   89.99558969
_symmetry_Int_Tables_number   1
_chemical_formula_structural   LuZr7(Si4W3)4
_chemical_formula_sum   'Lu1 Zr7 Si16 W12'
_cell_volume   572.30721916
_cell_formula_units_Z   1
loop_
 _symmetry_equiv_pos_site_id
 _symmetry_equiv_pos_as_xyz
  1  'x, y, z'
loop_
 _atom_site_type_symbol
 _atom_site_label
 _atom_site_symmetry_multiplicity
 _atom_site_fract_x
 _atom_site_fract_y
 _atom_site_fract_z
 _atom_site_occupancy
  Lu  Lu0  1  0.995640  0.830998  0.591254  1
  Zr  Zr1  1  0.496163  0.670791  0.591999  1
  Zr  Zr2  1  0.995181  0.828018  0.908079  1
  Zr  Zr3  1  0.505580  0.328049  0.092277  1
  Zr  Zr4  1  0.005828  0.173321  0.405990  1
  Zr  Zr5  1  0.505974  0.328620  0.407054  1
  Zr  Zr6  1  0.005257  0.171482  0.092548  1
  Zr  Zr7  1  0.494161  0.671465  0.908848  1
  Si  Si8  1  0.666113  0.959666  0.456260  1
  Si  Si9  1  0.166477  0.541216  0.043305  1
  Si  Si10  1  0.332896  0.041569  0.957547  1
  Si  Si11  1  0.833176  0.457599  0.542815  1
  Si  Si12  1  0.335490  0.042100  0.542695  1
  Si  Si13  1  0.833425  0.458701  0.957499  1
  Si  Si14  1  0.666561  0.958756  0.042880  1
  Si  Si15  1  0.167097  0.539606  0.456024  1
  Si  Si16  1  0.465935  0.379058  0.750385  1
  Si  Si17  1  0.965938  0.122197  0.750855  1
  Si  Si18  1  0.533300  0.620115  0.249421  1
  Si  Si19  1  0.033530  0.878699  0.250430  1
  Si  Si20  1  0.697906  0.858347  0.750540  1
  Si  Si21  1  0.199707  0.640800  0.750660  1
  Si  Si22  1  0.301155  0.140278  0.249454  1
  Si  Si23  1  0.800336  0.359415  0.249552  1
  W  W24  1  0.666096  0.164527  0.624851  1
  W  W25  1  0.168650  0.337212  0.876201  1
  W  W26  1  0.331754  0.836141  0.124139  1
  W  W27  1  0.830872  0.663055  0.375215  1
  W  W28  1  0.333677  0.835643  0.375480  1
  W  W29  1  0.831703  0.664247  0.124293  1
  W  W30  1  0.666664  0.164109  0.876290  1
  W  W31  1  0.167534  0.336468  0.624424  1
  W  W32  1  0.834212  0.506220  0.750908  1
  W  W33  1  0.333655  0.992637  0.750686  1
  W  W34  1  0.166145  0.490564  0.250001  1
  W  W35  1  0.666215  0.008313  0.249141  1
