# generated using pymatgen
data_IrRu3O8
_symmetry_space_group_name_H-M   'P 1'
_cell_length_a   5.53479091
_cell_length_b   4.53917933
_cell_length_c   5.53548067
_cell_angle_alpha   90.03566681
_cell_angle_beta   110.48254336
_cell_angle_gamma   89.96438105
_symmetry_Int_Tables_number   1
_chemical_formula_structural   IrRu3O8
_chemical_formula_sum   'Ir1 Ru3 O8'
_cell_volume   130.27792969
_cell_formula_units_Z   1
loop_
 _symmetry_equiv_pos_site_id
 _symmetry_equiv_pos_as_xyz
  1  'x, y, z'
loop_
 _atom_site_type_symbol
 _atom_site_label
 _atom_site_symmetry_multiplicity
 _atom_site_fract_x
 _atom_site_fract_y
 _atom_site_fract_z
 _atom_site_occupancy
  Ir  Ir0  1  0.750002  0.999960  0.249987  1
  Ru  Ru1  1  0.249992  0.499950  0.250019  1
  Ru  Ru2  1  0.750011  0.500043  0.749982  1
  Ru  Ru3  1  0.249998  0.000046  0.750020  1
  O  O4  1  0.403021  0.805549  0.096196  1
  O  O5  1  0.903752  0.693736  0.096221  1
  O  O6  1  0.096971  0.194345  0.403772  1
  O  O7  1  0.596258  0.306154  0.403805  1
  O  O8  1  0.402979  0.695128  0.596946  1
  O  O9  1  0.903743  0.805654  0.596945  1
  O  O10  1  0.097009  0.304982  0.903018  1
  O  O11  1  0.596264  0.194447  0.903088  1
