# generated using pymatgen
data_NaMn5(SnRh2)6
_symmetry_space_group_name_H-M   'P 1'
_cell_length_a   4.45566600
_cell_length_b   6.40775100
_cell_length_c   13.30644401
_cell_angle_alpha   90.00002186
_cell_angle_beta   89.99926116
_cell_angle_gamma   89.99997820
_symmetry_Int_Tables_number   1
_chemical_formula_structural   NaMn5(SnRh2)6
_chemical_formula_sum   'Na1 Mn5 Sn6 Rh12'
_cell_volume   379.90959869
_cell_formula_units_Z   1
loop_
 _symmetry_equiv_pos_site_id
 _symmetry_equiv_pos_as_xyz
  1  'x, y, z'
loop_
 _atom_site_type_symbol
 _atom_site_label
 _atom_site_symmetry_multiplicity
 _atom_site_fract_x
 _atom_site_fract_y
 _atom_site_fract_z
 _atom_site_occupancy
  Na  Na0  1  0.000000  0.000000  0.000000  1
  Mn  Mn1  1  0.500091  0.500000  0.167210  1
  Mn  Mn2  1  0.000068  0.000000  0.333182  1
  Mn  Mn3  1  0.500000  0.500000  0.500000  1
  Mn  Mn4  1  0.999931  0.000000  0.666818  1
  Mn  Mn5  1  0.499910  0.500000  0.832790  1
  Sn  Sn6  1  0.000000  0.500000  0.000000  1
  Sn  Sn7  1  0.500045  0.000000  0.165779  1
  Sn  Sn8  1  0.000059  0.500000  0.335111  1
  Sn  Sn9  1  0.500000  0.000000  0.500000  1
  Sn  Sn10  1  0.999941  0.500000  0.664889  1
  Sn  Sn11  1  0.499957  0.000000  0.834221  1
  Rh  Rh12  1  0.500000  0.264268  0.000000  1
  Rh  Rh13  1  0.500000  0.735732  0.000000  1
  Rh  Rh14  1  0.000059  0.255195  0.171501  1
  Rh  Rh15  1  0.000058  0.744805  0.171501  1
  Rh  Rh16  1  0.500029  0.250616  0.333930  1
  Rh  Rh17  1  0.500030  0.749385  0.333930  1
  Rh  Rh18  1  0.999998  0.248674  0.500000  1
  Rh  Rh19  1  0.000002  0.751324  0.500000  1
  Rh  Rh20  1  0.499969  0.250615  0.666069  1
  Rh  Rh21  1  0.499970  0.749384  0.666069  1
  Rh  Rh22  1  0.999942  0.255195  0.828500  1
  Rh  Rh23  1  0.999941  0.744805  0.828500  1
