# generated using pymatgen
data_Yb3FeTcC6
_symmetry_space_group_name_H-M   'P 1'
_cell_length_a   8.21914200
_cell_length_b   8.21914120
_cell_length_c   5.17596400
_cell_angle_alpha   90.00000000
_cell_angle_beta   90.00000000
_cell_angle_gamma   119.99998712
_symmetry_Int_Tables_number   1
_chemical_formula_structural   Yb3FeTcC6
_chemical_formula_sum   'Yb6 Fe2 Tc2 C12'
_cell_volume   302.81324014
_cell_formula_units_Z   2
loop_
 _symmetry_equiv_pos_site_id
 _symmetry_equiv_pos_as_xyz
  1  'x, y, z'
loop_
 _atom_site_type_symbol
 _atom_site_label
 _atom_site_symmetry_multiplicity
 _atom_site_fract_x
 _atom_site_fract_y
 _atom_site_fract_z
 _atom_site_occupancy
  Yb  Yb0  1  0.614357  0.682847  0.750000  1
  Yb  Yb1  1  0.931511  0.614357  0.250000  1
  Yb  Yb2  1  0.682847  0.068489  0.250000  1
  Yb  Yb3  1  0.317153  0.931511  0.750000  1
  Yb  Yb4  1  0.068489  0.385643  0.750000  1
  Yb  Yb5  1  0.385643  0.317153  0.250000  1
  Fe  Fe6  1  0.666667  0.333333  0.750000  1
  Fe  Fe7  1  0.333333  0.666667  0.250000  1
  Tc  Tc8  1  0.000000  0.000000  0.500000  1
  Tc  Tc9  1  0.000000  0.000000  0.000000  1
  C  C10  1  0.953010  0.763266  0.750000  1
  C  C11  1  0.189743  0.953010  0.250000  1
  C  C12  1  0.763266  0.810257  0.250000  1
  C  C13  1  0.236734  0.189743  0.750000  1
  C  C14  1  0.810257  0.046990  0.750000  1
  C  C15  1  0.046990  0.236734  0.250000  1
  C  C16  1  0.855884  0.574367  0.750000  1
  C  C17  1  0.281515  0.855884  0.250000  1
  C  C18  1  0.574367  0.718485  0.250000  1
  C  C19  1  0.425633  0.281515  0.750000  1
  C  C20  1  0.144116  0.425633  0.250000  1
  C  C21  1  0.718485  0.144116  0.750000  1
