# generated using pymatgen
data_DyZr(Al3Rh)3
_symmetry_space_group_name_H-M   'P 1'
_cell_length_a   7.51266913
_cell_length_b   7.49076567
_cell_length_c   9.35524000
_cell_angle_alpha   90.00000000
_cell_angle_beta   90.00000000
_cell_angle_gamma   119.69714942
_symmetry_Int_Tables_number   1
_chemical_formula_structural   DyZr(Al3Rh)3
_chemical_formula_sum   'Dy2 Zr2 Al18 Rh6'
_cell_volume   457.32328261
_cell_formula_units_Z   2
loop_
 _symmetry_equiv_pos_site_id
 _symmetry_equiv_pos_as_xyz
  1  'x, y, z'
loop_
 _atom_site_type_symbol
 _atom_site_label
 _atom_site_symmetry_multiplicity
 _atom_site_fract_x
 _atom_site_fract_y
 _atom_site_fract_z
 _atom_site_occupancy
  Dy  Dy0  1  0.670187  0.994317  0.750000  1
  Dy  Dy1  1  0.329813  0.005683  0.250000  1
  Zr  Zr2  1  0.994723  0.670420  0.750000  1
  Zr  Zr3  1  0.005277  0.329580  0.250000  1
  Al  Al4  1  0.124416  0.122479  0.750000  1
  Al  Al5  1  0.875584  0.877521  0.250000  1
  Al  Al6  1  0.999457  0.337397  0.574783  1
  Al  Al7  1  0.000543  0.662603  0.425217  1
  Al  Al8  1  0.000543  0.662603  0.074783  1
  Al  Al9  1  0.331468  0.997677  0.921500  1
  Al  Al10  1  0.999457  0.337397  0.925217  1
  Al  Al11  1  0.668532  0.002323  0.078500  1
  Al  Al12  1  0.668532  0.002323  0.421500  1
  Al  Al13  1  0.331468  0.997677  0.578500  1
  Al  Al14  1  0.330788  0.333490  0.055595  1
  Al  Al15  1  0.669212  0.666510  0.944405  1
  Al  Al16  1  0.669212  0.666510  0.555595  1
  Al  Al17  1  0.330788  0.333490  0.444405  1
  Al  Al18  1  0.333198  0.548335  0.750000  1
  Al  Al19  1  0.666802  0.451665  0.250000  1
  Al  Al20  1  0.556017  0.344350  0.750000  1
  Al  Al21  1  0.443983  0.655650  0.250000  1
  Rh  Rh22  1  0.671889  0.327434  0.499387  1
  Rh  Rh23  1  0.328111  0.672566  0.500613  1
  Rh  Rh24  1  0.328111  0.672566  0.999387  1
  Rh  Rh25  1  0.671889  0.327434  0.000613  1
  Rh  Rh26  1  0.000000  0.000000  0.500000  1
  Rh  Rh27  1  0.000000  0.000000  0.000000  1
