# generated using pymatgen
data_Ho7Er2TmZn3Bi2Au
_symmetry_space_group_name_H-M   'P 1'
_cell_length_a   8.61930051
_cell_length_b   8.61892986
_cell_length_c   8.62307403
_cell_angle_alpha   123.93378322
_cell_angle_beta   123.93400681
_cell_angle_gamma   83.27976703
_symmetry_Int_Tables_number   1
_chemical_formula_structural   Ho7Er2TmZn3Bi2Au
_chemical_formula_sum   'Ho7 Er2 Tm1 Zn3 Bi2 Au1'
_cell_volume   422.98345484
_cell_formula_units_Z   1
loop_
 _symmetry_equiv_pos_site_id
 _symmetry_equiv_pos_as_xyz
  1  'x, y, z'
loop_
 _atom_site_type_symbol
 _atom_site_label
 _atom_site_symmetry_multiplicity
 _atom_site_fract_x
 _atom_site_fract_y
 _atom_site_fract_z
 _atom_site_occupancy
  Ho  Ho0  1  0.704828  0.205846  0.195318  1
  Ho  Ho1  1  0.511807  0.705689  0.500465  1
  Ho  Ho2  1  0.205470  0.010694  0.499604  1
  Ho  Ho3  1  0.989534  0.490569  0.195349  1
  Ho  Ho4  1  0.293734  0.795664  0.804595  1
  Ho  Ho5  1  0.488934  0.294181  0.499594  1
  Ho  Ho6  1  0.794846  0.988679  0.500469  1
  Er  Er7  1  0.500404  0.500264  0.000655  1
  Er  Er8  1  0.009049  0.510983  0.804595  1
  Tm  Tm9  1  0.999694  0.999458  0.999118  1
  Zn  Zn10  1  0.638994  0.140513  0.779494  1
  Zn  Zn11  1  0.358985  0.861165  0.220232  1
  Zn  Zn12  1  0.140398  0.359138  0.499760  1
  Bi  Bi13  1  0.749409  0.751409  0.999997  1
  Bi  Bi14  1  0.248596  0.250649  0.999991  1
  Au  Au15  1  0.865319  0.635099  0.500761  1
