# generated using pymatgen
data_Ce2ErAlIn2Ir3
_symmetry_space_group_name_H-M   'P 1'
_cell_length_a   7.53821722
_cell_length_b   7.50259605
_cell_length_c   3.91900200
_cell_angle_alpha   90.00000000
_cell_angle_beta   90.00000000
_cell_angle_gamma   120.78696922
_symmetry_Int_Tables_number   1
_chemical_formula_structural   Ce2ErAlIn2Ir3
_chemical_formula_sum   'Ce2 Er1 Al1 In2 Ir3'
_cell_volume   190.40898989
_cell_formula_units_Z   1
loop_
 _symmetry_equiv_pos_site_id
 _symmetry_equiv_pos_as_xyz
  1  'x, y, z'
loop_
 _atom_site_type_symbol
 _atom_site_label
 _atom_site_symmetry_multiplicity
 _atom_site_fract_x
 _atom_site_fract_y
 _atom_site_fract_z
 _atom_site_occupancy
  Ce  Ce0  1  0.591574  0.003950  0.000000  1
  Ce  Ce1  1  0.001014  0.570813  0.000000  1
  Er  Er2  1  0.399944  0.409117  0.000000  1
  Al  Al3  1  0.008084  0.251223  0.500000  1
  In  In4  1  0.745312  0.741735  0.500000  1
  In  In5  1  0.247391  0.003203  0.500000  1
  Ir  Ir6  1  0.996339  0.032664  0.000000  1
  Ir  Ir7  1  0.319832  0.661012  0.500000  1
  Ir  Ir8  1  0.690509  0.326283  0.500000  1
