# generated using pymatgen
data_Ca2Sb2S3O2
_symmetry_space_group_name_H-M   'P 1'
_cell_length_a   9.21574229
_cell_length_b   3.81899300
_cell_length_c   12.57477819
_cell_angle_alpha   90.00000000
_cell_angle_beta   123.27953462
_cell_angle_gamma   90.00000000
_symmetry_Int_Tables_number   1
_chemical_formula_structural   Ca2Sb2S3O2
_chemical_formula_sum   'Ca4 Sb4 S6 O4'
_cell_volume   369.98793920
_cell_formula_units_Z   2
loop_
 _symmetry_equiv_pos_site_id
 _symmetry_equiv_pos_as_xyz
  1  'x, y, z'
loop_
 _atom_site_type_symbol
 _atom_site_label
 _atom_site_symmetry_multiplicity
 _atom_site_fract_x
 _atom_site_fract_y
 _atom_site_fract_z
 _atom_site_occupancy
  Ca  Ca0  1  0.104759  0.491095  0.396507  1
  Ca  Ca1  1  0.895241  0.991095  0.103493  1
  Ca  Ca2  1  0.895241  0.508905  0.603493  1
  Ca  Ca3  1  0.104759  0.008905  0.896507  1
  Sb  Sb4  1  0.640314  0.493700  0.195878  1
  Sb  Sb5  1  0.359686  0.993700  0.304122  1
  Sb  Sb6  1  0.359686  0.506300  0.804122  1
  Sb  Sb7  1  0.640314  0.006300  0.695878  1
  S  S8  1  0.500000  0.500000  0.500000  1
  S  S9  1  0.500000  0.000000  0.000000  1
  S  S10  1  0.198216  0.495537  0.124640  1
  S  S11  1  0.801784  0.995537  0.375360  1
  S  S12  1  0.801784  0.504463  0.875360  1
  S  S13  1  0.198216  0.004463  0.624640  1
  O  O14  1  0.151226  0.507828  0.814223  1
  O  O15  1  0.848774  0.007828  0.685777  1
  O  O16  1  0.848774  0.492172  0.185777  1
  O  O17  1  0.151226  0.992172  0.314223  1
