# generated using pymatgen
data_LaNdNi5Ir4Pt
_symmetry_space_group_name_H-M   'P 1'
_cell_length_a   4.07230300
_cell_length_b   5.31168016
_cell_length_c   8.96179545
_cell_angle_alpha   90.64974242
_cell_angle_beta   90.00000000
_cell_angle_gamma   90.00000000
_symmetry_Int_Tables_number   1
_chemical_formula_structural   LaNdNi5Ir4Pt
_chemical_formula_sum   'La1 Nd1 Ni5 Ir4 Pt1'
_cell_volume   193.83808098
_cell_formula_units_Z   1
loop_
 _symmetry_equiv_pos_site_id
 _symmetry_equiv_pos_as_xyz
  1  'x, y, z'
loop_
 _atom_site_type_symbol
 _atom_site_label
 _atom_site_symmetry_multiplicity
 _atom_site_fract_x
 _atom_site_fract_y
 _atom_site_fract_z
 _atom_site_occupancy
  La  La0  1  0.000000  0.005944  0.999347  1
  Nd  Nd1  1  0.000000  0.495432  0.501205  1
  Ni  Ni2  1  0.000000  0.985489  0.346267  1
  Ni  Ni3  1  0.000000  0.504112  0.829439  1
  Ni  Ni4  1  0.000000  0.505574  0.166201  1
  Ni  Ni5  1  0.000000  0.997869  0.655868  1
  Ni  Ni6  1  0.500000  0.990879  0.501808  1
  Ir  Ir7  1  0.500000  0.512840  0.997797  1
  Ir  Ir8  1  0.500000  0.754871  0.745718  1
  Ir  Ir9  1  0.500000  0.752473  0.254016  1
  Ir  Ir10  1  0.500000  0.246687  0.745614  1
  Pt  Pt11  1  0.500000  0.247830  0.256722  1
