# generated using pymatgen
data_Tb4FeReOs6
_symmetry_space_group_name_H-M   'P 1'
_cell_length_a   5.26923502
_cell_length_b   5.26923496
_cell_length_c   8.89772900
_cell_angle_alpha   90.00000000
_cell_angle_beta   90.00000000
_cell_angle_gamma   118.17895168
_symmetry_Int_Tables_number   1
_chemical_formula_structural   Tb4FeReOs6
_chemical_formula_sum   'Tb4 Fe1 Re1 Os6'
_cell_volume   217.76360038
_cell_formula_units_Z   1
loop_
 _symmetry_equiv_pos_site_id
 _symmetry_equiv_pos_as_xyz
  1  'x, y, z'
loop_
 _atom_site_type_symbol
 _atom_site_label
 _atom_site_symmetry_multiplicity
 _atom_site_fract_x
 _atom_site_fract_y
 _atom_site_fract_z
 _atom_site_occupancy
  Tb  Tb0  1  0.329311  0.670689  0.438627  1
  Tb  Tb1  1  0.666706  0.333294  0.565919  1
  Tb  Tb2  1  0.666706  0.333294  0.934081  1
  Tb  Tb3  1  0.329311  0.670689  0.061373  1
  Fe  Fe4  1  0.170012  0.829988  0.750000  1
  Re  Re5  1  0.836844  0.163156  0.250000  1
  Os  Os6  1  0.994357  0.005643  0.502335  1
  Os  Os7  1  0.994357  0.005643  0.997665  1
  Os  Os8  1  0.827422  0.649655  0.250000  1
  Os  Os9  1  0.350345  0.172578  0.250000  1
  Os  Os10  1  0.176884  0.342252  0.750000  1
  Os  Os11  1  0.657748  0.823116  0.750000  1
