# generated using pymatgen
data_LaNd(In2Pt)4
_symmetry_space_group_name_H-M   'P 1'
_cell_length_a   4.57849600
_cell_length_b   7.32445200
_cell_length_c   18.70085400
_cell_angle_alpha   90.00000000
_cell_angle_beta   90.00000000
_cell_angle_gamma   90.00000000
_symmetry_Int_Tables_number   1
_chemical_formula_structural   LaNd(In2Pt)4
_chemical_formula_sum   'La2 Nd2 In16 Pt8'
_cell_volume   627.13265611
_cell_formula_units_Z   2
loop_
 _symmetry_equiv_pos_site_id
 _symmetry_equiv_pos_as_xyz
  1  'x, y, z'
loop_
 _atom_site_type_symbol
 _atom_site_label
 _atom_site_symmetry_multiplicity
 _atom_site_fract_x
 _atom_site_fract_y
 _atom_site_fract_z
 _atom_site_occupancy
  La  La0  1  0.750000  0.530443  0.140366  1
  La  La1  1  0.250000  0.030443  0.359634  1
  Nd  Nd2  1  0.750000  0.970116  0.640006  1
  Nd  Nd3  1  0.250000  0.470116  0.859994  1
  In  In4  1  0.250000  0.239992  0.191335  1
  In  In5  1  0.250000  0.498563  0.430683  1
  In  In6  1  0.250000  0.001670  0.931017  1
  In  In7  1  0.250000  0.829815  0.186148  1
  In  In8  1  0.250000  0.671089  0.686034  1
  In  In9  1  0.250000  0.259231  0.691329  1
  In  In10  1  0.250000  0.148987  0.534917  1
  In  In11  1  0.750000  0.998563  0.069317  1
  In  In12  1  0.750000  0.171089  0.813966  1
  In  In13  1  0.250000  0.350502  0.034915  1
  In  In14  1  0.750000  0.850502  0.465085  1
  In  In15  1  0.750000  0.648987  0.965083  1
  In  In16  1  0.750000  0.759231  0.808671  1
  In  In17  1  0.750000  0.501670  0.568983  1
  In  In18  1  0.750000  0.329815  0.313852  1
  In  In19  1  0.750000  0.739992  0.308665  1
  Pt  Pt20  1  0.250000  0.962327  0.782695  1
  Pt  Pt21  1  0.750000  0.037661  0.217442  1
  Pt  Pt22  1  0.250000  0.537661  0.282558  1
  Pt  Pt23  1  0.250000  0.755221  0.541396  1
  Pt  Pt24  1  0.250000  0.744385  0.041537  1
  Pt  Pt25  1  0.750000  0.244385  0.458463  1
  Pt  Pt26  1  0.750000  0.255221  0.958604  1
  Pt  Pt27  1  0.750000  0.462327  0.717305  1
