# generated using pymatgen
data_Hf16Fe3Co2Pt3
_symmetry_space_group_name_H-M   'P 1'
_cell_length_a   8.58227274
_cell_length_b   8.58277439
_cell_length_c   8.58166560
_cell_angle_alpha   59.97965965
_cell_angle_beta   59.97801094
_cell_angle_gamma   59.98024000
_symmetry_Int_Tables_number   1
_chemical_formula_structural   Hf16Fe3Co2Pt3
_chemical_formula_sum   'Hf16 Fe3 Co2 Pt3'
_cell_volume   446.76869586
_cell_formula_units_Z   1
loop_
 _symmetry_equiv_pos_site_id
 _symmetry_equiv_pos_as_xyz
  1  'x, y, z'
loop_
 _atom_site_type_symbol
 _atom_site_label
 _atom_site_symmetry_multiplicity
 _atom_site_fract_x
 _atom_site_fract_y
 _atom_site_fract_z
 _atom_site_occupancy
  Hf  Hf0  1  0.068133  0.643359  0.643109  1
  Hf  Hf1  1  0.643382  0.068288  0.643016  1
  Hf  Hf2  1  0.642907  0.642790  0.069256  1
  Hf  Hf3  1  0.642667  0.642567  0.642636  1
  Hf  Hf4  1  0.807684  0.807672  0.192622  1
  Hf  Hf5  1  0.192954  0.193087  0.804911  1
  Hf  Hf6  1  0.808290  0.194130  0.808088  1
  Hf  Hf7  1  0.194640  0.804701  0.191726  1
  Hf  Hf8  1  0.194092  0.808245  0.808059  1
  Hf  Hf9  1  0.804746  0.194685  0.191608  1
  Hf  Hf10  1  0.439003  0.439021  0.070568  1
  Hf  Hf11  1  0.062633  0.062598  0.437670  1
  Hf  Hf12  1  0.437641  0.071980  0.438599  1
  Hf  Hf13  1  0.061032  0.437995  0.061492  1
  Hf  Hf14  1  0.072030  0.437608  0.438551  1
  Hf  Hf15  1  0.438038  0.060955  0.061452  1
  Fe  Fe16  1  0.414016  0.413993  0.414746  1
  Fe  Fe17  1  0.431175  0.855093  0.856525  1
  Fe  Fe18  1  0.855057  0.431224  0.856538  1
  Co  Co19  1  0.855282  0.855345  0.430940  1
  Co  Co20  1  0.856186  0.856264  0.857896  1
  Pt  Pt21  1  0.753409  0.412304  0.413405  1
  Pt  Pt22  1  0.412305  0.753380  0.413428  1
  Pt  Pt23  1  0.412698  0.412717  0.753159  1
