# generated using pymatgen
data_CaPr6TcI12
_symmetry_space_group_name_H-M   'P 1'
_cell_length_a   10.12272043
_cell_length_b   10.12271898
_cell_length_c   10.12272014
_cell_angle_alpha   107.03352341
_cell_angle_beta   107.03351897
_cell_angle_gamma   107.03351604
_symmetry_Int_Tables_number   1
_chemical_formula_structural   CaPr6TcI12
_chemical_formula_sum   'Ca1 Pr6 Tc1 I12'
_cell_volume   863.05696007
_cell_formula_units_Z   1
loop_
 _symmetry_equiv_pos_site_id
 _symmetry_equiv_pos_as_xyz
  1  'x, y, z'
loop_
 _atom_site_type_symbol
 _atom_site_label
 _atom_site_symmetry_multiplicity
 _atom_site_fract_x
 _atom_site_fract_y
 _atom_site_fract_z
 _atom_site_occupancy
  Ca  Ca0  1  0.500000  0.500000  0.500000  1
  Pr  Pr1  1  0.973477  0.900305  0.695985  1
  Pr  Pr2  1  0.026523  0.099695  0.304015  1
  Pr  Pr3  1  0.099695  0.304015  0.026523  1
  Pr  Pr4  1  0.304015  0.026523  0.099695  1
  Pr  Pr5  1  0.900305  0.695985  0.973477  1
  Pr  Pr6  1  0.695985  0.973477  0.900305  1
  Tc  Tc7  1  0.000000  0.000000  0.000000  1
  I  I8  1  0.538694  0.616839  0.840626  1
  I  I9  1  0.461306  0.383161  0.159374  1
  I  I10  1  0.316760  0.926250  0.773374  1
  I  I11  1  0.383161  0.159374  0.461306  1
  I  I12  1  0.926250  0.773374  0.316760  1
  I  I13  1  0.683240  0.073750  0.226626  1
  I  I14  1  0.073750  0.226626  0.683240  1
  I  I15  1  0.773374  0.316760  0.926250  1
  I  I16  1  0.226626  0.683240  0.073750  1
  I  I17  1  0.840626  0.538694  0.616839  1
  I  I18  1  0.159374  0.461306  0.383161  1
  I  I19  1  0.616839  0.840626  0.538694  1
