# generated using pymatgen
data_Tm8Sc12Ga9Pb7
_symmetry_space_group_name_H-M   'P 1'
_cell_length_a   7.31122208
_cell_length_b   7.74594154
_cell_length_c   14.70408300
_cell_angle_alpha   90.02249390
_cell_angle_beta   90.14082546
_cell_angle_gamma   90.09174712
_symmetry_Int_Tables_number   1
_chemical_formula_structural   Tm8Sc12Ga9Pb7
_chemical_formula_sum   'Tm8 Sc12 Ga9 Pb7'
_cell_volume   832.72237435
_cell_formula_units_Z   1
loop_
 _symmetry_equiv_pos_site_id
 _symmetry_equiv_pos_as_xyz
  1  'x, y, z'
loop_
 _atom_site_type_symbol
 _atom_site_label
 _atom_site_symmetry_multiplicity
 _atom_site_fract_x
 _atom_site_fract_y
 _atom_site_fract_z
 _atom_site_occupancy
  Tm  Tm0  1  0.994315  0.184312  0.104510  1
  Tm  Tm1  1  0.005426  0.815547  0.894843  1
  Tm  Tm2  1  0.505150  0.685555  0.895151  1
  Tm  Tm3  1  0.007787  0.810114  0.602922  1
  Tm  Tm4  1  0.494565  0.315434  0.104306  1
  Tm  Tm5  1  0.999492  0.188607  0.399421  1
  Tm  Tm6  1  0.490591  0.321876  0.400448  1
  Tm  Tm7  1  0.492787  0.674416  0.599747  1
  Sc  Sc8  1  0.177715  0.505057  0.745372  1
  Sc  Sc9  1  0.823173  0.494936  0.251043  1
  Sc  Sc10  1  0.323586  0.004128  0.250387  1
  Sc  Sc11  1  0.674938  0.994854  0.748814  1
  Sc  Sc12  1  0.328319  0.176185  0.629393  1
  Sc  Sc13  1  0.664380  0.834871  0.366724  1
  Sc  Sc14  1  0.168555  0.654919  0.370269  1
  Sc  Sc15  1  0.662534  0.838413  0.135548  1
  Sc  Sc16  1  0.846412  0.338357  0.633393  1
  Sc  Sc17  1  0.338207  0.161805  0.864478  1
  Sc  Sc18  1  0.837187  0.338051  0.864553  1
  Sc  Sc19  1  0.162207  0.661809  0.134988  1
  Ga  Ga20  1  0.035257  0.111718  0.749992  1
  Ga  Ga21  1  0.965693  0.885427  0.251805  1
  Ga  Ga22  1  0.464056  0.613240  0.250383  1
  Ga  Ga23  1  0.537001  0.386745  0.748149  1
  Ga  Ga24  1  0.295880  0.867954  0.748369  1
  Ga  Ga25  1  0.704738  0.135343  0.251737  1
  Ga  Ga26  1  0.205098  0.364690  0.250177  1
  Ga  Ga27  1  0.793593  0.634619  0.749381  1
  Ga  Ga28  1  0.177693  0.459661  0.541609  1
  Pb  Pb29  1  0.822375  0.542458  0.462345  1
  Pb  Pb30  1  0.312422  0.955778  0.459972  1
  Pb  Pb31  1  0.810625  0.545123  0.039696  1
  Pb  Pb32  1  0.688446  0.042724  0.541088  1
  Pb  Pb33  1  0.189331  0.455302  0.959257  1
  Pb  Pb34  1  0.689683  0.044792  0.960090  1
  Pb  Pb35  1  0.310779  0.955181  0.039639  1
