# generated using pymatgen
data_Pr6EuOsBr12
_symmetry_space_group_name_H-M   'P 1'
_cell_length_a   9.77821324
_cell_length_b   9.62997821
_cell_length_c   9.63557506
_cell_angle_alpha   106.30419052
_cell_angle_beta   106.52386649
_cell_angle_gamma   106.59404945
_symmetry_Int_Tables_number   1
_chemical_formula_structural   Pr6EuOsBr12
_chemical_formula_sum   'Pr6 Eu1 Os1 Br12'
_cell_volume   766.20712851
_cell_formula_units_Z   1
loop_
 _symmetry_equiv_pos_site_id
 _symmetry_equiv_pos_as_xyz
  1  'x, y, z'
loop_
 _atom_site_type_symbol
 _atom_site_label
 _atom_site_symmetry_multiplicity
 _atom_site_fract_x
 _atom_site_fract_y
 _atom_site_fract_z
 _atom_site_occupancy
  Pr  Pr0  1  0.103553  0.308393  0.020359  1
  Pr  Pr1  1  0.317278  0.020305  0.107886  1
  Pr  Pr2  1  0.020618  0.104019  0.307746  1
  Pr  Pr3  1  0.979381  0.895981  0.692254  1
  Pr  Pr4  1  0.682722  0.979694  0.892113  1
  Pr  Pr5  1  0.896447  0.691607  0.979641  1
  Eu  Eu6  1  0.500000  0.500000  0.500000  1
  Os  Os7  1  0.000000  0.000000  0.000000  1
  Br  Br8  1  0.215557  0.680691  0.072213  1
  Br  Br9  1  0.449352  0.367626  0.155068  1
  Br  Br10  1  0.682813  0.073294  0.215947  1
  Br  Br11  1  0.927759  0.783737  0.318758  1
  Br  Br12  1  0.156882  0.451136  0.368622  1
  Br  Br13  1  0.367904  0.154999  0.451139  1
  Br  Br14  1  0.632096  0.845001  0.548861  1
  Br  Br15  1  0.843117  0.548864  0.631378  1
  Br  Br16  1  0.072242  0.216264  0.681243  1
  Br  Br17  1  0.317188  0.926707  0.784053  1
  Br  Br18  1  0.550647  0.632373  0.844932  1
  Br  Br19  1  0.784443  0.319310  0.927787  1
