# generated using pymatgen
data_Dy2Ga2Te
_symmetry_space_group_name_H-M   'P 1'
_cell_length_a   4.21192100
_cell_length_b   4.21192248
_cell_length_c   16.04152700
_cell_angle_alpha   90.00000000
_cell_angle_beta   90.00000000
_cell_angle_gamma   119.99999626
_symmetry_Int_Tables_number   1
_chemical_formula_structural   Dy2Ga2Te
_chemical_formula_sum   'Dy4 Ga4 Te2'
_cell_volume   246.45460677
_cell_formula_units_Z   2
loop_
 _symmetry_equiv_pos_site_id
 _symmetry_equiv_pos_as_xyz
  1  'x, y, z'
loop_
 _atom_site_type_symbol
 _atom_site_label
 _atom_site_symmetry_multiplicity
 _atom_site_fract_x
 _atom_site_fract_y
 _atom_site_fract_z
 _atom_site_occupancy
  Dy  Dy0  1  0.000000  0.000000  0.125323  1
  Dy  Dy1  1  0.000000  0.000000  0.874677  1
  Dy  Dy2  1  0.000000  0.000000  0.625323  1
  Dy  Dy3  1  0.000000  0.000000  0.374677  1
  Ga  Ga4  1  0.333333  0.666667  0.521017  1
  Ga  Ga5  1  0.666667  0.333333  0.478983  1
  Ga  Ga6  1  0.666667  0.333333  0.021017  1
  Ga  Ga7  1  0.333333  0.666667  0.978983  1
  Te  Te8  1  0.333333  0.666667  0.250000  1
  Te  Te9  1  0.666667  0.333333  0.750000  1
