# generated using pymatgen
data_La4Nd3Y(CdIr)2
_symmetry_space_group_name_H-M   'P 1'
_cell_length_a   9.99849169
_cell_length_b   9.99849221
_cell_length_c   10.04501100
_cell_angle_alpha   59.84597084
_cell_angle_beta   59.84596912
_cell_angle_gamma   60.30805883
_symmetry_Int_Tables_number   1
_chemical_formula_structural   La4Nd3Y(CdIr)2
_chemical_formula_sum   'La8 Nd6 Y2 Cd4 Ir4'
_cell_volume   710.04443204
_cell_formula_units_Z   2
loop_
 _symmetry_equiv_pos_site_id
 _symmetry_equiv_pos_as_xyz
  1  'x, y, z'
loop_
 _atom_site_type_symbol
 _atom_site_label
 _atom_site_symmetry_multiplicity
 _atom_site_fract_x
 _atom_site_fract_y
 _atom_site_fract_z
 _atom_site_occupancy
  La  La0  1  0.346260  0.346260  0.352121  1
  La  La1  1  0.346260  0.346260  0.955360  1
  La  La2  1  0.352121  0.955360  0.346260  1
  La  La3  1  0.955360  0.352121  0.346260  1
  La  La4  1  0.812177  0.187823  0.187823  1
  La  La5  1  0.187823  0.812177  0.812177  1
  La  La6  1  0.187823  0.812177  0.187823  1
  La  La7  1  0.812177  0.187823  0.812177  1
  Nd  Nd8  1  0.936702  0.563298  0.563298  1
  Nd  Nd9  1  0.563298  0.936702  0.936702  1
  Nd  Nd10  1  0.563298  0.936702  0.563298  1
  Nd  Nd11  1  0.936702  0.563298  0.936702  1
  Nd  Nd12  1  0.561489  0.561489  0.938511  1
  Nd  Nd13  1  0.938511  0.938511  0.561489  1
  Y  Y14  1  0.193152  0.193152  0.806848  1
  Y  Y15  1  0.806848  0.806848  0.193152  1
  Cd  Cd16  1  0.581955  0.581955  0.577577  1
  Cd  Cd17  1  0.581955  0.581955  0.258512  1
  Cd  Cd18  1  0.577577  0.258512  0.581955  1
  Cd  Cd19  1  0.258512  0.577577  0.581955  1
  Ir  Ir20  1  0.140602  0.140602  0.140119  1
  Ir  Ir21  1  0.140602  0.140602  0.578676  1
  Ir  Ir22  1  0.140119  0.578676  0.140602  1
  Ir  Ir23  1  0.578676  0.140119  0.140602  1
