# generated using pymatgen
data_Tm3Nb(Ni4P3)2
_symmetry_space_group_name_H-M   'P 1'
_cell_length_a   3.73603600
_cell_length_b   10.68042700
_cell_length_c   12.32012700
_cell_angle_alpha   90.00000000
_cell_angle_beta   90.00000000
_cell_angle_gamma   90.00000000
_symmetry_Int_Tables_number   1
_chemical_formula_structural   Tm3Nb(Ni4P3)2
_chemical_formula_sum   'Tm6 Nb2 Ni16 P12'
_cell_volume   491.60337195
_cell_formula_units_Z   2
loop_
 _symmetry_equiv_pos_site_id
 _symmetry_equiv_pos_as_xyz
  1  'x, y, z'
loop_
 _atom_site_type_symbol
 _atom_site_label
 _atom_site_symmetry_multiplicity
 _atom_site_fract_x
 _atom_site_fract_y
 _atom_site_fract_z
 _atom_site_occupancy
  Tm  Tm0  1  0.000000  0.500000  0.526292  1
  Tm  Tm1  1  0.500000  0.000000  0.473708  1
  Tm  Tm2  1  0.500000  0.819928  0.207430  1
  Tm  Tm3  1  0.500000  0.180072  0.207430  1
  Tm  Tm4  1  0.000000  0.680072  0.792570  1
  Tm  Tm5  1  0.000000  0.319928  0.792570  1
  Nb  Nb6  1  0.500000  0.500000  0.154597  1
  Nb  Nb7  1  0.000000  0.000000  0.845403  1
  Ni  Ni8  1  0.500000  0.500000  0.700170  1
  Ni  Ni9  1  0.000000  0.000000  0.299830  1
  Ni  Ni10  1  0.000000  0.500000  0.983182  1
  Ni  Ni11  1  0.500000  0.000000  0.016818  1
  Ni  Ni12  1  0.500000  0.334161  0.986524  1
  Ni  Ni13  1  0.500000  0.665839  0.986524  1
  Ni  Ni14  1  0.000000  0.165839  0.013476  1
  Ni  Ni15  1  0.000000  0.834161  0.013476  1
  Ni  Ni16  1  0.500000  0.301780  0.429613  1
  Ni  Ni17  1  0.500000  0.698220  0.429613  1
  Ni  Ni18  1  0.000000  0.198220  0.570387  1
  Ni  Ni19  1  0.000000  0.801780  0.570387  1
  Ni  Ni20  1  0.500000  0.876860  0.707108  1
  Ni  Ni21  1  0.500000  0.123140  0.707108  1
  Ni  Ni22  1  0.000000  0.623140  0.292892  1
  Ni  Ni23  1  0.000000  0.376860  0.292892  1
  P  P24  1  0.500000  0.500000  0.876925  1
  P  P25  1  0.000000  0.000000  0.123075  1
  P  P26  1  0.500000  0.500000  0.355066  1
  P  P27  1  0.000000  0.000000  0.644934  1
  P  P28  1  0.500000  0.315258  0.614752  1
  P  P29  1  0.500000  0.684742  0.614752  1
  P  P30  1  0.000000  0.184742  0.385248  1
  P  P31  1  0.000000  0.815258  0.385248  1
  P  P32  1  0.500000  0.841107  0.892483  1
  P  P33  1  0.500000  0.158893  0.892483  1
  P  P34  1  0.000000  0.658893  0.107517  1
  P  P35  1  0.000000  0.341107  0.107517  1
