# generated using pymatgen
data_LaCe(ZnCu5)2
_symmetry_space_group_name_H-M   'P 1'
_cell_length_a   5.09936400
_cell_length_b   8.17583100
_cell_length_c   10.24058700
_cell_angle_alpha   90.00000000
_cell_angle_beta   90.00000000
_cell_angle_gamma   90.00000000
_symmetry_Int_Tables_number   1
_chemical_formula_structural   LaCe(ZnCu5)2
_chemical_formula_sum   'La2 Ce2 Zn4 Cu20'
_cell_volume   426.94582483
_cell_formula_units_Z   2
loop_
 _symmetry_equiv_pos_site_id
 _symmetry_equiv_pos_as_xyz
  1  'x, y, z'
loop_
 _atom_site_type_symbol
 _atom_site_label
 _atom_site_symmetry_multiplicity
 _atom_site_fract_x
 _atom_site_fract_y
 _atom_site_fract_z
 _atom_site_occupancy
  La  La0  1  0.000000  0.759524  0.688708  1
  La  La1  1  0.000000  0.259524  0.311292  1
  Ce  Ce2  1  0.500000  0.241302  0.812783  1
  Ce  Ce3  1  0.500000  0.741302  0.187217  1
  Zn  Zn4  1  0.500000  0.356999  0.109295  1
  Zn  Zn5  1  0.500000  0.856999  0.890705  1
  Zn  Zn6  1  0.000000  0.644618  0.388760  1
  Zn  Zn7  1  0.000000  0.144618  0.611240  1
  Cu  Cu8  1  0.500000  0.680332  0.498431  1
  Cu  Cu9  1  0.500000  0.180332  0.501569  1
  Cu  Cu10  1  0.000000  0.319568  0.002592  1
  Cu  Cu11  1  0.000000  0.819568  0.997408  1
  Cu  Cu12  1  0.500000  0.942380  0.651306  1
  Cu  Cu13  1  0.500000  0.442380  0.348694  1
  Cu  Cu14  1  0.000000  0.066780  0.850072  1
  Cu  Cu15  1  0.000000  0.566780  0.149928  1
  Cu  Cu16  1  0.500000  0.588600  0.735296  1
  Cu  Cu17  1  0.500000  0.088600  0.264704  1
  Cu  Cu18  1  0.000000  0.403569  0.767388  1
  Cu  Cu19  1  0.000000  0.903569  0.232612  1
  Cu  Cu20  1  0.744532  0.066303  0.058103  1
  Cu  Cu21  1  0.255468  0.566303  0.941897  1
  Cu  Cu22  1  0.246731  0.931861  0.439450  1
  Cu  Cu23  1  0.753269  0.431861  0.560550  1
  Cu  Cu24  1  0.753269  0.931861  0.439450  1
  Cu  Cu25  1  0.246731  0.431861  0.560550  1
  Cu  Cu26  1  0.255468  0.066303  0.058103  1
  Cu  Cu27  1  0.744532  0.566303  0.941897  1
