# generated using pymatgen
data_Er10Al3Co
_symmetry_space_group_name_H-M   'P 1'
_cell_length_a   9.37774900
_cell_length_b   9.37774937
_cell_length_c   9.52891200
_cell_angle_alpha   90.00000000
_cell_angle_beta   90.00000000
_cell_angle_gamma   120.00000223
_symmetry_Int_Tables_number   1
_chemical_formula_structural   Er10Al3Co
_chemical_formula_sum   'Er20 Al6 Co2'
_cell_volume   725.72346272
_cell_formula_units_Z   2
loop_
 _symmetry_equiv_pos_site_id
 _symmetry_equiv_pos_as_xyz
  1  'x, y, z'
loop_
 _atom_site_type_symbol
 _atom_site_label
 _atom_site_symmetry_multiplicity
 _atom_site_fract_x
 _atom_site_fract_y
 _atom_site_fract_z
 _atom_site_occupancy
  Er  Er0  1  0.000000  0.000000  0.500000  1
  Er  Er1  1  0.000000  0.000000  0.000000  1
  Er  Er2  1  0.542103  0.457897  0.250000  1
  Er  Er3  1  0.542103  0.084207  0.250000  1
  Er  Er4  1  0.915793  0.457897  0.250000  1
  Er  Er5  1  0.457897  0.542103  0.750000  1
  Er  Er6  1  0.457897  0.915793  0.750000  1
  Er  Er7  1  0.084207  0.542103  0.750000  1
  Er  Er8  1  0.209013  0.790987  0.436702  1
  Er  Er9  1  0.209013  0.418026  0.436702  1
  Er  Er10  1  0.581974  0.790987  0.436702  1
  Er  Er11  1  0.790987  0.209013  0.563298  1
  Er  Er12  1  0.790987  0.581974  0.563298  1
  Er  Er13  1  0.418026  0.209013  0.563298  1
  Er  Er14  1  0.790987  0.209013  0.936702  1
  Er  Er15  1  0.790987  0.581974  0.936702  1
  Er  Er16  1  0.418026  0.209013  0.936702  1
  Er  Er17  1  0.209013  0.790987  0.063298  1
  Er  Er18  1  0.209013  0.418026  0.063298  1
  Er  Er19  1  0.581974  0.790987  0.063298  1
  Al  Al20  1  0.889912  0.110088  0.250000  1
  Al  Al21  1  0.889912  0.779826  0.250000  1
  Al  Al22  1  0.220174  0.110088  0.250000  1
  Al  Al23  1  0.110088  0.889912  0.750000  1
  Al  Al24  1  0.110088  0.220174  0.750000  1
  Al  Al25  1  0.779826  0.889912  0.750000  1
  Co  Co26  1  0.333333  0.666667  0.250000  1
  Co  Co27  1  0.666667  0.333333  0.750000  1
