# generated using pymatgen
data_Sc2(PaTc)3
_symmetry_space_group_name_H-M   'P 1'
_cell_length_a   7.92491400
_cell_length_b   7.92491277
_cell_length_c   6.22931100
_cell_angle_alpha   90.00000000
_cell_angle_beta   90.00000000
_cell_angle_gamma   119.99999680
_symmetry_Int_Tables_number   1
_chemical_formula_structural   Sc2(PaTc)3
_chemical_formula_sum   'Sc4 Pa6 Tc6'
_cell_volume   338.81272094
_cell_formula_units_Z   2
loop_
 _symmetry_equiv_pos_site_id
 _symmetry_equiv_pos_as_xyz
  1  'x, y, z'
loop_
 _atom_site_type_symbol
 _atom_site_label
 _atom_site_symmetry_multiplicity
 _atom_site_fract_x
 _atom_site_fract_y
 _atom_site_fract_z
 _atom_site_occupancy
  Sc  Sc0  1  0.666667  0.333333  0.000000  1
  Sc  Sc1  1  0.333333  0.666666  0.000000  1
  Sc  Sc2  1  0.666667  0.333333  0.500001  1
  Sc  Sc3  1  0.333333  0.666666  0.500001  1
  Pa  Pa4  1  0.248505  0.000000  0.250000  1
  Pa  Pa5  1  0.000000  0.248506  0.250000  1
  Pa  Pa6  1  0.751495  0.751495  0.250000  1
  Pa  Pa7  1  0.751495  0.000000  0.750000  1
  Pa  Pa8  1  0.248505  0.248506  0.750000  1
  Pa  Pa9  1  0.000000  0.751495  0.750000  1
  Tc  Tc10  1  0.631417  0.000000  0.250000  1
  Tc  Tc11  1  0.368582  0.368582  0.250000  1
  Tc  Tc12  1  0.000000  0.631417  0.250000  1
  Tc  Tc13  1  0.368583  0.000000  0.750000  1
  Tc  Tc14  1  0.000000  0.368582  0.750000  1
  Tc  Tc15  1  0.631418  0.631417  0.750000  1
