# generated using pymatgen
data_Rb7TaTl3As5
_symmetry_space_group_name_H-M   'P 1'
_cell_length_a   8.70928555
_cell_length_b   9.63621286
_cell_length_c   14.56259700
_cell_angle_alpha   85.56700874
_cell_angle_beta   84.08000999
_cell_angle_gamma   86.94246849
_symmetry_Int_Tables_number   1
_chemical_formula_structural   Rb7TaTl3As5
_chemical_formula_sum   'Rb14 Ta2 Tl6 As10'
_cell_volume   1210.73561115
_cell_formula_units_Z   2
loop_
 _symmetry_equiv_pos_site_id
 _symmetry_equiv_pos_as_xyz
  1  'x, y, z'
loop_
 _atom_site_type_symbol
 _atom_site_label
 _atom_site_symmetry_multiplicity
 _atom_site_fract_x
 _atom_site_fract_y
 _atom_site_fract_z
 _atom_site_occupancy
  Rb  Rb0  1  0.836060  0.358530  0.652160  1
  Rb  Rb1  1  0.818312  0.809240  0.134240  1
  Rb  Rb2  1  0.242204  0.009649  0.470615  1
  Rb  Rb3  1  0.267850  0.256631  0.252748  1
  Rb  Rb4  1  0.736883  0.500622  0.973403  1
  Rb  Rb5  1  0.263117  0.499378  0.026597  1
  Rb  Rb6  1  0.680090  0.083504  0.884497  1
  Rb  Rb7  1  0.757796  0.990351  0.529385  1
  Rb  Rb8  1  0.732150  0.743369  0.747252  1
  Rb  Rb9  1  0.329481  0.341574  0.604048  1
  Rb  Rb10  1  0.163940  0.641470  0.347840  1
  Rb  Rb11  1  0.181688  0.190760  0.865760  1
  Rb  Rb12  1  0.319910  0.916496  0.115503  1
  Rb  Rb13  1  0.670519  0.658426  0.395952  1
  Ta  Ta14  1  0.353915  0.605280  0.774042  1
  Ta  Ta15  1  0.646085  0.394720  0.225958  1
  Tl  Tl16  1  0.047629  0.822812  0.874910  1
  Tl  Tl17  1  0.952371  0.177188  0.125090  1
  Tl  Tl18  1  0.368109  0.963167  0.700579  1
  Tl  Tl19  1  0.089207  0.720347  0.615493  1
  Tl  Tl20  1  0.910793  0.279653  0.384507  1
  Tl  Tl21  1  0.631891  0.036833  0.299421  1
  As  As22  1  0.924944  0.455874  0.207557  1
  As  As23  1  0.615626  0.200340  0.120532  1
  As  As24  1  0.075056  0.544126  0.792443  1
  As  As25  1  0.574555  0.300805  0.392073  1
  As  As26  1  0.425445  0.699195  0.607927  1
  As  As27  1  0.015911  0.014864  0.697845  1
  As  As28  1  0.513662  0.397767  0.810693  1
  As  As29  1  0.486338  0.602233  0.189307  1
  As  As30  1  0.384374  0.799660  0.879468  1
  As  As31  1  0.984089  0.985136  0.302155  1
