# generated using pymatgen
data_Ac3ErAu4
_symmetry_space_group_name_H-M   'P 1'
_cell_length_a   4.88535800
_cell_length_b   6.07767491
_cell_length_c   7.78445744
_cell_angle_alpha   87.55009586
_cell_angle_beta   90.00000000
_cell_angle_gamma   90.00000000
_symmetry_Int_Tables_number   1
_chemical_formula_structural   Ac3ErAu4
_chemical_formula_sum   'Ac3 Er1 Au4'
_cell_volume   230.92187364
_cell_formula_units_Z   1
loop_
 _symmetry_equiv_pos_site_id
 _symmetry_equiv_pos_as_xyz
  1  'x, y, z'
loop_
 _atom_site_type_symbol
 _atom_site_label
 _atom_site_symmetry_multiplicity
 _atom_site_fract_x
 _atom_site_fract_y
 _atom_site_fract_z
 _atom_site_occupancy
  Ac  Ac0  1  0.250000  0.350835  0.688438  1
  Ac  Ac1  1  0.250000  0.141614  0.181027  1
  Ac  Ac2  1  0.750000  0.644438  0.312589  1
  Er  Er3  1  0.750000  0.855783  0.816087  1
  Au  Au4  1  0.250000  0.849454  0.567912  1
  Au  Au5  1  0.250000  0.670253  0.015559  1
  Au  Au6  1  0.750000  0.139482  0.467714  1
  Au  Au7  1  0.750000  0.348140  0.950673  1
