# generated using pymatgen
data_Ho9Lu11Pb16
_symmetry_space_group_name_H-M   'P 1'
_cell_length_a   8.13604981
_cell_length_b   15.43489900
_cell_length_c   8.20114286
_cell_angle_alpha   90.00000000
_cell_angle_beta   89.87533058
_cell_angle_gamma   90.00000000
_symmetry_Int_Tables_number   1
_chemical_formula_structural   Ho9Lu11Pb16
_chemical_formula_sum   'Ho9 Lu11 Pb16'
_cell_volume   1029.88975917
_cell_formula_units_Z   1
loop_
 _symmetry_equiv_pos_site_id
 _symmetry_equiv_pos_as_xyz
  1  'x, y, z'
loop_
 _atom_site_type_symbol
 _atom_site_label
 _atom_site_symmetry_multiplicity
 _atom_site_fract_x
 _atom_site_fract_y
 _atom_site_fract_z
 _atom_site_occupancy
  Ho  Ho0  1  0.462064  0.599282  0.676205  1
  Ho  Ho1  1  0.962236  0.900539  0.823613  1
  Ho  Ho2  1  0.537313  0.099188  0.324404  1
  Ho  Ho3  1  0.037581  0.401027  0.177042  1
  Ho  Ho4  1  0.537313  0.400812  0.324404  1
  Ho  Ho5  1  0.037581  0.098973  0.177042  1
  Ho  Ho6  1  0.462064  0.900718  0.676205  1
  Ho  Ho7  1  0.962236  0.599461  0.823613  1
  Ho  Ho8  1  0.707306  0.250000  0.995314  1
  Lu  Lu9  1  0.624370  0.622729  0.157396  1
  Lu  Lu10  1  0.124996  0.878012  0.342527  1
  Lu  Lu11  1  0.375398  0.122236  0.841880  1
  Lu  Lu12  1  0.875536  0.378340  0.657623  1
  Lu  Lu13  1  0.375398  0.377764  0.841880  1
  Lu  Lu14  1  0.875536  0.121660  0.657623  1
  Lu  Lu15  1  0.624370  0.877271  0.157396  1
  Lu  Lu16  1  0.124996  0.621988  0.342527  1
  Lu  Lu17  1  0.793272  0.750000  0.494387  1
  Lu  Lu18  1  0.292802  0.750000  0.005003  1
  Lu  Lu19  1  0.207274  0.250000  0.505411  1
  Pb  Pb20  1  0.715990  0.457702  0.965150  1
  Pb  Pb21  1  0.216682  0.042826  0.535433  1
  Pb  Pb22  1  0.283750  0.957095  0.034898  1
  Pb  Pb23  1  0.783269  0.543001  0.464251  1
  Pb  Pb24  1  0.283750  0.542905  0.034898  1
  Pb  Pb25  1  0.783269  0.956999  0.464251  1
  Pb  Pb26  1  0.715990  0.042298  0.965150  1
  Pb  Pb27  1  0.216682  0.457174  0.535433  1
  Pb  Pb28  1  0.430472  0.750000  0.373492  1
  Pb  Pb29  1  0.931272  0.750000  0.126612  1
  Pb  Pb30  1  0.569447  0.250000  0.625702  1
  Pb  Pb31  1  0.070474  0.250000  0.872785  1
  Pb  Pb32  1  0.651281  0.750000  0.843289  1
  Pb  Pb33  1  0.151535  0.750000  0.655004  1
  Pb  Pb34  1  0.347614  0.250000  0.155838  1
  Pb  Pb35  1  0.848882  0.250000  0.346320  1
