# generated using pymatgen
data_Na8CaCeSn12
_symmetry_space_group_name_H-M   'P 1'
_cell_length_a   10.30841300
_cell_length_b   10.30841316
_cell_length_c   7.08643700
_cell_angle_alpha   90.00000000
_cell_angle_beta   90.00000000
_cell_angle_gamma   119.99999629
_symmetry_Int_Tables_number   1
_chemical_formula_structural   Na8CaCeSn12
_chemical_formula_sum   'Na8 Ca1 Ce1 Sn12'
_cell_volume   652.14205091
_cell_formula_units_Z   1
loop_
 _symmetry_equiv_pos_site_id
 _symmetry_equiv_pos_as_xyz
  1  'x, y, z'
loop_
 _atom_site_type_symbol
 _atom_site_label
 _atom_site_symmetry_multiplicity
 _atom_site_fract_x
 _atom_site_fract_y
 _atom_site_fract_z
 _atom_site_occupancy
  Na  Na0  1  0.540806  0.459194  0.750000  1
  Na  Na1  1  0.540806  0.081611  0.750000  1
  Na  Na2  1  0.459162  0.540838  0.250000  1
  Na  Na3  1  0.081676  0.540838  0.250000  1
  Na  Na4  1  0.666667  0.333333  0.250000  1
  Na  Na5  1  0.918389  0.459194  0.750000  1
  Na  Na6  1  0.333333  0.666667  0.750000  1
  Na  Na7  1  0.459162  0.918324  0.250000  1
  Ca  Ca8  1  0.000000  0.000000  0.250000  1
  Ce  Ce9  1  0.000000  0.000000  0.750000  1
  Sn  Sn10  1  0.832512  0.167488  0.465569  1
  Sn  Sn11  1  0.832512  0.167488  0.034431  1
  Sn  Sn12  1  0.832512  0.665023  0.465569  1
  Sn  Sn13  1  0.665084  0.832542  0.964952  1
  Sn  Sn14  1  0.167458  0.832542  0.535048  1
  Sn  Sn15  1  0.167458  0.334916  0.535048  1
  Sn  Sn16  1  0.167458  0.334916  0.964952  1
  Sn  Sn17  1  0.832512  0.665023  0.034431  1
  Sn  Sn18  1  0.167458  0.832542  0.964952  1
  Sn  Sn19  1  0.334977  0.167488  0.034431  1
  Sn  Sn20  1  0.665084  0.832542  0.535048  1
  Sn  Sn21  1  0.334977  0.167488  0.465569  1
