# generated using pymatgen
data_Mn2V9Si4Tc
_symmetry_space_group_name_H-M   'P 1'
_cell_length_a   4.65391700
_cell_length_b   4.70665900
_cell_length_c   9.34124669
_cell_angle_alpha   90.03510432
_cell_angle_beta   90.00000000
_cell_angle_gamma   90.00000000
_symmetry_Int_Tables_number   1
_chemical_formula_structural   Mn2V9Si4Tc
_chemical_formula_sum   'Mn2 V9 Si4 Tc1'
_cell_volume   204.61436881
_cell_formula_units_Z   1
loop_
 _symmetry_equiv_pos_site_id
 _symmetry_equiv_pos_as_xyz
  1  'x, y, z'
loop_
 _atom_site_type_symbol
 _atom_site_label
 _atom_site_symmetry_multiplicity
 _atom_site_fract_x
 _atom_site_fract_y
 _atom_site_fract_z
 _atom_site_occupancy
  Mn  Mn0  1  0.000000  0.500613  0.374222  1
  Mn  Mn1  1  0.000000  0.499427  0.874883  1
  V  V2  1  0.500000  0.250766  0.500023  1
  V  V3  1  0.750141  0.000063  0.250834  1
  V  V4  1  0.750080  0.001223  0.748996  1
  V  V5  1  0.000000  0.498364  0.124236  1
  V  V6  1  0.000000  0.501022  0.625264  1
  V  V7  1  0.500000  0.747371  0.000529  1
  V  V8  1  0.500000  0.751559  0.500243  1
  V  V9  1  0.249859  0.000063  0.250834  1
  V  V10  1  0.249920  0.001223  0.748996  1
  Si  Si11  1  0.500000  0.503970  0.252585  1
  Si  Si12  1  0.500000  0.503289  0.747693  1
  Si  Si13  1  0.000000  0.992907  0.000653  1
  Si  Si14  1  0.000000  0.999583  0.500354  1
  Tc  Tc15  1  0.500000  0.248558  0.999654  1
