# generated using pymatgen
data_LiTb2Pr13YIn3Ir4
_symmetry_space_group_name_H-M   'P 1'
_cell_length_a   9.98799972
_cell_length_b   9.99955470
_cell_length_c   9.97838916
_cell_angle_alpha   59.93957570
_cell_angle_beta   60.05015248
_cell_angle_gamma   60.24661143
_symmetry_Int_Tables_number   1
_chemical_formula_structural   LiTb2Pr13YIn3Ir4
_chemical_formula_sum   'Li1 Tb2 Pr13 Y1 In3 Ir4'
_cell_volume   705.94824788
_cell_formula_units_Z   1
loop_
 _symmetry_equiv_pos_site_id
 _symmetry_equiv_pos_as_xyz
  1  'x, y, z'
loop_
 _atom_site_type_symbol
 _atom_site_label
 _atom_site_symmetry_multiplicity
 _atom_site_fract_x
 _atom_site_fract_y
 _atom_site_fract_z
 _atom_site_occupancy
  Li  Li0  1  0.322040  0.317901  0.320117  1
  Tb  Tb1  1  0.707478  0.095406  0.099649  1
  Tb  Tb2  1  0.557577  0.944516  0.940899  1
  Pr  Pr3  1  0.098450  0.707004  0.096952  1
  Pr  Pr4  1  0.936632  0.943250  0.560060  1
  Pr  Pr5  1  0.940347  0.559453  0.941946  1
  Pr  Pr6  1  0.312326  0.692814  0.309395  1
  Pr  Pr7  1  0.936016  0.562952  0.560385  1
  Pr  Pr8  1  0.312686  0.307190  0.692061  1
  Pr  Pr9  1  0.100195  0.098801  0.097679  1
  Pr  Pr10  1  0.561665  0.562712  0.935678  1
  Pr  Pr11  1  0.101008  0.096908  0.706243  1
  Pr  Pr12  1  0.692686  0.304196  0.695454  1
  Pr  Pr13  1  0.691164  0.694962  0.305941  1
  Pr  Pr14  1  0.693668  0.307379  0.309402  1
  Pr  Pr15  1  0.310233  0.691813  0.690082  1
  Y  Y16  1  0.562048  0.936747  0.561276  1
  In  In17  1  0.007399  0.331091  0.330730  1
  In  In18  1  0.334783  0.008216  0.329583  1
  In  In19  1  0.332818  0.328197  0.008798  1
  Ir  Ir20  1  0.884356  0.895585  0.896853  1
  Ir  Ir21  1  0.884392  0.895872  0.325471  1
  Ir  Ir22  1  0.331951  0.894661  0.889120  1
  Ir  Ir23  1  0.888086  0.322375  0.896223  1
