# generated using pymatgen
data_Sc3Al2GaRh6
_symmetry_space_group_name_H-M   'P 1'
_cell_length_a   4.43420500
_cell_length_b   6.21610800
_cell_length_c   13.21539700
_cell_angle_alpha   90.00000000
_cell_angle_beta   90.00044537
_cell_angle_gamma   90.00000000
_symmetry_Int_Tables_number   1
_chemical_formula_structural   Sc3Al2GaRh6
_chemical_formula_sum   'Sc6 Al4 Ga2 Rh12'
_cell_volume   364.26255786
_cell_formula_units_Z   2
loop_
 _symmetry_equiv_pos_site_id
 _symmetry_equiv_pos_as_xyz
  1  'x, y, z'
loop_
 _atom_site_type_symbol
 _atom_site_label
 _atom_site_symmetry_multiplicity
 _atom_site_fract_x
 _atom_site_fract_y
 _atom_site_fract_z
 _atom_site_occupancy
  Sc  Sc0  1  0.000007  0.500000  0.001075  1
  Sc  Sc1  1  0.499982  0.000000  0.165581  1
  Sc  Sc2  1  0.999967  0.500000  0.332699  1
  Sc  Sc3  1  0.499992  0.000000  0.500468  1
  Sc  Sc4  1  0.000026  0.500000  0.666186  1
  Sc  Sc5  1  0.500014  0.000000  0.833969  1
  Al  Al6  1  0.999982  0.000000  0.333751  1
  Al  Al7  1  0.499998  0.500000  0.500024  1
  Al  Al8  1  0.000016  0.000000  0.666592  1
  Al  Al9  1  0.500024  0.500000  0.833014  1
  Ga  Ga10  1  0.999995  0.000000  0.999540  1
  Ga  Ga11  1  0.499994  0.500000  0.167117  1
  Rh  Rh12  1  0.500002  0.252729  0.998885  1
  Rh  Rh13  1  0.500002  0.747271  0.998885  1
  Rh  Rh14  1  0.999975  0.247239  0.167781  1
  Rh  Rh15  1  0.999975  0.752761  0.167781  1
  Rh  Rh16  1  0.499984  0.248646  0.334229  1
  Rh  Rh17  1  0.499984  0.751354  0.334229  1
  Rh  Rh18  1  0.999993  0.249414  0.499867  1
  Rh  Rh19  1  0.999993  0.750586  0.499867  1
  Rh  Rh20  1  0.500015  0.250606  0.666800  1
  Rh  Rh21  1  0.500015  0.749394  0.666800  1
  Rh  Rh22  1  0.000030  0.251346  0.832430  1
  Rh  Rh23  1  0.000030  0.748654  0.832430  1
