# generated using pymatgen
data_Ho8Ti11Si16Rh
_symmetry_space_group_name_H-M   'P 1'
_cell_length_a   7.03228078
_cell_length_b   7.03228078
_cell_length_c   12.85181477
_cell_angle_alpha   90.14180534
_cell_angle_beta   89.85819466
_cell_angle_gamma   89.78491122
_symmetry_Int_Tables_number   1
_chemical_formula_structural   Ho8Ti11Si16Rh
_chemical_formula_sum   'Ho8 Ti11 Si16 Rh1'
_cell_volume   635.55206205
_cell_formula_units_Z   1
loop_
 _symmetry_equiv_pos_site_id
 _symmetry_equiv_pos_as_xyz
  1  'x, y, z'
loop_
 _atom_site_type_symbol
 _atom_site_label
 _atom_site_symmetry_multiplicity
 _atom_site_fract_x
 _atom_site_fract_y
 _atom_site_fract_z
 _atom_site_occupancy
  Ho  Ho0  1  0.340452  0.003794  0.467324  1
  Ho  Ho1  1  0.496898  0.841684  0.717804  1
  Ho  Ho2  1  0.500550  0.158933  0.214887  1
  Ho  Ho3  1  0.841684  0.496898  0.282196  1
  Ho  Ho4  1  0.158933  0.500550  0.785113  1
  Ho  Ho5  1  0.657361  0.998700  0.968044  1
  Ho  Ho6  1  0.003794  0.340452  0.532676  1
  Ho  Ho7  1  0.998700  0.657361  0.031956  1
  Ti  Ti8  1  0.175673  0.826949  0.248665  1
  Ti  Ti9  1  0.826949  0.175673  0.751335  1
  Ti  Ti10  1  0.673556  0.673556  0.500000  1
  Ti  Ti11  1  0.149244  0.003351  0.875848  1
  Ti  Ti12  1  0.494087  0.655332  0.124856  1
  Ti  Ti13  1  0.506915  0.349494  0.627351  1
  Ti  Ti14  1  0.655332  0.494087  0.875144  1
  Ti  Ti15  1  0.349494  0.506915  0.372649  1
  Ti  Ti16  1  0.849355  0.994071  0.374894  1
  Ti  Ti17  1  0.003351  0.149244  0.124152  1
  Ti  Ti18  1  0.994071  0.849355  0.625106  1
  Si  Si19  1  0.202395  0.132763  0.684988  1
  Si  Si20  1  0.371999  0.703563  0.933842  1
  Si  Si21  1  0.631361  0.295020  0.433713  1
  Si  Si22  1  0.703563  0.371999  0.066158  1
  Si  Si23  1  0.295020  0.631361  0.566287  1
  Si  Si24  1  0.796448  0.868627  0.183952  1
  Si  Si25  1  0.132763  0.202395  0.315012  1
  Si  Si26  1  0.868627  0.796448  0.816048  1
  Si  Si27  1  0.286628  0.950217  0.064152  1
  Si  Si28  1  0.546716  0.792206  0.315711  1
  Si  Si29  1  0.449288  0.209815  0.817402  1
  Si  Si30  1  0.792206  0.546716  0.684289  1
  Si  Si31  1  0.209815  0.449288  0.182598  1
  Si  Si32  1  0.708497  0.047834  0.565682  1
  Si  Si33  1  0.950217  0.286628  0.935848  1
  Si  Si34  1  0.047834  0.708497  0.434318  1
  Rh  Rh35  1  0.330225  0.330225  0.000000  1
