# generated using pymatgen
data_Dy2Er4Mn3(Co5P4)3
_symmetry_space_group_name_H-M   'P 1'
_cell_length_a   3.69374100
_cell_length_b   10.54402900
_cell_length_c   12.12605600
_cell_angle_alpha   90.00000000
_cell_angle_beta   90.00000000
_cell_angle_gamma   90.00000000
_symmetry_Int_Tables_number   1
_chemical_formula_structural   Dy2Er4Mn3(Co5P4)3
_chemical_formula_sum   'Dy2 Er4 Mn3 Co15 P12'
_cell_volume   472.27243864
_cell_formula_units_Z   1
loop_
 _symmetry_equiv_pos_site_id
 _symmetry_equiv_pos_as_xyz
  1  'x, y, z'
loop_
 _atom_site_type_symbol
 _atom_site_label
 _atom_site_symmetry_multiplicity
 _atom_site_fract_x
 _atom_site_fract_y
 _atom_site_fract_z
 _atom_site_occupancy
  Dy  Dy0  1  0.000000  0.500000  0.523551  1
  Dy  Dy1  1  0.500000  0.000000  0.476763  1
  Er  Er2  1  0.500000  0.818276  0.204485  1
  Er  Er3  1  0.500000  0.181724  0.204485  1
  Er  Er4  1  0.000000  0.680448  0.796032  1
  Er  Er5  1  0.000000  0.319552  0.796032  1
  Mn  Mn6  1  0.500000  0.500000  0.155970  1
  Mn  Mn7  1  0.000000  0.000000  0.841451  1
  Mn  Mn8  1  0.000000  0.500000  0.988140  1
  Co  Co9  1  0.500000  0.500000  0.700108  1
  Co  Co10  1  0.000000  0.000000  0.297445  1
  Co  Co11  1  0.500000  0.000000  0.013583  1
  Co  Co12  1  0.500000  0.330511  0.994035  1
  Co  Co13  1  0.500000  0.669489  0.994035  1
  Co  Co14  1  0.000000  0.165338  0.005649  1
  Co  Co15  1  0.000000  0.834662  0.005649  1
  Co  Co16  1  0.500000  0.295812  0.430391  1
  Co  Co17  1  0.500000  0.704188  0.430391  1
  Co  Co18  1  0.000000  0.203575  0.570236  1
  Co  Co19  1  0.000000  0.796425  0.570236  1
  Co  Co20  1  0.500000  0.879455  0.709766  1
  Co  Co21  1  0.500000  0.120545  0.709766  1
  Co  Co22  1  0.000000  0.621482  0.291078  1
  Co  Co23  1  0.000000  0.378518  0.291078  1
  P  P24  1  0.500000  0.500000  0.882082  1
  P  P25  1  0.000000  0.000000  0.117899  1
  P  P26  1  0.500000  0.500000  0.344906  1
  P  P27  1  0.000000  0.000000  0.654961  1
  P  P28  1  0.500000  0.310725  0.617062  1
  P  P29  1  0.500000  0.689275  0.617062  1
  P  P30  1  0.000000  0.188708  0.383431  1
  P  P31  1  0.000000  0.811292  0.383431  1
  P  P32  1  0.500000  0.846800  0.892703  1
  P  P33  1  0.500000  0.153200  0.892703  1
  P  P34  1  0.000000  0.654427  0.106706  1
  P  P35  1  0.000000  0.345573  0.106706  1
