# generated using pymatgen
data_YHo3Ga18Co5Pd
_symmetry_space_group_name_H-M   'P 1'
_cell_length_a   7.41642418
_cell_length_b   7.41588613
_cell_length_c   9.42640601
_cell_angle_alpha   89.89163593
_cell_angle_beta   89.88589052
_cell_angle_gamma   119.75982982
_symmetry_Int_Tables_number   1
_chemical_formula_structural   YHo3Ga18Co5Pd
_chemical_formula_sum   'Y1 Ho3 Ga18 Co5 Pd1'
_cell_volume   450.06692556
_cell_formula_units_Z   1
loop_
 _symmetry_equiv_pos_site_id
 _symmetry_equiv_pos_as_xyz
  1  'x, y, z'
loop_
 _atom_site_type_symbol
 _atom_site_label
 _atom_site_symmetry_multiplicity
 _atom_site_fract_x
 _atom_site_fract_y
 _atom_site_fract_z
 _atom_site_occupancy
  Y  Y0  1  0.329575  0.002817  0.748526  1
  Ho  Ho1  1  0.002747  0.329625  0.748465  1
  Ho  Ho2  1  0.670404  0.997241  0.251537  1
  Ho  Ho3  1  0.997225  0.670371  0.251531  1
  Ga  Ga4  1  0.656964  0.000638  0.924432  1
  Ga  Ga5  1  0.334647  0.998272  0.428016  1
  Ga  Ga6  1  0.998271  0.334641  0.428264  1
  Ga  Ga7  1  0.343354  0.999361  0.075977  1
  Ga  Ga8  1  0.000372  0.656380  0.924404  1
  Ga  Ga9  1  0.999359  0.343336  0.075760  1
  Ga  Ga10  1  0.333041  0.333288  0.557695  1
  Ga  Ga11  1  0.342674  0.342907  0.937636  1
  Ga  Ga12  1  0.657333  0.657335  0.062539  1
  Ga  Ga13  1  0.666961  0.666961  0.442122  1
  Ga  Ga14  1  0.873181  0.873425  0.741910  1
  Ga  Ga15  1  0.126480  0.126491  0.258078  1
  Ga  Ga16  1  0.335542  0.551960  0.251232  1
  Ga  Ga17  1  0.551968  0.335555  0.251234  1
  Ga  Ga18  1  0.664750  0.448410  0.748766  1
  Ga  Ga19  1  0.448123  0.664213  0.748764  1
  Ga  Ga20  1  0.665637  0.001731  0.571564  1
  Ga  Ga21  1  0.001450  0.665080  0.571571  1
  Co  Co22  1  0.329298  0.670665  0.000071  1
  Co  Co23  1  0.670998  0.329117  0.499918  1
  Co  Co24  1  0.670733  0.329330  0.000069  1
  Co  Co25  1  0.329067  0.670897  0.499924  1
  Co  Co26  1  0.999917  0.999974  0.499915  1
  Pd  Pd27  1  0.999928  0.999980  0.000079  1
