# generated using pymatgen
data_BaInPb2Au
_symmetry_space_group_name_H-M   'P 1'
_cell_length_a   7.27952423
_cell_length_b   7.27952206
_cell_length_c   7.27952430
_cell_angle_alpha   140.14243618
_cell_angle_beta   140.14242799
_cell_angle_gamma   57.63711153
_symmetry_Int_Tables_number   1
_chemical_formula_structural   BaInPb2Au
_chemical_formula_sum   'Ba1 In1 Pb2 Au1'
_cell_volume   157.06485648
_cell_formula_units_Z   1
loop_
 _symmetry_equiv_pos_site_id
 _symmetry_equiv_pos_as_xyz
  1  'x, y, z'
loop_
 _atom_site_type_symbol
 _atom_site_label
 _atom_site_symmetry_multiplicity
 _atom_site_fract_x
 _atom_site_fract_y
 _atom_site_fract_z
 _atom_site_occupancy
  Ba  Ba0  1  0.986422  0.986422  0.000000  1
  In  In1  1  0.595667  0.595667  0.000000  1
  Pb  Pb2  1  0.746614  0.246614  0.500000  1
  Pb  Pb3  1  0.246614  0.746614  0.500000  1
  Au  Au4  1  0.382573  0.382573  0.000000  1
