# generated using pymatgen
data_YHo4In4PtAu
_symmetry_space_group_name_H-M   'P 1'
_cell_length_a   3.64703000
_cell_length_b   8.17004079
_cell_length_c   18.34151200
_cell_angle_alpha   90.07386703
_cell_angle_beta   90.00000000
_cell_angle_gamma   90.00000000
_symmetry_Int_Tables_number   1
_chemical_formula_structural   YHo4In4PtAu
_chemical_formula_sum   'Y2 Ho8 In8 Pt2 Au2'
_cell_volume   546.51027797
_cell_formula_units_Z   2
loop_
 _symmetry_equiv_pos_site_id
 _symmetry_equiv_pos_as_xyz
  1  'x, y, z'
loop_
 _atom_site_type_symbol
 _atom_site_label
 _atom_site_symmetry_multiplicity
 _atom_site_fract_x
 _atom_site_fract_y
 _atom_site_fract_z
 _atom_site_occupancy
  Y  Y0  1  0.000000  0.000000  0.000000  1
  Y  Y1  1  0.000000  0.500000  0.500000  1
  Ho  Ho2  1  0.000000  0.119330  0.419079  1
  Ho  Ho3  1  0.000000  0.880670  0.580921  1
  Ho  Ho4  1  0.000000  0.384651  0.916143  1
  Ho  Ho5  1  0.000000  0.615349  0.083857  1
  Ho  Ho6  1  0.000000  0.253120  0.216715  1
  Ho  Ho7  1  0.000000  0.746880  0.783285  1
  Ho  Ho8  1  0.000000  0.268360  0.721177  1
  Ho  Ho9  1  0.000000  0.731640  0.278823  1
  In  In10  1  0.500000  0.421777  0.352029  1
  In  In11  1  0.500000  0.578223  0.647971  1
  In  In12  1  0.500000  0.078284  0.852484  1
  In  In13  1  0.500000  0.921716  0.147516  1
  In  In14  1  0.500000  0.292300  0.065657  1
  In  In15  1  0.500000  0.707700  0.934343  1
  In  In16  1  0.500000  0.209333  0.567535  1
  In  In17  1  0.500000  0.790667  0.432465  1
  Pt  Pt18  1  0.500000  0.472225  0.803998  1
  Pt  Pt19  1  0.500000  0.527775  0.196002  1
  Au  Au20  1  0.500000  0.029388  0.302202  1
  Au  Au21  1  0.500000  0.970612  0.697798  1
