# generated using pymatgen
data_Ca3Ga(SiPt3)2
_symmetry_space_group_name_H-M   'P 1'
_cell_length_a   5.70763900
_cell_length_b   5.70764066
_cell_length_c   15.46367300
_cell_angle_alpha   90.00000000
_cell_angle_beta   90.00000000
_cell_angle_gamma   119.99999616
_symmetry_Int_Tables_number   1
_chemical_formula_structural   Ca3Ga(SiPt3)2
_chemical_formula_sum   'Ca6 Ga2 Si4 Pt12'
_cell_volume   436.27108097
_cell_formula_units_Z   2
loop_
 _symmetry_equiv_pos_site_id
 _symmetry_equiv_pos_as_xyz
  1  'x, y, z'
loop_
 _atom_site_type_symbol
 _atom_site_label
 _atom_site_symmetry_multiplicity
 _atom_site_fract_x
 _atom_site_fract_y
 _atom_site_fract_z
 _atom_site_occupancy
  Ca  Ca0  1  0.333333  0.666667  0.037511  1
  Ca  Ca1  1  0.333333  0.666667  0.250000  1
  Ca  Ca2  1  0.333333  0.666667  0.462489  1
  Ca  Ca3  1  0.666667  0.333334  0.537511  1
  Ca  Ca4  1  0.666667  0.333334  0.750000  1
  Ca  Ca5  1  0.666667  0.333334  0.962489  1
  Ga  Ga6  1  0.000000  0.000000  0.000000  1
  Ga  Ga7  1  0.000000  0.000000  0.500000  1
  Si  Si8  1  0.000000  0.000000  0.250000  1
  Si  Si9  1  0.666667  0.333334  0.250000  1
  Si  Si10  1  0.000000  0.000000  0.750000  1
  Si  Si11  1  0.333333  0.666667  0.750000  1
  Pt  Pt12  1  0.335282  0.167641  0.134751  1
  Pt  Pt13  1  0.832359  0.167641  0.134751  1
  Pt  Pt14  1  0.832359  0.664718  0.134751  1
  Pt  Pt15  1  0.335282  0.167641  0.365249  1
  Pt  Pt16  1  0.832359  0.167641  0.365249  1
  Pt  Pt17  1  0.832359  0.664718  0.365249  1
  Pt  Pt18  1  0.167641  0.335283  0.634752  1
  Pt  Pt19  1  0.167641  0.832359  0.634752  1
  Pt  Pt20  1  0.664718  0.832359  0.634752  1
  Pt  Pt21  1  0.167641  0.335283  0.865249  1
  Pt  Pt22  1  0.167641  0.832359  0.865249  1
  Pt  Pt23  1  0.664718  0.832359  0.865249  1
