# generated using pymatgen
data_Dy8Zn(Si4Ni)3
_symmetry_space_group_name_H-M   'P 1'
_cell_length_a   7.98207001
_cell_length_b   7.98771973
_cell_length_c   8.07845200
_cell_angle_alpha   90.00233839
_cell_angle_beta   89.99786094
_cell_angle_gamma   119.95983848
_symmetry_Int_Tables_number   1
_chemical_formula_structural   Dy8Zn(Si4Ni)3
_chemical_formula_sum   'Dy8 Zn1 Si12 Ni3'
_cell_volume   446.24436463
_cell_formula_units_Z   1
loop_
 _symmetry_equiv_pos_site_id
 _symmetry_equiv_pos_as_xyz
  1  'x, y, z'
loop_
 _atom_site_type_symbol
 _atom_site_label
 _atom_site_symmetry_multiplicity
 _atom_site_fract_x
 _atom_site_fract_y
 _atom_site_fract_z
 _atom_site_occupancy
  Dy  Dy0  1  0.999992  0.999982  0.247293  1
  Dy  Dy1  1  0.999989  0.999985  0.752795  1
  Dy  Dy2  1  0.003500  0.501768  0.247033  1
  Dy  Dy3  1  0.498247  0.501765  0.247030  1
  Dy  Dy4  1  0.498679  0.997374  0.752895  1
  Dy  Dy5  1  0.498250  0.996522  0.247066  1
  Dy  Dy6  1  0.498671  0.501339  0.752931  1
  Dy  Dy7  1  0.002644  0.501335  0.752928  1
  Zn  Zn8  1  0.666676  0.333398  0.498427  1
  Si  Si9  1  0.170809  0.341659  0.999773  1
  Si  Si10  1  0.658438  0.829321  0.999774  1
  Si  Si11  1  0.173426  0.346889  0.500207  1
  Si  Si12  1  0.343003  0.171478  0.000220  1
  Si  Si13  1  0.170840  0.829319  0.999770  1
  Si  Si14  1  0.652915  0.826497  0.500201  1
  Si  Si15  1  0.828543  0.657089  0.000230  1
  Si  Si16  1  0.327968  0.163853  0.500023  1
  Si  Si17  1  0.173572  0.826468  0.500203  1
  Si  Si18  1  0.836020  0.671990  0.500021  1
  Si  Si19  1  0.828492  0.171461  0.000221  1
  Si  Si20  1  0.835909  0.163882  0.500019  1
  Ni  Ni21  1  0.333443  0.666704  0.999579  1
  Ni  Ni22  1  0.333209  0.666402  0.500843  1
  Ni  Ni23  1  0.666770  0.333521  0.000520  1
