# generated using pymatgen
data_PrNdAl20Os3Rh
_symmetry_space_group_name_H-M   'P 1'
_cell_length_a   6.89535045
_cell_length_b   6.90178125
_cell_length_c   9.22116584
_cell_angle_alpha   90.21540277
_cell_angle_beta   90.07118666
_cell_angle_gamma   96.72827325
_symmetry_Int_Tables_number   1
_chemical_formula_structural   PrNdAl20Os3Rh
_chemical_formula_sum   'Pr1 Nd1 Al20 Os3 Rh1'
_cell_volume   435.81113478
_cell_formula_units_Z   1
loop_
 _symmetry_equiv_pos_site_id
 _symmetry_equiv_pos_as_xyz
  1  'x, y, z'
loop_
 _atom_site_type_symbol
 _atom_site_label
 _atom_site_symmetry_multiplicity
 _atom_site_fract_x
 _atom_site_fract_y
 _atom_site_fract_z
 _atom_site_occupancy
  Pr  Pr0  1  0.872885  0.125286  0.749852  1
  Nd  Nd1  1  0.127769  0.874255  0.250050  1
  Al  Al2  1  0.619906  0.376940  0.550855  1
  Al  Al3  1  0.379775  0.623367  0.448915  1
  Al  Al4  1  0.377631  0.622936  0.049134  1
  Al  Al5  1  0.622040  0.377387  0.951103  1
  Al  Al6  1  0.226912  0.226168  0.499228  1
  Al  Al7  1  0.773253  0.773660  0.500322  1
  Al  Al8  1  0.775048  0.775240  0.999695  1
  Al  Al9  1  0.225113  0.224601  0.000767  1
  Al  Al10  1  0.840898  0.159596  0.102079  1
  Al  Al11  1  0.159451  0.840063  0.898345  1
  Al  Al12  1  0.160794  0.840363  0.603568  1
  Al  Al13  1  0.839529  0.159277  0.396030  1
  Al  Al14  1  0.856298  0.588291  0.750232  1
  Al  Al15  1  0.143699  0.412241  0.249763  1
  Al  Al16  1  0.410880  0.142808  0.750395  1
  Al  Al17  1  0.588599  0.857213  0.249605  1
  Al  Al18  1  0.221477  0.483703  0.752190  1
  Al  Al19  1  0.778911  0.516764  0.247813  1
  Al  Al20  1  0.516103  0.780847  0.749468  1
  Al  Al21  1  0.483424  0.218756  0.250534  1
  Os  Os22  1  0.000093  0.500272  0.000294  1
  Os  Os23  1  0.499734  0.999919  0.000309  1
  Os  Os24  1  0.499728  0.999921  0.499675  1
  Rh  Rh25  1  0.000051  0.500128  0.499779  1
