# generated using pymatgen
data_Dy10IrRu3Rh2
_symmetry_space_group_name_H-M   'P 1'
_cell_length_a   10.86928241
_cell_length_b   10.86630700
_cell_length_c   6.40578106
_cell_angle_alpha   90.00000000
_cell_angle_beta   89.95434643
_cell_angle_gamma   90.00000000
_symmetry_Int_Tables_number   1
_chemical_formula_structural   Dy10IrRu3Rh2
_chemical_formula_sum   'Dy20 Ir2 Ru6 Rh4'
_cell_volume   756.57989501
_cell_formula_units_Z   2
loop_
 _symmetry_equiv_pos_site_id
 _symmetry_equiv_pos_as_xyz
  1  'x, y, z'
loop_
 _atom_site_type_symbol
 _atom_site_label
 _atom_site_symmetry_multiplicity
 _atom_site_fract_x
 _atom_site_fract_y
 _atom_site_fract_z
 _atom_site_occupancy
  Dy  Dy0  1  0.294132  0.087322  0.378646  1
  Dy  Dy1  1  0.294132  0.912678  0.878646  1
  Dy  Dy2  1  0.708150  0.085870  0.878546  1
  Dy  Dy3  1  0.708150  0.914130  0.378546  1
  Dy  Dy4  1  0.587226  0.793885  0.878440  1
  Dy  Dy5  1  0.587226  0.206115  0.378440  1
  Dy  Dy6  1  0.412967  0.793881  0.378888  1
  Dy  Dy7  1  0.412967  0.206119  0.878888  1
  Dy  Dy8  1  0.206711  0.414269  0.620755  1
  Dy  Dy9  1  0.206711  0.585731  0.120755  1
  Dy  Dy10  1  0.794598  0.411628  0.121786  1
  Dy  Dy11  1  0.794598  0.588372  0.621786  1
  Dy  Dy12  1  0.912851  0.706894  0.120309  1
  Dy  Dy13  1  0.912851  0.293106  0.620309  1
  Dy  Dy14  1  0.085944  0.707164  0.622511  1
  Dy  Dy15  1  0.085944  0.292836  0.122511  1
  Dy  Dy16  1  0.998016  0.000610  0.499876  1
  Dy  Dy17  1  0.998016  0.999390  0.999876  1
  Dy  Dy18  1  0.499498  0.500232  0.000101  1
  Dy  Dy19  1  0.499498  0.499768  0.500101  1
  Ir  Ir20  1  0.347625  0.346722  0.250314  1
  Ir  Ir21  1  0.347625  0.653278  0.750314  1
  Ru  Ru22  1  0.847496  0.152917  0.249697  1
  Ru  Ru23  1  0.847496  0.847083  0.749697  1
  Ru  Ru24  1  0.499761  0.000092  0.124448  1
  Ru  Ru25  1  0.499761  0.999908  0.624448  1
  Ru  Ru26  1  0.999240  0.500308  0.875752  1
  Ru  Ru27  1  0.999240  0.499692  0.375752  1
  Rh  Rh28  1  0.153622  0.153001  0.750225  1
  Rh  Rh29  1  0.153622  0.846999  0.250225  1
  Rh  Rh30  1  0.652162  0.348474  0.749704  1
  Rh  Rh31  1  0.652162  0.651526  0.249704  1
