# generated using pymatgen
data_HoEr4Tm(Sb4Au3)2
_symmetry_space_group_name_H-M   'P 1'
_cell_length_a   8.57910588
_cell_length_b   8.57910501
_cell_length_c   8.57910410
_cell_angle_alpha   109.46233480
_cell_angle_beta   109.48900655
_cell_angle_gamma   109.46232901
_symmetry_Int_Tables_number   1
_chemical_formula_structural   HoEr4Tm(Sb4Au3)2
_chemical_formula_sum   'Ho1 Er4 Tm1 Sb8 Au6'
_cell_volume   486.07578822
_cell_formula_units_Z   1
loop_
 _symmetry_equiv_pos_site_id
 _symmetry_equiv_pos_as_xyz
  1  'x, y, z'
loop_
 _atom_site_type_symbol
 _atom_site_label
 _atom_site_symmetry_multiplicity
 _atom_site_fract_x
 _atom_site_fract_y
 _atom_site_fract_z
 _atom_site_occupancy
  Ho  Ho0  1  0.875000  0.250000  0.125000  1
  Er  Er1  1  0.249942  0.124890  0.874822  1
  Er  Er2  1  0.749934  0.375110  0.625053  1
  Er  Er3  1  0.125178  0.875119  0.250066  1
  Er  Er4  1  0.374947  0.624881  0.750058  1
  Tm  Tm5  1  0.625000  0.750000  0.375000  1
  Sb  Sb6  1  0.678415  0.499682  0.999907  1
  Sb  Sb7  1  0.500225  0.000318  0.678733  1
  Sb  Sb8  1  0.000082  0.678683  0.499953  1
  Sb  Sb9  1  0.821271  0.821317  0.821401  1
  Sb  Sb10  1  0.500047  0.000130  0.178729  1
  Sb  Sb11  1  0.178599  0.499870  0.999918  1
  Sb  Sb12  1  0.000093  0.178508  0.499775  1
  Sb  Sb13  1  0.321267  0.321492  0.321585  1
  Au  Au14  1  0.375000  0.250000  0.625000  1
  Au  Au15  1  0.125000  0.750000  0.875000  1
  Au  Au16  1  0.251469  0.626136  0.375594  1
  Au  Au17  1  0.749457  0.873864  0.125332  1
  Au  Au18  1  0.624406  0.375875  0.250543  1
  Au  Au19  1  0.874668  0.124125  0.748531  1
