# generated using pymatgen
data_LiTb8Ho8Cd3Co4
_symmetry_space_group_name_H-M   'P 1'
_cell_length_a   9.49033006
_cell_length_b   9.49856792
_cell_length_c   9.51988086
_cell_angle_alpha   60.02844328
_cell_angle_beta   60.03131024
_cell_angle_gamma   59.88097940
_symmetry_Int_Tables_number   1
_chemical_formula_structural   LiTb8Ho8Cd3Co4
_chemical_formula_sum   'Li1 Tb8 Ho8 Cd3 Co4'
_cell_volume   606.53995767
_cell_formula_units_Z   1
loop_
 _symmetry_equiv_pos_site_id
 _symmetry_equiv_pos_as_xyz
  1  'x, y, z'
loop_
 _atom_site_type_symbol
 _atom_site_label
 _atom_site_symmetry_multiplicity
 _atom_site_fract_x
 _atom_site_fract_y
 _atom_site_fract_z
 _atom_site_occupancy
  Li  Li0  1  0.570806  0.571161  0.286416  1
  Tb  Tb1  1  0.938241  0.937807  0.562401  1
  Tb  Tb2  1  0.813695  0.185963  0.184925  1
  Tb  Tb3  1  0.937291  0.563203  0.562833  1
  Tb  Tb4  1  0.940207  0.560275  0.939834  1
  Tb  Tb5  1  0.814491  0.813688  0.183403  1
  Tb  Tb6  1  0.343272  0.344034  0.346024  1
  Tb  Tb7  1  0.559667  0.940071  0.940186  1
  Tb  Tb8  1  0.562707  0.937336  0.563147  1
  Ho  Ho9  1  0.188867  0.812316  0.809871  1
  Ho  Ho10  1  0.188956  0.188169  0.809292  1
  Ho  Ho11  1  0.348006  0.347638  0.957234  1
  Ho  Ho12  1  0.344032  0.965912  0.347624  1
  Ho  Ho13  1  0.812181  0.188722  0.809362  1
  Ho  Ho14  1  0.560089  0.560980  0.939236  1
  Ho  Ho15  1  0.186294  0.813142  0.185091  1
  Ho  Ho16  1  0.966126  0.343821  0.348020  1
  Cd  Cd17  1  0.258391  0.581834  0.577398  1
  Cd  Cd18  1  0.581332  0.581415  0.577094  1
  Cd  Cd19  1  0.581676  0.258325  0.577852  1
  Co  Co20  1  0.577244  0.142912  0.138303  1
  Co  Co21  1  0.142547  0.142473  0.138266  1
  Co  Co22  1  0.142799  0.577621  0.138269  1
  Co  Co23  1  0.141086  0.141182  0.577926  1
