# generated using pymatgen
data_Ta3Cd3SbPbO14
_symmetry_space_group_name_H-M   'P 1'
_cell_length_a   7.49383393
_cell_length_b   7.46610071
_cell_length_c   7.46610100
_cell_angle_alpha   60.00000316
_cell_angle_beta   60.12234947
_cell_angle_gamma   60.12234922
_symmetry_Int_Tables_number   1
_chemical_formula_structural   Ta3Cd3SbPbO14
_chemical_formula_sum   'Ta3 Cd3 Sb1 Pb1 O14'
_cell_volume   295.92213822
_cell_formula_units_Z   1
loop_
 _symmetry_equiv_pos_site_id
 _symmetry_equiv_pos_as_xyz
  1  'x, y, z'
loop_
 _atom_site_type_symbol
 _atom_site_label
 _atom_site_symmetry_multiplicity
 _atom_site_fract_x
 _atom_site_fract_y
 _atom_site_fract_z
 _atom_site_occupancy
  Ta  Ta0  1  0.125000  0.625000  0.125000  1
  Ta  Ta1  1  0.125000  0.125000  0.625000  1
  Ta  Ta2  1  0.125000  0.125000  0.125000  1
  Cd  Cd3  1  0.625000  0.625000  0.625000  1
  Cd  Cd4  1  0.625000  0.125000  0.625000  1
  Cd  Cd5  1  0.625000  0.625000  0.125000  1
  Sb  Sb6  1  0.625000  0.125000  0.125000  1
  Pb  Pb7  1  0.125000  0.625000  0.625000  1
  O  O8  1  0.715802  0.761400  0.761400  1
  O  O9  1  0.189915  0.809914  0.809914  1
  O  O10  1  0.189915  0.809914  0.190257  1
  O  O11  1  0.808530  0.191893  0.807685  1
  O  O12  1  0.189915  0.190257  0.809914  1
  O  O13  1  0.808530  0.807685  0.191893  1
  O  O14  1  0.441470  0.058107  0.058107  1
  O  O15  1  0.808530  0.191893  0.191893  1
  O  O16  1  0.060085  0.440086  0.059743  1
  O  O17  1  0.060085  0.059743  0.440086  1
  O  O18  1  0.441470  0.442315  0.058107  1
  O  O19  1  0.441470  0.058107  0.442315  1
  O  O20  1  0.060085  0.440086  0.440086  1
  O  O21  1  0.534198  0.488600  0.488600  1
