# generated using pymatgen
data_AcEuReH6
_symmetry_space_group_name_H-M   'P 1'
_cell_length_a   5.42896869
_cell_length_b   5.42896977
_cell_length_c   5.42897000
_cell_angle_alpha   60.00001078
_cell_angle_beta   60.00000420
_cell_angle_gamma   60.00001289
_symmetry_Int_Tables_number   1
_chemical_formula_structural   AcEuReH6
_chemical_formula_sum   'Ac1 Eu1 Re1 H6'
_cell_volume   113.14550252
_cell_formula_units_Z   1
loop_
 _symmetry_equiv_pos_site_id
 _symmetry_equiv_pos_as_xyz
  1  'x, y, z'
loop_
 _atom_site_type_symbol
 _atom_site_label
 _atom_site_symmetry_multiplicity
 _atom_site_fract_x
 _atom_site_fract_y
 _atom_site_fract_z
 _atom_site_occupancy
  Ac  Ac0  1  0.750000  0.750000  0.750000  1
  Eu  Eu1  1  0.250000  0.250000  0.250000  1
  Re  Re2  1  0.000000  0.000000  0.000000  1
  H  H3  1  0.765883  0.765883  0.234117  1
  H  H4  1  0.234117  0.765883  0.234117  1
  H  H5  1  0.765883  0.234117  0.234117  1
  H  H6  1  0.234117  0.234117  0.765883  1
  H  H7  1  0.765883  0.234117  0.765883  1
  H  H8  1  0.234117  0.765883  0.765883  1
