# generated using pymatgen
data_LaYb7(Si4Mo3)4
_symmetry_space_group_name_H-M   'P 1'
_cell_length_a   6.75899457
_cell_length_b   6.95285075
_cell_length_c   13.09322240
_cell_angle_alpha   90.07687445
_cell_angle_beta   90.00533227
_cell_angle_gamma   89.99280492
_symmetry_Int_Tables_number   1
_chemical_formula_structural   LaYb7(Si4Mo3)4
_chemical_formula_sum   'La1 Yb7 Si16 Mo12'
_cell_volume   615.30600344
_cell_formula_units_Z   1
loop_
 _symmetry_equiv_pos_site_id
 _symmetry_equiv_pos_as_xyz
  1  'x, y, z'
loop_
 _atom_site_type_symbol
 _atom_site_label
 _atom_site_symmetry_multiplicity
 _atom_site_fract_x
 _atom_site_fract_y
 _atom_site_fract_z
 _atom_site_occupancy
  La  La0  1  0.001561  0.165851  0.090676  1
  Yb  Yb1  1  0.498547  0.334121  0.090617  1
  Yb  Yb2  1  0.998424  0.166116  0.409307  1
  Yb  Yb3  1  0.501296  0.666528  0.590991  1
  Yb  Yb4  1  0.001669  0.833834  0.906554  1
  Yb  Yb5  1  0.502424  0.665472  0.906913  1
  Yb  Yb6  1  0.001080  0.833022  0.591199  1
  Yb  Yb7  1  0.498479  0.335207  0.411655  1
  Si  Si8  1  0.657886  0.042818  0.545941  1
  Si  Si9  1  0.158716  0.461972  0.951136  1
  Si  Si10  1  0.348793  0.951510  0.044747  1
  Si  Si11  1  0.842885  0.542567  0.454638  1
  Si  Si12  1  0.342201  0.957591  0.455131  1
  Si  Si13  1  0.840458  0.550484  0.044146  1
  Si  Si14  1  0.654990  0.042296  0.950766  1
  Si  Si15  1  0.157430  0.456461  0.546200  1
  Si  Si16  1  0.535186  0.372266  0.749346  1
  Si  Si17  1  0.035113  0.127100  0.749599  1
  Si  Si18  1  0.465266  0.627776  0.250494  1
  Si  Si19  1  0.963385  0.867980  0.253097  1
  Si  Si20  1  0.800579  0.629989  0.749187  1
  Si  Si21  1  0.301369  0.869807  0.749423  1
  Si  Si22  1  0.201738  0.373863  0.253185  1
  Si  Si23  1  0.693289  0.129130  0.253456  1
  Mo  Mo24  1  0.835074  0.330335  0.627793  1
  Mo  Mo25  1  0.333883  0.168997  0.871553  1
  Mo  Mo26  1  0.164951  0.668670  0.128155  1
  Mo  Mo27  1  0.664033  0.829189  0.373192  1
  Mo  Mo28  1  0.166197  0.669324  0.373206  1
  Mo  Mo29  1  0.665955  0.830901  0.128747  1
  Mo  Mo30  1  0.834336  0.332136  0.871264  1
  Mo  Mo31  1  0.334695  0.168945  0.627916  1
  Mo  Mo32  1  0.661228  0.009602  0.749133  1
  Mo  Mo33  1  0.161577  0.490748  0.749500  1
  Mo  Mo34  1  0.338158  0.989524  0.251302  1
  Mo  Mo35  1  0.837145  0.507869  0.249834  1
