# generated using pymatgen
data_Y8AlPd23Au
_symmetry_space_group_name_H-M   'P 1'
_cell_length_a   8.36749500
_cell_length_b   8.39595100
_cell_length_c   8.39530900
_cell_angle_alpha   90.00000000
_cell_angle_beta   90.00000000
_cell_angle_gamma   90.00000000
_symmetry_Int_Tables_number   1
_chemical_formula_structural   Y8AlPd23Au
_chemical_formula_sum   'Y8 Al1 Pd23 Au1'
_cell_volume   589.79629812
_cell_formula_units_Z   1
loop_
 _symmetry_equiv_pos_site_id
 _symmetry_equiv_pos_as_xyz
  1  'x, y, z'
loop_
 _atom_site_type_symbol
 _atom_site_label
 _atom_site_symmetry_multiplicity
 _atom_site_fract_x
 _atom_site_fract_y
 _atom_site_fract_z
 _atom_site_occupancy
  Y  Y0  1  0.251814  0.248160  0.255553  1
  Y  Y1  1  0.747981  0.748528  0.747910  1
  Y  Y2  1  0.747981  0.748528  0.252090  1
  Y  Y3  1  0.747981  0.251472  0.747910  1
  Y  Y4  1  0.251814  0.248160  0.744447  1
  Y  Y5  1  0.251814  0.751840  0.255553  1
  Y  Y6  1  0.251814  0.751840  0.744447  1
  Y  Y7  1  0.747981  0.251472  0.252090  1
  Al  Al8  1  0.999807  0.000000  0.000000  1
  Pd  Pd9  1  0.739782  0.500000  0.000000  1
  Pd  Pd10  1  0.999872  0.260134  0.500000  1
  Pd  Pd11  1  0.499942  0.259182  0.000000  1
  Pd  Pd12  1  0.999872  0.739866  0.500000  1
  Pd  Pd13  1  0.499942  0.740818  0.000000  1
  Pd  Pd14  1  0.500182  0.000000  0.260289  1
  Pd  Pd15  1  0.260232  0.000000  0.500000  1
  Pd  Pd16  1  0.500182  0.000000  0.739711  1
  Pd  Pd17  1  0.739626  0.000000  0.500000  1
  Pd  Pd18  1  0.000128  0.500000  0.260823  1
  Pd  Pd19  1  0.000128  0.500000  0.739177  1
  Pd  Pd20  1  0.253148  0.500000  0.500000  1
  Pd  Pd21  1  0.746789  0.500000  0.500000  1
  Pd  Pd22  1  0.500140  0.253267  0.500000  1
  Pd  Pd23  1  0.500140  0.746733  0.500000  1
  Pd  Pd24  1  0.499954  0.500000  0.254393  1
  Pd  Pd25  1  0.499954  0.500000  0.745607  1
  Pd  Pd26  1  0.290100  0.000000  0.000000  1
  Pd  Pd27  1  0.709869  0.000000  0.000000  1
  Pd  Pd28  1  0.000041  0.288692  0.000000  1
  Pd  Pd29  1  0.000041  0.711308  0.000000  1
  Pd  Pd30  1  0.999681  0.000000  0.289719  1
  Pd  Pd31  1  0.999681  0.000000  0.710281  1
  Au  Au32  1  0.261585  0.500000  0.000000  1
