# generated using pymatgen
data_Ca11Yb(AlN2)8
_symmetry_space_group_name_H-M   'P 1'
_cell_length_a   5.82388128
_cell_length_b   9.57785011
_cell_length_c   9.60439443
_cell_angle_alpha   68.38877267
_cell_angle_beta   89.96559441
_cell_angle_gamma   89.97972726
_symmetry_Int_Tables_number   1
_chemical_formula_structural   Ca11Yb(AlN2)8
_chemical_formula_sum   'Ca11 Yb1 Al8 N16'
_cell_volume   498.07564801
_cell_formula_units_Z   1
loop_
 _symmetry_equiv_pos_site_id
 _symmetry_equiv_pos_as_xyz
  1  'x, y, z'
loop_
 _atom_site_type_symbol
 _atom_site_label
 _atom_site_symmetry_multiplicity
 _atom_site_fract_x
 _atom_site_fract_y
 _atom_site_fract_z
 _atom_site_occupancy
  Ca  Ca0  1  0.406027  0.685273  0.947746  1
  Ca  Ca1  1  0.153039  0.828241  0.535028  1
  Ca  Ca2  1  0.593997  0.315082  0.051224  1
  Ca  Ca3  1  0.347994  0.328989  0.535183  1
  Ca  Ca4  1  0.905713  0.814735  0.051591  1
  Ca  Ca5  1  0.619923  0.100329  0.817904  1
  Ca  Ca6  1  0.119333  0.399422  0.181799  1
  Ca  Ca7  1  0.094131  0.184964  0.948825  1
  Ca  Ca8  1  0.380665  0.899047  0.182733  1
  Ca  Ca9  1  0.879452  0.600338  0.817154  1
  Ca  Ca10  1  0.847590  0.171491  0.464951  1
  Yb  Yb11  1  0.654488  0.671292  0.464967  1
  Al  Al12  1  0.142652  0.011110  0.741544  1
  Al  Al13  1  0.111513  0.608478  0.381288  1
  Al  Al14  1  0.856877  0.988449  0.258648  1
  Al  Al15  1  0.611229  0.891328  0.618899  1
  Al  Al16  1  0.642607  0.489346  0.258651  1
  Al  Al17  1  0.888838  0.391899  0.618933  1
  Al  Al18  1  0.357359  0.511407  0.740981  1
  Al  Al19  1  0.389007  0.108132  0.380862  1
  N  N20  1  0.738426  0.063051  0.061347  1
  N  N21  1  0.897479  0.448953  0.398764  1
  N  N22  1  0.490354  0.701754  0.698430  1
  N  N23  1  0.398317  0.051763  0.601239  1
  N  N24  1  0.600706  0.946491  0.398757  1
  N  N25  1  0.510202  0.298192  0.300669  1
  N  N26  1  0.901909  0.893685  0.703535  1
  N  N27  1  0.261437  0.936821  0.938850  1
  N  N28  1  0.010521  0.202156  0.699263  1
  N  N29  1  0.238704  0.437109  0.938496  1
  N  N30  1  0.761116  0.563129  0.061238  1
  N  N31  1  0.101172  0.552337  0.601323  1
  N  N32  1  0.097936  0.105979  0.296341  1
  N  N33  1  0.404522  0.607396  0.298851  1
  N  N34  1  0.598129  0.394768  0.702533  1
  N  N35  1  0.986637  0.797065  0.301452  1
