# generated using pymatgen
data_Hf16FeCo4Ir3
_symmetry_space_group_name_H-M   'P 1'
_cell_length_a   8.56237458
_cell_length_b   8.56237463
_cell_length_c   8.56237504
_cell_angle_alpha   60.03648072
_cell_angle_beta   60.03648109
_cell_angle_gamma   60.03648400
_symmetry_Int_Tables_number   1
_chemical_formula_structural   Hf16FeCo4Ir3
_chemical_formula_sum   'Hf16 Fe1 Co4 Ir3'
_cell_volume   444.24923374
_cell_formula_units_Z   1
loop_
 _symmetry_equiv_pos_site_id
 _symmetry_equiv_pos_as_xyz
  1  'x, y, z'
loop_
 _atom_site_type_symbol
 _atom_site_label
 _atom_site_symmetry_multiplicity
 _atom_site_fract_x
 _atom_site_fract_y
 _atom_site_fract_z
 _atom_site_occupancy
  Hf  Hf0  1  0.066695  0.643828  0.643828  1
  Hf  Hf1  1  0.643828  0.066695  0.643828  1
  Hf  Hf2  1  0.643828  0.643828  0.066695  1
  Hf  Hf3  1  0.644777  0.644777  0.644777  1
  Hf  Hf4  1  0.803121  0.803121  0.196948  1
  Hf  Hf5  1  0.197849  0.197849  0.801065  1
  Hf  Hf6  1  0.803121  0.196948  0.803121  1
  Hf  Hf7  1  0.197849  0.801065  0.197849  1
  Hf  Hf8  1  0.196948  0.803121  0.803121  1
  Hf  Hf9  1  0.801065  0.197849  0.197849  1
  Hf  Hf10  1  0.436402  0.436402  0.069153  1
  Hf  Hf11  1  0.063323  0.063323  0.436856  1
  Hf  Hf12  1  0.436402  0.069153  0.436402  1
  Hf  Hf13  1  0.063323  0.436856  0.063323  1
  Hf  Hf14  1  0.069153  0.436402  0.436402  1
  Hf  Hf15  1  0.436856  0.063323  0.063323  1
  Fe  Fe16  1  0.414964  0.414964  0.414964  1
  Co  Co17  1  0.427631  0.857582  0.857582  1
  Co  Co18  1  0.857582  0.427631  0.857582  1
  Co  Co19  1  0.857582  0.857582  0.427631  1
  Co  Co20  1  0.857236  0.857236  0.857236  1
  Ir  Ir21  1  0.750966  0.414752  0.414752  1
  Ir  Ir22  1  0.414752  0.750966  0.414752  1
  Ir  Ir23  1  0.414752  0.414752  0.750966  1
