# generated using pymatgen
data_GdPu3(Ni2Sn)2
_symmetry_space_group_name_H-M   'P 1'
_cell_length_a   7.03445176
_cell_length_b   7.03445176
_cell_length_c   4.27938900
_cell_angle_alpha   90.00000000
_cell_angle_beta   90.00000000
_cell_angle_gamma   88.34938636
_symmetry_Int_Tables_number   1
_chemical_formula_structural   GdPu3(Ni2Sn)2
_chemical_formula_sum   'Gd1 Pu3 Ni4 Sn2'
_cell_volume   211.67132748
_cell_formula_units_Z   1
loop_
 _symmetry_equiv_pos_site_id
 _symmetry_equiv_pos_as_xyz
  1  'x, y, z'
loop_
 _atom_site_type_symbol
 _atom_site_label
 _atom_site_symmetry_multiplicity
 _atom_site_fract_x
 _atom_site_fract_y
 _atom_site_fract_z
 _atom_site_occupancy
  Gd  Gd0  1  0.172617  0.327383  0.500000  1
  Pu  Pu1  1  0.674646  0.171340  0.500000  1
  Pu  Pu2  1  0.821581  0.678419  0.500000  1
  Pu  Pu3  1  0.328660  0.825354  0.500000  1
  Ni  Ni4  1  0.121119  0.630537  0.000000  1
  Ni  Ni5  1  0.623786  0.876214  0.000000  1
  Ni  Ni6  1  0.384367  0.115633  0.000000  1
  Ni  Ni7  1  0.869463  0.378881  0.000000  1
  Sn  Sn8  1  0.996002  0.992242  0.000000  1
  Sn  Sn9  1  0.507758  0.503998  0.000000  1
