# generated using pymatgen
data_PuHf3CN3
_symmetry_space_group_name_H-M   'P 1'
_cell_length_a   11.03712343
_cell_length_b   11.03712328
_cell_length_c   11.03712322
_cell_angle_alpha   17.10894984
_cell_angle_beta   17.10895355
_cell_angle_gamma   17.10894423
_symmetry_Int_Tables_number   1
_chemical_formula_structural   PuHf3CN3
_chemical_formula_sum   'Pu1 Hf3 C1 N3'
_cell_volume   101.52374188
_cell_formula_units_Z   1
loop_
 _symmetry_equiv_pos_site_id
 _symmetry_equiv_pos_as_xyz
  1  'x, y, z'
loop_
 _atom_site_type_symbol
 _atom_site_label
 _atom_site_symmetry_multiplicity
 _atom_site_fract_x
 _atom_site_fract_y
 _atom_site_fract_z
 _atom_site_occupancy
  Pu  Pu0  1  0.875072  0.875072  0.875072  1
  Hf  Hf1  1  0.123784  0.123784  0.123784  1
  Hf  Hf2  1  0.374163  0.374163  0.374163  1
  Hf  Hf3  1  0.627352  0.627352  0.627352  1
  C  C4  1  0.002145  0.002145  0.002145  1
  N  N5  1  0.255089  0.255089  0.255089  1
  N  N6  1  0.492830  0.492830  0.492830  1
  N  N7  1  0.749566  0.749566  0.749566  1
