# generated using pymatgen
data_Sc8Ta11Si16Rh
_symmetry_space_group_name_H-M   'P 1'
_cell_length_a   6.87794404
_cell_length_b   6.89786285
_cell_length_c   12.67650602
_cell_angle_alpha   90.39203457
_cell_angle_beta   90.06280176
_cell_angle_gamma   89.99307417
_symmetry_Int_Tables_number   1
_chemical_formula_structural   Sc8Ta11Si16Rh
_chemical_formula_sum   'Sc8 Ta11 Si16 Rh1'
_cell_volume   601.39848618
_cell_formula_units_Z   1
loop_
 _symmetry_equiv_pos_site_id
 _symmetry_equiv_pos_as_xyz
  1  'x, y, z'
loop_
 _atom_site_type_symbol
 _atom_site_label
 _atom_site_symmetry_multiplicity
 _atom_site_fract_x
 _atom_site_fract_y
 _atom_site_fract_z
 _atom_site_occupancy
  Sc  Sc0  1  0.000017  0.658773  0.032677  1
  Sc  Sc1  1  0.839998  0.502333  0.281587  1
  Sc  Sc2  1  0.159437  0.498987  0.781140  1
  Sc  Sc3  1  0.499653  0.840640  0.717841  1
  Sc  Sc4  1  0.498054  0.157897  0.217772  1
  Sc  Sc5  1  0.001720  0.344817  0.532041  1
  Sc  Sc6  1  0.658731  0.000827  0.969653  1
  Sc  Sc7  1  0.339609  0.999039  0.469370  1
  Ta  Ta8  1  0.330010  0.329627  0.000417  1
  Ta  Ta9  1  0.177303  0.828550  0.249903  1
  Ta  Ta10  1  0.829567  0.171597  0.748910  1
  Ta  Ta11  1  0.673911  0.666365  0.500548  1
  Ta  Ta12  1  0.003751  0.150303  0.126577  1
  Ta  Ta13  1  0.348640  0.502558  0.376486  1
  Ta  Ta14  1  0.650692  0.493204  0.875442  1
  Ta  Ta15  1  0.510187  0.342902  0.623044  1
  Ta  Ta16  1  0.495093  0.653594  0.125106  1
  Ta  Ta17  1  0.996927  0.844321  0.628808  1
  Ta  Ta18  1  0.151135  0.005620  0.873155  1
  Si  Si19  1  0.300725  0.956253  0.063051  1
  Si  Si20  1  0.547661  0.800966  0.316525  1
  Si  Si21  1  0.456499  0.197127  0.813775  1
  Si  Si22  1  0.801453  0.543439  0.687014  1
  Si  Si23  1  0.200416  0.453993  0.187465  1
  Si  Si24  1  0.704458  0.037458  0.560298  1
  Si  Si25  1  0.955607  0.301815  0.936583  1
  Si  Si26  1  0.039663  0.711428  0.435137  1
  Si  Si27  1  0.704805  0.361396  0.072251  1
  Si  Si28  1  0.131279  0.199457  0.321025  1
  Si  Si29  1  0.858667  0.795321  0.822325  1
  Si  Si30  1  0.205500  0.139306  0.677333  1
  Si  Si31  1  0.799126  0.861602  0.180356  1
  Si  Si32  1  0.295537  0.633681  0.570585  1
  Si  Si33  1  0.361500  0.705990  0.928663  1
  Si  Si34  1  0.638047  0.292553  0.428362  1
  Rh  Rh35  1  0.834623  0.016261  0.368770  1
