# generated using pymatgen
data_Pa2Cr7FeP4
_symmetry_space_group_name_H-M   'P 1'
_cell_length_a   7.51371691
_cell_length_b   6.60138784
_cell_length_c   3.84112800
_cell_angle_alpha   90.00000000
_cell_angle_beta   90.00000000
_cell_angle_gamma   90.69812143
_symmetry_Int_Tables_number   1
_chemical_formula_structural   Pa2Cr7FeP4
_chemical_formula_sum   'Pa2 Cr7 Fe1 P4'
_cell_volume   190.50949141
_cell_formula_units_Z   1
loop_
 _symmetry_equiv_pos_site_id
 _symmetry_equiv_pos_as_xyz
  1  'x, y, z'
loop_
 _atom_site_type_symbol
 _atom_site_label
 _atom_site_symmetry_multiplicity
 _atom_site_fract_x
 _atom_site_fract_y
 _atom_site_fract_z
 _atom_site_occupancy
  Pa  Pa0  1  0.499324  0.507380  0.000000  1
  Pa  Pa1  1  0.002061  0.002862  0.500000  1
  Cr  Cr2  1  0.605343  0.154994  0.500000  1
  Cr  Cr3  1  0.392022  0.852872  0.500000  1
  Cr  Cr4  1  0.107546  0.342178  0.000000  1
  Cr  Cr5  1  0.894752  0.639545  0.000000  1
  Cr  Cr6  1  0.158234  0.563525  0.500000  1
  Cr  Cr7  1  0.841228  0.436173  0.500000  1
  Cr  Cr8  1  0.346438  0.064982  0.000000  1
  Fe  Fe9  1  0.659689  0.928158  0.000000  1
  P  P10  1  0.691043  0.745938  0.500000  1
  P  P11  1  0.311302  0.262972  0.500000  1
  P  P12  1  0.188438  0.761568  0.000000  1
  P  P13  1  0.802580  0.236852  0.000000  1
