# generated using pymatgen
data_Er4Fe(Si2Pt)5
_symmetry_space_group_name_H-M   'P 1'
_cell_length_a   8.09956972
_cell_length_b   8.09956965
_cell_length_c   8.09956974
_cell_angle_alpha   137.25001193
_cell_angle_beta   103.85371217
_cell_angle_gamma   91.50324622
_symmetry_Int_Tables_number   1
_chemical_formula_structural   Er4Fe(Si2Pt)5
_chemical_formula_sum   'Er4 Fe1 Si10 Pt5'
_cell_volume   333.32751992
_cell_formula_units_Z   1
loop_
 _symmetry_equiv_pos_site_id
 _symmetry_equiv_pos_as_xyz
  1  'x, y, z'
loop_
 _atom_site_type_symbol
 _atom_site_label
 _atom_site_symmetry_multiplicity
 _atom_site_fract_x
 _atom_site_fract_y
 _atom_site_fract_z
 _atom_site_occupancy
  Er  Er0  1  0.099975  0.870239  0.230806  1
  Er  Er1  1  0.900025  0.130831  0.770264  1
  Er  Er2  1  0.639434  0.369169  0.269194  1
  Er  Er3  1  0.360566  0.629761  0.729736  1
  Fe  Fe4  1  0.500000  0.750000  0.250000  1
  Si  Si5  1  0.000000  0.750000  0.750000  1
  Si  Si6  1  0.000000  0.250000  0.250000  1
  Si  Si7  1  0.273986  0.023986  0.750000  1
  Si  Si8  1  0.726014  0.476014  0.750000  1
  Si  Si9  1  0.721880  0.971880  0.250000  1
  Si  Si10  1  0.278120  0.528120  0.250000  1
  Si  Si11  1  0.753390  0.619985  0.165531  1
  Si  Si12  1  0.246610  0.412141  0.866595  1
  Si  Si13  1  0.454455  0.087859  0.334469  1
  Si  Si14  1  0.545545  0.880015  0.633405  1
  Pt  Pt15  1  0.500000  0.250000  0.750000  1
  Pt  Pt16  1  0.022659  0.637366  0.382590  1
  Pt  Pt17  1  0.977341  0.359931  0.614707  1
  Pt  Pt18  1  0.254776  0.140069  0.117410  1
  Pt  Pt19  1  0.745224  0.862634  0.885293  1
