# generated using pymatgen
data_TbNdAl20IrRu3
_symmetry_space_group_name_H-M   'P 1'
_cell_length_a   6.87437974
_cell_length_b   6.87648275
_cell_length_c   9.18011639
_cell_angle_alpha   90.05520090
_cell_angle_beta   90.05694962
_cell_angle_gamma   96.74710935
_symmetry_Int_Tables_number   1
_chemical_formula_structural   TbNdAl20IrRu3
_chemical_formula_sum   'Tb1 Nd1 Al20 Ir1 Ru3'
_cell_volume   430.95246833
_cell_formula_units_Z   1
loop_
 _symmetry_equiv_pos_site_id
 _symmetry_equiv_pos_as_xyz
  1  'x, y, z'
loop_
 _atom_site_type_symbol
 _atom_site_label
 _atom_site_symmetry_multiplicity
 _atom_site_fract_x
 _atom_site_fract_y
 _atom_site_fract_z
 _atom_site_occupancy
  Tb  Tb0  1  0.128783  0.872884  0.249783  1
  Nd  Nd1  1  0.873083  0.125604  0.750081  1
  Al  Al2  1  0.620026  0.376704  0.550481  1
  Al  Al3  1  0.379203  0.623974  0.448551  1
  Al  Al4  1  0.377045  0.623539  0.050511  1
  Al  Al5  1  0.622199  0.377197  0.950511  1
  Al  Al6  1  0.227622  0.224511  0.497859  1
  Al  Al7  1  0.772580  0.775060  0.500381  1
  Al  Al8  1  0.773512  0.773849  0.001435  1
  Al  Al9  1  0.226800  0.225897  0.000383  1
  Al  Al10  1  0.842936  0.157695  0.101291  1
  Al  Al11  1  0.157994  0.841414  0.899878  1
  Al  Al12  1  0.159726  0.843012  0.601760  1
  Al  Al13  1  0.841184  0.155915  0.397092  1
  Al  Al14  1  0.858025  0.589103  0.751542  1
  Al  Al15  1  0.142485  0.412858  0.248462  1
  Al  Al16  1  0.411798  0.141321  0.750373  1
  Al  Al17  1  0.586230  0.858266  0.249643  1
  Al  Al18  1  0.222100  0.482755  0.752338  1
  Al  Al19  1  0.778868  0.518568  0.247707  1
  Al  Al20  1  0.517039  0.778914  0.749777  1
  Al  Al21  1  0.481656  0.220214  0.250185  1
  Ir  Ir22  1  0.000112  0.500470  0.499213  1
  Ru  Ru23  1  0.000099  0.500541  0.000761  1
  Ru  Ru24  1  0.499443  0.999869  0.000821  1
  Ru  Ru25  1  0.499451  0.999866  0.499181  1
