# generated using pymatgen
data_VTc2NiB3
_symmetry_space_group_name_H-M   'P 1'
_cell_length_a   4.40302846
_cell_length_b   4.40302779
_cell_length_c   10.65816200
_cell_angle_alpha   90.00000000
_cell_angle_beta   90.00000000
_cell_angle_gamma   138.63877328
_symmetry_Int_Tables_number   1
_chemical_formula_structural   VTc2NiB3
_chemical_formula_sum   'V2 Tc4 Ni2 B6'
_cell_volume   136.53939154
_cell_formula_units_Z   2
loop_
 _symmetry_equiv_pos_site_id
 _symmetry_equiv_pos_as_xyz
  1  'x, y, z'
loop_
 _atom_site_type_symbol
 _atom_site_label
 _atom_site_symmetry_multiplicity
 _atom_site_fract_x
 _atom_site_fract_y
 _atom_site_fract_z
 _atom_site_occupancy
  V  V0  1  0.500883  0.499117  0.250000  1
  V  V1  1  0.499117  0.500883  0.750000  1
  Tc  Tc2  1  0.788090  0.211910  0.385743  1
  Tc  Tc3  1  0.211910  0.788090  0.614257  1
  Tc  Tc4  1  0.788090  0.211910  0.114257  1
  Tc  Tc5  1  0.211910  0.788090  0.885743  1
  Ni  Ni6  1  0.500000  0.500000  0.500000  1
  Ni  Ni7  1  0.500000  0.500000  0.000000  1
  B  B8  1  0.087142  0.912858  0.393111  1
  B  B9  1  0.912858  0.087142  0.606889  1
  B  B10  1  0.087142  0.912858  0.106889  1
  B  B11  1  0.912858  0.087142  0.893111  1
  B  B12  1  0.203956  0.796044  0.250000  1
  B  B13  1  0.796044  0.203956  0.750000  1
