# generated using pymatgen
data_Ba4Pr(IrO6)2
_symmetry_space_group_name_H-M   'P 1'
_cell_length_a   10.28388141
_cell_length_b   10.28388190
_cell_length_c   10.28388200
_cell_angle_alpha   33.72937929
_cell_angle_beta   33.72937516
_cell_angle_gamma   33.72937843
_symmetry_Int_Tables_number   1
_chemical_formula_structural   Ba4Pr(IrO6)2
_chemical_formula_sum   'Ba4 Pr1 Ir2 O12'
_cell_volume   298.77702959
_cell_formula_units_Z   1
loop_
 _symmetry_equiv_pos_site_id
 _symmetry_equiv_pos_as_xyz
  1  'x, y, z'
loop_
 _atom_site_type_symbol
 _atom_site_label
 _atom_site_symmetry_multiplicity
 _atom_site_fract_x
 _atom_site_fract_y
 _atom_site_fract_z
 _atom_site_occupancy
  Ba  Ba0  1  0.716165  0.716165  0.716165  1
  Ba  Ba1  1  0.283835  0.283835  0.283835  1
  Ba  Ba2  1  0.866151  0.866151  0.866151  1
  Ba  Ba3  1  0.133849  0.133849  0.133849  1
  Pr  Pr4  1  0.000000  0.000000  0.000000  1
  Ir  Ir5  1  0.577916  0.577916  0.577916  1
  Ir  Ir6  1  0.422084  0.422084  0.422084  1
  O  O7  1  0.227931  0.686854  0.227931  1
  O  O8  1  0.227931  0.227931  0.686854  1
  O  O9  1  0.686854  0.227931  0.227931  1
  O  O10  1  0.772069  0.313146  0.772069  1
  O  O11  1  0.772069  0.772069  0.313146  1
  O  O12  1  0.313146  0.772069  0.772069  1
  O  O13  1  0.386213  0.859277  0.386213  1
  O  O14  1  0.386213  0.386213  0.859277  1
  O  O15  1  0.859277  0.386213  0.386213  1
  O  O16  1  0.613787  0.140723  0.613787  1
  O  O17  1  0.613787  0.613787  0.140723  1
  O  O18  1  0.140723  0.613787  0.613787  1
