# generated using pymatgen
data_Er10In2SnSb3
_symmetry_space_group_name_H-M   'P 1'
_cell_length_a   8.87776100
_cell_length_b   8.88167103
_cell_length_c   6.46491000
_cell_angle_alpha   90.00000000
_cell_angle_beta   90.00000000
_cell_angle_gamma   119.98542702
_symmetry_Int_Tables_number   1
_chemical_formula_structural   Er10In2SnSb3
_chemical_formula_sum   'Er10 In2 Sn1 Sb3'
_cell_volume   441.52469921
_cell_formula_units_Z   1
loop_
 _symmetry_equiv_pos_site_id
 _symmetry_equiv_pos_as_xyz
  1  'x, y, z'
loop_
 _atom_site_type_symbol
 _atom_site_label
 _atom_site_symmetry_multiplicity
 _atom_site_fract_x
 _atom_site_fract_y
 _atom_site_fract_z
 _atom_site_occupancy
  Er  Er0  1  0.000899  0.762601  0.750000  1
  Er  Er1  1  0.004206  0.239233  0.250000  1
  Er  Er2  1  0.764973  0.760767  0.250000  1
  Er  Er3  1  0.761753  0.000000  0.750000  1
  Er  Er4  1  0.238298  0.237399  0.750000  1
  Er  Er5  1  0.237851  0.000000  0.250000  1
  Er  Er6  1  0.330596  0.665382  0.499539  1
  Er  Er7  1  0.665215  0.334618  0.000461  1
  Er  Er8  1  0.665215  0.334618  0.499539  1
  Er  Er9  1  0.330596  0.665382  0.000461  1
  In  In10  1  0.395565  0.397039  0.250000  1
  In  In11  1  0.998526  0.602961  0.250000  1
  Sn  Sn12  1  0.396112  0.000000  0.750000  1
  Sb  Sb13  1  0.997252  0.391860  0.750000  1
  Sb  Sb14  1  0.605392  0.608140  0.750000  1
  Sb  Sb15  1  0.607550  0.000000  0.250000  1
