# generated using pymatgen
data_Li12La11Dy(TeO6)8
_symmetry_space_group_name_H-M   'P 1'
_cell_length_a   11.12698903
_cell_length_b   11.09284990
_cell_length_c   11.12698900
_cell_angle_alpha   109.53366949
_cell_angle_beta   109.47103322
_cell_angle_gamma   109.53366962
_symmetry_Int_Tables_number   1
_chemical_formula_structural   Li12La11Dy(TeO6)8
_chemical_formula_sum   'Li12 La11 Dy1 Te8 O48'
_cell_volume   1055.61659723
_cell_formula_units_Z   1
loop_
 _symmetry_equiv_pos_site_id
 _symmetry_equiv_pos_as_xyz
  1  'x, y, z'
loop_
 _atom_site_type_symbol
 _atom_site_label
 _atom_site_symmetry_multiplicity
 _atom_site_fract_x
 _atom_site_fract_y
 _atom_site_fract_z
 _atom_site_occupancy
  Li  Li0  1  0.875107  0.750000  0.125107  1
  Li  Li1  1  0.749835  0.374928  0.124994  1
  Li  Li2  1  0.125092  0.374928  0.249934  1
  Li  Li3  1  0.624315  0.874076  0.249486  1
  Li  Li4  1  0.250066  0.125072  0.374908  1
  Li  Li5  1  0.622916  0.250000  0.372916  1
  Li  Li6  1  0.374893  0.750000  0.624893  1
  Li  Li7  1  0.749761  0.874076  0.624590  1
  Li  Li8  1  0.375006  0.125072  0.750165  1
  Li  Li9  1  0.875410  0.625924  0.750239  1
  Li  Li10  1  0.250514  0.625924  0.875685  1
  Li  Li11  1  0.127084  0.250000  0.877084  1
  La  La12  1  0.251489  0.877725  0.126170  1
  La  La13  1  0.874808  0.125243  0.250066  1
  La  La14  1  0.373830  0.622275  0.248511  1
  La  La15  1  0.748445  0.622275  0.373764  1
  La  La16  1  0.125000  0.750000  0.375000  1
  La  La17  1  0.875000  0.250000  0.625000  1
  La  La18  1  0.249934  0.374757  0.625192  1
  La  La19  1  0.624823  0.374757  0.749566  1
  La  La20  1  0.126236  0.877725  0.751555  1
  La  La21  1  0.750434  0.125243  0.875177  1
  La  La22  1  0.625000  0.750000  0.875000  1
  Dy  Dy23  1  0.375000  0.250000  0.125000  1
  Te  Te24  1  0.004380  0.003871  0.003019  1
  Te  Te25  1  0.499491  0.003871  0.000852  1
  Te  Te26  1  0.000422  0.500673  0.000041  1
  Te  Te27  1  0.499148  0.496129  0.000509  1
  Te  Te28  1  0.999368  0.999327  0.499749  1
  Te  Te29  1  0.499959  0.999327  0.499578  1
  Te  Te30  1  0.000251  0.500673  0.500632  1
  Te  Te31  1  0.496981  0.496129  0.495620  1
  O  O32  1  0.191516  0.615303  0.021176  1
  O  O33  1  0.332276  0.398314  0.024512  1
  O  O34  1  0.886096  0.906658  0.075536  1
  O  O35  1  0.691796  0.171361  0.075819  1
  O  O36  1  0.613373  0.927078  0.095603  1
  O  O37  1  0.979565  0.171361  0.095541  1
  O  O38  1  0.590874  0.418350  0.115158  1
  O  O39  1  0.021870  0.692144  0.115385  1
  O  O40  1  0.196808  0.081650  0.172525  1
  O  O41  1  0.475488  0.101686  0.167723  1
  O  O42  1  0.114952  0.521173  0.190672  1
  O  O43  1  0.575096  0.667562  0.190638  1
  O  O44  1  0.478824  0.884697  0.308484  1
  O  O45  1  0.327475  0.418350  0.303192  1
  O  O46  1  0.906221  0.521173  0.330501  1
  O  O47  1  0.923242  0.807858  0.329727  1
  O  O48  1  0.309328  0.978827  0.385048  1
  O  O49  1  0.566036  0.398314  0.373802  1
  O  O50  1  0.075897  0.385272  0.406400  1
  O  O51  1  0.829803  0.020489  0.405561  1
  O  O52  1  0.093600  0.114727  0.424103  1
  O  O53  1  0.829878  0.309077  0.424311  1
  O  O54  1  0.592466  0.667563  0.476923  1
  O  O55  1  0.384615  0.807856  0.478130  1
  O  O56  1  0.404459  0.328640  0.520435  1
  O  O57  1  0.615233  0.190922  0.520801  1
  O  O58  1  0.170273  0.692142  0.576758  1
  O  O59  1  0.905875  0.884698  0.576213  1
  O  O60  1  0.923787  0.615302  0.594125  1
  O  O61  1  0.169498  0.978827  0.593778  1
  O  O62  1  0.690686  0.020489  0.614927  1
  O  O63  1  0.424464  0.593342  0.613904  1
  O  O64  1  0.094439  0.479511  0.670197  1
  O  O65  1  0.075689  0.190923  0.670122  1
  O  O66  1  0.521127  0.114727  0.690623  1
  O  O67  1  0.668525  0.572922  0.686296  1
  O  O68  1  0.424181  0.328639  0.808204  1
  O  O69  1  0.885073  0.479511  0.809314  1
  O  O70  1  0.813704  0.927078  0.831475  1
  O  O71  1  0.520561  0.906658  0.831122  1
  O  O72  1  0.404397  0.572922  0.886626  1
  O  O73  1  0.979199  0.309078  0.884767  1
  O  O74  1  0.023077  0.832437  0.907534  1
  O  O75  1  0.384842  0.081650  0.909126  1
  O  O76  1  0.309362  0.832438  0.924904  1
  O  O77  1  0.126199  0.101686  0.933964  1
  O  O78  1  0.668878  0.593342  0.979439  1
  O  O79  1  0.809377  0.385273  0.978873  1
