# generated using pymatgen
data_Pr5Sn10(IrPd)2
_symmetry_space_group_name_H-M   'P 1'
_cell_length_a   14.28595700
_cell_length_b   14.25737900
_cell_length_c   4.70514600
_cell_angle_alpha   90.00000000
_cell_angle_beta   90.00000000
_cell_angle_gamma   90.00000000
_symmetry_Int_Tables_number   1
_chemical_formula_structural   Pr5Sn10(IrPd)2
_chemical_formula_sum   'Pr10 Sn20 Ir4 Pd4'
_cell_volume   958.34556448
_cell_formula_units_Z   2
loop_
 _symmetry_equiv_pos_site_id
 _symmetry_equiv_pos_as_xyz
  1  'x, y, z'
loop_
 _atom_site_type_symbol
 _atom_site_label
 _atom_site_symmetry_multiplicity
 _atom_site_fract_x
 _atom_site_fract_y
 _atom_site_fract_z
 _atom_site_occupancy
  Pr  Pr0  1  0.500000  0.500000  0.000000  1
  Pr  Pr1  1  0.000000  0.000000  0.000000  1
  Pr  Pr2  1  0.675295  0.181847  0.500000  1
  Pr  Pr3  1  0.324705  0.818153  0.500000  1
  Pr  Pr4  1  0.175295  0.318153  0.500000  1
  Pr  Pr5  1  0.824705  0.681847  0.500000  1
  Pr  Pr6  1  0.892559  0.390248  0.500000  1
  Pr  Pr7  1  0.107441  0.609752  0.500000  1
  Pr  Pr8  1  0.392559  0.109752  0.500000  1
  Pr  Pr9  1  0.607441  0.890248  0.500000  1
  Sn  Sn10  1  0.567839  0.070627  0.000000  1
  Sn  Sn11  1  0.432161  0.929373  0.000000  1
  Sn  Sn12  1  0.067839  0.429373  0.000000  1
  Sn  Sn13  1  0.932161  0.570627  0.000000  1
  Sn  Sn14  1  0.652115  0.703296  0.000000  1
  Sn  Sn15  1  0.347885  0.296704  0.000000  1
  Sn  Sn16  1  0.152115  0.796704  0.000000  1
  Sn  Sn17  1  0.847885  0.203296  0.000000  1
  Sn  Sn18  1  0.300269  0.652345  0.000000  1
  Sn  Sn19  1  0.699731  0.347655  0.000000  1
  Sn  Sn20  1  0.199731  0.152345  0.000000  1
  Sn  Sn21  1  0.800269  0.847655  0.000000  1
  Sn  Sn22  1  0.663779  0.504251  0.500000  1
  Sn  Sn23  1  0.336221  0.495749  0.500000  1
  Sn  Sn24  1  0.163779  0.995749  0.500000  1
  Sn  Sn25  1  0.836221  0.004251  0.500000  1
  Sn  Sn26  1  0.496773  0.662289  0.500000  1
  Sn  Sn27  1  0.503227  0.337711  0.500000  1
  Sn  Sn28  1  0.003227  0.162289  0.500000  1
  Sn  Sn29  1  0.996773  0.837711  0.500000  1
  Ir  Ir30  1  0.467796  0.743082  0.000000  1
  Ir  Ir31  1  0.532204  0.256918  0.000000  1
  Ir  Ir32  1  0.032204  0.243082  0.000000  1
  Ir  Ir33  1  0.967796  0.756918  0.000000  1
  Pd  Pd34  1  0.744991  0.531751  0.000000  1
  Pd  Pd35  1  0.255009  0.468249  0.000000  1
  Pd  Pd36  1  0.244991  0.968249  0.000000  1
  Pd  Pd37  1  0.755009  0.031751  0.000000  1
