# generated using pymatgen
data_Zr10Al2Tl3BiPb2
_symmetry_space_group_name_H-M   'P 1'
_cell_length_a   8.85835901
_cell_length_b   8.85835977
_cell_length_c   5.96456500
_cell_angle_alpha   90.00000000
_cell_angle_beta   90.00000000
_cell_angle_gamma   119.94501137
_symmetry_Int_Tables_number   1
_chemical_formula_structural   Zr10Al2Tl3BiPb2
_chemical_formula_sum   'Zr10 Al2 Tl3 Bi1 Pb2'
_cell_volume   405.56117859
_cell_formula_units_Z   1
loop_
 _symmetry_equiv_pos_site_id
 _symmetry_equiv_pos_as_xyz
  1  'x, y, z'
loop_
 _atom_site_type_symbol
 _atom_site_label
 _atom_site_symmetry_multiplicity
 _atom_site_fract_x
 _atom_site_fract_y
 _atom_site_fract_z
 _atom_site_occupancy
  Zr  Zr0  1  0.667199  0.333245  0.001643  1
  Zr  Zr1  1  0.333245  0.667199  0.001643  1
  Zr  Zr2  1  0.333245  0.667199  0.498357  1
  Zr  Zr3  1  0.667199  0.333245  0.498357  1
  Zr  Zr4  1  0.734149  0.734149  0.750000  1
  Zr  Zr5  1  0.265267  0.999347  0.750000  1
  Zr  Zr6  1  0.999347  0.265267  0.750000  1
  Zr  Zr7  1  0.264731  0.264731  0.250000  1
  Zr  Zr8  1  0.734955  0.999693  0.250000  1
  Zr  Zr9  1  0.999693  0.734955  0.250000  1
  Al  Al10  1  0.999326  0.999326  0.001167  1
  Al  Al11  1  0.999326  0.999326  0.498833  1
  Tl  Tl12  1  0.615923  0.615923  0.250000  1
  Tl  Tl13  1  0.385103  0.000003  0.250000  1
  Tl  Tl14  1  0.000003  0.385103  0.250000  1
  Bi  Bi15  1  0.386593  0.386593  0.750000  1
  Pb  Pb16  1  0.614562  0.000135  0.750000  1
  Pb  Pb17  1  0.000135  0.614562  0.750000  1
