# generated using pymatgen
data_Y18Lu2Sn7Pb9
_symmetry_space_group_name_H-M   'P 1'
_cell_length_a   8.14211356
_cell_length_b   8.22847062
_cell_length_c   15.63385100
_cell_angle_alpha   90.00000000
_cell_angle_beta   90.00000000
_cell_angle_gamma   89.86612793
_symmetry_Int_Tables_number   1
_chemical_formula_structural   Y18Lu2Sn7Pb9
_chemical_formula_sum   'Y18 Lu2 Sn7 Pb9'
_cell_volume   1047.42047861
_cell_formula_units_Z   1
loop_
 _symmetry_equiv_pos_site_id
 _symmetry_equiv_pos_as_xyz
  1  'x, y, z'
loop_
 _atom_site_type_symbol
 _atom_site_label
 _atom_site_symmetry_multiplicity
 _atom_site_fract_x
 _atom_site_fract_y
 _atom_site_fract_z
 _atom_site_occupancy
  Y  Y0  1  0.467037  0.822036  0.398510  1
  Y  Y1  1  0.033175  0.323904  0.897549  1
  Y  Y2  1  0.033175  0.323904  0.602451  1
  Y  Y3  1  0.875491  0.840102  0.876980  1
  Y  Y4  1  0.467037  0.822036  0.101490  1
  Y  Y5  1  0.376541  0.658985  0.876631  1
  Y  Y6  1  0.626436  0.342071  0.121676  1
  Y  Y7  1  0.291507  0.498484  0.250000  1
  Y  Y8  1  0.626436  0.342071  0.378324  1
  Y  Y9  1  0.207861  0.996726  0.750000  1
  Y  Y10  1  0.533627  0.177006  0.602049  1
  Y  Y11  1  0.376541  0.658985  0.623369  1
  Y  Y12  1  0.533627  0.177006  0.897951  1
  Y  Y13  1  0.966117  0.676960  0.398278  1
  Y  Y14  1  0.966117  0.676960  0.101722  1
  Y  Y15  1  0.121581  0.159200  0.122666  1
  Y  Y16  1  0.875491  0.840102  0.623020  1
  Y  Y17  1  0.121581  0.159200  0.377334  1
  Lu  Lu18  1  0.794111  0.003149  0.250000  1
  Lu  Lu19  1  0.708285  0.504105  0.750000  1
  Sn  Sn20  1  0.841046  0.150980  0.750000  1
  Sn  Sn21  1  0.926148  0.376173  0.250000  1
  Sn  Sn22  1  0.573570  0.876247  0.750000  1
  Sn  Sn23  1  0.343122  0.351054  0.750000  1
  Sn  Sn24  1  0.071537  0.621878  0.750000  1
  Sn  Sn25  1  0.154934  0.849977  0.250000  1
  Sn  Sn26  1  0.658751  0.651018  0.250000  1
  Pb  Pb27  1  0.717219  0.532993  0.543492  1
  Pb  Pb28  1  0.217451  0.966664  0.957598  1
  Pb  Pb29  1  0.282372  0.466431  0.042218  1
  Pb  Pb30  1  0.782551  0.032323  0.456914  1
  Pb  Pb31  1  0.282372  0.466431  0.457782  1
  Pb  Pb32  1  0.217451  0.966664  0.542402  1
  Pb  Pb33  1  0.782551  0.032323  0.043086  1
  Pb  Pb34  1  0.717219  0.532993  0.956508  1
  Pb  Pb35  1  0.429932  0.122861  0.250000  1
