# generated using pymatgen
data_GdTi(SnIr)2
_symmetry_space_group_name_H-M   'P 1'
_cell_length_a   7.37420600
_cell_length_b   7.37420587
_cell_length_c   7.41379700
_cell_angle_alpha   90.00000000
_cell_angle_beta   90.00000000
_cell_angle_gamma   120.00000956
_symmetry_Int_Tables_number   1
_chemical_formula_structural   GdTi(SnIr)2
_chemical_formula_sum   'Gd3 Ti3 Sn6 Ir6'
_cell_volume   349.14176537
_cell_formula_units_Z   3
loop_
 _symmetry_equiv_pos_site_id
 _symmetry_equiv_pos_as_xyz
  1  'x, y, z'
loop_
 _atom_site_type_symbol
 _atom_site_label
 _atom_site_symmetry_multiplicity
 _atom_site_fract_x
 _atom_site_fract_y
 _atom_site_fract_z
 _atom_site_occupancy
  Gd  Gd0  1  0.000215  0.405900  0.750000  1
  Gd  Gd1  1  0.594100  0.594315  0.750000  1
  Gd  Gd2  1  0.405685  0.999785  0.750000  1
  Ti  Ti3  1  0.999560  0.386769  0.250000  1
  Ti  Ti4  1  0.613231  0.612791  0.250000  1
  Ti  Ti5  1  0.387209  0.000440  0.250000  1
  Sn  Sn6  1  0.270361  0.270656  0.486394  1
  Sn  Sn7  1  0.000294  0.729639  0.486394  1
  Sn  Sn8  1  0.000294  0.729639  0.013606  1
  Sn  Sn9  1  0.729344  0.999706  0.486394  1
  Sn  Sn10  1  0.729344  0.999706  0.013606  1
  Sn  Sn11  1  0.270361  0.270656  0.013606  1
  Ir  Ir12  1  0.333333  0.666667  0.450019  1
  Ir  Ir13  1  0.666667  0.333333  0.450470  1
  Ir  Ir14  1  0.333333  0.666667  0.049981  1
  Ir  Ir15  1  0.000000  0.000000  0.750000  1
  Ir  Ir16  1  0.000000  0.000000  0.250000  1
  Ir  Ir17  1  0.666667  0.333333  0.049530  1
