# generated using pymatgen
data_Hf8Mn7Si14Ir
_symmetry_space_group_name_H-M   'P 1'
_cell_length_a   5.10102737
_cell_length_b   9.61105129
_cell_length_c   9.58415213
_cell_angle_alpha   86.00086797
_cell_angle_beta   74.56661244
_cell_angle_gamma   74.80710640
_symmetry_Int_Tables_number   1
_chemical_formula_structural   Hf8Mn7Si14Ir
_chemical_formula_sum   'Hf8 Mn7 Si14 Ir1'
_cell_volume   437.10104053
_cell_formula_units_Z   1
loop_
 _symmetry_equiv_pos_site_id
 _symmetry_equiv_pos_as_xyz
  1  'x, y, z'
loop_
 _atom_site_type_symbol
 _atom_site_label
 _atom_site_symmetry_multiplicity
 _atom_site_fract_x
 _atom_site_fract_y
 _atom_site_fract_z
 _atom_site_occupancy
  Hf  Hf0  1  0.198375  0.803606  0.802631  1
  Hf  Hf1  1  0.805460  0.194505  0.195528  1
  Hf  Hf2  1  0.998995  0.196394  0.802631  1
  Hf  Hf3  1  0.999011  0.805495  0.195528  1
  Hf  Hf4  1  0.361703  0.000000  0.276595  1
  Hf  Hf5  1  0.639156  0.000000  0.721686  1
  Hf  Hf6  1  0.637996  0.724897  0.999272  1
  Hf  Hf7  1  0.362732  0.275103  0.999272  1
  Mn  Mn8  1  0.602391  0.500000  0.795217  1
  Mn  Mn9  1  0.102417  0.500000  0.795165  1
  Mn  Mn10  1  0.598208  0.797561  0.502987  1
  Mn  Mn11  1  0.897158  0.500000  0.205684  1
  Mn  Mn12  1  0.399884  0.201930  0.499340  1
  Mn  Mn13  1  0.898805  0.202439  0.502987  1
  Mn  Mn14  1  0.100776  0.798070  0.499340  1
  Si  Si15  1  0.401470  0.592485  0.589198  1
  Si  Si16  1  0.598390  0.404277  0.416118  1
  Si  Si17  1  0.009332  0.407515  0.589198  1
  Si  Si18  1  0.985492  0.595723  0.416118  1
  Si  Si19  1  0.250184  0.000128  0.999253  1
  Si  Si20  1  0.750562  0.999872  0.999253  1
  Si  Si21  1  0.204045  0.290173  0.297376  1
  Si  Si22  1  0.798346  0.704602  0.704193  1
  Si  Si23  1  0.498580  0.709827  0.297376  1
  Si  Si24  1  0.497462  0.295398  0.704193  1
  Si  Si25  1  0.208688  0.000000  0.582626  1
  Si  Si26  1  0.791515  0.000000  0.416968  1
  Si  Si27  1  0.801672  0.414864  0.995063  1
  Si  Si28  1  0.203265  0.585136  0.995063  1
  Ir  Ir29  1  0.397931  0.500000  0.204140  1
