# generated using pymatgen
data_Dy2B6Ir4Rh5
_symmetry_space_group_name_H-M   'P 1'
_cell_length_a   5.61781900
_cell_length_b   5.62633742
_cell_length_c   8.61632500
_cell_angle_alpha   90.00000000
_cell_angle_beta   90.00000000
_cell_angle_gamma   119.94992318
_symmetry_Int_Tables_number   1
_chemical_formula_structural   Dy2B6Ir4Rh5
_chemical_formula_sum   'Dy2 B6 Ir4 Rh5'
_cell_volume   235.97453943
_cell_formula_units_Z   1
loop_
 _symmetry_equiv_pos_site_id
 _symmetry_equiv_pos_as_xyz
  1  'x, y, z'
loop_
 _atom_site_type_symbol
 _atom_site_label
 _atom_site_symmetry_multiplicity
 _atom_site_fract_x
 _atom_site_fract_y
 _atom_site_fract_z
 _atom_site_occupancy
  Dy  Dy0  1  0.000000  0.000000  0.703281  1
  Dy  Dy1  1  0.000000  0.000000  0.297374  1
  B  B2  1  0.666039  0.332076  0.000006  1
  B  B3  1  0.333961  0.667924  0.000006  1
  B  B4  1  0.666329  0.332658  0.667897  1
  B  B5  1  0.333671  0.667342  0.667897  1
  B  B6  1  0.333366  0.666733  0.331867  1
  B  B7  1  0.666634  0.333267  0.331867  1
  Ir  Ir8  1  0.500000  0.000000  0.836561  1
  Ir  Ir9  1  0.500000  0.500000  0.499814  1
  Ir  Ir10  1  0.500000  0.000000  0.498968  1
  Ir  Ir11  1  0.000000  0.500000  0.499814  1
  Rh  Rh12  1  0.500000  0.500000  0.836526  1
  Rh  Rh13  1  0.000000  0.500000  0.836526  1
  Rh  Rh14  1  0.500000  0.500000  0.163724  1
  Rh  Rh15  1  0.500000  0.000000  0.164147  1
  Rh  Rh16  1  0.000000  0.500000  0.163724  1
