# generated using pymatgen
data_LiCrSnS4
_symmetry_space_group_name_H-M   'P 1'
_cell_length_a   7.36177239
_cell_length_b   7.36177149
_cell_length_c   7.36177184
_cell_angle_alpha   120.99966928
_cell_angle_beta   118.73189766
_cell_angle_gamma   90.24379999
_symmetry_Int_Tables_number   1
_chemical_formula_structural   LiCrSnS4
_chemical_formula_sum   'Li2 Cr2 Sn2 S8'
_cell_volume   282.55070937
_cell_formula_units_Z   2
loop_
 _symmetry_equiv_pos_site_id
 _symmetry_equiv_pos_as_xyz
  1  'x, y, z'
loop_
 _atom_site_type_symbol
 _atom_site_label
 _atom_site_symmetry_multiplicity
 _atom_site_fract_x
 _atom_site_fract_y
 _atom_site_fract_z
 _atom_site_occupancy
  Li  Li0  1  0.882712  0.632712  0.250000  1
  Li  Li1  1  0.117288  0.367288  0.750000  1
  Cr  Cr2  1  0.500000  0.000000  0.000000  1
  Cr  Cr3  1  0.500000  0.500000  0.500000  1
  Sn  Sn4  1  0.500000  0.000000  0.500000  1
  Sn  Sn5  1  0.000000  0.000000  0.000000  1
  S  S6  1  0.733495  0.737649  0.504154  1
  S  S7  1  0.733495  0.229341  0.995846  1
  S  S8  1  0.721322  0.753001  0.968321  1
  S  S9  1  0.284680  0.753001  0.531679  1
  S  S10  1  0.266505  0.262351  0.495846  1
  S  S11  1  0.266505  0.770659  0.004154  1
  S  S12  1  0.278678  0.246999  0.031679  1
  S  S13  1  0.715320  0.246999  0.468321  1
