# generated using pymatgen
data_Dy16In3AgOsRh3
_symmetry_space_group_name_H-M   'P 1'
_cell_length_a   9.66813910
_cell_length_b   9.66813868
_cell_length_c   9.64811700
_cell_angle_alpha   59.53347687
_cell_angle_beta   59.53347777
_cell_angle_gamma   59.47854885
_symmetry_Int_Tables_number   1
_chemical_formula_structural   Dy16In3AgOsRh3
_chemical_formula_sum   'Dy16 In3 Ag1 Os1 Rh3'
_cell_volume   630.66424016
_cell_formula_units_Z   1
loop_
 _symmetry_equiv_pos_site_id
 _symmetry_equiv_pos_as_xyz
  1  'x, y, z'
loop_
 _atom_site_type_symbol
 _atom_site_label
 _atom_site_symmetry_multiplicity
 _atom_site_fract_x
 _atom_site_fract_y
 _atom_site_fract_z
 _atom_site_occupancy
  Dy  Dy0  1  0.687666  0.311652  0.311146  1
  Dy  Dy1  1  0.689463  0.689463  0.312557  1
  Dy  Dy2  1  0.311652  0.687666  0.311146  1
  Dy  Dy3  1  0.936471  0.936471  0.560669  1
  Dy  Dy4  1  0.149720  0.149720  0.549797  1
  Dy  Dy5  1  0.564409  0.943443  0.555774  1
  Dy  Dy6  1  0.149864  0.149864  0.150700  1
  Dy  Dy7  1  0.310117  0.310117  0.688441  1
  Dy  Dy8  1  0.943443  0.564409  0.555774  1
  Dy  Dy9  1  0.561043  0.561043  0.942258  1
  Dy  Dy10  1  0.563498  0.937108  0.935942  1
  Dy  Dy11  1  0.937108  0.563498  0.935942  1
  Dy  Dy12  1  0.150700  0.548608  0.148363  1
  Dy  Dy13  1  0.310851  0.690419  0.691629  1
  Dy  Dy14  1  0.690419  0.310851  0.691629  1
  Dy  Dy15  1  0.548608  0.150700  0.148363  1
  In  In16  1  0.245525  0.917723  0.920891  1
  In  In17  1  0.917723  0.245525  0.920891  1
  In  In18  1  0.917490  0.917490  0.920144  1
  Ag  Ag19  1  0.917221  0.917221  0.249120  1
  Os  Os20  1  0.357273  0.357273  0.358564  1
  Rh  Rh21  1  0.925318  0.357613  0.357154  1
  Rh  Rh22  1  0.356805  0.356805  0.925953  1
  Rh  Rh23  1  0.357613  0.925318  0.357154  1
