# generated using pymatgen
data_Er6Tm6Co4CuSn
_symmetry_space_group_name_H-M   'P 1'
_cell_length_a   8.19571387
_cell_length_b   8.20335700
_cell_length_c   8.20360204
_cell_angle_alpha   111.21300537
_cell_angle_beta   110.50827514
_cell_angle_gamma   106.76325455
_symmetry_Int_Tables_number   1
_chemical_formula_structural   Er6Tm6Co4CuSn
_chemical_formula_sum   'Er6 Tm6 Co4 Cu1 Sn1'
_cell_volume   423.66116547
_cell_formula_units_Z   1
loop_
 _symmetry_equiv_pos_site_id
 _symmetry_equiv_pos_as_xyz
  1  'x, y, z'
loop_
 _atom_site_type_symbol
 _atom_site_label
 _atom_site_symmetry_multiplicity
 _atom_site_fract_x
 _atom_site_fract_y
 _atom_site_fract_z
 _atom_site_occupancy
  Er  Er0  1  0.016386  0.217246  0.799124  1
  Er  Er1  1  0.983614  0.782754  0.200876  1
  Er  Er2  1  0.185705  0.289055  0.474351  1
  Er  Er3  1  0.814295  0.710945  0.525649  1
  Er  Er4  1  0.185761  0.711398  0.896673  1
  Er  Er5  1  0.814239  0.288602  0.103327  1
  Tm  Tm6  1  0.314904  0.618798  0.304742  1
  Tm  Tm7  1  0.685096  0.381203  0.695258  1
  Tm  Tm8  1  0.314897  0.010137  0.696119  1
  Tm  Tm9  1  0.685103  0.989863  0.303881  1
  Tm  Tm10  1  0.418619  0.217529  0.201073  1
  Tm  Tm11  1  0.581381  0.782471  0.798927  1
  Co  Co12  1  0.114422  0.613902  0.500495  1
  Co  Co13  1  0.885579  0.386099  0.499505  1
  Co  Co14  1  0.376856  0.000369  0.376471  1
  Co  Co15  1  0.623144  0.999631  0.623529  1
  Cu  Cu16  1  0.000000  0.000000  0.000000  1
  Sn  Sn17  1  0.500000  0.500000  0.000000  1
