# generated using pymatgen
data_Dy5Ho7Co4NiSn
_symmetry_space_group_name_H-M   'P 1'
_cell_length_a   8.26419449
_cell_length_b   8.26369834
_cell_length_c   8.26419460
_cell_angle_alpha   107.01790212
_cell_angle_beta   110.52673676
_cell_angle_gamma   110.89914798
_symmetry_Int_Tables_number   1
_chemical_formula_structural   Dy5Ho7Co4NiSn
_chemical_formula_sum   'Dy5 Ho7 Co4 Ni1 Sn1'
_cell_volume   433.85172361
_cell_formula_units_Z   1
loop_
 _symmetry_equiv_pos_site_id
 _symmetry_equiv_pos_as_xyz
  1  'x, y, z'
loop_
 _atom_site_type_symbol
 _atom_site_label
 _atom_site_symmetry_multiplicity
 _atom_site_fract_x
 _atom_site_fract_y
 _atom_site_fract_z
 _atom_site_occupancy
  Dy  Dy0  1  0.694659  0.009359  0.314701  1
  Dy  Dy1  1  0.196520  0.210846  0.407244  1
  Dy  Dy2  1  0.803618  0.789109  0.592886  1
  Dy  Dy3  1  0.196224  0.789109  0.985490  1
  Dy  Dy4  1  0.803603  0.210846  0.014328  1
  Ho  Ho5  1  0.477487  0.292445  0.185202  1
  Ho  Ho6  1  0.107243  0.292445  0.814957  1
  Ho  Ho7  1  0.892934  0.707576  0.185169  1
  Ho  Ho8  1  0.522408  0.707576  0.814642  1
  Ho  Ho9  1  0.305462  0.620300  0.314838  1
  Ho  Ho10  1  0.305552  0.990711  0.685158  1
  Ho  Ho11  1  0.694438  0.379700  0.685262  1
  Co  Co12  1  0.499923  0.612485  0.112562  1
  Co  Co13  1  0.500010  0.387294  0.887283  1
  Co  Co14  1  0.376716  0.000031  0.376903  1
  Co  Co15  1  0.623128  0.000031  0.623315  1
  Ni  Ni16  1  0.999981  0.999986  0.000005  1
  Sn  Sn17  1  0.000092  0.500148  0.500057  1
