# generated using pymatgen
data_Tb4Ho4Cd2OsPd
_symmetry_space_group_name_H-M   'P 1'
_cell_length_a   9.66185555
_cell_length_b   9.66185552
_cell_length_c   9.74535200
_cell_angle_alpha   59.71370830
_cell_angle_beta   59.71370843
_cell_angle_gamma   59.57028648
_symmetry_Int_Tables_number   1
_chemical_formula_structural   Tb4Ho4Cd2OsPd
_chemical_formula_sum   'Tb8 Ho8 Cd4 Os2 Pd2'
_cell_volume   638.39965544
_cell_formula_units_Z   2
loop_
 _symmetry_equiv_pos_site_id
 _symmetry_equiv_pos_as_xyz
  1  'x, y, z'
loop_
 _atom_site_type_symbol
 _atom_site_label
 _atom_site_symmetry_multiplicity
 _atom_site_fract_x
 _atom_site_fract_y
 _atom_site_fract_z
 _atom_site_occupancy
  Tb  Tb0  1  0.187648  0.187648  0.812352  1
  Tb  Tb1  1  0.809028  0.809028  0.190972  1
  Tb  Tb2  1  0.937415  0.556652  0.567495  1
  Tb  Tb3  1  0.556652  0.937415  0.938438  1
  Tb  Tb4  1  0.556652  0.937415  0.567495  1
  Tb  Tb5  1  0.937415  0.556652  0.938438  1
  Tb  Tb6  1  0.564213  0.564213  0.935787  1
  Tb  Tb7  1  0.939768  0.939768  0.560232  1
  Ho  Ho8  1  0.349865  0.349865  0.354137  1
  Ho  Ho9  1  0.349865  0.349865  0.946133  1
  Ho  Ho10  1  0.345119  0.954729  0.350076  1
  Ho  Ho11  1  0.954729  0.345119  0.350076  1
  Ho  Ho12  1  0.816218  0.187084  0.190764  1
  Ho  Ho13  1  0.187084  0.816218  0.805936  1
  Ho  Ho14  1  0.187084  0.816218  0.190764  1
  Ho  Ho15  1  0.816218  0.187084  0.805936  1
  Cd  Cd16  1  0.580079  0.580079  0.581370  1
  Cd  Cd17  1  0.580079  0.580079  0.258469  1
  Cd  Cd18  1  0.581179  0.255575  0.581622  1
  Cd  Cd19  1  0.255575  0.581179  0.581622  1
  Os  Os20  1  0.144675  0.144675  0.138140  1
  Os  Os21  1  0.144675  0.144675  0.572510  1
  Pd  Pd22  1  0.146740  0.572025  0.140618  1
  Pd  Pd23  1  0.572025  0.146740  0.140618  1
