# generated using pymatgen
data_CsTbPr2(SbAu)4
_symmetry_space_group_name_H-M   'P 1'
_cell_length_a   4.67926900
_cell_length_b   4.67926940
_cell_length_c   18.25724600
_cell_angle_alpha   90.00000000
_cell_angle_beta   90.00000000
_cell_angle_gamma   120.00000423
_symmetry_Int_Tables_number   1
_chemical_formula_structural   CsTbPr2(SbAu)4
_chemical_formula_sum   'Cs1 Tb1 Pr2 Sb4 Au4'
_cell_volume   346.19591791
_cell_formula_units_Z   1
loop_
 _symmetry_equiv_pos_site_id
 _symmetry_equiv_pos_as_xyz
  1  'x, y, z'
loop_
 _atom_site_type_symbol
 _atom_site_label
 _atom_site_symmetry_multiplicity
 _atom_site_fract_x
 _atom_site_fract_y
 _atom_site_fract_z
 _atom_site_occupancy
  Cs  Cs0  1  0.000000  0.000000  0.250000  1
  Tb  Tb1  1  0.000000  0.000000  0.750000  1
  Pr  Pr2  1  0.000000  0.000000  0.522961  1
  Pr  Pr3  1  0.000000  0.000000  0.977039  1
  Sb  Sb4  1  0.333333  0.666667  0.403715  1
  Sb  Sb5  1  0.666667  0.333333  0.626790  1
  Sb  Sb6  1  0.666667  0.333333  0.873210  1
  Sb  Sb7  1  0.333333  0.666667  0.096285  1
  Au  Au8  1  0.666667  0.333333  0.432728  1
  Au  Au9  1  0.333333  0.666667  0.671044  1
  Au  Au10  1  0.333333  0.666667  0.828956  1
  Au  Au11  1  0.666667  0.333333  0.067272  1
