# generated using pymatgen
data_U2GaNiIr2
_symmetry_space_group_name_H-M   'P 1'
_cell_length_a   5.58156400
_cell_length_b   5.33202067
_cell_length_c   7.93323900
_cell_angle_alpha   90.00000000
_cell_angle_beta   90.00000000
_cell_angle_gamma   121.56063699
_symmetry_Int_Tables_number   1
_chemical_formula_structural   U2GaNiIr2
_chemical_formula_sum   'U4 Ga2 Ni2 Ir4'
_cell_volume   201.17873260
_cell_formula_units_Z   2
loop_
 _symmetry_equiv_pos_site_id
 _symmetry_equiv_pos_as_xyz
  1  'x, y, z'
loop_
 _atom_site_type_symbol
 _atom_site_label
 _atom_site_symmetry_multiplicity
 _atom_site_fract_x
 _atom_site_fract_y
 _atom_site_fract_z
 _atom_site_occupancy
  U  U0  1  0.341219  0.682439  0.418875  1
  U  U1  1  0.658781  0.317561  0.918875  1
  U  U2  1  0.658781  0.317561  0.581125  1
  U  U3  1  0.341219  0.682439  0.081125  1
  Ga  Ga4  1  0.000000  0.000000  0.500000  1
  Ga  Ga5  1  0.000000  0.000000  0.000000  1
  Ni  Ni6  1  0.161968  0.323938  0.750000  1
  Ni  Ni7  1  0.838032  0.676062  0.250000  1
  Ir  Ir8  1  0.160008  0.809813  0.750000  1
  Ir  Ir9  1  0.350196  0.190187  0.250000  1
  Ir  Ir10  1  0.839992  0.190187  0.250000  1
  Ir  Ir11  1  0.649804  0.809813  0.750000  1
