# generated using pymatgen
data_Ho5Er3(FeB6)4
_symmetry_space_group_name_H-M   'P 1'
_cell_length_a   3.53438900
_cell_length_b   9.05754211
_cell_length_c   11.41707000
_cell_angle_alpha   89.99130416
_cell_angle_beta   90.00000000
_cell_angle_gamma   90.00000000
_symmetry_Int_Tables_number   1
_chemical_formula_structural   Ho5Er3(FeB6)4
_chemical_formula_sum   'Ho5 Er3 Fe4 B24'
_cell_volume   365.49325582
_cell_formula_units_Z   1
loop_
 _symmetry_equiv_pos_site_id
 _symmetry_equiv_pos_as_xyz
  1  'x, y, z'
loop_
 _atom_site_type_symbol
 _atom_site_label
 _atom_site_symmetry_multiplicity
 _atom_site_fract_x
 _atom_site_fract_y
 _atom_site_fract_z
 _atom_site_occupancy
  Ho  Ho0  1  0.500000  0.324330  0.414386  1
  Ho  Ho1  1  0.500000  0.675719  0.585777  1
  Ho  Ho2  1  0.500000  0.175470  0.914121  1
  Ho  Ho3  1  0.500000  0.824542  0.085699  1
  Ho  Ho4  1  0.500000  0.443684  0.129315  1
  Er  Er5  1  0.500000  0.556313  0.870594  1
  Er  Er6  1  0.500000  0.056321  0.629278  1
  Er  Er7  1  0.500000  0.943698  0.370792  1
  Fe  Fe8  1  0.500000  0.138902  0.179574  1
  Fe  Fe9  1  0.500000  0.860766  0.820336  1
  Fe  Fe10  1  0.500000  0.360710  0.679484  1
  Fe  Fe11  1  0.500000  0.639538  0.320638  1
  B  B12  1  0.000000  0.109157  0.470133  1
  B  B13  1  0.000000  0.890862  0.529942  1
  B  B14  1  0.000000  0.390243  0.969659  1
  B  B15  1  0.000000  0.609986  0.029804  1
  B  B16  1  0.000000  0.132634  0.314250  1
  B  B17  1  0.000000  0.867257  0.685823  1
  B  B18  1  0.000000  0.367153  0.814038  1
  B  B19  1  0.000000  0.633183  0.186026  1
  B  B20  1  0.000000  0.054408  0.068050  1
  B  B21  1  0.000000  0.945343  0.931845  1
  B  B22  1  0.000000  0.445358  0.568082  1
  B  B23  1  0.000000  0.554748  0.432077  1
  B  B24  1  0.000000  0.486829  0.288420  1
  B  B25  1  0.000000  0.513459  0.711851  1
  B  B26  1  0.000000  0.013484  0.788063  1
  B  B27  1  0.000000  0.986437  0.211944  1
  B  B28  1  0.000000  0.246544  0.081361  1
  B  B29  1  0.000000  0.753062  0.918503  1
  B  B30  1  0.000000  0.252963  0.581379  1
  B  B31  1  0.000000  0.747132  0.418682  1
  B  B32  1  0.000000  0.289776  0.233603  1
  B  B33  1  0.000000  0.709817  0.766438  1
  B  B34  1  0.000000  0.209772  0.733418  1
  B  B35  1  0.000000  0.790401  0.266613  1
