# generated using pymatgen
data_Pr8ZrSc11Ga16
_symmetry_space_group_name_H-M   'P 1'
_cell_length_a   7.43340394
_cell_length_b   7.74235813
_cell_length_c   14.79529800
_cell_angle_alpha   89.97228587
_cell_angle_beta   90.07242325
_cell_angle_gamma   90.01382178
_symmetry_Int_Tables_number   1
_chemical_formula_structural   Pr8ZrSc11Ga16
_chemical_formula_sum   'Pr8 Zr1 Sc11 Ga16'
_cell_volume   851.49930178
_cell_formula_units_Z   1
loop_
 _symmetry_equiv_pos_site_id
 _symmetry_equiv_pos_as_xyz
  1  'x, y, z'
loop_
 _atom_site_type_symbol
 _atom_site_label
 _atom_site_symmetry_multiplicity
 _atom_site_fract_x
 _atom_site_fract_y
 _atom_site_fract_z
 _atom_site_occupancy
  Pr  Pr0  1  0.012096  0.177099  0.095232  1
  Pr  Pr1  1  0.988794  0.823568  0.905863  1
  Pr  Pr2  1  0.488345  0.675803  0.905405  1
  Pr  Pr3  1  0.988206  0.823182  0.594100  1
  Pr  Pr4  1  0.511707  0.323070  0.094932  1
  Pr  Pr5  1  0.012027  0.176563  0.405443  1
  Pr  Pr6  1  0.512841  0.324452  0.404214  1
  Pr  Pr7  1  0.488891  0.675968  0.594929  1
  Zr  Zr8  1  0.331453  0.173637  0.626654  1
  Sc  Sc9  1  0.161481  0.498774  0.750222  1
  Sc  Sc10  1  0.838374  0.501597  0.249495  1
  Sc  Sc11  1  0.338444  0.998298  0.250218  1
  Sc  Sc12  1  0.661454  0.001283  0.750239  1
  Sc  Sc13  1  0.670125  0.827788  0.374266  1
  Sc  Sc14  1  0.170598  0.671424  0.374655  1
  Sc  Sc15  1  0.669809  0.827763  0.125598  1
  Sc  Sc16  1  0.829184  0.326911  0.624257  1
  Sc  Sc17  1  0.330375  0.171417  0.874316  1
  Sc  Sc18  1  0.829600  0.328022  0.875124  1
  Sc  Sc19  1  0.169390  0.672056  0.125663  1
  Ga  Ga20  1  0.032267  0.122472  0.748438  1
  Ga  Ga21  1  0.968743  0.877644  0.250206  1
  Ga  Ga22  1  0.468884  0.622349  0.249893  1
  Ga  Ga23  1  0.530559  0.377090  0.748756  1
  Ga  Ga24  1  0.286202  0.880469  0.748354  1
  Ga  Ga25  1  0.714093  0.120449  0.250106  1
  Ga  Ga26  1  0.213822  0.379165  0.250319  1
  Ga  Ga27  1  0.785652  0.621032  0.749922  1
  Ga  Ga28  1  0.158423  0.458397  0.541860  1
  Ga  Ga29  1  0.843260  0.537870  0.459144  1
  Ga  Ga30  1  0.342060  0.964282  0.461243  1
  Ga  Ga31  1  0.842639  0.538678  0.040532  1
  Ga  Ga32  1  0.654306  0.040034  0.541745  1
  Ga  Ga33  1  0.157362  0.462034  0.958964  1
  Ga  Ga34  1  0.656134  0.037665  0.958778  1
  Ga  Ga35  1  0.342402  0.961695  0.040915  1
