# generated using pymatgen
data_NdNi2As2Pd
_symmetry_space_group_name_H-M   'P 1'
_cell_length_a   3.93550600
_cell_length_b   8.18088955
_cell_length_c   9.95385133
_cell_angle_alpha   105.18125052
_cell_angle_beta   90.00000000
_cell_angle_gamma   103.91784252
_symmetry_Int_Tables_number   1
_chemical_formula_structural   NdNi2As2Pd
_chemical_formula_sum   'Nd3 Ni6 As6 Pd3'
_cell_volume   299.53011416
_cell_formula_units_Z   3
loop_
 _symmetry_equiv_pos_site_id
 _symmetry_equiv_pos_as_xyz
  1  'x, y, z'
loop_
 _atom_site_type_symbol
 _atom_site_label
 _atom_site_symmetry_multiplicity
 _atom_site_fract_x
 _atom_site_fract_y
 _atom_site_fract_z
 _atom_site_occupancy
  Nd  Nd0  1  0.847590  0.695179  0.308193  1
  Nd  Nd1  1  0.152410  0.304821  0.691807  1
  Nd  Nd2  1  0.000000  0.000000  0.000000  1
  Ni  Ni3  1  0.949221  0.898442  0.669983  1
  Ni  Ni4  1  0.050779  0.101558  0.330017  1
  Ni  Ni5  1  0.784569  0.569139  0.609386  1
  Ni  Ni6  1  0.215431  0.430861  0.390614  1
  Ni  Ni7  1  0.372019  0.744038  0.790452  1
  Ni  Ni8  1  0.627981  0.255962  0.209548  1
  As  As9  1  0.801826  0.603653  0.853164  1
  As  As10  1  0.198174  0.396347  0.146836  1
  As  As11  1  0.526002  0.052004  0.779336  1
  As  As12  1  0.473998  0.947996  0.220664  1
  As  As13  1  0.647202  0.294405  0.450000  1
  As  As14  1  0.352798  0.705595  0.550000  1
  Pd  Pd15  1  0.500000  0.000000  0.500000  1
  Pd  Pd16  1  0.672798  0.345596  0.964690  1
  Pd  Pd17  1  0.327202  0.654404  0.035310  1
