# generated using pymatgen
data_Sm12Ga(GeBr4)3
_symmetry_space_group_name_H-M   'P 1'
_cell_length_a   10.31884310
_cell_length_b   10.31884299
_cell_length_c   10.31884304
_cell_angle_alpha   109.40903958
_cell_angle_beta   109.40903191
_cell_angle_gamma   109.40903054
_symmetry_Int_Tables_number   1
_chemical_formula_structural   Sm12Ga(GeBr4)3
_chemical_formula_sum   'Sm12 Ga1 Ge3 Br12'
_cell_volume   847.74850849
_cell_formula_units_Z   1
loop_
 _symmetry_equiv_pos_site_id
 _symmetry_equiv_pos_as_xyz
  1  'x, y, z'
loop_
 _atom_site_type_symbol
 _atom_site_label
 _atom_site_symmetry_multiplicity
 _atom_site_fract_x
 _atom_site_fract_y
 _atom_site_fract_z
 _atom_site_occupancy
  Sm  Sm0  1  0.479367  0.489817  0.239542  1
  Sm  Sm1  1  0.750000  0.238716  0.261284  1
  Sm  Sm2  1  0.750000  0.011403  0.488597  1
  Sm  Sm3  1  0.239542  0.479367  0.489817  1
  Sm  Sm4  1  0.261284  0.750000  0.238716  1
  Sm  Sm5  1  0.020633  0.260458  0.010183  1
  Sm  Sm6  1  0.010183  0.020633  0.260458  1
  Sm  Sm7  1  0.488597  0.750000  0.011403  1
  Sm  Sm8  1  0.489817  0.239542  0.479367  1
  Sm  Sm9  1  0.011403  0.488597  0.750000  1
  Sm  Sm10  1  0.260458  0.010183  0.020633  1
  Sm  Sm11  1  0.238716  0.261284  0.750000  1
  Ga  Ga12  1  0.250000  0.250000  0.250000  1
  Ge  Ge13  1  0.499608  0.000392  0.250000  1
  Ge  Ge14  1  0.000392  0.250000  0.499608  1
  Ge  Ge15  1  0.250000  0.499608  0.000392  1
  Br  Br16  1  0.250000  0.753712  0.746288  1
  Br  Br17  1  0.508505  0.504607  0.754844  1
  Br  Br18  1  0.991495  0.745156  0.995393  1
  Br  Br19  1  0.746288  0.250000  0.753712  1
  Br  Br20  1  0.995393  0.991495  0.745156  1
  Br  Br21  1  0.250000  0.995213  0.504787  1
  Br  Br22  1  0.754844  0.508505  0.504607  1
  Br  Br23  1  0.504787  0.250000  0.995213  1
  Br  Br24  1  0.753712  0.746288  0.250000  1
  Br  Br25  1  0.745156  0.995393  0.991495  1
  Br  Br26  1  0.995213  0.504787  0.250000  1
  Br  Br27  1  0.504607  0.754844  0.508505  1
