# generated using pymatgen
data_YbDy18MgIr12
_symmetry_space_group_name_H-M   'P 1'
_cell_length_a   10.86997100
_cell_length_b   10.86997100
_cell_length_c   6.30042700
_cell_angle_alpha   90.00000000
_cell_angle_beta   90.00000000
_cell_angle_gamma   90.00000000
_symmetry_Int_Tables_number   1
_chemical_formula_structural   YbDy18MgIr12
_chemical_formula_sum   'Yb1 Dy18 Mg1 Ir12'
_cell_volume   744.43495083
_cell_formula_units_Z   1
loop_
 _symmetry_equiv_pos_site_id
 _symmetry_equiv_pos_as_xyz
  1  'x, y, z'
loop_
 _atom_site_type_symbol
 _atom_site_label
 _atom_site_symmetry_multiplicity
 _atom_site_fract_x
 _atom_site_fract_y
 _atom_site_fract_z
 _atom_site_occupancy
  Yb  Yb0  1  0.500000  0.500000  0.000000  1
  Dy  Dy1  1  0.283714  0.085679  0.380332  1
  Dy  Dy2  1  0.290728  0.911491  0.880224  1
  Dy  Dy3  1  0.709272  0.088509  0.880224  1
  Dy  Dy4  1  0.716286  0.914321  0.380332  1
  Dy  Dy5  1  0.588569  0.790937  0.881118  1
  Dy  Dy6  1  0.588343  0.207983  0.380371  1
  Dy  Dy7  1  0.411657  0.792017  0.380371  1
  Dy  Dy8  1  0.411431  0.209063  0.881118  1
  Dy  Dy9  1  0.207983  0.411657  0.619629  1
  Dy  Dy10  1  0.209063  0.588569  0.118882  1
  Dy  Dy11  1  0.790937  0.411431  0.118882  1
  Dy  Dy12  1  0.792017  0.588343  0.619629  1
  Dy  Dy13  1  0.911491  0.709272  0.119776  1
  Dy  Dy14  1  0.914321  0.283714  0.619668  1
  Dy  Dy15  1  0.085679  0.716286  0.619668  1
  Dy  Dy16  1  0.088509  0.290728  0.119776  1
  Dy  Dy17  1  0.000000  0.000000  0.000000  1
  Dy  Dy18  1  0.500000  0.500000  0.500000  1
  Mg  Mg19  1  0.000000  0.000000  0.500000  1
  Ir  Ir20  1  0.846766  0.153973  0.247660  1
  Ir  Ir21  1  0.846027  0.846766  0.752340  1
  Ir  Ir22  1  0.153973  0.153234  0.752340  1
  Ir  Ir23  1  0.153234  0.846027  0.247660  1
  Ir  Ir24  1  0.656321  0.344186  0.745368  1
  Ir  Ir25  1  0.655814  0.656321  0.254632  1
  Ir  Ir26  1  0.344186  0.343679  0.254632  1
  Ir  Ir27  1  0.343679  0.655814  0.745368  1
  Ir  Ir28  1  0.500000  0.000000  0.124837  1
  Ir  Ir29  1  0.500000  0.000000  0.620869  1
  Ir  Ir30  1  0.000000  0.500000  0.875163  1
  Ir  Ir31  1  0.000000  0.500000  0.379131  1
