# generated using pymatgen
data_DyTl2Cl5
_symmetry_space_group_name_H-M   'P 1'
_cell_length_a   8.12463400
_cell_length_b   8.62779600
_cell_length_c   13.16814700
_cell_angle_alpha   90.00000000
_cell_angle_beta   90.00000000
_cell_angle_gamma   90.00000000
_symmetry_Int_Tables_number   1
_chemical_formula_structural   DyTl2Cl5
_chemical_formula_sum   'Dy4 Tl8 Cl20'
_cell_volume   923.05661684
_cell_formula_units_Z   4
loop_
 _symmetry_equiv_pos_site_id
 _symmetry_equiv_pos_as_xyz
  1  'x, y, z'
loop_
 _atom_site_type_symbol
 _atom_site_label
 _atom_site_symmetry_multiplicity
 _atom_site_fract_x
 _atom_site_fract_y
 _atom_site_fract_z
 _atom_site_occupancy
  Dy  Dy0  1  0.930527  0.750000  0.503174  1
  Dy  Dy1  1  0.069473  0.250000  0.496826  1
  Dy  Dy2  1  0.430527  0.250000  0.996826  1
  Dy  Dy3  1  0.569473  0.750000  0.003174  1
  Tl  Tl4  1  0.947331  0.005271  0.828054  1
  Tl  Tl5  1  0.052669  0.994729  0.171946  1
  Tl  Tl6  1  0.447331  0.994729  0.671946  1
  Tl  Tl7  1  0.052669  0.505271  0.171946  1
  Tl  Tl8  1  0.552669  0.005271  0.328054  1
  Tl  Tl9  1  0.947331  0.494729  0.828054  1
  Tl  Tl10  1  0.552669  0.494729  0.328054  1
  Tl  Tl11  1  0.447331  0.505271  0.671946  1
  Cl  Cl12  1  0.115389  0.750000  0.671081  1
  Cl  Cl13  1  0.884611  0.250000  0.328919  1
  Cl  Cl14  1  0.615389  0.250000  0.828919  1
  Cl  Cl15  1  0.384611  0.750000  0.171081  1
  Cl  Cl16  1  0.841026  0.042163  0.571653  1
  Cl  Cl17  1  0.158974  0.957837  0.428347  1
  Cl  Cl18  1  0.341026  0.957837  0.928347  1
  Cl  Cl19  1  0.158974  0.542163  0.428347  1
  Cl  Cl20  1  0.658974  0.042163  0.071653  1
  Cl  Cl21  1  0.841026  0.457837  0.571653  1
  Cl  Cl22  1  0.658974  0.457837  0.071653  1
  Cl  Cl23  1  0.341026  0.542163  0.928347  1
  Cl  Cl24  1  0.596814  0.750000  0.512066  1
  Cl  Cl25  1  0.403186  0.250000  0.487934  1
  Cl  Cl26  1  0.096814  0.250000  0.987934  1
  Cl  Cl27  1  0.903186  0.750000  0.012066  1
  Cl  Cl28  1  0.654340  0.750000  0.805673  1
  Cl  Cl29  1  0.345660  0.250000  0.194327  1
  Cl  Cl30  1  0.154340  0.250000  0.694327  1
  Cl  Cl31  1  0.845660  0.750000  0.305673  1
