# generated using pymatgen
data_SrSmNiH6
_symmetry_space_group_name_H-M   'P 1'
_cell_length_a   7.25909202
_cell_length_b   7.25909206
_cell_length_c   5.19067400
_cell_angle_alpha   90.00000000
_cell_angle_beta   90.00000000
_cell_angle_gamma   138.02828295
_symmetry_Int_Tables_number   1
_chemical_formula_structural   SrSmNiH6
_chemical_formula_sum   'Sr2 Sm2 Ni2 H12'
_cell_volume   182.91993689
_cell_formula_units_Z   2
loop_
 _symmetry_equiv_pos_site_id
 _symmetry_equiv_pos_as_xyz
  1  'x, y, z'
loop_
 _atom_site_type_symbol
 _atom_site_label
 _atom_site_symmetry_multiplicity
 _atom_site_fract_x
 _atom_site_fract_y
 _atom_site_fract_z
 _atom_site_occupancy
  Sr  Sr0  1  0.858221  0.141779  0.500000  1
  Sr  Sr1  1  0.358221  0.641779  0.000000  1
  Sm  Sm2  1  0.137342  0.862658  0.500000  1
  Sm  Sm3  1  0.637342  0.362658  0.000000  1
  Ni  Ni4  1  0.506748  0.493252  0.500000  1
  Ni  Ni5  1  0.006748  0.993252  0.000000  1
  H  H6  1  0.986653  0.513489  0.750069  1
  H  H7  1  0.486511  0.013347  0.249931  1
  H  H8  1  0.986511  0.513347  0.250069  1
  H  H9  1  0.486653  0.013489  0.749931  1
  H  H10  1  0.386068  0.613932  0.500000  1
  H  H11  1  0.886068  0.113932  0.000000  1
  H  H12  1  0.623219  0.376781  0.500000  1
  H  H13  1  0.123219  0.876781  0.000000  1
  H  H14  1  0.258703  0.243464  0.748828  1
  H  H15  1  0.756536  0.741297  0.251172  1
  H  H16  1  0.256536  0.241297  0.248828  1
  H  H17  1  0.758703  0.743464  0.751172  1
