# generated using pymatgen
data_Y3Cd(Rh2O7)2
_symmetry_space_group_name_H-M   'P 1'
_cell_length_a   7.18286982
_cell_length_b   7.18287065
_cell_length_c   7.18287000
_cell_angle_alpha   61.02794163
_cell_angle_beta   61.02793837
_cell_angle_gamma   61.02794362
_symmetry_Int_Tables_number   1
_chemical_formula_structural   Y3Cd(Rh2O7)2
_chemical_formula_sum   'Y3 Cd1 Rh4 O14'
_cell_volume   268.11326454
_cell_formula_units_Z   1
loop_
 _symmetry_equiv_pos_site_id
 _symmetry_equiv_pos_as_xyz
  1  'x, y, z'
loop_
 _atom_site_type_symbol
 _atom_site_label
 _atom_site_symmetry_multiplicity
 _atom_site_fract_x
 _atom_site_fract_y
 _atom_site_fract_z
 _atom_site_occupancy
  Y  Y0  1  0.000000  0.500000  0.500000  1
  Y  Y1  1  0.500000  0.500000  0.000000  1
  Y  Y2  1  0.500000  0.000000  0.500000  1
  Cd  Cd3  1  0.500000  0.500000  0.500000  1
  Rh  Rh4  1  0.000000  0.000000  0.000000  1
  Rh  Rh5  1  0.500000  0.000000  0.000000  1
  Rh  Rh6  1  0.000000  0.000000  0.500000  1
  Rh  Rh7  1  0.000000  0.500000  0.000000  1
  O  O8  1  0.374436  0.374436  0.374436  1
  O  O9  1  0.625564  0.625564  0.625564  1
  O  O10  1  0.926426  0.329092  0.329092  1
  O  O11  1  0.334336  0.913725  0.913725  1
  O  O12  1  0.329092  0.329092  0.926426  1
  O  O13  1  0.913725  0.913725  0.334336  1
  O  O14  1  0.913725  0.334336  0.913725  1
  O  O15  1  0.329092  0.926426  0.329092  1
  O  O16  1  0.073574  0.670908  0.670908  1
  O  O17  1  0.665664  0.086275  0.086275  1
  O  O18  1  0.670908  0.670908  0.073574  1
  O  O19  1  0.086275  0.086275  0.665664  1
  O  O20  1  0.086275  0.665664  0.086275  1
  O  O21  1  0.670908  0.073574  0.670908  1
