# generated using pymatgen
data_CaCe7Be3Si12Rh
_symmetry_space_group_name_H-M   'P 1'
_cell_length_a   8.01013100
_cell_length_b   8.01013081
_cell_length_c   8.43081400
_cell_angle_alpha   90.00000000
_cell_angle_beta   90.00000000
_cell_angle_gamma   119.99999667
_symmetry_Int_Tables_number   1
_chemical_formula_structural   CaCe7Be3Si12Rh
_chemical_formula_sum   'Ca1 Ce7 Be3 Si12 Rh1'
_cell_volume   468.46740755
_cell_formula_units_Z   1
loop_
 _symmetry_equiv_pos_site_id
 _symmetry_equiv_pos_as_xyz
  1  'x, y, z'
loop_
 _atom_site_type_symbol
 _atom_site_label
 _atom_site_symmetry_multiplicity
 _atom_site_fract_x
 _atom_site_fract_y
 _atom_site_fract_z
 _atom_site_occupancy
  Ca  Ca0  1  0.000000  0.000000  0.251119  1
  Ce  Ce1  1  0.000000  0.000000  0.749650  1
  Ce  Ce2  1  0.499129  0.500871  0.249142  1
  Ce  Ce3  1  0.499129  0.998257  0.249142  1
  Ce  Ce4  1  0.001743  0.500871  0.249142  1
  Ce  Ce5  1  0.499130  0.500870  0.751393  1
  Ce  Ce6  1  0.499130  0.998260  0.751393  1
  Ce  Ce7  1  0.001740  0.500870  0.751393  1
  Be  Be8  1  0.333333  0.666667  0.498961  1
  Be  Be9  1  0.666667  0.333333  0.500652  1
  Be  Be10  1  0.666667  0.333333  0.999967  1
  Si  Si11  1  0.173132  0.826868  0.499685  1
  Si  Si12  1  0.173132  0.346264  0.499685  1
  Si  Si13  1  0.653736  0.826868  0.499685  1
  Si  Si14  1  0.826321  0.173679  0.499852  1
  Si  Si15  1  0.826321  0.652639  0.499852  1
  Si  Si16  1  0.347361  0.173679  0.499852  1
  Si  Si17  1  0.827106  0.172894  0.000096  1
  Si  Si18  1  0.827106  0.654211  0.000096  1
  Si  Si19  1  0.345789  0.172894  0.000096  1
  Si  Si20  1  0.165389  0.834611  0.999576  1
  Si  Si21  1  0.165389  0.330779  0.999576  1
  Si  Si22  1  0.669221  0.834611  0.999576  1
  Rh  Rh23  1  0.333333  0.666667  0.000422  1
