# generated using pymatgen
data_LiTlF4
_symmetry_space_group_name_H-M   'P 1'
_cell_length_a   5.63385195
_cell_length_b   5.10831987
_cell_length_c   5.65531812
_cell_angle_alpha   84.75261594
_cell_angle_beta   100.78213955
_cell_angle_gamma   90.05719212
_symmetry_Int_Tables_number   1
_chemical_formula_structural   LiTlF4
_chemical_formula_sum   'Li2 Tl2 F8'
_cell_volume   159.19229644
_cell_formula_units_Z   2
loop_
 _symmetry_equiv_pos_site_id
 _symmetry_equiv_pos_as_xyz
  1  'x, y, z'
loop_
 _atom_site_type_symbol
 _atom_site_label
 _atom_site_symmetry_multiplicity
 _atom_site_fract_x
 _atom_site_fract_y
 _atom_site_fract_z
 _atom_site_occupancy
  Li  Li0  1  0.203051  0.474646  0.686190  1
  Li  Li1  1  0.796949  0.525354  0.313810  1
  Tl  Tl2  1  0.711463  0.951852  0.790506  1
  Tl  Tl3  1  0.288537  0.048148  0.209494  1
  F  F4  1  0.378538  0.783737  0.574287  1
  F  F5  1  0.977851  0.770584  0.117096  1
  F  F6  1  0.508471  0.743747  0.092741  1
  F  F7  1  0.895007  0.693654  0.604054  1
  F  F8  1  0.104993  0.306346  0.395946  1
  F  F9  1  0.491529  0.256253  0.907259  1
  F  F10  1  0.022149  0.229416  0.882904  1
  F  F11  1  0.621462  0.216263  0.425713  1
