# generated using pymatgen
data_Er10Pt17Au
_symmetry_space_group_name_H-M   'P 1'
_cell_length_a   9.74440020
_cell_length_b   9.74440020
_cell_length_c   5.76256800
_cell_angle_alpha   90.00000000
_cell_angle_beta   90.00000000
_cell_angle_gamma   90.61688337
_symmetry_Int_Tables_number   1
_chemical_formula_structural   Er10Pt17Au
_chemical_formula_sum   'Er10 Pt17 Au1'
_cell_volume   547.14333675
_cell_formula_units_Z   1
loop_
 _symmetry_equiv_pos_site_id
 _symmetry_equiv_pos_as_xyz
  1  'x, y, z'
loop_
 _atom_site_type_symbol
 _atom_site_label
 _atom_site_symmetry_multiplicity
 _atom_site_fract_x
 _atom_site_fract_y
 _atom_site_fract_z
 _atom_site_occupancy
  Er  Er0  1  0.453061  0.808044  0.000000  1
  Er  Er1  1  0.546939  0.191956  0.000000  1
  Er  Er2  1  0.191956  0.546939  0.000000  1
  Er  Er3  1  0.808044  0.453061  0.000000  1
  Er  Er4  1  0.500000  0.500000  0.500000  1
  Er  Er5  1  0.315119  0.047275  0.500000  1
  Er  Er6  1  0.684881  0.952725  0.500000  1
  Er  Er7  1  0.952725  0.684881  0.500000  1
  Er  Er8  1  0.047275  0.315119  0.500000  1
  Er  Er9  1  0.000000  0.000000  0.000000  1
  Pt  Pt10  1  0.192817  0.807183  0.249774  1
  Pt  Pt11  1  0.807183  0.192817  0.750226  1
  Pt  Pt12  1  0.807183  0.192817  0.249774  1
  Pt  Pt13  1  0.192817  0.807183  0.750226  1
  Pt  Pt14  1  0.441298  0.781304  0.500000  1
  Pt  Pt15  1  0.558702  0.218696  0.500000  1
  Pt  Pt16  1  0.218696  0.558702  0.500000  1
  Pt  Pt17  1  0.781304  0.441298  0.500000  1
  Pt  Pt18  1  0.307443  0.307443  0.249489  1
  Pt  Pt19  1  0.692557  0.692557  0.750511  1
  Pt  Pt20  1  0.692557  0.692557  0.249489  1
  Pt  Pt21  1  0.307443  0.307443  0.750511  1
  Pt  Pt22  1  0.281788  0.058055  0.000000  1
  Pt  Pt23  1  0.718212  0.941945  0.000000  1
  Pt  Pt24  1  0.941945  0.718212  0.000000  1
  Pt  Pt25  1  0.058055  0.281788  0.000000  1
  Pt  Pt26  1  0.500000  0.500000  0.000000  1
  Au  Au27  1  0.000000  0.000000  0.500000  1
