# generated using pymatgen
data_La2P3Au
_symmetry_space_group_name_H-M   'P 1'
_cell_length_a   7.83979200
_cell_length_b   4.27456000
_cell_length_c   16.46764400
_cell_angle_alpha   90.00000000
_cell_angle_beta   89.99937608
_cell_angle_gamma   90.00000000
_symmetry_Int_Tables_number   1
_chemical_formula_structural   La2P3Au
_chemical_formula_sum   'La8 P12 Au4'
_cell_volume   551.85810798
_cell_formula_units_Z   4
loop_
 _symmetry_equiv_pos_site_id
 _symmetry_equiv_pos_as_xyz
  1  'x, y, z'
loop_
 _atom_site_type_symbol
 _atom_site_label
 _atom_site_symmetry_multiplicity
 _atom_site_fract_x
 _atom_site_fract_y
 _atom_site_fract_z
 _atom_site_occupancy
  La  La0  1  0.262248  0.750001  0.021322  1
  La  La1  1  0.905839  0.750001  0.205891  1
  La  La2  1  0.405816  0.750001  0.294109  1
  La  La3  1  0.762255  0.750001  0.478671  1
  La  La4  1  0.237746  0.249999  0.521329  1
  La  La5  1  0.594184  0.249999  0.705891  1
  La  La6  1  0.094161  0.249999  0.794109  1
  La  La7  1  0.737751  0.249999  0.978678  1
  P  P8  1  0.614524  0.750001  0.090804  1
  P  P9  1  0.033073  0.249999  0.094647  1
  P  P10  1  0.200689  0.249999  0.201453  1
  P  P11  1  0.700700  0.249999  0.298550  1
  P  P12  1  0.533075  0.249999  0.405354  1
  P  P13  1  0.114529  0.750001  0.409200  1
  P  P14  1  0.885470  0.249999  0.590800  1
  P  P15  1  0.466926  0.750001  0.594646  1
  P  P16  1  0.299299  0.750001  0.701450  1
  P  P17  1  0.799312  0.750001  0.798548  1
  P  P18  1  0.966927  0.750001  0.905353  1
  P  P19  1  0.385476  0.249999  0.909196  1
  Au  Au20  1  0.501480  0.249999  0.144835  1
  Au  Au21  1  0.001498  0.249999  0.355166  1
  Au  Au22  1  0.998502  0.750001  0.644834  1
  Au  Au23  1  0.498520  0.750001  0.855166  1
