# generated using pymatgen
data_Pr3Cd3(IrO7)2
_symmetry_space_group_name_H-M   'P 1'
_cell_length_a   6.54143144
_cell_length_b   6.73075149
_cell_length_c   7.66197800
_cell_angle_alpha   90.00000000
_cell_angle_beta   90.00000000
_cell_angle_gamma   113.21995306
_symmetry_Int_Tables_number   1
_chemical_formula_structural   Pr3Cd3(IrO7)2
_chemical_formula_sum   'Pr3 Cd3 Ir2 O14'
_cell_volume   310.02153440
_cell_formula_units_Z   1
loop_
 _symmetry_equiv_pos_site_id
 _symmetry_equiv_pos_as_xyz
  1  'x, y, z'
loop_
 _atom_site_type_symbol
 _atom_site_label
 _atom_site_symmetry_multiplicity
 _atom_site_fract_x
 _atom_site_fract_y
 _atom_site_fract_z
 _atom_site_occupancy
  Pr  Pr0  1  0.991031  0.998424  0.998058  1
  Pr  Pr1  1  0.991031  0.998424  0.501942  1
  Pr  Pr2  1  0.067203  0.520460  0.250000  1
  Cd  Cd3  1  0.481915  0.982882  0.750000  1
  Cd  Cd4  1  0.513631  0.035296  0.250000  1
  Cd  Cd5  1  0.969305  0.490696  0.750000  1
  Ir  Ir6  1  0.503612  0.497492  0.996329  1
  Ir  Ir7  1  0.503612  0.497492  0.503671  1
  O  O8  1  0.592796  0.521370  0.750000  1
  O  O9  1  0.419529  0.471273  0.250000  1
  O  O10  1  0.841970  0.129917  0.750000  1
  O  O11  1  0.155994  0.895081  0.250000  1
  O  O12  1  0.117654  0.849226  0.750000  1
  O  O13  1  0.867647  0.142526  0.250000  1
  O  O14  1  0.434242  0.193581  0.992172  1
  O  O15  1  0.557764  0.799328  0.497037  1
  O  O16  1  0.184070  0.416742  0.967735  1
  O  O17  1  0.815458  0.575069  0.459535  1
  O  O18  1  0.434242  0.193581  0.507828  1
  O  O19  1  0.557764  0.799328  0.002963  1
  O  O20  1  0.815458  0.575069  0.040465  1
  O  O21  1  0.184070  0.416742  0.532265  1
