# generated using pymatgen
data_Mg6Co(B3Ir5)2
_symmetry_space_group_name_H-M   'P 1'
_cell_length_a   2.92610300
_cell_length_b   8.62591100
_cell_length_c   11.61073000
_cell_angle_alpha   90.00000000
_cell_angle_beta   90.00000000
_cell_angle_gamma   90.00000000
_symmetry_Int_Tables_number   1
_chemical_formula_structural   Mg6Co(B3Ir5)2
_chemical_formula_sum   'Mg6 Co1 B6 Ir10'
_cell_volume   293.05835550
_cell_formula_units_Z   1
loop_
 _symmetry_equiv_pos_site_id
 _symmetry_equiv_pos_as_xyz
  1  'x, y, z'
loop_
 _atom_site_type_symbol
 _atom_site_label
 _atom_site_symmetry_multiplicity
 _atom_site_fract_x
 _atom_site_fract_y
 _atom_site_fract_z
 _atom_site_occupancy
  Mg  Mg0  1  0.500000  0.000000  0.500000  1
  Mg  Mg1  1  0.500000  0.500000  0.000000  1
  Mg  Mg2  1  0.500000  0.654212  0.500000  1
  Mg  Mg3  1  0.500000  0.345788  0.500000  1
  Mg  Mg4  1  0.500000  0.000000  0.197038  1
  Mg  Mg5  1  0.500000  0.000000  0.802962  1
  Co  Co6  1  0.000000  0.000000  0.000000  1
  B  B7  1  0.500000  0.827059  0.000000  1
  B  B8  1  0.500000  0.172941  0.000000  1
  B  B9  1  0.500000  0.686688  0.266637  1
  B  B10  1  0.500000  0.313312  0.266637  1
  B  B11  1  0.500000  0.313312  0.733363  1
  B  B12  1  0.500000  0.686688  0.733363  1
  Ir  Ir13  1  0.000000  0.500000  0.307094  1
  Ir  Ir14  1  0.000000  0.500000  0.692906  1
  Ir  Ir15  1  0.000000  0.729462  0.121089  1
  Ir  Ir16  1  0.000000  0.270538  0.121089  1
  Ir  Ir17  1  0.000000  0.270538  0.878911  1
  Ir  Ir18  1  0.000000  0.729462  0.878911  1
  Ir  Ir19  1  0.000000  0.827055  0.352491  1
  Ir  Ir20  1  0.000000  0.172945  0.352491  1
  Ir  Ir21  1  0.000000  0.172945  0.647509  1
  Ir  Ir22  1  0.000000  0.827055  0.647509  1
