# generated using pymatgen
data_YbLuTcOs3
_symmetry_space_group_name_H-M   'P 1'
_cell_length_a   5.35165900
_cell_length_b   5.30981682
_cell_length_c   8.67833004
_cell_angle_alpha   89.80039301
_cell_angle_beta   90.00000000
_cell_angle_gamma   120.26101137
_symmetry_Int_Tables_number   1
_chemical_formula_structural   YbLuTcOs3
_chemical_formula_sum   'Yb2 Lu2 Tc2 Os6'
_cell_volume   213.00164902
_cell_formula_units_Z   2
loop_
 _symmetry_equiv_pos_site_id
 _symmetry_equiv_pos_as_xyz
  1  'x, y, z'
loop_
 _atom_site_type_symbol
 _atom_site_label
 _atom_site_symmetry_multiplicity
 _atom_site_fract_x
 _atom_site_fract_y
 _atom_site_fract_z
 _atom_site_occupancy
  Yb  Yb0  1  0.333566  0.667133  0.439637  1
  Yb  Yb1  1  0.666582  0.333163  0.559095  1
  Lu  Lu2  1  0.667491  0.334981  0.929378  1
  Lu  Lu3  1  0.333094  0.666189  0.072497  1
  Tc  Tc4  1  0.171531  0.343063  0.752649  1
  Tc  Tc5  1  0.001815  0.003630  0.999368  1
  Os  Os6  1  0.173326  0.827226  0.752797  1
  Os  Os7  1  0.344844  0.171685  0.247477  1
  Os  Os8  1  0.827065  0.654129  0.246820  1
  Os  Os9  1  0.653900  0.827226  0.752797  1
  Os  Os10  1  0.826841  0.171685  0.247477  1
  Os  Os11  1  0.999945  0.999890  0.500008  1
