# generated using pymatgen
data_Ga2SiPb2O7
_symmetry_space_group_name_H-M   'P 1'
_cell_length_a   5.48778101
_cell_length_b   8.13789888
_cell_length_c   8.10369800
_cell_angle_alpha   90.00000000
_cell_angle_beta   90.00000000
_cell_angle_gamma   89.75614286
_symmetry_Int_Tables_number   1
_chemical_formula_structural   Ga2SiPb2O7
_chemical_formula_sum   'Ga4 Si2 Pb4 O14'
_cell_volume   361.89982764
_cell_formula_units_Z   2
loop_
 _symmetry_equiv_pos_site_id
 _symmetry_equiv_pos_as_xyz
  1  'x, y, z'
loop_
 _atom_site_type_symbol
 _atom_site_label
 _atom_site_symmetry_multiplicity
 _atom_site_fract_x
 _atom_site_fract_y
 _atom_site_fract_z
 _atom_site_occupancy
  Ga  Ga0  1  0.000989  0.497992  0.501096  1
  Ga  Ga1  1  0.999011  0.002008  0.001096  1
  Ga  Ga2  1  0.974141  0.638957  0.141128  1
  Ga  Ga3  1  0.025859  0.861043  0.641128  1
  Si  Si4  1  0.962471  0.353930  0.858905  1
  Si  Si5  1  0.037529  0.146070  0.358905  1
  Pb  Pb6  1  0.518756  0.821046  0.332626  1
  Pb  Pb7  1  0.481244  0.678954  0.832626  1
  Pb  Pb8  1  0.518328  0.150660  0.659539  1
  Pb  Pb9  1  0.481672  0.349340  0.159539  1
  O  O10  1  0.154245  0.013501  0.492414  1
  O  O11  1  0.845755  0.486499  0.992414  1
  O  O12  1  0.174216  0.324781  0.402717  1
  O  O13  1  0.825784  0.175219  0.902717  1
  O  O14  1  0.192182  0.667811  0.581629  1
  O  O15  1  0.807818  0.832189  0.081629  1
  O  O16  1  0.801115  0.583450  0.335550  1
  O  O17  1  0.198885  0.916550  0.835550  1
  O  O18  1  0.836999  0.403561  0.678384  1
  O  O19  1  0.163001  0.096439  0.178384  1
  O  O20  1  0.306064  0.634772  0.151775  1
  O  O21  1  0.693936  0.865228  0.651775  1
  O  O22  1  0.257274  0.347067  0.864237  1
  O  O23  1  0.742726  0.152933  0.364237  1
