# generated using pymatgen
data_Ac(S8Cl)3
_symmetry_space_group_name_H-M   'P 1'
_cell_length_a   15.45242088
_cell_length_b   15.45242026
_cell_length_c   15.45242112
_cell_angle_alpha   119.12390954
_cell_angle_beta   119.12391077
_cell_angle_gamma   119.12390430
_symmetry_Int_Tables_number   1
_chemical_formula_structural   Ac(S8Cl)3
_chemical_formula_sum   'Ac1 S24 Cl3'
_cell_volume   894.65305328
_cell_formula_units_Z   1
loop_
 _symmetry_equiv_pos_site_id
 _symmetry_equiv_pos_as_xyz
  1  'x, y, z'
loop_
 _atom_site_type_symbol
 _atom_site_label
 _atom_site_symmetry_multiplicity
 _atom_site_fract_x
 _atom_site_fract_y
 _atom_site_fract_z
 _atom_site_occupancy
  Ac  Ac0  1  0.434237  0.434237  0.434237  1
  S  S1  1  0.014495  0.600892  0.600892  1
  S  S2  1  0.600892  0.600892  0.014495  1
  S  S3  1  0.600892  0.014495  0.600892  1
  S  S4  1  0.259770  0.859701  0.733899  1
  S  S5  1  0.859701  0.733899  0.259770  1
  S  S6  1  0.733899  0.259770  0.859701  1
  S  S7  1  0.859701  0.259770  0.733899  1
  S  S8  1  0.259770  0.733899  0.859701  1
  S  S9  1  0.733899  0.859701  0.259770  1
  S  S10  1  0.091698  0.610133  0.433090  1
  S  S11  1  0.610133  0.433090  0.091698  1
  S  S12  1  0.433090  0.091698  0.610133  1
  S  S13  1  0.610133  0.091698  0.433090  1
  S  S14  1  0.091698  0.433090  0.610133  1
  S  S15  1  0.433090  0.610133  0.091698  1
  S  S16  1  0.376150  0.757706  0.630481  1
  S  S17  1  0.757706  0.630481  0.376150  1
  S  S18  1  0.630481  0.376150  0.757706  1
  S  S19  1  0.757706  0.376150  0.630481  1
  S  S20  1  0.376150  0.630481  0.757706  1
  S  S21  1  0.630481  0.757706  0.376150  1
  S  S22  1  0.180429  0.454517  0.454517  1
  S  S23  1  0.454517  0.454517  0.180429  1
  S  S24  1  0.454517  0.180429  0.454517  1
  Cl  Cl25  1  0.021206  0.890330  0.890330  1
  Cl  Cl26  1  0.890330  0.890330  0.021206  1
  Cl  Cl27  1  0.890330  0.021206  0.890330  1
