# generated using pymatgen
data_Sm4B16Os3Ru
_symmetry_space_group_name_H-M   'P 1'
_cell_length_a   3.60744400
_cell_length_b   6.03194101
_cell_length_c   11.66702501
_cell_angle_alpha   90.00177006
_cell_angle_beta   90.00000000
_cell_angle_gamma   90.00000000
_symmetry_Int_Tables_number   1
_chemical_formula_structural   Sm4B16Os3Ru
_chemical_formula_sum   'Sm4 B16 Os3 Ru1'
_cell_volume   253.87317394
_cell_formula_units_Z   1
loop_
 _symmetry_equiv_pos_site_id
 _symmetry_equiv_pos_as_xyz
  1  'x, y, z'
loop_
 _atom_site_type_symbol
 _atom_site_label
 _atom_site_symmetry_multiplicity
 _atom_site_fract_x
 _atom_site_fract_y
 _atom_site_fract_z
 _atom_site_occupancy
  Sm  Sm0  1  0.500000  0.127919  0.149939  1
  Sm  Sm1  1  0.500000  0.872099  0.850119  1
  Sm  Sm2  1  0.500000  0.628038  0.349335  1
  Sm  Sm3  1  0.500000  0.371942  0.650662  1
  B  B4  1  0.000001  0.475780  0.190179  1
  B  B5  1  0.000000  0.524007  0.809800  1
  B  B6  1  0.000000  0.975649  0.309778  1
  B  B7  1  0.000000  0.024658  0.690292  1
  B  B8  1  0.000001  0.286793  0.314971  1
  B  B9  1  0.000000  0.713264  0.684927  1
  B  B10  1  0.000000  0.786719  0.184625  1
  B  B11  1  0.000000  0.213099  0.815466  1
  B  B12  1  0.000000  0.361627  0.469590  1
  B  B13  1  0.000000  0.638370  0.530569  1
  B  B14  1  0.000001  0.861780  0.030673  1
  B  B15  1  0.000000  0.138080  0.969137  1
  B  B16  1  0.000000  0.388971  0.045916  1
  B  B17  1  0.000000  0.611200  0.954125  1
  B  B18  1  0.000000  0.888873  0.453989  1
  B  B19  1  0.000000  0.111254  0.546169  1
  Os  Os20  1  0.500000  0.139464  0.407819  1
  Os  Os21  1  0.500000  0.860575  0.592165  1
  Os  Os22  1  0.500000  0.638462  0.092153  1
  Ru  Ru23  1  0.499999  0.361377  0.907602  1
