# generated using pymatgen
data_Pr11In9(PdPt)2
_symmetry_space_group_name_H-M   'P 1'
_cell_length_a   13.48078700
_cell_length_b   13.57231929
_cell_length_c   3.89656800
_cell_angle_alpha   90.00000000
_cell_angle_beta   90.00000000
_cell_angle_gamma   111.98153723
_symmetry_Int_Tables_number   1
_chemical_formula_structural   Pr11In9(PdPt)2
_chemical_formula_sum   'Pr11 In9 Pd2 Pt2'
_cell_volume   661.11034065
_cell_formula_units_Z   1
loop_
 _symmetry_equiv_pos_site_id
 _symmetry_equiv_pos_as_xyz
  1  'x, y, z'
loop_
 _atom_site_type_symbol
 _atom_site_label
 _atom_site_symmetry_multiplicity
 _atom_site_fract_x
 _atom_site_fract_y
 _atom_site_fract_z
 _atom_site_occupancy
  Pr  Pr0  1  0.500000  0.500000  0.500000  1
  Pr  Pr1  1  0.807599  0.806075  0.500000  1
  Pr  Pr2  1  0.192401  0.193925  0.500000  1
  Pr  Pr3  1  0.570657  0.917592  0.500000  1
  Pr  Pr4  1  0.429343  0.082408  0.500000  1
  Pr  Pr5  1  0.918045  0.571625  0.500000  1
  Pr  Pr6  1  0.081955  0.428375  0.500000  1
  Pr  Pr7  1  0.127388  0.868221  0.500000  1
  Pr  Pr8  1  0.872612  0.131779  0.500000  1
  Pr  Pr9  1  0.339287  0.659171  0.500000  1
  Pr  Pr10  1  0.660713  0.340829  0.500000  1
  In  In11  1  0.339010  0.867897  0.000000  1
  In  In12  1  0.660990  0.132103  0.000000  1
  In  In13  1  0.865476  0.338271  0.000000  1
  In  In14  1  0.134524  0.661729  0.000000  1
  In  In15  1  0.575467  0.719618  0.000000  1
  In  In16  1  0.424533  0.280382  0.000000  1
  In  In17  1  0.718143  0.575315  0.000000  1
  In  In18  1  0.281857  0.424685  0.000000  1
  In  In19  1  0.000000  0.000000  0.000000  1
  Pd  Pd20  1  0.747040  0.948235  0.000000  1
  Pd  Pd21  1  0.252960  0.051765  0.000000  1
  Pt  Pt22  1  0.947869  0.746016  0.000000  1
  Pt  Pt23  1  0.052131  0.253984  0.000000  1
