# generated using pymatgen
data_Li4Yb(ThSi2)3
_symmetry_space_group_name_H-M   'P 1'
_cell_length_a   9.45055032
_cell_length_b   9.45055115
_cell_length_c   6.77840000
_cell_angle_alpha   90.00000000
_cell_angle_beta   90.00000000
_cell_angle_gamma   152.82952940
_symmetry_Int_Tables_number   1
_chemical_formula_structural   Li4Yb(ThSi2)3
_chemical_formula_sum   'Li4 Yb1 Th3 Si6'
_cell_volume   276.44890923
_cell_formula_units_Z   1
loop_
 _symmetry_equiv_pos_site_id
 _symmetry_equiv_pos_as_xyz
  1  'x, y, z'
loop_
 _atom_site_type_symbol
 _atom_site_label
 _atom_site_symmetry_multiplicity
 _atom_site_fract_x
 _atom_site_fract_y
 _atom_site_fract_z
 _atom_site_occupancy
  Li  Li0  1  0.809831  0.190169  0.568509  1
  Li  Li1  1  0.188126  0.811874  0.443020  1
  Li  Li2  1  0.188126  0.811874  0.056980  1
  Li  Li3  1  0.809831  0.190169  0.931491  1
  Yb  Yb4  1  0.656944  0.343056  0.750000  1
  Th  Th5  1  0.551734  0.448266  0.250000  1
  Th  Th6  1  0.450074  0.549926  0.750000  1
  Th  Th7  1  0.342290  0.657710  0.250000  1
  Si  Si8  1  0.939817  0.060183  0.071961  1
  Si  Si9  1  0.058237  0.941763  0.928320  1
  Si  Si10  1  0.058237  0.941763  0.571680  1
  Si  Si11  1  0.939817  0.060183  0.428039  1
  Si  Si12  1  0.722602  0.277398  0.250000  1
  Si  Si13  1  0.284335  0.715665  0.750000  1
