# generated using pymatgen
data_Ho3ErTm12(CdNi)4
_symmetry_space_group_name_H-M   'P 1'
_cell_length_a   9.46918213
_cell_length_b   9.46918292
_cell_length_c   9.46918202
_cell_angle_alpha   60.00023176
_cell_angle_beta   60.00022075
_cell_angle_gamma   60.00023316
_symmetry_Int_Tables_number   1
_chemical_formula_structural   Ho3ErTm12(CdNi)4
_chemical_formula_sum   'Ho3 Er1 Tm12 Cd4 Ni4'
_cell_volume   600.37789444
_cell_formula_units_Z   1
loop_
 _symmetry_equiv_pos_site_id
 _symmetry_equiv_pos_as_xyz
  1  'x, y, z'
loop_
 _atom_site_type_symbol
 _atom_site_label
 _atom_site_symmetry_multiplicity
 _atom_site_fract_x
 _atom_site_fract_y
 _atom_site_fract_z
 _atom_site_occupancy
  Ho  Ho0  1  0.348370  0.348370  0.955034  1
  Ho  Ho1  1  0.348370  0.955034  0.348370  1
  Ho  Ho2  1  0.955034  0.348370  0.348370  1
  Er  Er3  1  0.348339  0.348339  0.348339  1
  Tm  Tm4  1  0.812398  0.187559  0.187559  1
  Tm  Tm5  1  0.187453  0.812508  0.812508  1
  Tm  Tm6  1  0.187559  0.812398  0.187559  1
  Tm  Tm7  1  0.812508  0.187453  0.812508  1
  Tm  Tm8  1  0.187559  0.187559  0.812398  1
  Tm  Tm9  1  0.812508  0.812508  0.187453  1
  Tm  Tm10  1  0.935670  0.564305  0.564305  1
  Tm  Tm11  1  0.564288  0.935668  0.935668  1
  Tm  Tm12  1  0.564305  0.935670  0.564305  1
  Tm  Tm13  1  0.935668  0.564288  0.935668  1
  Tm  Tm14  1  0.564305  0.564305  0.935670  1
  Tm  Tm15  1  0.935668  0.935668  0.564288  1
  Cd  Cd16  1  0.581415  0.581415  0.581415  1
  Cd  Cd17  1  0.581295  0.581295  0.255679  1
  Cd  Cd18  1  0.581295  0.255679  0.581295  1
  Cd  Cd19  1  0.255679  0.581295  0.581295  1
  Ni  Ni20  1  0.141707  0.141707  0.141707  1
  Ni  Ni21  1  0.141961  0.141961  0.574687  1
  Ni  Ni22  1  0.141961  0.574687  0.141961  1
  Ni  Ni23  1  0.574687  0.141961  0.141961  1
