# generated using pymatgen
data_In2SbPdPt7
_symmetry_space_group_name_H-M   'P 1'
_cell_length_a   4.05043900
_cell_length_b   4.05043900
_cell_length_c   11.73593800
_cell_angle_alpha   90.00000000
_cell_angle_beta   90.00000000
_cell_angle_gamma   90.00000000
_symmetry_Int_Tables_number   1
_chemical_formula_structural   In2SbPdPt7
_chemical_formula_sum   'In2 Sb1 Pd1 Pt7'
_cell_volume   192.54045713
_cell_formula_units_Z   1
loop_
 _symmetry_equiv_pos_site_id
 _symmetry_equiv_pos_as_xyz
  1  'x, y, z'
loop_
 _atom_site_type_symbol
 _atom_site_label
 _atom_site_symmetry_multiplicity
 _atom_site_fract_x
 _atom_site_fract_y
 _atom_site_fract_z
 _atom_site_occupancy
  In  In0  1  0.500000  0.500000  0.827167  1
  In  In1  1  0.500000  0.500000  0.173290  1
  Sb  Sb2  1  0.000000  0.000000  0.500154  1
  Pd  Pd3  1  0.000000  0.000000  0.827294  1
  Pt  Pt4  1  0.500000  0.000000  0.999990  1
  Pt  Pt5  1  0.000000  0.500000  0.999990  1
  Pt  Pt6  1  0.500000  0.000000  0.653036  1
  Pt  Pt7  1  0.000000  0.500000  0.653036  1
  Pt  Pt8  1  0.500000  0.000000  0.347025  1
  Pt  Pt9  1  0.000000  0.500000  0.347025  1
  Pt  Pt10  1  0.000000  0.000000  0.171991  1
