# generated using pymatgen
data_Tm3LuSi4(RuRh)2
_symmetry_space_group_name_H-M   'P 1'
_cell_length_a   4.24046500
_cell_length_b   6.84043488
_cell_length_c   7.24372609
_cell_angle_alpha   90.25663090
_cell_angle_beta   90.00000000
_cell_angle_gamma   90.00000000
_symmetry_Int_Tables_number   1
_chemical_formula_structural   Tm3LuSi4(RuRh)2
_chemical_formula_sum   'Tm3 Lu1 Si4 Ru2 Rh2'
_cell_volume   210.11393649
_cell_formula_units_Z   1
loop_
 _symmetry_equiv_pos_site_id
 _symmetry_equiv_pos_as_xyz
  1  'x, y, z'
loop_
 _atom_site_type_symbol
 _atom_site_label
 _atom_site_symmetry_multiplicity
 _atom_site_fract_x
 _atom_site_fract_y
 _atom_site_fract_z
 _atom_site_occupancy
  Tm  Tm0  1  0.250000  0.999966  0.811450  1
  Tm  Tm1  1  0.750000  0.000038  0.188651  1
  Tm  Tm2  1  0.250000  0.493024  0.688680  1
  Lu  Lu3  1  0.750000  0.507036  0.310593  1
  Si  Si4  1  0.250000  0.297235  0.115810  1
  Si  Si5  1  0.750000  0.703207  0.884742  1
  Si  Si6  1  0.250000  0.797909  0.398279  1
  Si  Si7  1  0.750000  0.201914  0.601274  1
  Ru  Ru8  1  0.750000  0.842957  0.564746  1
  Ru  Ru9  1  0.250000  0.156657  0.434595  1
  Rh  Rh10  1  0.750000  0.344063  0.937131  1
  Rh  Rh11  1  0.250000  0.655992  0.064048  1
