# generated using pymatgen
data_Tb3Ho9Os3Pd
_symmetry_space_group_name_H-M   'P 1'
_cell_length_a   6.40968602
_cell_length_b   7.34963497
_cell_length_c   9.04909000
_cell_angle_alpha   90.00000000
_cell_angle_beta   90.00000000
_cell_angle_gamma   90.27030225
_symmetry_Int_Tables_number   1
_chemical_formula_structural   Tb3Ho9Os3Pd
_chemical_formula_sum   'Tb3 Ho9 Os3 Pd1'
_cell_volume   426.28750265
_cell_formula_units_Z   1
loop_
 _symmetry_equiv_pos_site_id
 _symmetry_equiv_pos_as_xyz
  1  'x, y, z'
loop_
 _atom_site_type_symbol
 _atom_site_label
 _atom_site_symmetry_multiplicity
 _atom_site_fract_x
 _atom_site_fract_y
 _atom_site_fract_z
 _atom_site_occupancy
  Tb  Tb0  1  0.870589  0.531741  0.250000  1
  Tb  Tb1  1  0.622599  0.040413  0.250000  1
  Tb  Tb2  1  0.124852  0.462811  0.750000  1
  Ho  Ho3  1  0.339021  0.670191  0.058478  1
  Ho  Ho4  1  0.170878  0.183695  0.441312  1
  Ho  Ho5  1  0.670371  0.322839  0.563494  1
  Ho  Ho6  1  0.823509  0.823741  0.931553  1
  Ho  Ho7  1  0.670371  0.322839  0.936506  1
  Ho  Ho8  1  0.823509  0.823741  0.568447  1
  Ho  Ho9  1  0.339021  0.670191  0.441522  1
  Ho  Ho10  1  0.170878  0.183695  0.058688  1
  Ho  Ho11  1  0.368868  0.962147  0.750000  1
  Os  Os12  1  0.459340  0.384255  0.250000  1
  Os  Os13  1  0.962420  0.114266  0.750000  1
  Os  Os14  1  0.536146  0.615654  0.750000  1
  Pd  Pd15  1  0.047627  0.887782  0.250000  1
