# generated using pymatgen
data_Hf4In2Pd3Rh
_symmetry_space_group_name_H-M   'P 1'
_cell_length_a   7.60587987
_cell_length_b   7.60587987
_cell_length_c   3.32535600
_cell_angle_alpha   90.00000000
_cell_angle_beta   90.00000000
_cell_angle_gamma   89.91974245
_symmetry_Int_Tables_number   1
_chemical_formula_structural   Hf4In2Pd3Rh
_chemical_formula_sum   'Hf4 In2 Pd3 Rh1'
_cell_volume   192.36968902
_cell_formula_units_Z   1
loop_
 _symmetry_equiv_pos_site_id
 _symmetry_equiv_pos_as_xyz
  1  'x, y, z'
loop_
 _atom_site_type_symbol
 _atom_site_label
 _atom_site_symmetry_multiplicity
 _atom_site_fract_x
 _atom_site_fract_y
 _atom_site_fract_z
 _atom_site_occupancy
  Hf  Hf0  1  0.174465  0.325535  0.000000  1
  Hf  Hf1  1  0.834838  0.665162  0.000000  1
  Hf  Hf2  1  0.656804  0.170905  0.000000  1
  Hf  Hf3  1  0.329095  0.843196  0.000000  1
  In  In4  1  0.997834  0.000515  0.500000  1
  In  In5  1  0.499485  0.502166  0.500000  1
  Pd  Pd6  1  0.632393  0.867607  0.500000  1
  Pd  Pd7  1  0.872698  0.369760  0.500000  1
  Pd  Pd8  1  0.130240  0.627302  0.500000  1
  Rh  Rh9  1  0.372147  0.127853  0.500000  1
