# generated using pymatgen
data_Ni5Te8
_symmetry_space_group_name_H-M   'P 1'
_cell_length_a   7.85023700
_cell_length_b   7.85023754
_cell_length_c   5.32089000
_cell_angle_alpha   90.00000000
_cell_angle_beta   90.00000000
_cell_angle_gamma   120.00000195
_symmetry_Int_Tables_number   1
_chemical_formula_structural   Ni5Te8
_chemical_formula_sum   'Ni5 Te8'
_cell_volume   283.97523683
_cell_formula_units_Z   1
loop_
 _symmetry_equiv_pos_site_id
 _symmetry_equiv_pos_as_xyz
  1  'x, y, z'
loop_
 _atom_site_type_symbol
 _atom_site_label
 _atom_site_symmetry_multiplicity
 _atom_site_fract_x
 _atom_site_fract_y
 _atom_site_fract_z
 _atom_site_occupancy
  Ni  Ni0  1  0.500000  0.500000  0.000000  1
  Ni  Ni1  1  0.500000  0.000000  0.000000  1
  Ni  Ni2  1  0.000000  0.500000  0.000000  1
  Ni  Ni3  1  0.000000  0.000000  0.500000  1
  Ni  Ni4  1  0.000000  0.000000  0.000000  1
  Te  Te5  1  0.666667  0.333333  0.243370  1
  Te  Te6  1  0.333333  0.666667  0.756630  1
  Te  Te7  1  0.168037  0.336073  0.245140  1
  Te  Te8  1  0.831963  0.663927  0.754860  1
  Te  Te9  1  0.663927  0.831963  0.245140  1
  Te  Te10  1  0.831963  0.168037  0.754860  1
  Te  Te11  1  0.336073  0.168037  0.754860  1
  Te  Te12  1  0.168037  0.831963  0.245140  1
