# generated using pymatgen
data_Y10ZnCoAg2
_symmetry_space_group_name_H-M   'P 1'
_cell_length_a   9.52121709
_cell_length_b   9.52121804
_cell_length_c   9.56916400
_cell_angle_alpha   90.00000000
_cell_angle_beta   90.00000000
_cell_angle_gamma   119.98466234
_symmetry_Int_Tables_number   1
_chemical_formula_structural   Y10ZnCoAg2
_chemical_formula_sum   'Y20 Zn2 Co2 Ag4'
_cell_volume   751.37494265
_cell_formula_units_Z   2
loop_
 _symmetry_equiv_pos_site_id
 _symmetry_equiv_pos_as_xyz
  1  'x, y, z'
loop_
 _atom_site_type_symbol
 _atom_site_label
 _atom_site_symmetry_multiplicity
 _atom_site_fract_x
 _atom_site_fract_y
 _atom_site_fract_z
 _atom_site_occupancy
  Y  Y0  1  0.999840  0.000160  0.502000  1
  Y  Y1  1  0.999840  0.000160  0.998000  1
  Y  Y2  1  0.542878  0.457122  0.250000  1
  Y  Y3  1  0.543263  0.086637  0.250000  1
  Y  Y4  1  0.913363  0.456737  0.250000  1
  Y  Y5  1  0.456727  0.543273  0.750000  1
  Y  Y6  1  0.457495  0.913929  0.750000  1
  Y  Y7  1  0.086071  0.542505  0.750000  1
  Y  Y8  1  0.210789  0.789211  0.437310  1
  Y  Y9  1  0.210472  0.421141  0.438750  1
  Y  Y10  1  0.578859  0.789528  0.438750  1
  Y  Y11  1  0.790387  0.209613  0.564283  1
  Y  Y12  1  0.789424  0.579647  0.563875  1
  Y  Y13  1  0.420353  0.210576  0.563875  1
  Y  Y14  1  0.790387  0.209613  0.935717  1
  Y  Y15  1  0.789424  0.579647  0.936125  1
  Y  Y16  1  0.420353  0.210576  0.936125  1
  Y  Y17  1  0.210789  0.789211  0.062690  1
  Y  Y18  1  0.210472  0.421141  0.061250  1
  Y  Y19  1  0.578859  0.789528  0.061250  1
  Zn  Zn20  1  0.116317  0.232225  0.750000  1
  Zn  Zn21  1  0.767775  0.883683  0.750000  1
  Co  Co22  1  0.333443  0.666557  0.250000  1
  Co  Co23  1  0.667072  0.332928  0.750000  1
  Ag  Ag24  1  0.883906  0.116094  0.250000  1
  Ag  Ag25  1  0.884021  0.767947  0.250000  1
  Ag  Ag26  1  0.232053  0.115979  0.250000  1
  Ag  Ag27  1  0.115369  0.884631  0.750000  1
