# generated using pymatgen
data_LiZr7(Co4As3)4
_symmetry_space_group_name_H-M   'P 1'
_cell_length_a   12.49173882
_cell_length_b   12.49173877
_cell_length_c   3.76576900
_cell_angle_alpha   90.00000000
_cell_angle_beta   90.00000000
_cell_angle_gamma   120.15080363
_symmetry_Int_Tables_number   1
_chemical_formula_structural   LiZr7(Co4As3)4
_chemical_formula_sum   'Li1 Zr7 Co16 As12'
_cell_volume   508.12216062
_cell_formula_units_Z   1
loop_
 _symmetry_equiv_pos_site_id
 _symmetry_equiv_pos_as_xyz
  1  'x, y, z'
loop_
 _atom_site_type_symbol
 _atom_site_label
 _atom_site_symmetry_multiplicity
 _atom_site_fract_x
 _atom_site_fract_y
 _atom_site_fract_z
 _atom_site_occupancy
  Li  Li0  1  0.440582  0.440582  0.000000  1
  Zr  Zr1  1  0.813686  0.813686  0.500000  1
  Zr  Zr2  1  0.998281  0.173418  0.500000  1
  Zr  Zr3  1  0.555212  0.999827  0.000000  1
  Zr  Zr4  1  0.332343  0.663957  0.000000  1
  Zr  Zr5  1  0.663957  0.332343  0.000000  1
  Zr  Zr6  1  0.999827  0.555212  0.000000  1
  Zr  Zr7  1  0.173418  0.998281  0.500000  1
  Co  Co8  1  0.627608  0.821110  0.000000  1
  Co  Co9  1  0.378125  0.202854  0.000000  1
  Co  Co10  1  0.001131  0.719242  0.500000  1
  Co  Co11  1  0.283365  0.283365  0.500000  1
  Co  Co12  1  0.877874  0.354551  0.500000  1
  Co  Co13  1  0.719242  0.001131  0.500000  1
  Co  Co14  1  0.821110  0.627608  0.000000  1
  Co  Co15  1  0.176932  0.805044  0.000000  1
  Co  Co16  1  0.354551  0.877874  0.500000  1
  Co  Co17  1  0.127530  0.477089  0.500000  1
  Co  Co18  1  0.648243  0.522719  0.500000  1
  Co  Co19  1  0.001856  0.001856  0.000000  1
  Co  Co20  1  0.522719  0.648243  0.500000  1
  Co  Co21  1  0.477089  0.127530  0.500000  1
  Co  Co22  1  0.202854  0.378125  0.000000  1
  Co  Co23  1  0.805044  0.176932  0.000000  1
  As  As24  1  0.004987  0.345832  0.000000  1
  As  As25  1  0.825535  0.514315  0.500000  1
  As  As26  1  0.688470  0.175824  0.500000  1
  As  As27  1  0.178908  0.178908  0.000000  1
  As  As28  1  0.636652  0.636652  0.000000  1
  As  As29  1  0.823619  0.997031  0.000000  1
  As  As30  1  0.514315  0.825535  0.500000  1
  As  As31  1  0.175824  0.688470  0.500000  1
  As  As32  1  0.345832  0.004987  0.000000  1
  As  As33  1  0.485249  0.321000  0.500000  1
  As  As34  1  0.997031  0.823619  0.000000  1
  As  As35  1  0.321000  0.485249  0.500000  1
