# generated using pymatgen
data_Y2Lu2ScSi4
_symmetry_space_group_name_H-M   'P 1'
_cell_length_a   7.19409800
_cell_length_b   7.53850200
_cell_length_c   14.27307400
_cell_angle_alpha   90.00000000
_cell_angle_beta   90.00000000
_cell_angle_gamma   90.00000000
_symmetry_Int_Tables_number   1
_chemical_formula_structural   Y2Lu2ScSi4
_chemical_formula_sum   'Y8 Lu8 Sc4 Si16'
_cell_volume   774.06765663
_cell_formula_units_Z   4
loop_
 _symmetry_equiv_pos_site_id
 _symmetry_equiv_pos_as_xyz
  1  'x, y, z'
loop_
 _atom_site_type_symbol
 _atom_site_label
 _atom_site_symmetry_multiplicity
 _atom_site_fract_x
 _atom_site_fract_y
 _atom_site_fract_z
 _atom_site_occupancy
  Y  Y0  1  0.014081  0.178959  0.098015  1
  Y  Y1  1  0.985919  0.821041  0.901985  1
  Y  Y2  1  0.485919  0.678959  0.901985  1
  Y  Y3  1  0.985919  0.821041  0.598015  1
  Y  Y4  1  0.514081  0.321041  0.098015  1
  Y  Y5  1  0.014081  0.178959  0.401985  1
  Y  Y6  1  0.514081  0.321041  0.401985  1
  Y  Y7  1  0.485919  0.678959  0.598015  1
  Lu  Lu8  1  0.328169  0.177419  0.625187  1
  Lu  Lu9  1  0.671831  0.822581  0.374813  1
  Lu  Lu10  1  0.171831  0.677419  0.374813  1
  Lu  Lu11  1  0.671831  0.822581  0.125187  1
  Lu  Lu12  1  0.828169  0.322581  0.625187  1
  Lu  Lu13  1  0.328169  0.177419  0.874813  1
  Lu  Lu14  1  0.828169  0.322581  0.874813  1
  Lu  Lu15  1  0.171831  0.677419  0.125187  1
  Sc  Sc16  1  0.160578  0.509090  0.750000  1
  Sc  Sc17  1  0.839422  0.490910  0.250000  1
  Sc  Sc18  1  0.339422  0.009090  0.250000  1
  Sc  Sc19  1  0.660578  0.990910  0.750000  1
  Si  Si20  1  0.028170  0.104729  0.750000  1
  Si  Si21  1  0.971830  0.895271  0.250000  1
  Si  Si22  1  0.471830  0.604729  0.250000  1
  Si  Si23  1  0.528170  0.395271  0.750000  1
  Si  Si24  1  0.284692  0.867399  0.750000  1
  Si  Si25  1  0.715308  0.132601  0.250000  1
  Si  Si26  1  0.215308  0.367399  0.250000  1
  Si  Si27  1  0.784692  0.632601  0.750000  1
  Si  Si28  1  0.156274  0.468006  0.539590  1
  Si  Si29  1  0.843726  0.531994  0.460410  1
  Si  Si30  1  0.343726  0.968006  0.460410  1
  Si  Si31  1  0.843726  0.531994  0.039590  1
  Si  Si32  1  0.656274  0.031994  0.539590  1
  Si  Si33  1  0.156274  0.468006  0.960410  1
  Si  Si34  1  0.656274  0.031994  0.960410  1
  Si  Si35  1  0.343726  0.968006  0.039590  1
