# generated using pymatgen
data_Er8Tm9Lu3Pb16
_symmetry_space_group_name_H-M   'P 1'
_cell_length_a   8.13306902
_cell_length_b   8.19155602
_cell_length_c   15.46814700
_cell_angle_alpha   90.00000000
_cell_angle_beta   90.00000000
_cell_angle_gamma   90.00860598
_symmetry_Int_Tables_number   1
_chemical_formula_structural   Er8Tm9Lu3Pb16
_chemical_formula_sum   'Er8 Tm9 Lu3 Pb16'
_cell_volume   1030.52646557
_cell_formula_units_Z   1
loop_
 _symmetry_equiv_pos_site_id
 _symmetry_equiv_pos_as_xyz
  1  'x, y, z'
loop_
 _atom_site_type_symbol
 _atom_site_label
 _atom_site_symmetry_multiplicity
 _atom_site_fract_x
 _atom_site_fract_y
 _atom_site_fract_z
 _atom_site_occupancy
  Er  Er0  1  0.539098  0.323568  0.900475  1
  Er  Er1  1  0.039030  0.176354  0.599535  1
  Er  Er2  1  0.460926  0.676409  0.400465  1
  Er  Er3  1  0.960945  0.823607  0.099523  1
  Er  Er4  1  0.460926  0.676409  0.099535  1
  Er  Er5  1  0.960945  0.823607  0.400477  1
  Er  Er6  1  0.539098  0.323568  0.599525  1
  Er  Er7  1  0.039030  0.176354  0.900465  1
  Tm  Tm8  1  0.377337  0.842937  0.878249  1
  Tm  Tm9  1  0.877182  0.657168  0.621745  1
  Tm  Tm10  1  0.622718  0.157113  0.378256  1
  Tm  Tm11  1  0.122718  0.342896  0.121757  1
  Tm  Tm12  1  0.622718  0.157113  0.121744  1
  Tm  Tm13  1  0.122718  0.342896  0.378243  1
  Tm  Tm14  1  0.377337  0.842937  0.621751  1
  Tm  Tm15  1  0.877182  0.657168  0.878255  1
  Tm  Tm16  1  0.208957  0.505165  0.750000  1
  Lu  Lu17  1  0.709004  0.994764  0.750000  1
  Lu  Lu18  1  0.790992  0.494771  0.250000  1
  Lu  Lu19  1  0.290987  0.005216  0.250000  1
  Pb  Pb20  1  0.281241  0.033817  0.042840  1
  Pb  Pb21  1  0.781255  0.466187  0.457165  1
  Pb  Pb22  1  0.718756  0.966160  0.542827  1
  Pb  Pb23  1  0.218770  0.533825  0.957243  1
  Pb  Pb24  1  0.718756  0.966160  0.957173  1
  Pb  Pb25  1  0.218770  0.533825  0.542757  1
  Pb  Pb26  1  0.281241  0.033817  0.457160  1
  Pb  Pb27  1  0.781255  0.466187  0.042835  1
  Pb  Pb28  1  0.571282  0.627793  0.750000  1
  Pb  Pb29  1  0.071085  0.872413  0.750000  1
  Pb  Pb30  1  0.428896  0.372309  0.250000  1
  Pb  Pb31  1  0.928895  0.127682  0.250000  1
  Pb  Pb32  1  0.349960  0.155950  0.750000  1
  Pb  Pb33  1  0.849915  0.343863  0.750000  1
  Pb  Pb34  1  0.650029  0.843830  0.250000  1
  Pb  Pb35  1  0.150048  0.656164  0.250000  1
