# generated using pymatgen
data_Al(Zn3Ag2)5
_symmetry_space_group_name_H-M   'P 1'
_cell_length_a   8.18580116
_cell_length_b   8.18580244
_cell_length_c   8.18263900
_cell_angle_alpha   109.49824046
_cell_angle_beta   109.49826899
_cell_angle_gamma   109.45269767
_symmetry_Int_Tables_number   1
_chemical_formula_structural   Al(Zn3Ag2)5
_chemical_formula_sum   'Al1 Zn15 Ag10'
_cell_volume   421.89387607
_cell_formula_units_Z   1
loop_
 _symmetry_equiv_pos_site_id
 _symmetry_equiv_pos_as_xyz
  1  'x, y, z'
loop_
 _atom_site_type_symbol
 _atom_site_label
 _atom_site_symmetry_multiplicity
 _atom_site_fract_x
 _atom_site_fract_y
 _atom_site_fract_z
 _atom_site_occupancy
  Al  Al0  1  0.655798  0.655798  0.368969  1
  Zn  Zn1  1  0.002170  0.714363  0.343921  1
  Zn  Zn2  1  0.714363  0.002170  0.343921  1
  Zn  Zn3  1  0.283835  0.629906  0.285692  1
  Zn  Zn4  1  0.629906  0.283835  0.285692  1
  Zn  Zn5  1  0.369667  0.656109  0.656545  1
  Zn  Zn6  1  0.000096  0.344240  0.713944  1
  Zn  Zn7  1  0.344240  0.000096  0.713944  1
  Zn  Zn8  1  0.656109  0.369666  0.656545  1
  Zn  Zn9  1  0.713999  0.343852  0.000255  1
  Zn  Zn10  1  0.999891  0.999891  0.219245  1
  Zn  Zn11  1  0.219651  0.999725  0.999926  1
  Zn  Zn12  1  0.999725  0.219651  0.999926  1
  Zn  Zn13  1  0.780797  0.780797  0.782596  1
  Zn  Zn14  1  0.286409  0.286409  0.630220  1
  Zn  Zn15  1  0.343852  0.713999  0.000255  1
  Ag  Ag16  1  0.646050  0.998716  0.645149  1
  Ag  Ag17  1  0.353727  0.353727  0.000228  1
  Ag  Ag18  1  0.646279  0.646279  0.001325  1
  Ag  Ag19  1  0.000616  0.353843  0.353857  1
  Ag  Ag20  1  0.998715  0.646050  0.645149  1
  Ag  Ag21  1  0.353843  0.000616  0.353857  1
  Ag  Ag22  1  0.360295  0.360295  0.359376  1
  Ag  Ag23  1  0.999790  0.640686  0.999551  1
  Ag  Ag24  1  0.640686  0.999790  0.999551  1
  Ag  Ag25  1  0.999492  0.999492  0.640361  1
