# generated using pymatgen
data_Tb5SmAl24Os5Pt3
_symmetry_space_group_name_H-M   'P 1'
_cell_length_a   8.83674789
_cell_length_b   8.85153895
_cell_length_c   9.58019926
_cell_angle_alpha   90.13409234
_cell_angle_beta   89.76594026
_cell_angle_gamma   119.54771495
_symmetry_Int_Tables_number   1
_chemical_formula_structural   Tb5SmAl24Os5Pt3
_chemical_formula_sum   'Tb5 Sm1 Al24 Os5 Pt3'
_cell_volume   651.88965569
_cell_formula_units_Z   1
loop_
 _symmetry_equiv_pos_site_id
 _symmetry_equiv_pos_as_xyz
  1  'x, y, z'
loop_
 _atom_site_type_symbol
 _atom_site_label
 _atom_site_symmetry_multiplicity
 _atom_site_fract_x
 _atom_site_fract_y
 _atom_site_fract_z
 _atom_site_occupancy
  Tb  Tb0  1  0.812621  0.617559  0.749251  1
  Tb  Tb1  1  0.613852  0.813645  0.252296  1
  Tb  Tb2  1  0.385699  0.186234  0.747763  1
  Tb  Tb3  1  0.194202  0.809603  0.251156  1
  Tb  Tb4  1  0.806017  0.190775  0.748859  1
  Sm  Sm5  1  0.187119  0.380187  0.250265  1
  Al  Al6  1  0.335443  0.671684  0.027548  1
  Al  Al7  1  0.664913  0.329036  0.970818  1
  Al  Al8  1  0.669162  0.331603  0.527945  1
  Al  Al9  1  0.330648  0.668935  0.473558  1
  Al  Al10  1  0.158107  0.325770  0.575259  1
  Al  Al11  1  0.841755  0.674396  0.426346  1
  Al  Al12  1  0.673335  0.840775  0.575149  1
  Al  Al13  1  0.836885  0.676036  0.076829  1
  Al  Al14  1  0.327138  0.158908  0.425844  1
  Al  Al15  1  0.163296  0.323981  0.921548  1
  Al  Al16  1  0.163830  0.835257  0.575837  1
  Al  Al17  1  0.326143  0.158388  0.074777  1
  Al  Al18  1  0.835202  0.164682  0.425262  1
  Al  Al19  1  0.674504  0.841276  0.924170  1
  Al  Al20  1  0.830837  0.158866  0.076620  1
  Al  Al21  1  0.168361  0.840915  0.922431  1
  Al  Al22  1  0.560600  0.124826  0.249878  1
  Al  Al23  1  0.439580  0.875434  0.750181  1
  Al  Al24  1  0.873478  0.438098  0.253026  1
  Al  Al25  1  0.126249  0.562596  0.747389  1
  Al  Al26  1  0.563678  0.436624  0.249789  1
  Al  Al27  1  0.437716  0.563890  0.750178  1
  Al  Al28  1  0.996597  0.000004  0.250220  1
  Al  Al29  1  0.001757  0.997305  0.749792  1
  Os  Os30  1  0.500215  0.000311  0.999744  1
  Os  Os31  1  0.500066  0.000217  0.500279  1
  Os  Os32  1  0.999618  0.500179  0.500626  1
  Os  Os33  1  0.000114  0.000209  0.999924  1
  Os  Os34  1  0.000074  0.000277  0.500048  1
  Pt  Pt35  1  0.999667  0.500463  0.999433  1
  Pt  Pt36  1  0.500888  0.500568  0.999482  1
  Pt  Pt37  1  0.500636  0.500489  0.500479  1
