# generated using pymatgen
data_BrF18
_symmetry_space_group_name_H-M   'P 1'
_cell_length_a   7.52868515
_cell_length_b   10.29734377
_cell_length_c   10.14122104
_cell_angle_alpha   94.29390198
_cell_angle_beta   96.13707952
_cell_angle_gamma   68.66767277
_symmetry_Int_Tables_number   1
_chemical_formula_structural   BrF18
_chemical_formula_sum   'Br2 F36'
_cell_volume   727.59022350
_cell_formula_units_Z   2
loop_
 _symmetry_equiv_pos_site_id
 _symmetry_equiv_pos_as_xyz
  1  'x, y, z'
loop_
 _atom_site_type_symbol
 _atom_site_label
 _atom_site_symmetry_multiplicity
 _atom_site_fract_x
 _atom_site_fract_y
 _atom_site_fract_z
 _atom_site_occupancy
  Br  Br0  1  0.753579  0.804315  0.809453  1
  Br  Br1  1  0.246421  0.195685  0.190547  1
  F  F2  1  0.327343  0.411945  0.901521  1
  F  F3  1  0.672657  0.588055  0.098479  1
  F  F4  1  0.316238  0.258368  0.563044  1
  F  F5  1  0.683762  0.741632  0.436956  1
  F  F6  1  0.916699  0.215310  0.821466  1
  F  F7  1  0.083301  0.784690  0.178534  1
  F  F8  1  0.611389  0.823475  0.941120  1
  F  F9  1  0.388611  0.176525  0.058880  1
  F  F10  1  0.928004  0.659417  0.900247  1
  F  F11  1  0.071996  0.340583  0.099753  1
  F  F12  1  0.449285  0.425197  0.809168  1
  F  F13  1  0.550715  0.574803  0.190832  1
  F  F14  1  0.642267  0.684148  0.730522  1
  F  F15  1  0.357733  0.315852  0.269478  1
  F  F16  1  0.765059  0.008664  0.513624  1
  F  F17  1  0.234941  0.991336  0.486376  1
  F  F18  1  0.267398  0.208286  0.676091  1
  F  F19  1  0.732602  0.791714  0.323909  1
  F  F20  1  0.813527  0.090831  0.621701  1
  F  F21  1  0.186473  0.909169  0.378299  1
  F  F22  1  0.843808  0.927748  0.905025  1
  F  F23  1  0.156192  0.072252  0.094975  1
  F  F24  1  0.879115  0.358165  0.798564  1
  F  F25  1  0.120885  0.641835  0.201436  1
  F  F26  1  0.283751  0.719572  0.927311  1
  F  F27  1  0.716249  0.280428  0.072689  1
  F  F28  1  0.554142  0.949154  0.737340  1
  F  F29  1  0.445858  0.050846  0.262660  1
  F  F30  1  0.085064  0.752589  0.570036  1
  F  F31  1  0.914936  0.247411  0.429964  1
  F  F32  1  0.157433  0.626465  0.640713  1
  F  F33  1  0.842567  0.373535  0.359287  1
  F  F34  1  0.243144  0.830900  0.840111  1
  F  F35  1  0.756856  0.169100  0.159889  1
  F  F36  1  0.518227  0.437149  0.533000  1
  F  F37  1  0.481773  0.562851  0.467000  1
