# generated using pymatgen
data_YScB6Os
_symmetry_space_group_name_H-M   'P 1'
_cell_length_a   3.56979500
_cell_length_b   8.98214600
_cell_length_c   11.36963500
_cell_angle_alpha   90.00000000
_cell_angle_beta   90.00000000
_cell_angle_gamma   90.00000000
_symmetry_Int_Tables_number   1
_chemical_formula_structural   YScB6Os
_chemical_formula_sum   'Y4 Sc4 B24 Os4'
_cell_volume   364.56075052
_cell_formula_units_Z   4
loop_
 _symmetry_equiv_pos_site_id
 _symmetry_equiv_pos_as_xyz
  1  'x, y, z'
loop_
 _atom_site_type_symbol
 _atom_site_label
 _atom_site_symmetry_multiplicity
 _atom_site_fract_x
 _atom_site_fract_y
 _atom_site_fract_z
 _atom_site_occupancy
  Y  Y0  1  0.000000  0.819596  0.085677  1
  Y  Y1  1  0.000000  0.180404  0.914323  1
  Y  Y2  1  0.000000  0.319596  0.414323  1
  Y  Y3  1  0.000000  0.680404  0.585677  1
  Sc  Sc4  1  0.000000  0.445455  0.125616  1
  Sc  Sc5  1  0.000000  0.554545  0.874384  1
  Sc  Sc6  1  0.000000  0.945455  0.374384  1
  Sc  Sc7  1  0.000000  0.054545  0.625616  1
  B  B8  1  0.500000  0.055127  0.067271  1
  B  B9  1  0.500000  0.944873  0.932729  1
  B  B10  1  0.500000  0.555127  0.432729  1
  B  B11  1  0.500000  0.444873  0.567271  1
  B  B12  1  0.500000  0.253466  0.081582  1
  B  B13  1  0.500000  0.746534  0.918418  1
  B  B14  1  0.500000  0.753466  0.418418  1
  B  B15  1  0.500000  0.246534  0.581582  1
  B  B16  1  0.500000  0.293914  0.234583  1
  B  B17  1  0.500000  0.706086  0.765417  1
  B  B18  1  0.500000  0.793914  0.265417  1
  B  B19  1  0.500000  0.206086  0.734583  1
  B  B20  1  0.500000  0.129089  0.317476  1
  B  B21  1  0.500000  0.870911  0.682524  1
  B  B22  1  0.500000  0.629089  0.182524  1
  B  B23  1  0.500000  0.370911  0.817476  1
  B  B24  1  0.500000  0.481996  0.285339  1
  B  B25  1  0.500000  0.518004  0.714661  1
  B  B26  1  0.500000  0.981996  0.214661  1
  B  B27  1  0.500000  0.018004  0.785339  1
  B  B28  1  0.500000  0.099909  0.473119  1
  B  B29  1  0.500000  0.900091  0.526881  1
  B  B30  1  0.500000  0.599909  0.026881  1
  B  B31  1  0.500000  0.400091  0.973119  1
  Os  Os32  1  0.000000  0.140089  0.181685  1
  Os  Os33  1  0.000000  0.859911  0.818315  1
  Os  Os34  1  0.000000  0.640089  0.318315  1
  Os  Os35  1  0.000000  0.359911  0.681685  1
