# generated using pymatgen
data_Tm9Mg(Sn3C)2
_symmetry_space_group_name_H-M   'P 1'
_cell_length_a   8.85367000
_cell_length_b   8.85366902
_cell_length_c   6.31361600
_cell_angle_alpha   90.00000000
_cell_angle_beta   90.00000000
_cell_angle_gamma   120.00000368
_symmetry_Int_Tables_number   1
_chemical_formula_structural   Tm9Mg(Sn3C)2
_chemical_formula_sum   'Tm9 Mg1 Sn6 C2'
_cell_volume   428.60318373
_cell_formula_units_Z   1
loop_
 _symmetry_equiv_pos_site_id
 _symmetry_equiv_pos_as_xyz
  1  'x, y, z'
loop_
 _atom_site_type_symbol
 _atom_site_label
 _atom_site_symmetry_multiplicity
 _atom_site_fract_x
 _atom_site_fract_y
 _atom_site_fract_z
 _atom_site_occupancy
  Tm  Tm0  1  0.333333  0.666667  0.500000  1
  Tm  Tm1  1  0.333333  0.666667  0.000000  1
  Tm  Tm2  1  0.666667  0.333333  0.000000  1
  Tm  Tm3  1  0.788027  0.787822  0.248844  1
  Tm  Tm4  1  0.212178  0.000206  0.248844  1
  Tm  Tm5  1  0.999794  0.211973  0.248844  1
  Tm  Tm6  1  0.212178  0.211973  0.751156  1
  Tm  Tm7  1  0.788027  0.000206  0.751156  1
  Tm  Tm8  1  0.999794  0.787822  0.751156  1
  Mg  Mg9  1  0.666667  0.333333  0.500000  1
  Sn  Sn10  1  0.409964  0.408125  0.251159  1
  Sn  Sn11  1  0.591875  0.001839  0.251159  1
  Sn  Sn12  1  0.998161  0.590036  0.251159  1
  Sn  Sn13  1  0.591875  0.590036  0.748841  1
  Sn  Sn14  1  0.409964  0.001839  0.748841  1
  Sn  Sn15  1  0.998161  0.408125  0.748841  1
  C  C16  1  0.000000  0.000000  0.500000  1
  C  C17  1  0.000000  0.000000  0.000000  1
