# generated using pymatgen
data_YbCe11(Si3Ir)4
_symmetry_space_group_name_H-M   'P 1'
_cell_length_a   4.33930800
_cell_length_b   10.48220447
_cell_length_c   12.72966900
_cell_angle_alpha   90.45151306
_cell_angle_beta   90.00000000
_cell_angle_gamma   90.00000000
_symmetry_Int_Tables_number   1
_chemical_formula_structural   YbCe11(Si3Ir)4
_chemical_formula_sum   'Yb1 Ce11 Si12 Ir4'
_cell_volume   578.99755558
_cell_formula_units_Z   1
loop_
 _symmetry_equiv_pos_site_id
 _symmetry_equiv_pos_as_xyz
  1  'x, y, z'
loop_
 _atom_site_type_symbol
 _atom_site_label
 _atom_site_symmetry_multiplicity
 _atom_site_fract_x
 _atom_site_fract_y
 _atom_site_fract_z
 _atom_site_occupancy
  Yb  Yb0  1  0.250000  0.892369  0.028881  1
  Ce  Ce1  1  0.250000  0.598750  0.527336  1
  Ce  Ce2  1  0.750000  0.103837  0.971971  1
  Ce  Ce3  1  0.750000  0.401474  0.471448  1
  Ce  Ce4  1  0.250000  0.915472  0.597951  1
  Ce  Ce5  1  0.250000  0.583800  0.094126  1
  Ce  Ce6  1  0.750000  0.084673  0.404131  1
  Ce  Ce7  1  0.750000  0.417215  0.905033  1
  Ce  Ce8  1  0.250000  0.664311  0.806973  1
  Ce  Ce9  1  0.250000  0.838586  0.303601  1
  Ce  Ce10  1  0.750000  0.336369  0.193616  1
  Ce  Ce11  1  0.750000  0.163492  0.694095  1
  Si  Si12  1  0.250000  0.998726  0.816887  1
  Si  Si13  1  0.250000  0.501931  0.310854  1
  Si  Si14  1  0.750000  0.003137  0.185543  1
  Si  Si15  1  0.750000  0.497577  0.688142  1
  Si  Si16  1  0.250000  0.236607  0.842913  1
  Si  Si17  1  0.250000  0.262698  0.341924  1
  Si  Si18  1  0.750000  0.760961  0.156394  1
  Si  Si19  1  0.750000  0.736746  0.658089  1
  Si  Si20  1  0.250000  0.216893  0.539943  1
  Si  Si21  1  0.250000  0.285277  0.040623  1
  Si  Si22  1  0.750000  0.783831  0.459290  1
  Si  Si23  1  0.750000  0.714074  0.959800  1
  Ir  Ir24  1  0.250000  0.382528  0.687672  1
  Ir  Ir25  1  0.250000  0.118953  0.185275  1
  Ir  Ir26  1  0.750000  0.616524  0.312255  1
  Ir  Ir27  1  0.750000  0.883189  0.815230  1
