# generated using pymatgen
data_SmDyTh2(Al3Rh)6
_symmetry_space_group_name_H-M   'P 1'
_cell_length_a   7.61839952
_cell_length_b   7.62426443
_cell_length_c   9.50919000
_cell_angle_alpha   90.00000000
_cell_angle_beta   90.00000000
_cell_angle_gamma   119.43019572
_symmetry_Int_Tables_number   1
_chemical_formula_structural   SmDyTh2(Al3Rh)6
_chemical_formula_sum   'Sm1 Dy1 Th2 Al18 Rh6'
_cell_volume   481.06185795
_cell_formula_units_Z   1
loop_
 _symmetry_equiv_pos_site_id
 _symmetry_equiv_pos_as_xyz
  1  'x, y, z'
loop_
 _atom_site_type_symbol
 _atom_site_label
 _atom_site_symmetry_multiplicity
 _atom_site_fract_x
 _atom_site_fract_y
 _atom_site_fract_z
 _atom_site_occupancy
  Sm  Sm0  1  0.004886  0.328636  0.250000  1
  Dy  Dy1  1  0.328276  0.005402  0.250000  1
  Th  Th2  1  0.994977  0.671259  0.750000  1
  Th  Th3  1  0.671376  0.994465  0.750000  1
  Al  Al4  1  0.135105  0.134126  0.750000  1
  Al  Al5  1  0.873710  0.873395  0.250000  1
  Al  Al6  1  0.005526  0.335468  0.570556  1
  Al  Al7  1  0.000436  0.665703  0.418878  1
  Al  Al8  1  0.000436  0.665703  0.081122  1
  Al  Al9  1  0.335493  0.005134  0.931048  1
  Al  Al10  1  0.005526  0.335468  0.929444  1
  Al  Al11  1  0.663310  0.999554  0.081046  1
  Al  Al12  1  0.663310  0.999554  0.418954  1
  Al  Al13  1  0.335493  0.005134  0.568952  1
  Al  Al14  1  0.333066  0.332405  0.055383  1
  Al  Al15  1  0.662946  0.662852  0.958486  1
  Al  Al16  1  0.662946  0.662852  0.541514  1
  Al  Al17  1  0.333066  0.332405  0.444617  1
  Al  Al18  1  0.340467  0.543281  0.750000  1
  Al  Al19  1  0.658053  0.448113  0.250000  1
  Al  Al20  1  0.543488  0.338813  0.750000  1
  Al  Al21  1  0.448425  0.660270  0.250000  1
  Rh  Rh22  1  0.672769  0.328647  0.501256  1
  Rh  Rh23  1  0.328803  0.673322  0.501397  1
  Rh  Rh24  1  0.328803  0.673322  0.998603  1
  Rh  Rh25  1  0.672769  0.328647  0.998744  1
  Rh  Rh26  1  0.998271  0.998035  0.501879  1
  Rh  Rh27  1  0.998271  0.998035  0.998121  1
