# generated using pymatgen
data_Ba4CeRuO8
_symmetry_space_group_name_H-M   'P 1'
_cell_length_a   7.41325000
_cell_length_b   7.41325054
_cell_length_c   6.01450500
_cell_angle_alpha   90.00000000
_cell_angle_beta   90.00000000
_cell_angle_gamma   131.92607866
_symmetry_Int_Tables_number   1
_chemical_formula_structural   Ba4CeRuO8
_chemical_formula_sum   'Ba4 Ce1 Ru1 O8'
_cell_volume   245.92038372
_cell_formula_units_Z   1
loop_
 _symmetry_equiv_pos_site_id
 _symmetry_equiv_pos_as_xyz
  1  'x, y, z'
loop_
 _atom_site_type_symbol
 _atom_site_label
 _atom_site_symmetry_multiplicity
 _atom_site_fract_x
 _atom_site_fract_y
 _atom_site_fract_z
 _atom_site_occupancy
  Ba  Ba0  1  0.358015  0.641985  0.000000  1
  Ba  Ba1  1  0.853929  0.146071  0.500000  1
  Ba  Ba2  1  0.146071  0.853929  0.500000  1
  Ba  Ba3  1  0.641985  0.358015  0.000000  1
  Ce  Ce4  1  0.000000  0.000000  0.000000  1
  Ru  Ru5  1  0.500000  0.500000  0.500000  1
  O  O6  1  0.259861  0.259861  0.736769  1
  O  O7  1  0.740139  0.740139  0.263231  1
  O  O8  1  0.740139  0.740139  0.736769  1
  O  O9  1  0.259861  0.259861  0.263231  1
  O  O10  1  0.165343  0.834657  0.000000  1
  O  O11  1  0.650285  0.349715  0.500000  1
  O  O12  1  0.349715  0.650285  0.500000  1
  O  O13  1  0.834657  0.165343  0.000000  1
