# generated using pymatgen
data_Pa2GaAu3
_symmetry_space_group_name_H-M   'P 1'
_cell_length_a   5.74250230
_cell_length_b   5.74857658
_cell_length_c   5.74857582
_cell_angle_alpha   131.05607494
_cell_angle_beta   111.68890797
_cell_angle_gamma   88.51007489
_symmetry_Int_Tables_number   1
_chemical_formula_structural   Pa2GaAu3
_chemical_formula_sum   'Pa2 Ga1 Au3'
_cell_volume   126.44610477
_cell_formula_units_Z   1
loop_
 _symmetry_equiv_pos_site_id
 _symmetry_equiv_pos_as_xyz
  1  'x, y, z'
loop_
 _atom_site_type_symbol
 _atom_site_label
 _atom_site_symmetry_multiplicity
 _atom_site_fract_x
 _atom_site_fract_y
 _atom_site_fract_z
 _atom_site_occupancy
  Pa  Pa0  1  0.746511  0.990599  0.755912  1
  Pa  Pa1  1  0.256617  0.010808  0.245809  1
  Ga  Ga2  1  0.311783  0.332105  0.979679  1
  Au  Au3  1  0.170652  0.677283  0.493369  1
  Au  Au4  1  0.852400  0.335484  0.516916  1
  Au  Au5  1  0.662037  0.653720  0.008317  1
