# generated using pymatgen
data_Tm5Cd2(NiHg)2
_symmetry_space_group_name_H-M   'P 1'
_cell_length_a   3.51940800
_cell_length_b   7.73376600
_cell_length_c   18.02776900
_cell_angle_alpha   90.00000000
_cell_angle_beta   90.00000000
_cell_angle_gamma   90.00000000
_symmetry_Int_Tables_number   1
_chemical_formula_structural   Tm5Cd2(NiHg)2
_chemical_formula_sum   'Tm10 Cd4 Ni4 Hg4'
_cell_volume   490.68482711
_cell_formula_units_Z   2
loop_
 _symmetry_equiv_pos_site_id
 _symmetry_equiv_pos_as_xyz
  1  'x, y, z'
loop_
 _atom_site_type_symbol
 _atom_site_label
 _atom_site_symmetry_multiplicity
 _atom_site_fract_x
 _atom_site_fract_y
 _atom_site_fract_z
 _atom_site_occupancy
  Tm  Tm0  1  0.000000  0.500000  0.500000  1
  Tm  Tm1  1  0.000000  0.000000  0.000000  1
  Tm  Tm2  1  0.000000  0.749064  0.280264  1
  Tm  Tm3  1  0.000000  0.250936  0.719736  1
  Tm  Tm4  1  0.000000  0.750936  0.780264  1
  Tm  Tm5  1  0.000000  0.249064  0.219736  1
  Tm  Tm6  1  0.000000  0.612325  0.087690  1
  Tm  Tm7  1  0.000000  0.387675  0.912310  1
  Tm  Tm8  1  0.000000  0.887675  0.587690  1
  Tm  Tm9  1  0.000000  0.112325  0.412310  1
  Cd  Cd10  1  0.500000  0.572651  0.652164  1
  Cd  Cd11  1  0.500000  0.427349  0.347836  1
  Cd  Cd12  1  0.500000  0.927349  0.152164  1
  Cd  Cd13  1  0.500000  0.072651  0.847836  1
  Ni  Ni14  1  0.500000  0.531969  0.196437  1
  Ni  Ni15  1  0.500000  0.468031  0.803563  1
  Ni  Ni16  1  0.500000  0.968031  0.696437  1
  Ni  Ni17  1  0.500000  0.031969  0.303563  1
  Hg  Hg18  1  0.500000  0.712531  0.931994  1
  Hg  Hg19  1  0.500000  0.287469  0.068006  1
  Hg  Hg20  1  0.500000  0.787469  0.431994  1
  Hg  Hg21  1  0.500000  0.212531  0.568006  1
