# generated using pymatgen
data_Bi2(SeO4)3
_symmetry_space_group_name_H-M   'P 1'
_cell_length_a   10.15742286
_cell_length_b   10.15742369
_cell_length_c   10.15742352
_cell_angle_alpha   55.71786390
_cell_angle_beta   55.71786142
_cell_angle_gamma   55.71786562
_symmetry_Int_Tables_number   1
_chemical_formula_structural   Bi2(SeO4)3
_chemical_formula_sum   'Bi4 Se6 O24'
_cell_volume   667.42378885
_cell_formula_units_Z   2
loop_
 _symmetry_equiv_pos_site_id
 _symmetry_equiv_pos_as_xyz
  1  'x, y, z'
loop_
 _atom_site_type_symbol
 _atom_site_label
 _atom_site_symmetry_multiplicity
 _atom_site_fract_x
 _atom_site_fract_y
 _atom_site_fract_z
 _atom_site_occupancy
  Bi  Bi0  1  0.856306  0.856306  0.856306  1
  Bi  Bi1  1  0.143694  0.143694  0.143694  1
  Bi  Bi2  1  0.651667  0.651667  0.651667  1
  Bi  Bi3  1  0.348333  0.348333  0.348333  1
  Se  Se4  1  0.540828  0.243229  0.966899  1
  Se  Se5  1  0.966899  0.540828  0.243229  1
  Se  Se6  1  0.243229  0.966899  0.540828  1
  Se  Se7  1  0.459172  0.756771  0.033101  1
  Se  Se8  1  0.033101  0.459172  0.756771  1
  Se  Se9  1  0.756771  0.033101  0.459172  1
  O  O10  1  0.400217  0.199208  0.974368  1
  O  O11  1  0.974368  0.400217  0.199208  1
  O  O12  1  0.199208  0.974368  0.400217  1
  O  O13  1  0.599783  0.800792  0.025632  1
  O  O14  1  0.025632  0.599783  0.800792  1
  O  O15  1  0.800792  0.025632  0.599783  1
  O  O16  1  0.513501  0.198637  0.165789  1
  O  O17  1  0.165789  0.513501  0.198637  1
  O  O18  1  0.198637  0.165789  0.513501  1
  O  O19  1  0.486499  0.801363  0.834211  1
  O  O20  1  0.834211  0.486499  0.801363  1
  O  O21  1  0.801363  0.834211  0.486499  1
  O  O22  1  0.739991  0.119391  0.881551  1
  O  O23  1  0.881551  0.739991  0.119391  1
  O  O24  1  0.119391  0.881551  0.739991  1
  O  O25  1  0.260009  0.880609  0.118449  1
  O  O26  1  0.118449  0.260009  0.880609  1
  O  O27  1  0.880609  0.118449  0.260009  1
  O  O28  1  0.514077  0.448815  0.846787  1
  O  O29  1  0.846787  0.514077  0.448815  1
  O  O30  1  0.448815  0.846787  0.514077  1
  O  O31  1  0.485923  0.551185  0.153213  1
  O  O32  1  0.153213  0.485923  0.551185  1
  O  O33  1  0.551185  0.153213  0.485923  1
