# generated using pymatgen
data_Er12TlNi4Ir
_symmetry_space_group_name_H-M   'P 1'
_cell_length_a   8.23869175
_cell_length_b   8.23179145
_cell_length_c   8.23869400
_cell_angle_alpha   111.70127954
_cell_angle_beta   109.95499083
_cell_angle_gamma   106.82820106
_symmetry_Int_Tables_number   1
_chemical_formula_structural   Er12TlNi4Ir
_chemical_formula_sum   'Er12 Tl1 Ni4 Ir1'
_cell_volume   429.14812363
_cell_formula_units_Z   1
loop_
 _symmetry_equiv_pos_site_id
 _symmetry_equiv_pos_as_xyz
  1  'x, y, z'
loop_
 _atom_site_type_symbol
 _atom_site_label
 _atom_site_symmetry_multiplicity
 _atom_site_fract_x
 _atom_site_fract_y
 _atom_site_fract_z
 _atom_site_occupancy
  Er  Er0  1  0.409731  0.218112  0.191707  1
  Er  Er1  1  0.590269  0.781888  0.808293  1
  Er  Er2  1  0.026404  0.218112  0.808379  1
  Er  Er3  1  0.973596  0.781888  0.191621  1
  Er  Er4  1  0.181159  0.287786  0.468916  1
  Er  Er5  1  0.818841  0.712214  0.531084  1
  Er  Er6  1  0.181130  0.712214  0.893373  1
  Er  Er7  1  0.818870  0.287786  0.106627  1
  Er  Er8  1  0.321915  0.627088  0.305174  1
  Er  Er9  1  0.678085  0.372912  0.694826  1
  Er  Er10  1  0.321801  0.016509  0.694709  1
  Er  Er11  1  0.678199  0.983491  0.305291  1
  Tl  Tl12  1  0.500000  0.500000  0.000000  1
  Ni  Ni13  1  0.362915  0.000000  0.362915  1
  Ni  Ni14  1  0.637085  0.000000  0.637085  1
  Ni  Ni15  1  0.122990  0.622838  0.499848  1
  Ni  Ni16  1  0.877010  0.377162  0.500152  1
  Ir  Ir17  1  0.000000  0.000000  0.000000  1
