# generated using pymatgen
data_La3P6Rh8W
_symmetry_space_group_name_H-M   'P 1'
_cell_length_a   3.99812500
_cell_length_b   11.30953500
_cell_length_c   13.03479700
_cell_angle_alpha   90.00000000
_cell_angle_beta   90.00000000
_cell_angle_gamma   90.00000000
_symmetry_Int_Tables_number   1
_chemical_formula_structural   La3P6Rh8W
_chemical_formula_sum   'La6 P12 Rh16 W2'
_cell_volume   589.39356376
_cell_formula_units_Z   2
loop_
 _symmetry_equiv_pos_site_id
 _symmetry_equiv_pos_as_xyz
  1  'x, y, z'
loop_
 _atom_site_type_symbol
 _atom_site_label
 _atom_site_symmetry_multiplicity
 _atom_site_fract_x
 _atom_site_fract_y
 _atom_site_fract_z
 _atom_site_occupancy
  La  La0  1  0.000000  0.500000  0.521485  1
  La  La1  1  0.500000  0.000000  0.478515  1
  La  La2  1  0.500000  0.817701  0.203937  1
  La  La3  1  0.500000  0.182299  0.203937  1
  La  La4  1  0.000000  0.682299  0.796063  1
  La  La5  1  0.000000  0.317701  0.796063  1
  P  P6  1  0.500000  0.500000  0.880405  1
  P  P7  1  0.000000  0.000000  0.119595  1
  P  P8  1  0.500000  0.500000  0.339728  1
  P  P9  1  0.000000  0.000000  0.660272  1
  P  P10  1  0.500000  0.309643  0.615363  1
  P  P11  1  0.500000  0.690357  0.615363  1
  P  P12  1  0.000000  0.190357  0.384637  1
  P  P13  1  0.000000  0.809643  0.384637  1
  P  P14  1  0.500000  0.849841  0.889446  1
  P  P15  1  0.500000  0.150159  0.889446  1
  P  P16  1  0.000000  0.650159  0.110554  1
  P  P17  1  0.000000  0.349841  0.110554  1
  Rh  Rh18  1  0.500000  0.500000  0.699636  1
  Rh  Rh19  1  0.000000  0.000000  0.300364  1
  Rh  Rh20  1  0.000000  0.500000  0.989726  1
  Rh  Rh21  1  0.500000  0.000000  0.010274  1
  Rh  Rh22  1  0.500000  0.332172  0.987850  1
  Rh  Rh23  1  0.500000  0.667828  0.987850  1
  Rh  Rh24  1  0.000000  0.167828  0.012150  1
  Rh  Rh25  1  0.000000  0.832172  0.012150  1
  Rh  Rh26  1  0.500000  0.292201  0.430641  1
  Rh  Rh27  1  0.500000  0.707799  0.430641  1
  Rh  Rh28  1  0.000000  0.207799  0.569359  1
  Rh  Rh29  1  0.000000  0.792201  0.569359  1
  Rh  Rh30  1  0.500000  0.877718  0.710245  1
  Rh  Rh31  1  0.500000  0.122282  0.710245  1
  Rh  Rh32  1  0.000000  0.622282  0.289755  1
  Rh  Rh33  1  0.000000  0.377718  0.289755  1
  W  W34  1  0.500000  0.500000  0.155217  1
  W  W35  1  0.000000  0.000000  0.844783  1
