# generated using pymatgen
data_Tm12Th4Mg3CdRh4
_symmetry_space_group_name_H-M   'P 1'
_cell_length_a   9.69799238
_cell_length_b   9.69799278
_cell_length_c   9.69799172
_cell_angle_alpha   59.76443443
_cell_angle_beta   59.76443507
_cell_angle_gamma   59.76443114
_symmetry_Int_Tables_number   1
_chemical_formula_structural   Tm12Th4Mg3CdRh4
_chemical_formula_sum   'Tm12 Th4 Mg3 Cd1 Rh4'
_cell_volume   641.50691720
_cell_formula_units_Z   1
loop_
 _symmetry_equiv_pos_site_id
 _symmetry_equiv_pos_as_xyz
  1  'x, y, z'
loop_
 _atom_site_type_symbol
 _atom_site_label
 _atom_site_symmetry_multiplicity
 _atom_site_fract_x
 _atom_site_fract_y
 _atom_site_fract_z
 _atom_site_occupancy
  Tm  Tm0  1  0.062847  0.436836  0.436836  1
  Tm  Tm1  1  0.435674  0.063772  0.063772  1
  Tm  Tm2  1  0.436836  0.062847  0.436836  1
  Tm  Tm3  1  0.063772  0.435674  0.063772  1
  Tm  Tm4  1  0.436836  0.436836  0.062847  1
  Tm  Tm5  1  0.063772  0.063772  0.435674  1
  Tm  Tm6  1  0.182887  0.816753  0.816753  1
  Tm  Tm7  1  0.817453  0.183180  0.183180  1
  Tm  Tm8  1  0.816753  0.182887  0.816753  1
  Tm  Tm9  1  0.183180  0.817453  0.183180  1
  Tm  Tm10  1  0.816753  0.816753  0.182887  1
  Tm  Tm11  1  0.183180  0.183180  0.817453  1
  Th  Th12  1  0.598966  0.598966  0.598966  1
  Th  Th13  1  0.601216  0.601216  0.199635  1
  Th  Th14  1  0.601216  0.199635  0.601216  1
  Th  Th15  1  0.199635  0.601216  0.601216  1
  Mg  Mg16  1  0.830509  0.830509  0.508021  1
  Mg  Mg17  1  0.830509  0.508021  0.830509  1
  Mg  Mg18  1  0.508021  0.830509  0.830509  1
  Cd  Cd19  1  0.832599  0.832599  0.832599  1
  Rh  Rh20  1  0.393316  0.393316  0.393316  1
  Rh  Rh21  1  0.392442  0.392442  0.819186  1
  Rh  Rh22  1  0.392442  0.819186  0.392442  1
  Rh  Rh23  1  0.819186  0.392442  0.392442  1
