# generated using pymatgen
data_YbPrZn21Pd
_symmetry_space_group_name_H-M   'P 1'
_cell_length_a   8.29017877
_cell_length_b   8.27914152
_cell_length_c   8.27913000
_cell_angle_alpha   99.81348066
_cell_angle_beta   99.98069127
_cell_angle_gamma   130.93037613
_symmetry_Int_Tables_number   1
_chemical_formula_structural   YbPrZn21Pd
_chemical_formula_sum   'Yb1 Pr1 Zn21 Pd1'
_cell_volume   390.80677709
_cell_formula_units_Z   1
loop_
 _symmetry_equiv_pos_site_id
 _symmetry_equiv_pos_as_xyz
  1  'x, y, z'
loop_
 _atom_site_type_symbol
 _atom_site_label
 _atom_site_symmetry_multiplicity
 _atom_site_fract_x
 _atom_site_fract_y
 _atom_site_fract_z
 _atom_site_occupancy
  Yb  Yb0  1  0.497318  0.500400  0.996922  1
  Pr  Pr1  1  0.754660  0.250656  0.503985  1
  Zn  Zn2  1  0.844183  0.431928  0.171796  1
  Zn  Zn3  1  0.124342  0.874420  0.750059  1
  Zn  Zn4  1  0.326891  0.153441  0.584387  1
  Zn  Zn5  1  0.259129  0.432195  0.584792  1
  Zn  Zn6  1  0.326895  0.742507  0.173455  1
  Zn  Zn7  1  0.992765  0.318738  0.916399  1
  Zn  Zn8  1  0.259131  0.674336  0.826933  1
  Zn  Zn9  1  0.249834  0.755178  0.494657  1
  Zn  Zn10  1  0.992765  0.076370  0.674031  1
  Zn  Zn11  1  0.999912  0.994748  0.005163  1
  Zn  Zn12  1  0.681537  0.009860  0.085138  1
  Zn  Zn13  1  0.626067  0.875541  0.750528  1
  Zn  Zn14  1  0.405924  0.318948  0.327987  1
  Zn  Zn15  1  0.922114  0.006134  0.326262  1
  Zn  Zn16  1  0.844186  0.672387  0.412256  1
  Zn  Zn17  1  0.567394  0.738759  0.413989  1
  Zn  Zn18  1  0.681533  0.596396  0.671673  1
  Zn  Zn19  1  0.405922  0.077939  0.086977  1
  Zn  Zn20  1  0.922120  0.595855  0.915984  1
  Zn  Zn21  1  0.567398  0.153407  0.828638  1
  Zn  Zn22  1  0.124343  0.374284  0.249923  1
  Pd  Pd23  1  0.123640  0.875574  0.248068  1
