# generated using pymatgen
data_Zr12Si12Ir3Ru
_symmetry_space_group_name_H-M   'P 1'
_cell_length_a   3.94044000
_cell_length_b   10.37868944
_cell_length_c   11.77125617
_cell_angle_alpha   90.00698650
_cell_angle_beta   90.00000000
_cell_angle_gamma   90.00000000
_symmetry_Int_Tables_number   1
_chemical_formula_structural   Zr12Si12Ir3Ru
_chemical_formula_sum   'Zr12 Si12 Ir3 Ru1'
_cell_volume   481.40438726
_cell_formula_units_Z   1
loop_
 _symmetry_equiv_pos_site_id
 _symmetry_equiv_pos_as_xyz
  1  'x, y, z'
loop_
 _atom_site_type_symbol
 _atom_site_label
 _atom_site_symmetry_multiplicity
 _atom_site_fract_x
 _atom_site_fract_y
 _atom_site_fract_z
 _atom_site_occupancy
  Zr  Zr0  1  0.250000  0.876492  0.021931  1
  Zr  Zr1  1  0.250000  0.623489  0.522154  1
  Zr  Zr2  1  0.750000  0.123001  0.978095  1
  Zr  Zr3  1  0.750000  0.376692  0.478836  1
  Zr  Zr4  1  0.250000  0.925608  0.595884  1
  Zr  Zr5  1  0.250000  0.574176  0.095937  1
  Zr  Zr6  1  0.750000  0.073994  0.403790  1
  Zr  Zr7  1  0.750000  0.425929  0.903594  1
  Zr  Zr8  1  0.250000  0.658212  0.800651  1
  Zr  Zr9  1  0.250000  0.841885  0.300930  1
  Zr  Zr10  1  0.750000  0.341351  0.199346  1
  Zr  Zr11  1  0.750000  0.158513  0.699251  1
  Si  Si12  1  0.250000  0.015814  0.824509  1
  Si  Si13  1  0.250000  0.484489  0.324269  1
  Si  Si14  1  0.750000  0.984229  0.175846  1
  Si  Si15  1  0.750000  0.514062  0.676163  1
  Si  Si16  1  0.250000  0.249830  0.842207  1
  Si  Si17  1  0.250000  0.251186  0.343322  1
  Si  Si18  1  0.750000  0.751232  0.156505  1
  Si  Si19  1  0.750000  0.748628  0.656594  1
  Si  Si20  1  0.250000  0.194277  0.543721  1
  Si  Si21  1  0.250000  0.306789  0.043040  1
  Si  Si22  1  0.750000  0.807480  0.456894  1
  Si  Si23  1  0.750000  0.692501  0.956632  1
  Ir  Ir24  1  0.250000  0.114704  0.180604  1
  Ir  Ir25  1  0.750000  0.614809  0.319562  1
  Ir  Ir26  1  0.750000  0.884926  0.819911  1
  Ru  Ru27  1  0.250000  0.385699  0.679821  1
