# generated using pymatgen
data_Ti8Mn3
_symmetry_space_group_name_H-M   'P 1'
_cell_length_a   5.21379255
_cell_length_b   5.21379280
_cell_length_c   11.38941320
_cell_angle_alpha   105.71603493
_cell_angle_beta   105.71603668
_cell_angle_gamma   33.93345105
_symmetry_Int_Tables_number   1
_chemical_formula_structural   Ti8Mn3
_chemical_formula_sum   'Ti8 Mn3'
_cell_volume   165.75567789
_cell_formula_units_Z   1
loop_
 _symmetry_equiv_pos_site_id
 _symmetry_equiv_pos_as_xyz
  1  'x, y, z'
loop_
 _atom_site_type_symbol
 _atom_site_label
 _atom_site_symmetry_multiplicity
 _atom_site_fract_x
 _atom_site_fract_y
 _atom_site_fract_z
 _atom_site_occupancy
  Ti  Ti0  1  0.695178  0.695178  0.079085  1
  Ti  Ti1  1  0.457819  0.457819  0.185293  1
  Ti  Ti2  1  0.216763  0.216763  0.288072  1
  Ti  Ti3  1  0.619782  0.619782  0.456470  1
  Ti  Ti4  1  0.380219  0.380219  0.543529  1
  Ti  Ti5  1  0.783237  0.783237  0.711928  1
  Ti  Ti6  1  0.542181  0.542181  0.814707  1
  Ti  Ti7  1  0.304823  0.304823  0.920916  1
  Mn  Mn8  1  0.000000  0.000000  0.000000  1
  Mn  Mn9  1  0.918588  0.918588  0.361400  1
  Mn  Mn10  1  0.081412  0.081412  0.638601  1
