# generated using pymatgen
data_Zr13Pa7Si16
_symmetry_space_group_name_H-M   'P 1'
_cell_length_a   7.28381684
_cell_length_b   7.28408287
_cell_length_c   13.38298400
_cell_angle_alpha   89.99266113
_cell_angle_beta   89.94940475
_cell_angle_gamma   89.94965972
_symmetry_Int_Tables_number   1
_chemical_formula_structural   Zr13Pa7Si16
_chemical_formula_sum   'Zr13 Pa7 Si16'
_cell_volume   710.04604509
_cell_formula_units_Z   1
loop_
 _symmetry_equiv_pos_site_id
 _symmetry_equiv_pos_as_xyz
  1  'x, y, z'
loop_
 _atom_site_type_symbol
 _atom_site_label
 _atom_site_symmetry_multiplicity
 _atom_site_fract_x
 _atom_site_fract_y
 _atom_site_fract_z
 _atom_site_occupancy
  Zr  Zr0  1  0.673472  0.327027  0.750214  1
  Zr  Zr1  1  0.327881  0.675324  0.249738  1
  Zr  Zr2  1  0.827157  0.824803  0.498508  1
  Zr  Zr3  1  0.175039  0.173455  0.000061  1
  Zr  Zr4  1  0.002745  0.351371  0.213091  1
  Zr  Zr5  1  0.500090  0.351921  0.126052  1
  Zr  Zr6  1  0.499644  0.648930  0.624677  1
  Zr  Zr7  1  0.851096  0.999984  0.876925  1
  Zr  Zr8  1  0.147615  0.997876  0.374154  1
  Zr  Zr9  1  0.645894  0.497159  0.373833  1
  Zr  Zr10  1  0.350681  0.500098  0.875685  1
  Zr  Zr11  1  0.998752  0.851679  0.125047  1
  Zr  Zr12  1  0.000712  0.148912  0.624431  1
  Pa  Pa13  1  0.495393  0.156530  0.533665  1
  Pa  Pa14  1  0.505161  0.844951  0.036346  1
  Pa  Pa15  1  0.652583  0.002203  0.285073  1
  Pa  Pa16  1  0.344919  0.995853  0.785402  1
  Pa  Pa17  1  0.844054  0.505430  0.965317  1
  Pa  Pa18  1  0.154791  0.495615  0.465032  1
  Pa  Pa19  1  0.003083  0.654489  0.714773  1
  Si  Si20  1  0.798443  0.145505  0.072650  1
  Si  Si21  1  0.205066  0.860031  0.567299  1
  Si  Si22  1  0.638659  0.706197  0.817736  1
  Si  Si23  1  0.354881  0.293806  0.316087  1
  Si  Si24  1  0.861499  0.206064  0.430629  1
  Si  Si25  1  0.139387  0.794122  0.933080  1
  Si  Si26  1  0.709985  0.635622  0.181737  1
  Si  Si27  1  0.294752  0.360638  0.682507  1
  Si  Si28  1  0.550876  0.205012  0.937454  1
  Si  Si29  1  0.451041  0.794588  0.435962  1
  Si  Si30  1  0.705093  0.951578  0.685984  1
  Si  Si31  1  0.293568  0.051107  0.186241  1
  Si  Si32  1  0.795191  0.450685  0.563020  1
  Si  Si33  1  0.202016  0.547721  0.065785  1
  Si  Si34  1  0.950475  0.698461  0.311744  1
  Si  Si35  1  0.048307  0.295256  0.814061  1
