# generated using pymatgen
data_Ac5LaHg10
_symmetry_space_group_name_H-M   'P 1'
_cell_length_a   6.80235108
_cell_length_b   6.80235153
_cell_length_c   11.08587600
_cell_angle_alpha   90.00000000
_cell_angle_beta   90.00000000
_cell_angle_gamma   106.26094727
_symmetry_Int_Tables_number   1
_chemical_formula_structural   Ac5LaHg10
_chemical_formula_sum   'Ac5 La1 Hg10'
_cell_volume   492.44498834
_cell_formula_units_Z   1
loop_
 _symmetry_equiv_pos_site_id
 _symmetry_equiv_pos_as_xyz
  1  'x, y, z'
loop_
 _atom_site_type_symbol
 _atom_site_label
 _atom_site_symmetry_multiplicity
 _atom_site_fract_x
 _atom_site_fract_y
 _atom_site_fract_z
 _atom_site_occupancy
  Ac  Ac0  1  0.599622  0.599622  0.250000  1
  Ac  Ac1  1  0.200990  0.797446  0.500817  1
  Ac  Ac2  1  0.200990  0.797446  0.999183  1
  Ac  Ac3  1  0.797446  0.200990  0.500817  1
  Ac  Ac4  1  0.797446  0.200990  0.999183  1
  La  La5  1  0.399940  0.399940  0.750000  1
  Hg  Hg6  1  0.015831  0.015831  0.250000  1
  Hg  Hg7  1  0.990978  0.990978  0.750000  1
  Hg  Hg8  1  0.309237  0.309237  0.033634  1
  Hg  Hg9  1  0.689646  0.689646  0.957946  1
  Hg  Hg10  1  0.309237  0.309237  0.466366  1
  Hg  Hg11  1  0.689646  0.689646  0.542054  1
  Hg  Hg12  1  0.485188  0.060740  0.250000  1
  Hg  Hg13  1  0.940947  0.512116  0.750000  1
  Hg  Hg14  1  0.512116  0.940947  0.750000  1
  Hg  Hg15  1  0.060740  0.485188  0.250000  1
