# generated using pymatgen
data_LaPr9Al(ZnRu2)3
_symmetry_space_group_name_H-M   'P 1'
_cell_length_a   8.57774175
_cell_length_b   8.57346301
_cell_length_c   8.51284788
_cell_angle_alpha   109.10893009
_cell_angle_beta   109.58926451
_cell_angle_gamma   109.56924824
_symmetry_Int_Tables_number   1
_chemical_formula_structural   LaPr9Al(ZnRu2)3
_chemical_formula_sum   'La1 Pr9 Al1 Zn3 Ru6'
_cell_volume   482.78763679
_cell_formula_units_Z   1
loop_
 _symmetry_equiv_pos_site_id
 _symmetry_equiv_pos_as_xyz
  1  'x, y, z'
loop_
 _atom_site_type_symbol
 _atom_site_label
 _atom_site_symmetry_multiplicity
 _atom_site_fract_x
 _atom_site_fract_y
 _atom_site_fract_z
 _atom_site_occupancy
  La  La0  1  0.251456  0.689336  0.443148  1
  Pr  Pr1  1  0.748825  0.815114  0.062300  1
  Pr  Pr2  1  0.438100  0.253070  0.687408  1
  Pr  Pr3  1  0.685443  0.433770  0.248939  1
  Pr  Pr4  1  0.061888  0.747627  0.814182  1
  Pr  Pr5  1  0.814777  0.066856  0.752129  1
  Pr  Pr6  1  0.220801  0.220854  0.221789  1
  Pr  Pr7  1  0.501103  0.000503  0.279172  1
  Pr  Pr8  1  0.279074  0.501141  0.999874  1
  Pr  Pr9  1  0.998818  0.278516  0.498576  1
  Al  Al10  1  0.999135  0.909357  0.500316  1
  Zn  Zn11  1  0.591569  0.589716  0.588129  1
  Zn  Zn12  1  0.498745  0.000994  0.911396  1
  Zn  Zn13  1  0.910993  0.500752  0.001673  1
  Ru  Ru14  1  0.241655  0.120760  0.866762  1
  Ru  Ru15  1  0.748602  0.371590  0.620905  1
  Ru  Ru16  1  0.875377  0.247167  0.125169  1
  Ru  Ru17  1  0.128198  0.873867  0.262139  1
  Ru  Ru18  1  0.636238  0.754970  0.374261  1
  Ru  Ru19  1  0.369202  0.624037  0.741734  1
