# generated using pymatgen
data_Nd2Tm2Zn10SiSn
_symmetry_space_group_name_H-M   'P 1'
_cell_length_a   8.33075848
_cell_length_b   8.33075852
_cell_length_c   8.86853500
_cell_angle_alpha   90.00000000
_cell_angle_beta   90.00000000
_cell_angle_gamma   149.70878667
_symmetry_Int_Tables_number   1
_chemical_formula_structural   Nd2Tm2Zn10SiSn
_chemical_formula_sum   'Nd2 Tm2 Zn10 Si1 Sn1'
_cell_volume   310.45018903
_cell_formula_units_Z   1
loop_
 _symmetry_equiv_pos_site_id
 _symmetry_equiv_pos_as_xyz
  1  'x, y, z'
loop_
 _atom_site_type_symbol
 _atom_site_label
 _atom_site_symmetry_multiplicity
 _atom_site_fract_x
 _atom_site_fract_y
 _atom_site_fract_z
 _atom_site_occupancy
  Nd  Nd0  1  0.001002  0.998998  0.486260  1
  Nd  Nd1  1  0.001002  0.998998  0.013740  1
  Tm  Tm2  1  0.200937  0.799063  0.250000  1
  Tm  Tm3  1  0.795647  0.204353  0.750000  1
  Zn  Zn4  1  0.810836  0.189164  0.390783  1
  Zn  Zn5  1  0.187927  0.812073  0.606494  1
  Zn  Zn6  1  0.810836  0.189164  0.109217  1
  Zn  Zn7  1  0.187927  0.812073  0.893506  1
  Zn  Zn8  1  0.651690  0.348310  0.471777  1
  Zn  Zn9  1  0.342721  0.657279  0.516600  1
  Zn  Zn10  1  0.651690  0.348310  0.028223  1
  Zn  Zn11  1  0.342721  0.657279  0.983400  1
  Zn  Zn12  1  0.403556  0.596444  0.250000  1
  Zn  Zn13  1  0.607816  0.392184  0.750000  1
  Si  Si14  1  0.558836  0.441164  0.250000  1
  Sn  Sn15  1  0.444857  0.555143  0.750000  1
