# generated using pymatgen
data_Pr3Nd3(CoO6)2
_symmetry_space_group_name_H-M   'P 1'
_cell_length_a   7.46458715
_cell_length_b   7.45037498
_cell_length_c   5.65830928
_cell_angle_alpha   89.98320638
_cell_angle_beta   90.03505186
_cell_angle_gamma   102.91819273
_symmetry_Int_Tables_number   1
_chemical_formula_structural   Pr3Nd3(CoO6)2
_chemical_formula_sum   'Pr3 Nd3 Co2 O12'
_cell_volume   306.71650357
_cell_formula_units_Z   1
loop_
 _symmetry_equiv_pos_site_id
 _symmetry_equiv_pos_as_xyz
  1  'x, y, z'
loop_
 _atom_site_type_symbol
 _atom_site_label
 _atom_site_symmetry_multiplicity
 _atom_site_fract_x
 _atom_site_fract_y
 _atom_site_fract_z
 _atom_site_occupancy
  Pr  Pr0  1  0.412523  0.203278  0.535669  1
  Pr  Pr1  1  0.799076  0.587268  0.535510  1
  Pr  Pr2  1  0.586835  0.797222  0.035717  1
  Nd  Nd3  1  0.201086  0.412449  0.035846  1
  Nd  Nd4  1  0.103238  0.896832  0.077888  1
  Nd  Nd5  1  0.897119  0.104088  0.578095  1
  Co  Co6  1  0.303650  0.695712  0.501319  1
  Co  Co7  1  0.696380  0.303828  0.001444  1
  O  O8  1  0.170906  0.146520  0.805026  1
  O  O9  1  0.855619  0.829522  0.804519  1
  O  O10  1  0.829735  0.855380  0.304437  1
  O  O11  1  0.144710  0.172205  0.303356  1
  O  O12  1  0.610414  0.086656  0.825442  1
  O  O13  1  0.914733  0.390174  0.827855  1
  O  O14  1  0.389218  0.913185  0.326243  1
  O  O15  1  0.086676  0.608831  0.324200  1
  O  O16  1  0.541957  0.457192  0.872191  1
  O  O17  1  0.457186  0.542248  0.370513  1
  O  O18  1  0.284733  0.711800  0.827522  1
  O  O19  1  0.714205  0.285609  0.327449  1
