# generated using pymatgen
data_Er4GaSe3
_symmetry_space_group_name_H-M   'P 1'
_cell_length_a   7.06942066
_cell_length_b   7.06974744
_cell_length_c   7.06954844
_cell_angle_alpha   132.01254356
_cell_angle_beta   132.01670410
_cell_angle_gamma   70.20582045
_symmetry_Int_Tables_number   1
_chemical_formula_structural   Er4GaSe3
_chemical_formula_sum   'Er4 Ga1 Se3'
_cell_volume   191.17639220
_cell_formula_units_Z   1
loop_
 _symmetry_equiv_pos_site_id
 _symmetry_equiv_pos_as_xyz
  1  'x, y, z'
loop_
 _atom_site_type_symbol
 _atom_site_label
 _atom_site_symmetry_multiplicity
 _atom_site_fract_x
 _atom_site_fract_y
 _atom_site_fract_z
 _atom_site_occupancy
  Er  Er0  1  0.243453  0.243450  0.000009  1
  Er  Er1  1  0.756555  0.756553  0.999991  1
  Er  Er2  1  0.499981  0.999987  0.499978  1
  Er  Er3  1  0.000010  0.500015  0.500017  1
  Ga  Ga4  1  0.000009  0.000004  0.000016  1
  Se  Se5  1  0.500007  0.500007  0.000005  1
  Se  Se6  1  0.749987  0.249999  0.499998  1
  Se  Se7  1  0.249998  0.749983  0.499986  1
