# generated using pymatgen
data_La3Pr13Cd2(InIr2)2
_symmetry_space_group_name_H-M   'P 1'
_cell_length_a   10.05600638
_cell_length_b   10.07472639
_cell_length_c   10.04692900
_cell_angle_alpha   60.09123239
_cell_angle_beta   60.02985928
_cell_angle_gamma   60.05106211
_symmetry_Int_Tables_number   1
_chemical_formula_structural   La3Pr13Cd2(InIr2)2
_chemical_formula_sum   'La3 Pr13 Cd2 In2 Ir4'
_cell_volume   720.67813717
_cell_formula_units_Z   1
loop_
 _symmetry_equiv_pos_site_id
 _symmetry_equiv_pos_as_xyz
  1  'x, y, z'
loop_
 _atom_site_type_symbol
 _atom_site_label
 _atom_site_symmetry_multiplicity
 _atom_site_fract_x
 _atom_site_fract_y
 _atom_site_fract_z
 _atom_site_occupancy
  La  La0  1  0.346987  0.347568  0.346256  1
  La  La1  1  0.346987  0.347568  0.959188  1
  La  La2  1  0.348408  0.957140  0.347225  1
  Pr  Pr3  1  0.951644  0.350686  0.348834  1
  Pr  Pr4  1  0.809684  0.190058  0.191056  1
  Pr  Pr5  1  0.190351  0.809157  0.809532  1
  Pr  Pr6  1  0.190351  0.809157  0.190960  1
  Pr  Pr7  1  0.809684  0.190058  0.809202  1
  Pr  Pr8  1  0.188426  0.188009  0.811782  1
  Pr  Pr9  1  0.808055  0.807126  0.192409  1
  Pr  Pr10  1  0.940791  0.561480  0.560937  1
  Pr  Pr11  1  0.561480  0.940381  0.936693  1
  Pr  Pr12  1  0.561480  0.940381  0.561446  1
  Pr  Pr13  1  0.940791  0.561480  0.936792  1
  Pr  Pr14  1  0.561459  0.562026  0.938257  1
  Pr  Pr15  1  0.939400  0.939639  0.560480  1
  Cd  Cd16  1  0.578909  0.260932  0.580078  1
  Cd  Cd17  1  0.260717  0.578437  0.580422  1
  In  In18  1  0.580468  0.579497  0.581334  1
  In  In19  1  0.580468  0.579497  0.258701  1
  Ir  Ir20  1  0.143039  0.141541  0.140993  1
  Ir  Ir21  1  0.143039  0.141541  0.574425  1
  Ir  Ir22  1  0.143414  0.574156  0.141215  1
  Ir  Ir23  1  0.573964  0.142481  0.141778  1
