# generated using pymatgen
data_PrTmCdIrO7
_symmetry_space_group_name_H-M   'P 1'
_cell_length_a   6.43566076
_cell_length_b   6.58972107
_cell_length_c   7.57091700
_cell_angle_alpha   90.00000000
_cell_angle_beta   90.00000000
_cell_angle_gamma   111.30680542
_symmetry_Int_Tables_number   1
_chemical_formula_structural   PrTmCdIrO7
_chemical_formula_sum   'Pr2 Tm2 Cd2 Ir2 O14'
_cell_volume   299.13039962
_cell_formula_units_Z   2
loop_
 _symmetry_equiv_pos_site_id
 _symmetry_equiv_pos_as_xyz
  1  'x, y, z'
loop_
 _atom_site_type_symbol
 _atom_site_label
 _atom_site_symmetry_multiplicity
 _atom_site_fract_x
 _atom_site_fract_y
 _atom_site_fract_z
 _atom_site_occupancy
  Pr  Pr0  1  0.000000  0.000000  0.000000  1
  Pr  Pr1  1  0.000000  0.000000  0.500000  1
  Tm  Tm2  1  0.954812  0.489546  0.750000  1
  Tm  Tm3  1  0.045188  0.510454  0.250000  1
  Cd  Cd4  1  0.485810  0.976600  0.750000  1
  Cd  Cd5  1  0.514190  0.023400  0.250000  1
  Ir  Ir6  1  0.500000  0.500000  0.000000  1
  Ir  Ir7  1  0.500000  0.500000  0.500000  1
  O  O8  1  0.604575  0.521416  0.750000  1
  O  O9  1  0.395425  0.478584  0.250000  1
  O  O10  1  0.843584  0.129670  0.750000  1
  O  O11  1  0.156416  0.870330  0.250000  1
  O  O12  1  0.126034  0.847291  0.750000  1
  O  O13  1  0.873966  0.152709  0.250000  1
  O  O14  1  0.429781  0.195208  0.994399  1
  O  O15  1  0.570219  0.804792  0.494399  1
  O  O16  1  0.175173  0.437303  0.965872  1
  O  O17  1  0.824827  0.562697  0.465872  1
  O  O18  1  0.429781  0.195208  0.505601  1
  O  O19  1  0.570219  0.804792  0.005601  1
  O  O20  1  0.824827  0.562697  0.034128  1
  O  O21  1  0.175173  0.437303  0.534128  1
