# generated using pymatgen
data_Sm(Al5Os)2
_symmetry_space_group_name_H-M   'P 1'
_cell_length_a   6.88227156
_cell_length_b   6.88227110
_cell_length_c   9.19566000
_cell_angle_alpha   90.00000000
_cell_angle_beta   90.00000000
_cell_angle_gamma   96.63309557
_symmetry_Int_Tables_number   1
_chemical_formula_structural   Sm(Al5Os)2
_chemical_formula_sum   'Sm2 Al20 Os4'
_cell_volume   432.64295540
_cell_formula_units_Z   2
loop_
 _symmetry_equiv_pos_site_id
 _symmetry_equiv_pos_as_xyz
  1  'x, y, z'
loop_
 _atom_site_type_symbol
 _atom_site_label
 _atom_site_symmetry_multiplicity
 _atom_site_fract_x
 _atom_site_fract_y
 _atom_site_fract_z
 _atom_site_occupancy
  Sm  Sm0  1  0.871765  0.128235  0.750000  1
  Sm  Sm1  1  0.128235  0.871765  0.250000  1
  Al  Al2  1  0.517598  0.782360  0.750000  1
  Al  Al3  1  0.782360  0.517598  0.250000  1
  Al  Al4  1  0.482402  0.217640  0.250000  1
  Al  Al5  1  0.217640  0.482402  0.750000  1
  Al  Al6  1  0.623491  0.376509  0.954981  1
  Al  Al7  1  0.376509  0.623491  0.045019  1
  Al  Al8  1  0.623491  0.376509  0.545019  1
  Al  Al9  1  0.376509  0.623491  0.454981  1
  Al  Al10  1  0.414431  0.146528  0.750000  1
  Al  Al11  1  0.146528  0.414431  0.250000  1
  Al  Al12  1  0.585569  0.853472  0.250000  1
  Al  Al13  1  0.853472  0.585569  0.750000  1
  Al  Al14  1  0.843014  0.156986  0.398605  1
  Al  Al15  1  0.156986  0.843014  0.601395  1
  Al  Al16  1  0.843014  0.156986  0.101395  1
  Al  Al17  1  0.156986  0.843014  0.898605  1
  Al  Al18  1  0.774591  0.774591  0.000000  1
  Al  Al19  1  0.774591  0.774591  0.500000  1
  Al  Al20  1  0.225409  0.225409  0.000000  1
  Al  Al21  1  0.225409  0.225409  0.500000  1
  Os  Os22  1  0.500000  0.000000  0.000000  1
  Os  Os23  1  0.000000  0.500000  0.000000  1
  Os  Os24  1  0.500000  0.000000  0.500000  1
  Os  Os25  1  0.000000  0.500000  0.500000  1
