# generated using pymatgen
data_Y5Er7(OsRu)2
_symmetry_space_group_name_H-M   'P 1'
_cell_length_a   6.29612870
_cell_length_b   7.38125047
_cell_length_c   9.03339692
_cell_angle_alpha   89.96034418
_cell_angle_beta   90.15911669
_cell_angle_gamma   90.03089251
_symmetry_Int_Tables_number   1
_chemical_formula_structural   Y5Er7(OsRu)2
_chemical_formula_sum   'Y5 Er7 Os2 Ru2'
_cell_volume   419.81001139
_cell_formula_units_Z   1
loop_
 _symmetry_equiv_pos_site_id
 _symmetry_equiv_pos_as_xyz
  1  'x, y, z'
loop_
 _atom_site_type_symbol
 _atom_site_label
 _atom_site_symmetry_multiplicity
 _atom_site_fract_x
 _atom_site_fract_y
 _atom_site_fract_z
 _atom_site_occupancy
  Y  Y0  1  0.334418  0.674933  0.062268  1
  Y  Y1  1  0.868807  0.540904  0.250993  1
  Y  Y2  1  0.630087  0.041444  0.250221  1
  Y  Y3  1  0.129412  0.461176  0.748938  1
  Y  Y4  1  0.371339  0.961196  0.748909  1
  Er  Er5  1  0.164513  0.174764  0.437051  1
  Er  Er6  1  0.668266  0.324127  0.564219  1
  Er  Er7  1  0.830932  0.825063  0.935386  1
  Er  Er8  1  0.668700  0.324755  0.934941  1
  Er  Er9  1  0.833133  0.825163  0.564424  1
  Er  Er10  1  0.336285  0.673934  0.437500  1
  Er  Er11  1  0.163981  0.173693  0.062437  1
  Os  Os12  1  0.957230  0.116198  0.750730  1
  Os  Os13  1  0.545188  0.615671  0.747978  1
  Ru  Ru14  1  0.041501  0.884649  0.252164  1
  Ru  Ru15  1  0.456207  0.382332  0.251841  1
