# generated using pymatgen
data_Rb6DyErBi4
_symmetry_space_group_name_H-M   'P 1'
_cell_length_a   10.38795408
_cell_length_b   10.38795485
_cell_length_c   10.38795500
_cell_angle_alpha   128.12910133
_cell_angle_beta   70.58239531
_cell_angle_gamma   135.64447180
_symmetry_Int_Tables_number   1
_chemical_formula_structural   Rb6DyErBi4
_chemical_formula_sum   'Rb6 Dy1 Er1 Bi4'
_cell_volume   604.21803039
_cell_formula_units_Z   1
loop_
 _symmetry_equiv_pos_site_id
 _symmetry_equiv_pos_as_xyz
  1  'x, y, z'
loop_
 _atom_site_type_symbol
 _atom_site_label
 _atom_site_symmetry_multiplicity
 _atom_site_fract_x
 _atom_site_fract_y
 _atom_site_fract_z
 _atom_site_occupancy
  Rb  Rb0  1  0.250000  0.250000  0.000000  1
  Rb  Rb1  1  0.750000  0.750000  0.000000  1
  Rb  Rb2  1  0.313685  0.806415  0.120337  1
  Rb  Rb3  1  0.186315  0.306650  0.492729  1
  Rb  Rb4  1  0.813923  0.693586  0.507272  1
  Rb  Rb5  1  0.686077  0.193349  0.879662  1
  Dy  Dy6  1  0.750000  0.250000  0.500000  1
  Er  Er7  1  0.250000  0.749999  0.499999  1
  Bi  Bi8  1  0.902736  0.306430  0.206853  1
  Bi  Bi9  1  0.597264  0.804118  0.403695  1
  Bi  Bi10  1  0.400424  0.193570  0.596305  1
  Bi  Bi11  1  0.099576  0.695882  0.793146  1
