# generated using pymatgen
data_Er10In3Co
_symmetry_space_group_name_H-M   'P 1'
_cell_length_a   9.58089900
_cell_length_b   9.58089881
_cell_length_c   9.67321200
_cell_angle_alpha   90.00000000
_cell_angle_beta   90.00000000
_cell_angle_gamma   119.99999719
_symmetry_Int_Tables_number   1
_chemical_formula_structural   Er10In3Co
_chemical_formula_sum   'Er20 In6 Co2'
_cell_volume   768.97791215
_cell_formula_units_Z   2
loop_
 _symmetry_equiv_pos_site_id
 _symmetry_equiv_pos_as_xyz
  1  'x, y, z'
loop_
 _atom_site_type_symbol
 _atom_site_label
 _atom_site_symmetry_multiplicity
 _atom_site_fract_x
 _atom_site_fract_y
 _atom_site_fract_z
 _atom_site_occupancy
  Er  Er0  1  0.000000  0.000000  0.500000  1
  Er  Er1  1  0.000000  0.000000  0.000000  1
  Er  Er2  1  0.541418  0.458582  0.250000  1
  Er  Er3  1  0.541418  0.082837  0.250000  1
  Er  Er4  1  0.917163  0.458582  0.250000  1
  Er  Er5  1  0.458582  0.541418  0.750000  1
  Er  Er6  1  0.458582  0.917163  0.750000  1
  Er  Er7  1  0.082837  0.541418  0.750000  1
  Er  Er8  1  0.211922  0.788078  0.436004  1
  Er  Er9  1  0.211922  0.423844  0.436004  1
  Er  Er10  1  0.576156  0.788078  0.436004  1
  Er  Er11  1  0.788078  0.211922  0.563996  1
  Er  Er12  1  0.788078  0.576156  0.563996  1
  Er  Er13  1  0.423844  0.211922  0.563996  1
  Er  Er14  1  0.788078  0.211922  0.936004  1
  Er  Er15  1  0.788078  0.576156  0.936004  1
  Er  Er16  1  0.423844  0.211922  0.936004  1
  Er  Er17  1  0.211922  0.788078  0.063996  1
  Er  Er18  1  0.211922  0.423844  0.063996  1
  Er  Er19  1  0.576156  0.788078  0.063996  1
  In  In20  1  0.884538  0.115462  0.250000  1
  In  In21  1  0.884538  0.769078  0.250000  1
  In  In22  1  0.230922  0.115462  0.250000  1
  In  In23  1  0.115462  0.884538  0.750000  1
  In  In24  1  0.115462  0.230922  0.750000  1
  In  In25  1  0.769078  0.884538  0.750000  1
  Co  Co26  1  0.333333  0.666667  0.250000  1
  Co  Co27  1  0.666667  0.333333  0.750000  1
