# generated using pymatgen
data_Ac2AsCl2
_symmetry_space_group_name_H-M   'P 1'
_cell_length_a   4.45755300
_cell_length_b   4.45755400
_cell_length_c   10.62417900
_cell_angle_alpha   90.00000000
_cell_angle_beta   90.00000000
_cell_angle_gamma   120.00000002
_symmetry_Int_Tables_number   1
_chemical_formula_structural   Ac2AsCl2
_chemical_formula_sum   'Ac2 As1 Cl2'
_cell_volume   182.81807819
_cell_formula_units_Z   1
loop_
 _symmetry_equiv_pos_site_id
 _symmetry_equiv_pos_as_xyz
  1  'x, y, z'
loop_
 _atom_site_type_symbol
 _atom_site_label
 _atom_site_symmetry_multiplicity
 _atom_site_fract_x
 _atom_site_fract_y
 _atom_site_fract_z
 _atom_site_occupancy
  Ac  Ac0  1  0.333333  0.666667  0.334573  1
  Ac  Ac1  1  0.666667  0.333333  0.665427  1
  As  As2  1  0.000000  0.000000  0.500000  1
  Cl  Cl3  1  0.666667  0.333333  0.176915  1
  Cl  Cl4  1  0.333333  0.666667  0.823085  1
