# generated using pymatgen
data_Th3P4Pd7
_symmetry_space_group_name_H-M   'P 1'
_cell_length_a   8.12798639
_cell_length_b   8.12798612
_cell_length_c   9.56897738
_cell_angle_alpha   55.50684737
_cell_angle_beta   55.50684898
_cell_angle_gamma   29.34341811
_symmetry_Int_Tables_number   1
_chemical_formula_structural   Th3P4Pd7
_chemical_formula_sum   'Th3 P4 Pd7'
_cell_volume   251.16058684
_cell_formula_units_Z   1
loop_
 _symmetry_equiv_pos_site_id
 _symmetry_equiv_pos_as_xyz
  1  'x, y, z'
loop_
 _atom_site_type_symbol
 _atom_site_label
 _atom_site_symmetry_multiplicity
 _atom_site_fract_x
 _atom_site_fract_y
 _atom_site_fract_z
 _atom_site_occupancy
  Th  Th0  1  0.681422  0.681422  0.821813  1
  Th  Th1  1  0.318578  0.318578  0.178187  1
  Th  Th2  1  0.000000  0.000000  0.500000  1
  P  P3  1  0.342536  0.342536  0.751314  1
  P  P4  1  0.657464  0.657464  0.248686  1
  P  P5  1  0.106798  0.106798  0.676626  1
  P  P6  1  0.893202  0.893202  0.323374  1
  Pd  Pd7  1  0.690282  0.690282  0.476799  1
  Pd  Pd8  1  0.510679  0.510679  0.210720  1
  Pd  Pd9  1  0.166453  0.166453  0.074081  1
  Pd  Pd10  1  0.309718  0.309718  0.523201  1
  Pd  Pd11  1  0.833547  0.833547  0.925919  1
  Pd  Pd12  1  0.000000  0.000000  0.000000  1
  Pd  Pd13  1  0.489321  0.489321  0.789280  1
