# generated using pymatgen
data_Yb2Pr18Si15Ir
_symmetry_space_group_name_H-M   'P 1'
_cell_length_a   7.92126341
_cell_length_b   7.91608363
_cell_length_c   15.24723070
_cell_angle_alpha   90.05755194
_cell_angle_beta   89.67586728
_cell_angle_gamma   90.20168129
_symmetry_Int_Tables_number   1
_chemical_formula_structural   Yb2Pr18Si15Ir
_chemical_formula_sum   'Yb2 Pr18 Si15 Ir1'
_cell_volume   956.06176470
_cell_formula_units_Z   1
loop_
 _symmetry_equiv_pos_site_id
 _symmetry_equiv_pos_as_xyz
  1  'x, y, z'
loop_
 _atom_site_type_symbol
 _atom_site_label
 _atom_site_symmetry_multiplicity
 _atom_site_fract_x
 _atom_site_fract_y
 _atom_site_fract_z
 _atom_site_occupancy
  Yb  Yb0  1  0.307914  0.308573  0.999207  1
  Yb  Yb1  1  0.190433  0.809848  0.250210  1
  Pr  Pr2  1  0.822747  0.188010  0.748565  1
  Pr  Pr3  1  0.691128  0.688173  0.500729  1
  Pr  Pr4  1  0.375379  0.009989  0.447695  1
  Pr  Pr5  1  0.487527  0.875783  0.698864  1
  Pr  Pr6  1  0.508498  0.123326  0.197403  1
  Pr  Pr7  1  0.875477  0.489470  0.299655  1
  Pr  Pr8  1  0.125674  0.509226  0.800881  1
  Pr  Pr9  1  0.624860  0.991101  0.948683  1
  Pr  Pr10  1  0.006414  0.374677  0.551585  1
  Pr  Pr11  1  0.990715  0.623383  0.052191  1
  Pr  Pr12  1  0.133079  0.987439  0.874802  1
  Pr  Pr13  1  0.513939  0.628419  0.125958  1
  Pr  Pr14  1  0.472849  0.362128  0.629039  1
  Pr  Pr15  1  0.626824  0.513173  0.874766  1
  Pr  Pr16  1  0.373358  0.484502  0.373092  1
  Pr  Pr17  1  0.874589  0.017136  0.375993  1
  Pr  Pr18  1  0.986986  0.126026  0.124016  1
  Pr  Pr19  1  0.026720  0.879552  0.625271  1
  Si  Si20  1  0.333671  0.698518  0.950178  1
  Si  Si21  1  0.663996  0.301585  0.450753  1
  Si  Si22  1  0.700149  0.334724  0.051189  1
  Si  Si23  1  0.304857  0.668820  0.547243  1
  Si  Si24  1  0.801929  0.834189  0.201237  1
  Si  Si25  1  0.166587  0.201674  0.298045  1
  Si  Si26  1  0.833343  0.801739  0.800192  1
  Si  Si27  1  0.287177  0.918650  0.058910  1
  Si  Si28  1  0.581797  0.786524  0.309456  1
  Si  Si29  1  0.425977  0.206651  0.812286  1
  Si  Si30  1  0.783186  0.581208  0.690962  1
  Si  Si31  1  0.212239  0.420820  0.190047  1
  Si  Si32  1  0.703607  0.073832  0.558369  1
  Si  Si33  1  0.918354  0.287512  0.942047  1
  Si  Si34  1  0.079970  0.715740  0.441047  1
  Ir  Ir35  1  0.188045  0.177882  0.699432  1
