# generated using pymatgen
data_Tb7Tm(ZrGa5)4
_symmetry_space_group_name_H-M   'P 1'
_cell_length_a   5.97697886
_cell_length_b   9.44554634
_cell_length_c   11.38384167
_cell_angle_alpha   90.02298547
_cell_angle_beta   89.94223218
_cell_angle_gamma   89.97971550
_symmetry_Int_Tables_number   1
_chemical_formula_structural   Tb7Tm(ZrGa5)4
_chemical_formula_sum   'Tb7 Tm1 Zr4 Ga20'
_cell_volume   642.68381985
_cell_formula_units_Z   1
loop_
 _symmetry_equiv_pos_site_id
 _symmetry_equiv_pos_as_xyz
  1  'x, y, z'
loop_
 _atom_site_type_symbol
 _atom_site_label
 _atom_site_symmetry_multiplicity
 _atom_site_fract_x
 _atom_site_fract_y
 _atom_site_fract_z
 _atom_site_occupancy
  Tb  Tb0  1  0.885717  0.506429  0.352581  1
  Tb  Tb1  1  0.613939  0.993179  0.852453  1
  Tb  Tb2  1  0.113976  0.006465  0.647693  1
  Tb  Tb3  1  0.386207  0.493460  0.146716  1
  Tb  Tb4  1  0.113757  0.493498  0.647925  1
  Tb  Tb5  1  0.386296  0.006636  0.147220  1
  Tb  Tb6  1  0.885879  0.993718  0.352585  1
  Tm  Tm7  1  0.613551  0.506843  0.852632  1
  Zr  Zr8  1  0.858037  0.749706  0.075026  1
  Zr  Zr9  1  0.641532  0.749920  0.575620  1
  Zr  Zr10  1  0.142862  0.250036  0.924356  1
  Zr  Zr11  1  0.358440  0.250144  0.424785  1
  Ga  Ga12  1  0.875760  0.053546  0.088434  1
  Ga  Ga13  1  0.624234  0.447044  0.589514  1
  Ga  Ga14  1  0.125069  0.552921  0.911106  1
  Ga  Ga15  1  0.375698  0.946741  0.411543  1
  Ga  Ga16  1  0.124193  0.946167  0.911509  1
  Ga  Ga17  1  0.375637  0.553236  0.411501  1
  Ga  Ga18  1  0.875702  0.446801  0.087983  1
  Ga  Ga19  1  0.624177  0.053443  0.588434  1
  Ga  Ga20  1  0.160707  0.749982  0.254771  1
  Ga  Ga21  1  0.339520  0.748971  0.755368  1
  Ga  Ga22  1  0.838088  0.251113  0.746036  1
  Ga  Ga23  1  0.660837  0.250051  0.244839  1
  Ga  Ga24  1  0.390792  0.749652  0.001010  1
  Ga  Ga25  1  0.109945  0.750040  0.501412  1
  Ga  Ga26  1  0.610510  0.251221  0.997241  1
  Ga  Ga27  1  0.889992  0.250206  0.498917  1
  Ga  Ga28  1  0.604176  0.749973  0.293651  1
  Ga  Ga29  1  0.894477  0.748559  0.794020  1
  Ga  Ga30  1  0.396098  0.250208  0.706566  1
  Ga  Ga31  1  0.104196  0.250094  0.206551  1
