# generated using pymatgen
data_Eu2Si14Ir5Rh
_symmetry_space_group_name_H-M   'P 1'
_cell_length_a   8.03879467
_cell_length_b   8.03879490
_cell_length_c   8.04688600
_cell_angle_alpha   56.56195568
_cell_angle_beta   56.56194604
_cell_angle_gamma   56.53300213
_symmetry_Int_Tables_number   1
_chemical_formula_structural   Eu2Si14Ir5Rh
_chemical_formula_sum   'Eu2 Si14 Ir5 Rh1'
_cell_volume   338.40656049
_cell_formula_units_Z   1
loop_
 _symmetry_equiv_pos_site_id
 _symmetry_equiv_pos_as_xyz
  1  'x, y, z'
loop_
 _atom_site_type_symbol
 _atom_site_label
 _atom_site_symmetry_multiplicity
 _atom_site_fract_x
 _atom_site_fract_y
 _atom_site_fract_z
 _atom_site_occupancy
  Eu  Eu0  1  0.999744  0.999651  0.000296  1
  Eu  Eu1  1  0.500349  0.500256  0.499704  1
  Si  Si2  1  0.751380  0.748620  0.750000  1
  Si  Si3  1  0.250074  0.249926  0.250000  1
  Si  Si4  1  0.850026  0.065760  0.672632  1
  Si  Si5  1  0.672355  0.850704  0.065126  1
  Si  Si6  1  0.063593  0.673214  0.850236  1
  Si  Si7  1  0.649296  0.827645  0.434874  1
  Si  Si8  1  0.434240  0.649974  0.827368  1
  Si  Si9  1  0.826786  0.436407  0.649764  1
  Si  Si10  1  0.173761  0.563700  0.350392  1
  Si  Si11  1  0.566370  0.349997  0.172189  1
  Si  Si12  1  0.350067  0.174046  0.565504  1
  Si  Si13  1  0.936300  0.326239  0.149608  1
  Si  Si14  1  0.325954  0.149933  0.934496  1
  Si  Si15  1  0.150003  0.933630  0.327811  1
  Ir  Ir16  1  0.249628  0.931795  0.568988  1
  Ir  Ir17  1  0.568205  0.250372  0.931012  1
  Ir  Ir18  1  0.930679  0.569321  0.250000  1
  Ir  Ir19  1  0.431760  0.749466  0.068884  1
  Ir  Ir20  1  0.750534  0.068240  0.431116  1
  Rh  Rh21  1  0.068897  0.431103  0.750000  1
