# generated using pymatgen
data_Cr(TcTe2)2
_symmetry_space_group_name_H-M   'P 1'
_cell_length_a   7.03856158
_cell_length_b   7.03918637
_cell_length_c   7.03921031
_cell_angle_alpha   93.75913725
_cell_angle_beta   93.93706533
_cell_angle_gamma   94.12881316
_symmetry_Int_Tables_number   1
_chemical_formula_structural   Cr(TcTe2)2
_chemical_formula_sum   'Cr2 Tc4 Te8'
_cell_volume   346.16459825
_cell_formula_units_Z   2
loop_
 _symmetry_equiv_pos_site_id
 _symmetry_equiv_pos_as_xyz
  1  'x, y, z'
loop_
 _atom_site_type_symbol
 _atom_site_label
 _atom_site_symmetry_multiplicity
 _atom_site_fract_x
 _atom_site_fract_y
 _atom_site_fract_z
 _atom_site_occupancy
  Cr  Cr0  1  0.913800  0.043446  0.759780  1
  Cr  Cr1  1  0.757784  0.915397  0.042646  1
  Tc  Tc2  1  0.043357  0.749535  0.912358  1
  Tc  Tc3  1  0.088515  0.953187  0.253877  1
  Tc  Tc4  1  0.252985  0.089396  0.953182  1
  Tc  Tc5  1  0.952631  0.252648  0.088663  1
  Te  Te6  1  0.705897  0.717737  0.713140  1
  Te  Te7  1  0.292627  0.293794  0.291598  1
  Te  Te8  1  0.773091  0.110594  0.381475  1
  Te  Te9  1  0.386196  0.775645  0.118107  1
  Te  Te10  1  0.113393  0.378322  0.767815  1
  Te  Te11  1  0.227177  0.878447  0.617186  1
  Te  Te12  1  0.620483  0.222649  0.874516  1
  Te  Te13  1  0.872065  0.619204  0.225657  1
