# generated using pymatgen
data_Ca11NdMnBeN10
_symmetry_space_group_name_H-M   'P 1'
_cell_length_a   6.21377147
_cell_length_b   6.17068357
_cell_length_c   12.23917867
_cell_angle_alpha   89.55423249
_cell_angle_beta   90.22133782
_cell_angle_gamma   119.77088334
_symmetry_Int_Tables_number   1
_chemical_formula_structural   Ca11NdMnBeN10
_chemical_formula_sum   'Ca11 Nd1 Mn1 Be1 N10'
_cell_volume   407.33934633
_cell_formula_units_Z   1
loop_
 _symmetry_equiv_pos_site_id
 _symmetry_equiv_pos_as_xyz
  1  'x, y, z'
loop_
 _atom_site_type_symbol
 _atom_site_label
 _atom_site_symmetry_multiplicity
 _atom_site_fract_x
 _atom_site_fract_y
 _atom_site_fract_z
 _atom_site_occupancy
  Ca  Ca0  1  0.610475  0.622000  0.872290  1
  Ca  Ca1  1  0.602339  0.997490  0.116731  1
  Ca  Ca2  1  0.394594  0.996690  0.628185  1
  Ca  Ca3  1  0.398585  0.398783  0.383857  1
  Ca  Ca4  1  0.601415  0.000198  0.383857  1
  Ca  Ca5  1  0.397661  0.395151  0.116731  1
  Ca  Ca6  1  0.000000  0.605513  0.120708  1
  Ca  Ca7  1  0.000000  0.382718  0.619524  1
  Ca  Ca8  1  0.605406  0.602096  0.628185  1
  Ca  Ca9  1  0.389525  0.011525  0.872290  1
  Ca  Ca10  1  0.000000  0.604866  0.384283  1
  Nd  Nd11  1  0.000000  0.398540  0.869221  1
  Mn  Mn12  1  0.000000  0.002011  0.249874  1
  Be  Be13  1  0.000000  0.996300  0.750751  1
  N  N14  1  0.726157  0.998085  0.752463  1
  N  N15  1  0.273843  0.271928  0.752463  1
  N  N16  1  0.286175  0.000501  0.247702  1
  N  N17  1  0.666852  0.332453  0.501399  1
  N  N18  1  0.326614  0.661617  0.997431  1
  N  N19  1  0.333148  0.665602  0.501399  1
  N  N20  1  0.673386  0.335002  0.997431  1
  N  N21  1  0.713825  0.714326  0.247702  1
  N  N22  1  0.000000  0.289464  0.249758  1
  N  N23  1  0.000000  0.717141  0.755766  1
