# generated using pymatgen
data_La4Nd6Co3Tc
_symmetry_space_group_name_H-M   'P 1'
_cell_length_a   9.06364002
_cell_length_b   9.06595757
_cell_length_c   7.16219792
_cell_angle_alpha   85.44129446
_cell_angle_beta   85.46611951
_cell_angle_gamma   42.88875380
_symmetry_Int_Tables_number   1
_chemical_formula_structural   La4Nd6Co3Tc
_chemical_formula_sum   'La4 Nd6 Co3 Tc1'
_cell_volume   399.07943577
_cell_formula_units_Z   1
loop_
 _symmetry_equiv_pos_site_id
 _symmetry_equiv_pos_as_xyz
  1  'x, y, z'
loop_
 _atom_site_type_symbol
 _atom_site_label
 _atom_site_symmetry_multiplicity
 _atom_site_fract_x
 _atom_site_fract_y
 _atom_site_fract_z
 _atom_site_occupancy
  La  La0  1  0.014037  0.795692  0.908174  1
  La  La1  1  0.205658  0.980690  0.604623  1
  La  La2  1  0.984555  0.205253  0.104710  1
  La  La3  1  0.790163  0.018624  0.398237  1
  Nd  Nd4  1  0.357597  0.214945  0.826782  1
  Nd  Nd5  1  0.790191  0.640188  0.671215  1
  Nd  Nd6  1  0.642509  0.782586  0.170974  1
  Nd  Nd7  1  0.218351  0.351635  0.319501  1
  Nd  Nd8  1  0.576370  0.425616  0.751667  1
  Nd  Nd9  1  0.429458  0.572033  0.247429  1
  Co  Co10  1  0.392560  0.829229  0.915594  1
  Co  Co11  1  0.829807  0.390378  0.411588  1
  Co  Co12  1  0.606924  0.171346  0.087916  1
  Tc  Tc13  1  0.161818  0.621785  0.581592  1
