# generated using pymatgen
data_Sr2GeB2Pt7
_symmetry_space_group_name_H-M   'P 1'
_cell_length_a   5.67445300
_cell_length_b   5.67445149
_cell_length_c   7.38049000
_cell_angle_alpha   90.00000000
_cell_angle_beta   90.00000000
_cell_angle_gamma   120.00000295
_symmetry_Int_Tables_number   1
_chemical_formula_structural   Sr2GeB2Pt7
_chemical_formula_sum   'Sr2 Ge1 B2 Pt7'
_cell_volume   205.80868893
_cell_formula_units_Z   1
loop_
 _symmetry_equiv_pos_site_id
 _symmetry_equiv_pos_as_xyz
  1  'x, y, z'
loop_
 _atom_site_type_symbol
 _atom_site_label
 _atom_site_symmetry_multiplicity
 _atom_site_fract_x
 _atom_site_fract_y
 _atom_site_fract_z
 _atom_site_occupancy
  Sr  Sr0  1  0.000000  0.000000  0.500000  1
  Sr  Sr1  1  0.000000  0.000000  0.000000  1
  Ge  Ge2  1  0.333333  0.666667  0.500000  1
  B  B3  1  0.333333  0.666667  0.000000  1
  B  B4  1  0.666667  0.333333  0.000000  1
  Pt  Pt5  1  0.666667  0.333333  0.500000  1
  Pt  Pt6  1  0.499054  0.998108  0.200925  1
  Pt  Pt7  1  0.499054  0.998108  0.799075  1
  Pt  Pt8  1  0.001892  0.500946  0.200925  1
  Pt  Pt9  1  0.001892  0.500946  0.799075  1
  Pt  Pt10  1  0.499054  0.500946  0.200925  1
  Pt  Pt11  1  0.499054  0.500946  0.799075  1
