# generated using pymatgen
data_Au2S4O15
_symmetry_space_group_name_H-M   'P 1'
_cell_length_a   5.57203525
_cell_length_b   6.30331155
_cell_length_c   9.19231082
_cell_angle_alpha   88.04839606
_cell_angle_beta   96.43394126
_cell_angle_gamma   100.65834252
_symmetry_Int_Tables_number   1
_chemical_formula_structural   Au2S4O15
_chemical_formula_sum   'Au2 S4 O15'
_cell_volume   315.25709090
_cell_formula_units_Z   1
loop_
 _symmetry_equiv_pos_site_id
 _symmetry_equiv_pos_as_xyz
  1  'x, y, z'
loop_
 _atom_site_type_symbol
 _atom_site_label
 _atom_site_symmetry_multiplicity
 _atom_site_fract_x
 _atom_site_fract_y
 _atom_site_fract_z
 _atom_site_occupancy
  Au  Au0  1  0.084495  0.349357  0.577666  1
  Au  Au1  1  0.819143  0.804719  0.932556  1
  S  S2  1  0.734883  0.300631  0.854825  1
  S  S3  1  0.534731  0.804318  0.204035  1
  S  S4  1  0.392986  0.359977  0.310150  1
  S  S5  1  0.096231  0.835283  0.654706  1
  O  O6  1  0.854160  0.845510  0.715646  1
  O  O7  1  0.032012  0.660715  0.537645  1
  O  O8  1  0.901476  0.501426  0.923127  1
  O  O9  1  0.385603  0.434614  0.469058  1
  O  O10  1  0.781736  0.280307  0.696115  1
  O  O11  1  0.185637  0.199262  0.263652  1
  O  O12  1  0.343970  0.567202  0.203651  1
  O  O13  1  0.771567  0.757207  0.147669  1
  O  O14  1  0.289896  0.800486  0.764050  1
  O  O15  1  0.643283  0.338000  0.303066  1
  O  O16  1  0.150038  0.036647  0.561430  1
  O  O17  1  0.477175  0.298395  0.855795  1
  O  O18  1  0.597907  0.866712  0.353643  1
  O  O19  1  0.839122  0.133056  0.953380  1
  O  O20  1  0.401565  0.921369  0.097457  1
