# generated using pymatgen
data_KSc3Se5
_symmetry_space_group_name_H-M   'P 1'
_cell_length_a   3.91629300
_cell_length_b   11.71274200
_cell_length_c   20.86074500
_cell_angle_alpha   90.00000000
_cell_angle_beta   90.00000000
_cell_angle_gamma   90.00000000
_symmetry_Int_Tables_number   1
_chemical_formula_structural   KSc3Se5
_chemical_formula_sum   'K4 Sc12 Se20'
_cell_volume   956.89341903
_cell_formula_units_Z   4
loop_
 _symmetry_equiv_pos_site_id
 _symmetry_equiv_pos_as_xyz
  1  'x, y, z'
loop_
 _atom_site_type_symbol
 _atom_site_label
 _atom_site_symmetry_multiplicity
 _atom_site_fract_x
 _atom_site_fract_y
 _atom_site_fract_z
 _atom_site_occupancy
  K  K0  1  0.250000  0.851127  0.093080  1
  K  K1  1  0.750000  0.148873  0.906920  1
  K  K2  1  0.750000  0.351127  0.406920  1
  K  K3  1  0.250000  0.648873  0.593080  1
  Sc  Sc4  1  0.750000  0.798800  0.826045  1
  Sc  Sc5  1  0.250000  0.201200  0.173955  1
  Sc  Sc6  1  0.250000  0.298800  0.673955  1
  Sc  Sc7  1  0.750000  0.701200  0.326045  1
  Sc  Sc8  1  0.250000  0.955543  0.698284  1
  Sc  Sc9  1  0.750000  0.044457  0.301716  1
  Sc  Sc10  1  0.750000  0.455543  0.801716  1
  Sc  Sc11  1  0.250000  0.544457  0.198284  1
  Sc  Sc12  1  0.750000  0.391152  0.054820  1
  Sc  Sc13  1  0.250000  0.608848  0.945180  1
  Sc  Sc14  1  0.250000  0.891152  0.445180  1
  Sc  Sc15  1  0.750000  0.108848  0.554820  1
  Se  Se16  1  0.250000  0.946259  0.569206  1
  Se  Se17  1  0.750000  0.053741  0.430794  1
  Se  Se18  1  0.750000  0.446259  0.930794  1
  Se  Se19  1  0.250000  0.553741  0.069206  1
  Se  Se20  1  0.750000  0.768211  0.954633  1
  Se  Se21  1  0.250000  0.231789  0.045367  1
  Se  Se22  1  0.250000  0.268211  0.545367  1
  Se  Se23  1  0.750000  0.731789  0.454633  1
  Se  Se24  1  0.250000  0.954296  0.827462  1
  Se  Se25  1  0.750000  0.045704  0.172538  1
  Se  Se26  1  0.750000  0.454296  0.672538  1
  Se  Se27  1  0.250000  0.545704  0.327462  1
  Se  Se28  1  0.750000  0.126804  0.685873  1
  Se  Se29  1  0.250000  0.873196  0.314127  1
  Se  Se30  1  0.250000  0.626804  0.814127  1
  Se  Se31  1  0.750000  0.373196  0.185873  1
  Se  Se32  1  0.750000  0.697410  0.196985  1
  Se  Se33  1  0.250000  0.302590  0.803015  1
  Se  Se34  1  0.250000  0.197410  0.303015  1
  Se  Se35  1  0.750000  0.802590  0.696985  1
