# generated using pymatgen
data_Li2Dy3AgSn3
_symmetry_space_group_name_H-M   'P 1'
_cell_length_a   7.30433500
_cell_length_b   7.31914907
_cell_length_c   4.58791000
_cell_angle_alpha   90.00000000
_cell_angle_beta   90.00000000
_cell_angle_gamma   119.93306416
_symmetry_Int_Tables_number   1
_chemical_formula_structural   Li2Dy3AgSn3
_chemical_formula_sum   'Li2 Dy3 Ag1 Sn3'
_cell_volume   212.55891731
_cell_formula_units_Z   1
loop_
 _symmetry_equiv_pos_site_id
 _symmetry_equiv_pos_as_xyz
  1  'x, y, z'
loop_
 _atom_site_type_symbol
 _atom_site_label
 _atom_site_symmetry_multiplicity
 _atom_site_fract_x
 _atom_site_fract_y
 _atom_site_fract_z
 _atom_site_occupancy
  Li  Li0  1  0.004226  0.232918  0.500000  1
  Li  Li1  1  0.771309  0.767082  0.500000  1
  Dy  Dy2  1  0.001649  0.567957  0.000000  1
  Dy  Dy3  1  0.433692  0.432043  0.000000  1
  Dy  Dy4  1  0.554465  0.000000  0.000000  1
  Ag  Ag5  1  0.236699  0.000000  0.500000  1
  Sn  Sn6  1  0.990914  0.000000  0.000000  1
  Sn  Sn7  1  0.672761  0.338476  0.500000  1
  Sn  Sn8  1  0.334284  0.661524  0.500000  1
