# generated using pymatgen
data_Tb20Cd6TcRu
_symmetry_space_group_name_H-M   'P 1'
_cell_length_a   9.62895500
_cell_length_b   9.62895419
_cell_length_c   9.97075300
_cell_angle_alpha   90.00000000
_cell_angle_beta   90.00000000
_cell_angle_gamma   119.99999933
_symmetry_Int_Tables_number   1
_chemical_formula_structural   Tb20Cd6TcRu
_chemical_formula_sum   'Tb20 Cd6 Tc1 Ru1'
_cell_volume   800.60236791
_cell_formula_units_Z   1
loop_
 _symmetry_equiv_pos_site_id
 _symmetry_equiv_pos_as_xyz
  1  'x, y, z'
loop_
 _atom_site_type_symbol
 _atom_site_label
 _atom_site_symmetry_multiplicity
 _atom_site_fract_x
 _atom_site_fract_y
 _atom_site_fract_z
 _atom_site_occupancy
  Tb  Tb0  1  0.000000  0.000000  0.500113  1
  Tb  Tb1  1  0.000000  0.000000  0.999887  1
  Tb  Tb2  1  0.209959  0.790041  0.441009  1
  Tb  Tb3  1  0.209959  0.419917  0.441009  1
  Tb  Tb4  1  0.580083  0.790041  0.441009  1
  Tb  Tb5  1  0.789716  0.210284  0.559465  1
  Tb  Tb6  1  0.789716  0.579429  0.559465  1
  Tb  Tb7  1  0.420571  0.210284  0.559465  1
  Tb  Tb8  1  0.789716  0.210284  0.940535  1
  Tb  Tb9  1  0.789716  0.579429  0.940535  1
  Tb  Tb10  1  0.420571  0.210284  0.940535  1
  Tb  Tb11  1  0.209959  0.790041  0.058991  1
  Tb  Tb12  1  0.209959  0.419917  0.058991  1
  Tb  Tb13  1  0.580083  0.790041  0.058991  1
  Tb  Tb14  1  0.540008  0.459992  0.250000  1
  Tb  Tb15  1  0.540008  0.080017  0.250000  1
  Tb  Tb16  1  0.919983  0.459992  0.250000  1
  Tb  Tb17  1  0.458747  0.541253  0.750000  1
  Tb  Tb18  1  0.458747  0.917494  0.750000  1
  Tb  Tb19  1  0.082506  0.541253  0.750000  1
  Cd  Cd20  1  0.885525  0.114475  0.250000  1
  Cd  Cd21  1  0.885525  0.771052  0.250000  1
  Cd  Cd22  1  0.228948  0.114475  0.250000  1
  Cd  Cd23  1  0.114331  0.885669  0.750000  1
  Cd  Cd24  1  0.114331  0.228661  0.750000  1
  Cd  Cd25  1  0.771339  0.885669  0.750000  1
  Tc  Tc26  1  0.333333  0.666667  0.250000  1
  Ru  Ru27  1  0.666667  0.333333  0.750000  1
