# generated using pymatgen
data_KUBr6
_symmetry_space_group_name_H-M   'P 1'
_cell_length_a   8.10107924
_cell_length_b   8.10107888
_cell_length_c   14.08067238
_cell_angle_alpha   83.83817485
_cell_angle_beta   83.83817479
_cell_angle_gamma   120.52723434
_symmetry_Int_Tables_number   1
_chemical_formula_structural   KUBr6
_chemical_formula_sum   'K2 U2 Br12'
_cell_volume   777.12916453
_cell_formula_units_Z   2
loop_
 _symmetry_equiv_pos_site_id
 _symmetry_equiv_pos_as_xyz
  1  'x, y, z'
loop_
 _atom_site_type_symbol
 _atom_site_label
 _atom_site_symmetry_multiplicity
 _atom_site_fract_x
 _atom_site_fract_y
 _atom_site_fract_z
 _atom_site_occupancy
  K  K0  1  0.173594  0.337315  0.995190  1
  K  K1  1  0.337315  0.173594  0.495190  1
  U  U2  1  0.666511  0.840696  0.500138  1
  U  U3  1  0.840696  0.666511  0.000138  1
  Br  Br4  1  0.615244  0.717701  0.886782  1
  Br  Br5  1  0.717701  0.615244  0.386782  1
  Br  Br6  1  0.878613  0.437962  0.884643  1
  Br  Br7  1  0.615202  0.063546  0.615860  1
  Br  Br8  1  0.437962  0.878613  0.384643  1
  Br  Br9  1  0.982037  0.163542  0.387926  1
  Br  Br10  1  0.163542  0.982037  0.887926  1
  Br  Br11  1  0.898545  0.801988  0.612385  1
  Br  Br12  1  0.063546  0.615202  0.115860  1
  Br  Br13  1  0.519343  0.348159  0.111676  1
  Br  Br14  1  0.348159  0.519343  0.611676  1
  Br  Br15  1  0.801988  0.898545  0.112385  1
