# generated using pymatgen
data_Sr3Hf2Ga2SiO12
_symmetry_space_group_name_H-M   'P 1'
_cell_length_a   11.20157430
_cell_length_b   11.20157314
_cell_length_c   11.20157344
_cell_angle_alpha   109.22725660
_cell_angle_beta   109.22725682
_cell_angle_gamma   109.96025761
_symmetry_Int_Tables_number   1
_chemical_formula_structural   Sr3Hf2Ga2SiO12
_chemical_formula_sum   'Sr12 Hf8 Ga8 Si4 O48'
_cell_volume   1081.91083948
_cell_formula_units_Z   4
loop_
 _symmetry_equiv_pos_site_id
 _symmetry_equiv_pos_as_xyz
  1  'x, y, z'
loop_
 _atom_site_type_symbol
 _atom_site_label
 _atom_site_symmetry_multiplicity
 _atom_site_fract_x
 _atom_site_fract_y
 _atom_site_fract_z
 _atom_site_occupancy
  Sr  Sr0  1  0.375000  0.749006  0.874006  1
  Sr  Sr1  1  0.250000  0.250000  0.000000  1
  Sr  Sr2  1  0.999006  0.625000  0.874006  1
  Sr  Sr3  1  0.750994  0.125000  0.125994  1
  Sr  Sr4  1  0.375000  0.249006  0.374006  1
  Sr  Sr5  1  0.750000  0.750000  0.000000  1
  Sr  Sr6  1  0.500000  0.000000  0.500000  1
  Sr  Sr7  1  0.875000  0.500994  0.125994  1
  Sr  Sr8  1  0.499006  0.625000  0.374006  1
  Sr  Sr9  1  0.250994  0.125000  0.625994  1
  Sr  Sr10  1  0.000000  0.500000  0.500000  1
  Sr  Sr11  1  0.875000  0.000994  0.625994  1
  Hf  Hf12  1  0.125000  0.875000  0.750000  1
  Hf  Hf13  1  0.625000  0.875000  0.750000  1
  Hf  Hf14  1  0.125000  0.375000  0.750000  1
  Hf  Hf15  1  0.625000  0.375000  0.750000  1
  Hf  Hf16  1  0.125000  0.875000  0.250000  1
  Hf  Hf17  1  0.625000  0.875000  0.250000  1
  Hf  Hf18  1  0.125000  0.375000  0.250000  1
  Hf  Hf19  1  0.625000  0.375000  0.250000  1
  Ga  Ga20  1  0.501206  0.125000  0.876206  1
  Ga  Ga21  1  0.875000  0.251206  0.876206  1
  Ga  Ga22  1  0.375000  0.998794  0.123794  1
  Ga  Ga23  1  0.248794  0.625000  0.123794  1
  Ga  Ga24  1  0.001206  0.125000  0.376206  1
  Ga  Ga25  1  0.875000  0.751206  0.376206  1
  Ga  Ga26  1  0.375000  0.498794  0.623794  1
  Ga  Ga27  1  0.748794  0.625000  0.623794  1
  Si  Si28  1  0.000000  0.000000  0.000000  1
  Si  Si29  1  0.500000  0.500000  0.000000  1
  Si  Si30  1  0.750000  0.250000  0.500000  1
  Si  Si31  1  0.250000  0.750000  0.500000  1
  O  O32  1  0.326740  0.381877  0.866347  1
  O  O33  1  0.546522  0.976330  0.868384  1
  O  O34  1  0.526822  0.692526  0.767772  1
  O  O35  1  0.307474  0.075247  0.834296  1
  O  O36  1  0.026822  0.259050  0.834296  1
  O  O37  1  0.039607  0.984471  0.866347  1
  O  O38  1  0.226330  0.857946  0.929809  1
  O  O39  1  0.424753  0.192526  0.165704  1
  O  O40  1  0.523670  0.953478  0.131616  1
  O  O41  1  0.539607  0.673260  0.055136  1
  O  O42  1  0.928138  0.296522  0.070191  1
  O  O43  1  0.740950  0.575247  0.767772  1
  O  O44  1  0.203478  0.571862  0.929809  1
  O  O45  1  0.826740  0.960393  0.944864  1
  O  O46  1  0.118123  0.173260  0.133653  1
  O  O47  1  0.642054  0.273670  0.070191  1
  O  O48  1  0.015529  0.881877  0.055136  1
  O  O49  1  0.821862  0.392054  0.868384  1
  O  O50  1  0.515529  0.460393  0.133653  1
  O  O51  1  0.325247  0.990950  0.267772  1
  O  O52  1  0.442526  0.776822  0.267772  1
  O  O53  1  0.107946  0.678138  0.131616  1
  O  O54  1  0.009050  0.276822  0.334296  1
  O  O55  1  0.618123  0.484471  0.944864  1
  O  O56  1  0.240950  0.473178  0.165704  1
  O  O57  1  0.631877  0.265529  0.555136  1
  O  O58  1  0.142054  0.071862  0.368384  1
  O  O59  1  0.807474  0.973178  0.232228  1
  O  O60  1  0.924753  0.759050  0.232228  1
  O  O61  1  0.734471  0.289607  0.366347  1
  O  O62  1  0.428138  0.357946  0.631616  1
  O  O63  1  0.234471  0.868123  0.444864  1
  O  O64  1  0.607946  0.476330  0.429809  1
  O  O65  1  0.131877  0.576740  0.366347  1
  O  O66  1  0.423260  0.789607  0.555136  1
  O  O67  1  0.046522  0.178138  0.570191  1
  O  O68  1  0.509050  0.174753  0.732228  1
  O  O69  1  0.321862  0.453478  0.429809  1
  O  O70  1  0.710393  0.076740  0.444864  1
  O  O71  1  0.726330  0.796522  0.368384  1
  O  O72  1  0.825247  0.557474  0.334296  1
  O  O73  1  0.023670  0.892054  0.570191  1
  O  O74  1  0.210393  0.765529  0.633653  1
  O  O75  1  0.223178  0.490950  0.665704  1
  O  O76  1  0.942526  0.674753  0.665704  1
  O  O77  1  0.723178  0.057474  0.732228  1
  O  O78  1  0.703478  0.773670  0.631616  1
  O  O79  1  0.923260  0.368123  0.633653  1
