# generated using pymatgen
data_La11In(Hg2Pt)4
_symmetry_space_group_name_H-M   'P 1'
_cell_length_a   13.74523111
_cell_length_b   13.74523159
_cell_length_c   3.85976300
_cell_angle_alpha   90.00000000
_cell_angle_beta   90.00000000
_cell_angle_gamma   112.74917989
_symmetry_Int_Tables_number   1
_chemical_formula_structural   La11In(Hg2Pt)4
_chemical_formula_sum   'La11 In1 Hg8 Pt4'
_cell_volume   672.50099120
_cell_formula_units_Z   1
loop_
 _symmetry_equiv_pos_site_id
 _symmetry_equiv_pos_as_xyz
  1  'x, y, z'
loop_
 _atom_site_type_symbol
 _atom_site_label
 _atom_site_symmetry_multiplicity
 _atom_site_fract_x
 _atom_site_fract_y
 _atom_site_fract_z
 _atom_site_occupancy
  La  La0  1  0.306298  0.306298  0.000000  1
  La  La1  1  0.693702  0.693702  0.000000  1
  La  La2  1  0.000000  0.000000  0.000000  1
  La  La3  1  0.077997  0.419104  0.000000  1
  La  La4  1  0.922003  0.580896  0.000000  1
  La  La5  1  0.419104  0.077997  0.000000  1
  La  La6  1  0.580896  0.922003  0.000000  1
  La  La7  1  0.833384  0.166616  0.000000  1
  La  La8  1  0.166616  0.833384  0.000000  1
  La  La9  1  0.629495  0.370505  0.000000  1
  La  La10  1  0.370505  0.629495  0.000000  1
  In  In11  1  0.500000  0.500000  0.500000  1
  Hg  Hg12  1  0.842371  0.364614  0.500000  1
  Hg  Hg13  1  0.157629  0.635386  0.500000  1
  Hg  Hg14  1  0.364614  0.842371  0.500000  1
  Hg  Hg15  1  0.635386  0.157629  0.500000  1
  Hg  Hg16  1  0.066183  0.213845  0.500000  1
  Hg  Hg17  1  0.933817  0.786155  0.500000  1
  Hg  Hg18  1  0.213845  0.066183  0.500000  1
  Hg  Hg19  1  0.786155  0.933817  0.500000  1
  Pt  Pt20  1  0.253175  0.450694  0.500000  1
  Pt  Pt21  1  0.746825  0.549306  0.500000  1
  Pt  Pt22  1  0.450694  0.253175  0.500000  1
  Pt  Pt23  1  0.549306  0.746825  0.500000  1
