# generated using pymatgen
data_Dy11Er9Ir7Au5
_symmetry_space_group_name_H-M   'P 1'
_cell_length_a   11.11811231
_cell_length_b   11.14109131
_cell_length_c   6.32403751
_cell_angle_alpha   89.91775430
_cell_angle_beta   89.94001973
_cell_angle_gamma   89.54351765
_symmetry_Int_Tables_number   1
_chemical_formula_structural   Dy11Er9Ir7Au5
_chemical_formula_sum   'Dy11 Er9 Ir7 Au5'
_cell_volume   783.31918507
_cell_formula_units_Z   1
loop_
 _symmetry_equiv_pos_site_id
 _symmetry_equiv_pos_as_xyz
  1  'x, y, z'
loop_
 _atom_site_type_symbol
 _atom_site_label
 _atom_site_symmetry_multiplicity
 _atom_site_fract_x
 _atom_site_fract_y
 _atom_site_fract_z
 _atom_site_occupancy
  Dy  Dy0  1  0.299158  0.090674  0.363697  1
  Dy  Dy1  1  0.301180  0.907455  0.861563  1
  Dy  Dy2  1  0.697448  0.080224  0.859083  1
  Dy  Dy3  1  0.698422  0.905946  0.360586  1
  Dy  Dy4  1  0.581511  0.784700  0.875668  1
  Dy  Dy5  1  0.575680  0.206545  0.363215  1
  Dy  Dy6  1  0.417903  0.788964  0.375207  1
  Dy  Dy7  1  0.411183  0.207888  0.878033  1
  Dy  Dy8  1  0.214221  0.418985  0.623832  1
  Dy  Dy9  1  0.210282  0.582063  0.124540  1
  Dy  Dy10  1  0.793986  0.424737  0.137024  1
  Er  Er11  1  0.793604  0.588483  0.621382  1
  Er  Er12  1  0.909761  0.699558  0.135489  1
  Er  Er13  1  0.920238  0.303808  0.639742  1
  Er  Er14  1  0.091299  0.697762  0.637148  1
  Er  Er15  1  0.092963  0.303121  0.138512  1
  Er  Er16  1  0.998568  0.000429  0.499896  1
  Er  Er17  1  0.999544  0.001230  0.001531  1
  Er  Er18  1  0.496164  0.501893  0.001895  1
  Er  Er19  1  0.498465  0.504159  0.498799  1
  Ir  Ir20  1  0.653769  0.650242  0.251385  1
  Ir  Ir21  1  0.348657  0.347752  0.249073  1
  Ir  Ir22  1  0.345701  0.653360  0.749568  1
  Ir  Ir23  1  0.499434  0.999250  0.110886  1
  Ir  Ir24  1  0.499185  0.999953  0.612539  1
  Ir  Ir25  1  0.999573  0.501077  0.886504  1
  Ir  Ir26  1  0.000218  0.500875  0.389051  1
  Au  Au27  1  0.843444  0.158286  0.251185  1
  Au  Au28  1  0.845483  0.844713  0.751521  1
  Au  Au29  1  0.152345  0.156469  0.750721  1
  Au  Au30  1  0.154050  0.844046  0.251399  1
  Au  Au31  1  0.656559  0.345356  0.749323  1
