# generated using pymatgen
data_Nd8Hf11ZrSn16
_symmetry_space_group_name_H-M   'P 1'
_cell_length_a   7.81986030
_cell_length_b   7.83986203
_cell_length_c   14.66275600
_cell_angle_alpha   89.99523501
_cell_angle_beta   89.96691146
_cell_angle_gamma   89.97102729
_symmetry_Int_Tables_number   1
_chemical_formula_structural   Nd8Hf11ZrSn16
_chemical_formula_sum   'Nd8 Hf11 Zr1 Sn16'
_cell_volume   898.92382842
_cell_formula_units_Z   1
loop_
 _symmetry_equiv_pos_site_id
 _symmetry_equiv_pos_as_xyz
  1  'x, y, z'
loop_
 _atom_site_type_symbol
 _atom_site_label
 _atom_site_symmetry_multiplicity
 _atom_site_fract_x
 _atom_site_fract_y
 _atom_site_fract_z
 _atom_site_occupancy
  Nd  Nd0  1  0.511539  0.324554  0.908182  1
  Nd  Nd1  1  0.011424  0.175455  0.591728  1
  Nd  Nd2  1  0.488474  0.675292  0.408116  1
  Nd  Nd3  1  0.988728  0.824832  0.091863  1
  Nd  Nd4  1  0.488514  0.675330  0.091920  1
  Nd  Nd5  1  0.988373  0.824680  0.408177  1
  Nd  Nd6  1  0.511636  0.324820  0.591659  1
  Nd  Nd7  1  0.011523  0.175293  0.908194  1
  Hf  Hf8  1  0.846652  0.661186  0.630919  1
  Hf  Hf9  1  0.653393  0.161228  0.368979  1
  Hf  Hf10  1  0.153327  0.338772  0.131287  1
  Hf  Hf11  1  0.653551  0.161200  0.130954  1
  Hf  Hf12  1  0.153368  0.338812  0.368993  1
  Hf  Hf13  1  0.346422  0.838925  0.630578  1
  Hf  Hf14  1  0.846485  0.661409  0.868761  1
  Hf  Hf15  1  0.166805  0.512100  0.749849  1
  Hf  Hf16  1  0.667420  0.987614  0.749857  1
  Hf  Hf17  1  0.832900  0.487594  0.250033  1
  Hf  Hf18  1  0.333060  0.012619  0.250150  1
  Zr  Zr19  1  0.346059  0.838564  0.869617  1
  Sn  Sn20  1  0.316833  0.044459  0.044478  1
  Sn  Sn21  1  0.816614  0.455898  0.455940  1
  Sn  Sn22  1  0.683352  0.955853  0.544022  1
  Sn  Sn23  1  0.182707  0.542915  0.956312  1
  Sn  Sn24  1  0.684195  0.956189  0.956239  1
  Sn  Sn25  1  0.183375  0.544052  0.544031  1
  Sn  Sn26  1  0.316588  0.044058  0.455935  1
  Sn  Sn27  1  0.816898  0.456109  0.044016  1
  Sn  Sn28  1  0.540382  0.618218  0.749648  1
  Sn  Sn29  1  0.040028  0.881686  0.749683  1
  Sn  Sn30  1  0.459767  0.381709  0.250060  1
  Sn  Sn31  1  0.959704  0.118287  0.250059  1
  Sn  Sn32  1  0.314699  0.154208  0.749754  1
  Sn  Sn33  1  0.814580  0.346074  0.750019  1
  Sn  Sn34  1  0.685281  0.846072  0.250001  1
  Sn  Sn35  1  0.185343  0.653934  0.249991  1
