# generated using pymatgen
data_HoTm5TcOs
_symmetry_space_group_name_H-M   'P 1'
_cell_length_a   6.21863900
_cell_length_b   7.37138400
_cell_length_c   8.92262100
_cell_angle_alpha   90.00000000
_cell_angle_beta   90.00000000
_cell_angle_gamma   90.00000000
_symmetry_Int_Tables_number   1
_chemical_formula_structural   HoTm5TcOs
_chemical_formula_sum   'Ho2 Tm10 Tc2 Os2'
_cell_volume   409.01273273
_cell_formula_units_Z   2
loop_
 _symmetry_equiv_pos_site_id
 _symmetry_equiv_pos_as_xyz
  1  'x, y, z'
loop_
 _atom_site_type_symbol
 _atom_site_label
 _atom_site_symmetry_multiplicity
 _atom_site_fract_x
 _atom_site_fract_y
 _atom_site_fract_z
 _atom_site_occupancy
  Ho  Ho0  1  0.876969  0.538886  0.250000  1
  Ho  Ho1  1  0.623031  0.038886  0.250000  1
  Tm  Tm2  1  0.338194  0.675239  0.061136  1
  Tm  Tm3  1  0.161806  0.175239  0.438864  1
  Tm  Tm4  1  0.663871  0.324593  0.563490  1
  Tm  Tm5  1  0.836129  0.824593  0.936510  1
  Tm  Tm6  1  0.663871  0.324593  0.936510  1
  Tm  Tm7  1  0.836129  0.824593  0.563490  1
  Tm  Tm8  1  0.338194  0.675239  0.438864  1
  Tm  Tm9  1  0.161806  0.175239  0.061136  1
  Tm  Tm10  1  0.129895  0.459494  0.750000  1
  Tm  Tm11  1  0.370105  0.959494  0.750000  1
  Tc  Tc12  1  0.039792  0.883874  0.250000  1
  Tc  Tc13  1  0.460208  0.383874  0.250000  1
  Os  Os14  1  0.960095  0.118081  0.750000  1
  Os  Os15  1  0.539905  0.618081  0.750000  1
