# generated using pymatgen
data_Ti8Al10Si5Ir(Os2Rh)2
_symmetry_space_group_name_H-M   'P 1'
_cell_length_a   8.58439211
_cell_length_b   8.58785523
_cell_length_c   8.58297690
_cell_angle_alpha   120.24187534
_cell_angle_beta   119.64303695
_cell_angle_gamma   90.09265841
_symmetry_Int_Tables_number   1
_chemical_formula_structural   Ti8Al10Si5Ir(Os2Rh)2
_chemical_formula_sum   'Ti8 Al10 Si5 Ir1 Os4 Rh2'
_cell_volume   447.82562992
_cell_formula_units_Z   1
loop_
 _symmetry_equiv_pos_site_id
 _symmetry_equiv_pos_as_xyz
  1  'x, y, z'
loop_
 _atom_site_type_symbol
 _atom_site_label
 _atom_site_symmetry_multiplicity
 _atom_site_fract_x
 _atom_site_fract_y
 _atom_site_fract_z
 _atom_site_occupancy
  Ti  Ti0  1  0.796418  0.297215  0.091528  1
  Ti  Ti1  1  0.208427  0.300413  0.501208  1
  Ti  Ti2  1  0.204145  0.703258  0.504412  1
  Ti  Ti3  1  0.211114  0.709605  0.909479  1
  Ti  Ti4  1  0.799540  0.708571  0.499154  1
  Ti  Ti5  1  0.790245  0.291025  0.494011  1
  Ti  Ti6  1  0.374949  0.124198  0.748986  1
  Ti  Ti7  1  0.378396  0.626952  0.252522  1
  Al  Al8  1  0.841846  0.658672  0.816088  1
  Al  Al9  1  0.841455  0.021568  0.181298  1
  Al  Al10  1  0.839602  0.659294  0.179666  1
  Al  Al11  1  0.483556  0.660484  0.822422  1
  Al  Al12  1  0.378589  0.120829  0.258531  1
  Al  Al13  1  0.861494  0.121184  0.741440  1
  Al  Al14  1  0.621128  0.879154  0.258921  1
  Al  Al15  1  0.618406  0.360605  0.739117  1
  Al  Al16  1  0.616643  0.877515  0.738784  1
  Al  Al17  1  0.139473  0.880241  0.262881  1
  Si  Si18  1  0.998311  0.498903  0.500516  1
  Si  Si19  1  0.152831  0.346479  0.195025  1
  Si  Si20  1  0.153641  0.961488  0.808348  1
  Si  Si21  1  0.150493  0.348599  0.800174  1
  Si  Si22  1  0.543994  0.347851  0.196150  1
  Ir  Ir23  1  0.005957  0.493446  0.999591  1
  Os  Os24  1  0.005590  0.006173  0.513687  1
  Os  Os25  1  0.493477  0.006174  0.000374  1
  Os  Os26  1  0.493692  0.493327  0.999814  1
  Os  Os27  1  0.493012  0.492893  0.486542  1
  Rh  Rh28  1  0.006095  0.006784  0.999728  1
  Rh  Rh29  1  0.497474  0.997097  0.499603  1
