# generated using pymatgen
data_LiPr8NdSi6
_symmetry_space_group_name_H-M   'P 1'
_cell_length_a   7.73782088
_cell_length_b   7.73781944
_cell_length_c   8.96313990
_cell_angle_alpha   115.57211969
_cell_angle_beta   115.57211386
_cell_angle_gamma   90.00000444
_symmetry_Int_Tables_number   1
_chemical_formula_structural   LiPr8NdSi6
_chemical_formula_sum   'Li1 Pr8 Nd1 Si6'
_cell_volume   425.06617898
_cell_formula_units_Z   1
loop_
 _symmetry_equiv_pos_site_id
 _symmetry_equiv_pos_as_xyz
  1  'x, y, z'
loop_
 _atom_site_type_symbol
 _atom_site_label
 _atom_site_symmetry_multiplicity
 _atom_site_fract_x
 _atom_site_fract_y
 _atom_site_fract_z
 _atom_site_occupancy
  Li  Li0  1  0.500000  0.500000  0.000000  1
  Pr  Pr1  1  0.957527  0.816748  0.287380  1
  Pr  Pr2  1  0.329853  0.470632  0.287380  1
  Pr  Pr3  1  0.816748  0.329853  0.287380  1
  Pr  Pr4  1  0.470632  0.957527  0.287380  1
  Pr  Pr5  1  0.042473  0.183252  0.712620  1
  Pr  Pr6  1  0.670147  0.529368  0.712620  1
  Pr  Pr7  1  0.183252  0.670147  0.712620  1
  Pr  Pr8  1  0.529368  0.042473  0.712620  1
  Nd  Nd9  1  0.000000  0.000000  0.000000  1
  Si  Si10  1  0.763778  0.763778  0.527558  1
  Si  Si11  1  0.236222  0.236222  0.472442  1
  Si  Si12  1  0.613751  0.887822  0.000000  1
  Si  Si13  1  0.386249  0.112178  0.000000  1
  Si  Si14  1  0.887822  0.386249  0.000000  1
  Si  Si15  1  0.112178  0.613751  0.000000  1
