# generated using pymatgen
data_PrSn6IrRu2Rh
_symmetry_space_group_name_H-M   'P 1'
_cell_length_a   7.00313269
_cell_length_b   6.94291364
_cell_length_c   6.94291362
_cell_angle_alpha   89.90247141
_cell_angle_beta   119.71036841
_cell_angle_gamma   119.71036319
_symmetry_Int_Tables_number   1
_chemical_formula_structural   PrSn6IrRu2Rh
_chemical_formula_sum   'Pr1 Sn6 Ir1 Ru2 Rh1'
_cell_volume   240.97663783
_cell_formula_units_Z   1
loop_
 _symmetry_equiv_pos_site_id
 _symmetry_equiv_pos_as_xyz
  1  'x, y, z'
loop_
 _atom_site_type_symbol
 _atom_site_label
 _atom_site_symmetry_multiplicity
 _atom_site_fract_x
 _atom_site_fract_y
 _atom_site_fract_z
 _atom_site_occupancy
  Pr  Pr0  1  0.004588  0.003306  0.003306  1
  Sn  Sn1  1  0.655220  0.124382  0.124382  1
  Sn  Sn2  1  0.343486  0.470037  0.470037  1
  Sn  Sn3  1  0.999825  0.877707  0.528241  1
  Sn  Sn4  1  0.999825  0.528241  0.877707  1
  Sn  Sn5  1  0.499933  0.495809  0.993823  1
  Sn  Sn6  1  0.499933  0.993823  0.495809  1
  Ir  Ir7  1  0.637129  0.398772  0.398772  1
  Ru  Ru8  1  0.999671  0.251543  0.595209  1
  Ru  Ru9  1  0.999671  0.595209  0.251543  1
  Rh  Rh10  1  0.360717  0.761170  0.761170  1
