# generated using pymatgen
data_Cs3W2Br10N
_symmetry_space_group_name_H-M   'P 1'
_cell_length_a   7.83284100
_cell_length_b   7.83284100
_cell_length_c   20.02013000
_cell_angle_alpha   90.00000000
_cell_angle_beta   90.00000000
_cell_angle_gamma   90.00000000
_symmetry_Int_Tables_number   1
_chemical_formula_structural   Cs3W2Br10N
_chemical_formula_sum   'Cs6 W4 Br20 N2'
_cell_volume   1228.30300653
_cell_formula_units_Z   2
loop_
 _symmetry_equiv_pos_site_id
 _symmetry_equiv_pos_as_xyz
  1  'x, y, z'
loop_
 _atom_site_type_symbol
 _atom_site_label
 _atom_site_symmetry_multiplicity
 _atom_site_fract_x
 _atom_site_fract_y
 _atom_site_fract_z
 _atom_site_occupancy
  Cs  Cs0  1  0.500000  0.500000  0.000000  1
  Cs  Cs1  1  0.000000  0.000000  0.500000  1
  Cs  Cs2  1  0.000000  0.500000  0.250000  1
  Cs  Cs3  1  0.500000  0.000000  0.750000  1
  Cs  Cs4  1  0.500000  0.000000  0.250000  1
  Cs  Cs5  1  0.000000  0.500000  0.750000  1
  W  W6  1  0.500000  0.500000  0.407890  1
  W  W7  1  0.000000  0.000000  0.907890  1
  W  W8  1  0.500000  0.500000  0.592110  1
  W  W9  1  0.000000  0.000000  0.092110  1
  Br  Br10  1  0.766626  0.682614  0.399128  1
  Br  Br11  1  0.233374  0.317386  0.399128  1
  Br  Br12  1  0.733374  0.182614  0.899128  1
  Br  Br13  1  0.266626  0.817386  0.899128  1
  Br  Br14  1  0.682614  0.233374  0.399128  1
  Br  Br15  1  0.317386  0.766626  0.399128  1
  Br  Br16  1  0.182614  0.266626  0.899128  1
  Br  Br17  1  0.817386  0.733374  0.899128  1
  Br  Br18  1  0.233374  0.317386  0.600872  1
  Br  Br19  1  0.766626  0.682614  0.600872  1
  Br  Br20  1  0.266626  0.817386  0.100872  1
  Br  Br21  1  0.733374  0.182614  0.100872  1
  Br  Br22  1  0.317386  0.766626  0.600872  1
  Br  Br23  1  0.682614  0.233374  0.600872  1
  Br  Br24  1  0.817386  0.733374  0.100872  1
  Br  Br25  1  0.182614  0.266626  0.100872  1
  Br  Br26  1  0.500000  0.500000  0.269813  1
  Br  Br27  1  0.000000  0.000000  0.769813  1
  Br  Br28  1  0.500000  0.500000  0.730187  1
  Br  Br29  1  0.000000  0.000000  0.230187  1
  N  N30  1  0.500000  0.500000  0.500000  1
  N  N31  1  0.000000  0.000000  0.000000  1
