# generated using pymatgen
data_La8CdHgIr2
_symmetry_space_group_name_H-M   'P 1'
_cell_length_a   10.11796289
_cell_length_b   10.11796217
_cell_length_c   10.12537000
_cell_angle_alpha   59.97577783
_cell_angle_beta   59.97578020
_cell_angle_gamma   60.01873607
_symmetry_Int_Tables_number   1
_chemical_formula_structural   La8CdHgIr2
_chemical_formula_sum   'La16 Cd2 Hg2 Ir4'
_cell_volume   732.79813929
_cell_formula_units_Z   2
loop_
 _symmetry_equiv_pos_site_id
 _symmetry_equiv_pos_as_xyz
  1  'x, y, z'
loop_
 _atom_site_type_symbol
 _atom_site_label
 _atom_site_symmetry_multiplicity
 _atom_site_fract_x
 _atom_site_fract_y
 _atom_site_fract_z
 _atom_site_occupancy
  La  La0  1  0.597427  0.597427  0.597462  1
  La  La1  1  0.597427  0.597427  0.207685  1
  La  La2  1  0.597907  0.206248  0.597923  1
  La  La3  1  0.206248  0.597907  0.597923  1
  La  La4  1  0.060009  0.439698  0.440203  1
  La  La5  1  0.439698  0.060009  0.060090  1
  La  La6  1  0.439698  0.060009  0.440203  1
  La  La7  1  0.060009  0.439698  0.060090  1
  La  La8  1  0.439408  0.439408  0.060592  1
  La  La9  1  0.059406  0.059406  0.440594  1
  La  La10  1  0.189007  0.810562  0.810789  1
  La  La11  1  0.810562  0.189007  0.189642  1
  La  La12  1  0.810562  0.189007  0.810789  1
  La  La13  1  0.189007  0.810562  0.189642  1
  La  La14  1  0.810719  0.810719  0.189281  1
  La  La15  1  0.189339  0.189339  0.810661  1
  Cd  Cd16  1  0.829892  0.509436  0.830336  1
  Cd  Cd17  1  0.509436  0.829892  0.830336  1
  Hg  Hg18  1  0.831603  0.831603  0.832547  1
  Hg  Hg19  1  0.831603  0.831603  0.504247  1
  Ir  Ir20  1  0.391379  0.391379  0.390715  1
  Ir  Ir21  1  0.391379  0.391379  0.826528  1
  Ir  Ir22  1  0.391598  0.826679  0.390862  1
  Ir  Ir23  1  0.826679  0.391598  0.390862  1
