# generated using pymatgen
data_Ca2Tb3Ga3P9Ir19
_symmetry_space_group_name_H-M   'P 1'
_cell_length_a   12.86136500
_cell_length_b   12.86136304
_cell_length_c   3.97220200
_cell_angle_alpha   90.00000000
_cell_angle_beta   90.00000000
_cell_angle_gamma   119.99999218
_symmetry_Int_Tables_number   1
_chemical_formula_structural   Ca2Tb3Ga3P9Ir19
_chemical_formula_sum   'Ca2 Tb3 Ga3 P9 Ir19'
_cell_volume   569.03116479
_cell_formula_units_Z   1
loop_
 _symmetry_equiv_pos_site_id
 _symmetry_equiv_pos_as_xyz
  1  'x, y, z'
loop_
 _atom_site_type_symbol
 _atom_site_label
 _atom_site_symmetry_multiplicity
 _atom_site_fract_x
 _atom_site_fract_y
 _atom_site_fract_z
 _atom_site_occupancy
  Ca  Ca0  1  0.333333  0.666667  0.500000  1
  Ca  Ca1  1  0.666667  0.333333  0.500000  1
  Tb  Tb2  1  0.181980  0.181980  0.000000  1
  Tb  Tb3  1  0.818020  0.000000  0.000000  1
  Tb  Tb4  1  0.000000  0.818020  0.000000  1
  Ga  Ga5  1  0.358934  0.358934  0.500000  1
  Ga  Ga6  1  0.641066  0.000000  0.500000  1
  Ga  Ga7  1  0.000000  0.641066  0.500000  1
  P  P8  1  0.308663  0.823991  0.000000  1
  P  P9  1  0.176009  0.484671  0.000000  1
  P  P10  1  0.515329  0.691337  0.000000  1
  P  P11  1  0.823991  0.308663  0.000000  1
  P  P12  1  0.484671  0.176009  0.000000  1
  P  P13  1  0.691337  0.515329  0.000000  1
  P  P14  1  0.819499  0.819499  0.500000  1
  P  P15  1  0.180501  0.000000  0.500000  1
  P  P16  1  0.000000  0.180501  0.500000  1
  Ir  Ir17  1  0.204923  0.826034  0.500000  1
  Ir  Ir18  1  0.173966  0.378890  0.500000  1
  Ir  Ir19  1  0.621110  0.795077  0.500000  1
  Ir  Ir20  1  0.826034  0.204923  0.500000  1
  Ir  Ir21  1  0.378890  0.173966  0.500000  1
  Ir  Ir22  1  0.795077  0.621110  0.500000  1
  Ir  Ir23  1  0.131081  0.636298  0.000000  1
  Ir  Ir24  1  0.363702  0.494783  0.000000  1
  Ir  Ir25  1  0.505217  0.868919  0.000000  1
  Ir  Ir26  1  0.636298  0.131081  0.000000  1
  Ir  Ir27  1  0.494783  0.363702  0.000000  1
  Ir  Ir28  1  0.868919  0.505217  0.000000  1
  Ir  Ir29  1  0.551056  0.551056  0.500000  1
  Ir  Ir30  1  0.448944  0.000000  0.500000  1
  Ir  Ir31  1  0.000000  0.448944  0.500000  1
  Ir  Ir32  1  0.714388  0.714388  0.000000  1
  Ir  Ir33  1  0.285612  0.000000  0.000000  1
  Ir  Ir34  1  0.000000  0.285612  0.000000  1
  Ir  Ir35  1  0.000000  0.000000  0.500000  1
