# generated using pymatgen
data_BaSr2(LiSn2)4
_symmetry_space_group_name_H-M   'P 1'
_cell_length_a   9.86257515
_cell_length_b   9.86257406
_cell_length_c   6.84759256
_cell_angle_alpha   81.42053443
_cell_angle_beta   81.42053636
_cell_angle_gamma   39.29668709
_symmetry_Int_Tables_number   1
_chemical_formula_structural   BaSr2(LiSn2)4
_chemical_formula_sum   'Ba1 Sr2 Li4 Sn8'
_cell_volume   416.51881006
_cell_formula_units_Z   1
loop_
 _symmetry_equiv_pos_site_id
 _symmetry_equiv_pos_as_xyz
  1  'x, y, z'
loop_
 _atom_site_type_symbol
 _atom_site_label
 _atom_site_symmetry_multiplicity
 _atom_site_fract_x
 _atom_site_fract_y
 _atom_site_fract_z
 _atom_site_occupancy
  Ba  Ba0  1  0.680113  0.680113  0.684575  1
  Sr  Sr1  1  0.321499  0.321499  0.323891  1
  Sr  Sr2  1  0.999902  0.999902  0.000263  1
  Li  Li3  1  0.785459  0.785459  0.131571  1
  Li  Li4  1  0.214956  0.214956  0.871143  1
  Li  Li5  1  0.787677  0.212690  0.499017  1
  Li  Li6  1  0.212690  0.787677  0.499017  1
  Sn  Sn7  1  0.407268  0.889997  0.194602  1
  Sn  Sn8  1  0.592690  0.108432  0.804825  1
  Sn  Sn9  1  0.889997  0.407268  0.194602  1
  Sn  Sn10  1  0.129676  0.129676  0.556541  1
  Sn  Sn11  1  0.872690  0.872690  0.434610  1
  Sn  Sn12  1  0.486085  0.486085  0.796605  1
  Sn  Sn13  1  0.510867  0.510867  0.203913  1
  Sn  Sn14  1  0.108432  0.592690  0.804825  1
