# generated using pymatgen
data_NaSc(CO3)2
_symmetry_space_group_name_H-M   'P 1'
_cell_length_a   6.15718146
_cell_length_b   6.15718186
_cell_length_c   6.15718177
_cell_angle_alpha   47.20785020
_cell_angle_beta   47.20784691
_cell_angle_gamma   47.20784729
_symmetry_Int_Tables_number   1
_chemical_formula_structural   NaSc(CO3)2
_chemical_formula_sum   'Na1 Sc1 C2 O6'
_cell_volume   114.95405075
_cell_formula_units_Z   1
loop_
 _symmetry_equiv_pos_site_id
 _symmetry_equiv_pos_as_xyz
  1  'x, y, z'
loop_
 _atom_site_type_symbol
 _atom_site_label
 _atom_site_symmetry_multiplicity
 _atom_site_fract_x
 _atom_site_fract_y
 _atom_site_fract_z
 _atom_site_occupancy
  Na  Na0  1  0.000000  0.000000  0.000000  1
  Sc  Sc1  1  0.500000  0.500000  0.500000  1
  C  C2  1  0.241581  0.241581  0.241581  1
  C  C3  1  0.758419  0.758419  0.758419  1
  O  O4  1  0.721022  0.515204  0.037408  1
  O  O5  1  0.484795  0.962592  0.278979  1
  O  O6  1  0.037407  0.721022  0.515205  1
  O  O7  1  0.962593  0.278978  0.484795  1
  O  O8  1  0.515205  0.037408  0.721021  1
  O  O9  1  0.278978  0.484796  0.962592  1
