# generated using pymatgen
data_Tb3Y11Au20
_symmetry_space_group_name_H-M   'P 1'
_cell_length_a   8.76143562
_cell_length_b   8.76143468
_cell_length_c   10.45514201
_cell_angle_alpha   90.00252334
_cell_angle_beta   90.00252719
_cell_angle_gamma   107.05658878
_symmetry_Int_Tables_number   1
_chemical_formula_structural   Tb3Y11Au20
_chemical_formula_sum   'Tb3 Y11 Au20'
_cell_volume   767.26498885
_cell_formula_units_Z   1
loop_
 _symmetry_equiv_pos_site_id
 _symmetry_equiv_pos_as_xyz
  1  'x, y, z'
loop_
 _atom_site_type_symbol
 _atom_site_label
 _atom_site_symmetry_multiplicity
 _atom_site_fract_x
 _atom_site_fract_y
 _atom_site_fract_z
 _atom_site_occupancy
  Tb  Tb0  1  0.500000  0.500000  0.500000  1
  Tb  Tb1  1  0.186710  0.186710  0.687897  1
  Tb  Tb2  1  0.813290  0.813290  0.312103  1
  Y  Y3  1  0.693625  0.306375  0.000000  1
  Y  Y4  1  0.306375  0.693625  0.000000  1
  Y  Y5  1  0.806200  0.193800  0.500000  1
  Y  Y6  1  0.193800  0.806200  0.500000  1
  Y  Y7  1  0.000000  0.000000  0.000000  1
  Y  Y8  1  0.002722  0.502446  0.250026  1
  Y  Y9  1  0.997278  0.497554  0.749974  1
  Y  Y10  1  0.497554  0.997278  0.749974  1
  Y  Y11  1  0.502446  0.002722  0.250026  1
  Y  Y12  1  0.312697  0.312697  0.188240  1
  Y  Y13  1  0.687303  0.687303  0.811760  1
  Au  Au14  1  0.859988  0.149386  0.209284  1
  Au  Au15  1  0.140012  0.850614  0.790716  1
  Au  Au16  1  0.640016  0.350665  0.709537  1
  Au  Au17  1  0.649335  0.359984  0.290463  1
  Au  Au18  1  0.359984  0.649335  0.290463  1
  Au  Au19  1  0.350665  0.640016  0.709537  1
  Au  Au20  1  0.850614  0.140012  0.790716  1
  Au  Au21  1  0.149386  0.859988  0.209284  1
  Au  Au22  1  0.937111  0.645131  0.002575  1
  Au  Au23  1  0.062889  0.354869  0.997425  1
  Au  Au24  1  0.562950  0.854738  0.502353  1
  Au  Au25  1  0.145262  0.437050  0.497647  1
  Au  Au26  1  0.437050  0.145262  0.497647  1
  Au  Au27  1  0.854738  0.562950  0.502353  1
  Au  Au28  1  0.354869  0.062889  0.997425  1
  Au  Au29  1  0.645131  0.937111  0.002575  1
  Au  Au30  1  0.104845  0.104845  0.397079  1
  Au  Au31  1  0.895155  0.895155  0.602921  1
  Au  Au32  1  0.394756  0.394756  0.896781  1
  Au  Au33  1  0.605244  0.605244  0.103219  1
