# generated using pymatgen
data_Zr6Zn21AsRh2
_symmetry_space_group_name_H-M   'P 1'
_cell_length_a   8.77917835
_cell_length_b   8.77917764
_cell_length_c   8.77917821
_cell_angle_alpha   59.88003951
_cell_angle_beta   59.88004462
_cell_angle_gamma   59.88003832
_symmetry_Int_Tables_number   1
_chemical_formula_structural   Zr6Zn21AsRh2
_chemical_formula_sum   'Zr6 Zn21 As1 Rh2'
_cell_volume   477.15875047
_cell_formula_units_Z   1
loop_
 _symmetry_equiv_pos_site_id
 _symmetry_equiv_pos_as_xyz
  1  'x, y, z'
loop_
 _atom_site_type_symbol
 _atom_site_label
 _atom_site_symmetry_multiplicity
 _atom_site_fract_x
 _atom_site_fract_y
 _atom_site_fract_z
 _atom_site_occupancy
  Zr  Zr0  1  0.722293  0.286521  0.286521  1
  Zr  Zr1  1  0.277707  0.713479  0.713479  1
  Zr  Zr2  1  0.286521  0.722293  0.286521  1
  Zr  Zr3  1  0.713479  0.277707  0.713479  1
  Zr  Zr4  1  0.286521  0.286521  0.722293  1
  Zr  Zr5  1  0.713479  0.713479  0.277707  1
  Zn  Zn6  1  0.118936  0.118936  0.635780  1
  Zn  Zn7  1  0.118936  0.635780  0.118936  1
  Zn  Zn8  1  0.881064  0.881064  0.364220  1
  Zn  Zn9  1  0.881064  0.364220  0.881064  1
  Zn  Zn10  1  0.635780  0.118936  0.118936  1
  Zn  Zn11  1  0.364220  0.881064  0.881064  1
  Zn  Zn12  1  0.500000  0.000000  0.000000  1
  Zn  Zn13  1  0.000000  0.500000  0.500000  1
  Zn  Zn14  1  0.000000  0.500000  0.000000  1
  Zn  Zn15  1  0.500000  0.000000  0.500000  1
  Zn  Zn16  1  0.000000  0.000000  0.500000  1
  Zn  Zn17  1  0.500000  0.500000  0.000000  1
  Zn  Zn18  1  0.335209  0.335209  0.335209  1
  Zn  Zn19  1  0.664791  0.664791  0.664791  1
  Zn  Zn20  1  0.329464  0.329464  0.004536  1
  Zn  Zn21  1  0.329464  0.004536  0.329464  1
  Zn  Zn22  1  0.670536  0.670536  0.995464  1
  Zn  Zn23  1  0.670536  0.995464  0.670536  1
  Zn  Zn24  1  0.004536  0.329464  0.329464  1
  Zn  Zn25  1  0.995464  0.670536  0.670536  1
  Zn  Zn26  1  0.000000  0.000000  0.000000  1
  As  As27  1  0.500000  0.500000  0.500000  1
  Rh  Rh28  1  0.118020  0.118020  0.118020  1
  Rh  Rh29  1  0.881980  0.881980  0.881980  1
