# generated using pymatgen
data_SmDy(ZnPb)2
_symmetry_space_group_name_H-M   'P 1'
_cell_length_a   4.63353800
_cell_length_b   4.63353833
_cell_length_c   16.05596000
_cell_angle_alpha   90.00000000
_cell_angle_beta   90.00000000
_cell_angle_gamma   119.99999763
_symmetry_Int_Tables_number   1
_chemical_formula_structural   SmDy(ZnPb)2
_chemical_formula_sum   'Sm2 Dy2 Zn4 Pb4'
_cell_volume   298.53304363
_cell_formula_units_Z   2
loop_
 _symmetry_equiv_pos_site_id
 _symmetry_equiv_pos_as_xyz
  1  'x, y, z'
loop_
 _atom_site_type_symbol
 _atom_site_label
 _atom_site_symmetry_multiplicity
 _atom_site_fract_x
 _atom_site_fract_y
 _atom_site_fract_z
 _atom_site_occupancy
  Sm  Sm0  1  0.000000  0.000000  0.000000  1
  Sm  Sm1  1  0.000000  0.000000  0.500000  1
  Dy  Dy2  1  0.000000  0.000000  0.250000  1
  Dy  Dy3  1  0.000000  0.000000  0.750000  1
  Zn  Zn4  1  0.666666  0.333334  0.165508  1
  Zn  Zn5  1  0.666666  0.333334  0.334492  1
  Zn  Zn6  1  0.333334  0.666668  0.665508  1
  Zn  Zn7  1  0.333334  0.666668  0.834492  1
  Pb  Pb8  1  0.333334  0.666668  0.112223  1
  Pb  Pb9  1  0.333334  0.666668  0.387777  1
  Pb  Pb10  1  0.666666  0.333334  0.612223  1
  Pb  Pb11  1  0.666666  0.333334  0.887777  1
