# generated using pymatgen
data_DyY2Mg3Al2Hg
_symmetry_space_group_name_H-M   'P 1'
_cell_length_a   7.49809023
_cell_length_b   7.49299843
_cell_length_c   4.43360900
_cell_angle_alpha   90.00000000
_cell_angle_beta   90.00000000
_cell_angle_gamma   119.97755761
_symmetry_Int_Tables_number   1
_chemical_formula_structural   DyY2Mg3Al2Hg
_chemical_formula_sum   'Dy1 Y2 Mg3 Al2 Hg1'
_cell_volume   215.77071212
_cell_formula_units_Z   1
loop_
 _symmetry_equiv_pos_site_id
 _symmetry_equiv_pos_as_xyz
  1  'x, y, z'
loop_
 _atom_site_type_symbol
 _atom_site_label
 _atom_site_symmetry_multiplicity
 _atom_site_fract_x
 _atom_site_fract_y
 _atom_site_fract_z
 _atom_site_occupancy
  Dy  Dy0  1  0.000000  0.575256  0.000000  1
  Y  Y1  1  0.424923  0.424869  0.000000  1
  Y  Y2  1  0.575077  0.999945  0.000000  1
  Mg  Mg3  1  0.753228  0.753144  0.500000  1
  Mg  Mg4  1  0.246772  0.999916  0.500000  1
  Mg  Mg5  1  0.000000  0.246891  0.500000  1
  Al  Al6  1  0.666779  0.333445  0.500000  1
  Al  Al7  1  0.333221  0.666668  0.500000  1
  Hg  Hg8  1  0.000000  0.999866  0.000000  1
