# generated using pymatgen
data_LiHf7(V3Ge4)4
_symmetry_space_group_name_H-M   'P 1'
_cell_length_a   6.60436491
_cell_length_b   6.73044168
_cell_length_c   12.76386085
_cell_angle_alpha   89.86439830
_cell_angle_beta   89.79782957
_cell_angle_gamma   89.93120799
_symmetry_Int_Tables_number   1
_chemical_formula_structural   LiHf7(V3Ge4)4
_chemical_formula_sum   'Li1 Hf7 V12 Ge16'
_cell_volume   567.35182796
_cell_formula_units_Z   1
loop_
 _symmetry_equiv_pos_site_id
 _symmetry_equiv_pos_as_xyz
  1  'x, y, z'
loop_
 _atom_site_type_symbol
 _atom_site_label
 _atom_site_symmetry_multiplicity
 _atom_site_fract_x
 _atom_site_fract_y
 _atom_site_fract_z
 _atom_site_occupancy
  Li  Li0  1  0.971734  0.827738  0.084140  1
  Hf  Hf1  1  0.491637  0.671559  0.092979  1
  Hf  Hf2  1  0.992043  0.825265  0.408787  1
  Hf  Hf3  1  0.513529  0.326655  0.591023  1
  Hf  Hf4  1  0.012251  0.176342  0.909911  1
  Hf  Hf5  1  0.512683  0.326509  0.910792  1
  Hf  Hf6  1  0.013388  0.172604  0.591176  1
  Hf  Hf7  1  0.489374  0.674719  0.405625  1
  V  V8  1  0.345298  0.009788  0.251515  1
  V  V9  1  0.836518  0.484605  0.253496  1
  V  V10  1  0.661523  0.989390  0.750528  1
  V  V11  1  0.161607  0.507972  0.749822  1
  V  V12  1  0.659210  0.165896  0.126772  1
  V  V13  1  0.160959  0.340497  0.374239  1
  V  V14  1  0.336789  0.841571  0.625716  1
  V  V15  1  0.830596  0.656770  0.873904  1
  V  V16  1  0.338411  0.841653  0.874918  1
  V  V17  1  0.837250  0.657023  0.625964  1
  V  V18  1  0.667472  0.158532  0.373878  1
  V  V19  1  0.169849  0.339158  0.126153  1
  Ge  Ge20  1  0.702607  0.851552  0.245807  1
  Ge  Ge21  1  0.180321  0.657304  0.241480  1
  Ge  Ge22  1  0.309357  0.147567  0.750940  1
  Ge  Ge23  1  0.808740  0.350963  0.750790  1
  Ge  Ge24  1  0.676952  0.954980  0.958870  1
  Ge  Ge25  1  0.179367  0.546516  0.542730  1
  Ge  Ge26  1  0.323880  0.047547  0.456667  1
  Ge  Ge27  1  0.828554  0.462272  0.045844  1
  Ge  Ge28  1  0.311562  0.034995  0.046088  1
  Ge  Ge29  1  0.821654  0.453868  0.457358  1
  Ge  Ge30  1  0.679026  0.952007  0.543272  1
  Ge  Ge31  1  0.176256  0.549729  0.957520  1
  Ge  Ge32  1  0.465074  0.377180  0.252337  1
  Ge  Ge33  1  0.972342  0.121343  0.246838  1
  Ge  Ge34  1  0.530283  0.624205  0.750242  1
  Ge  Ge35  1  0.031905  0.873728  0.751878  1
