# generated using pymatgen
data_AcLa3(AuCl6)4
_symmetry_space_group_name_H-M   'P 1'
_cell_length_a   7.84201835
_cell_length_b   10.21877084
_cell_length_c   14.70119500
_cell_angle_alpha   103.32190861
_cell_angle_beta   96.25235176
_cell_angle_gamma   111.99317584
_symmetry_Int_Tables_number   1
_chemical_formula_structural   AcLa3(AuCl6)4
_chemical_formula_sum   'Ac1 La3 Au4 Cl24'
_cell_volume   1037.79245824
_cell_formula_units_Z   1
loop_
 _symmetry_equiv_pos_site_id
 _symmetry_equiv_pos_as_xyz
  1  'x, y, z'
loop_
 _atom_site_type_symbol
 _atom_site_label
 _atom_site_symmetry_multiplicity
 _atom_site_fract_x
 _atom_site_fract_y
 _atom_site_fract_z
 _atom_site_occupancy
  Ac  Ac0  1  0.580847  0.926923  0.622293  1
  La  La1  1  0.027540  0.687849  0.128383  1
  La  La2  1  0.418088  0.074349  0.373065  1
  La  La3  1  0.976447  0.316652  0.876088  1
  Au  Au4  1  0.291277  0.631675  0.765493  1
  Au  Au5  1  0.497621  0.495037  0.497637  1
  Au  Au6  1  0.707868  0.367777  0.236320  1
  Au  Au7  1  0.000849  0.000744  0.001014  1
  Cl  Cl8  1  0.778716  0.094360  0.971983  1
  Cl  Cl9  1  0.725619  0.156482  0.260583  1
  Cl  Cl10  1  0.271982  0.843494  0.742590  1
  Cl  Cl11  1  0.773150  0.795605  0.025817  1
  Cl  Cl12  1  0.619991  0.201704  0.751357  1
  Cl  Cl13  1  0.307918  0.417207  0.785301  1
  Cl  Cl14  1  0.691131  0.582240  0.216136  1
  Cl  Cl15  1  0.297392  0.614867  0.496701  1
  Cl  Cl16  1  0.229376  0.206872  0.977591  1
  Cl  Cl17  1  0.754203  0.717859  0.520279  1
  Cl  Cl18  1  0.221902  0.905739  0.028667  1
  Cl  Cl19  1  0.728919  0.052496  0.476245  1
  Cl  Cl20  1  0.602245  0.722209  0.749382  1
  Cl  Cl21  1  0.961115  0.064215  0.737459  1
  Cl  Cl22  1  0.243010  0.271205  0.473813  1
  Cl  Cl23  1  0.384191  0.806738  0.253131  1
  Cl  Cl24  1  0.978522  0.540264  0.778300  1
  Cl  Cl25  1  0.763070  0.437469  0.982674  1
  Cl  Cl26  1  0.242649  0.568209  0.021829  1
  Cl  Cl27  1  0.019897  0.457942  0.222077  1
  Cl  Cl28  1  0.397183  0.275839  0.252865  1
  Cl  Cl29  1  0.266053  0.950172  0.511257  1
  Cl  Cl30  1  0.694980  0.373041  0.498574  1
  Cl  Cl31  1  0.046253  0.942770  0.265093  1
