# generated using pymatgen
data_Dy6Al24Os3Ru4Pt
_symmetry_space_group_name_H-M   'P 1'
_cell_length_a   8.81711368
_cell_length_b   8.80755603
_cell_length_c   9.57310751
_cell_angle_alpha   89.95903840
_cell_angle_beta   89.80693936
_cell_angle_gamma   119.83963426
_symmetry_Int_Tables_number   1
_chemical_formula_structural   Dy6Al24Os3Ru4Pt
_chemical_formula_sum   'Dy6 Al24 Os3 Ru4 Pt1'
_cell_volume   644.85317118
_cell_formula_units_Z   1
loop_
 _symmetry_equiv_pos_site_id
 _symmetry_equiv_pos_as_xyz
  1  'x, y, z'
loop_
 _atom_site_type_symbol
 _atom_site_label
 _atom_site_symmetry_multiplicity
 _atom_site_fract_x
 _atom_site_fract_y
 _atom_site_fract_z
 _atom_site_occupancy
  Dy  Dy0  1  0.192144  0.807709  0.251165  1
  Dy  Dy1  1  0.192633  0.385263  0.251970  1
  Dy  Dy2  1  0.613299  0.804604  0.251870  1
  Dy  Dy3  1  0.807856  0.192291  0.748835  1
  Dy  Dy4  1  0.807367  0.614737  0.748030  1
  Dy  Dy5  1  0.386701  0.195396  0.748130  1
  Al  Al6  1  0.561574  0.437469  0.249667  1
  Al  Al7  1  0.560745  0.120579  0.249729  1
  Al  Al8  1  0.875458  0.437044  0.252381  1
  Al  Al9  1  0.438426  0.562531  0.750333  1
  Al  Al10  1  0.439255  0.879421  0.750271  1
  Al  Al11  1  0.124542  0.562956  0.747619  1
  Al  Al12  1  0.326606  0.163646  0.422923  1
  Al  Al13  1  0.836995  0.163314  0.423942  1
  Al  Al14  1  0.836603  0.673268  0.423797  1
  Al  Al15  1  0.673394  0.836354  0.577077  1
  Al  Al16  1  0.163005  0.836686  0.576058  1
  Al  Al17  1  0.163397  0.326732  0.576203  1
  Al  Al18  1  0.674750  0.836476  0.921669  1
  Al  Al19  1  0.166996  0.842411  0.922331  1
  Al  Al20  1  0.167546  0.324788  0.921988  1
  Al  Al21  1  0.325250  0.163524  0.078331  1
  Al  Al22  1  0.833004  0.157589  0.077669  1
  Al  Al23  1  0.832454  0.675212  0.078012  1
  Al  Al24  1  0.667062  0.331969  0.518468  1
  Al  Al25  1  0.332938  0.668031  0.481532  1
  Al  Al26  1  0.337890  0.670554  0.018853  1
  Al  Al27  1  0.662110  0.329446  0.981147  1
  Al  Al28  1  0.000443  0.000831  0.250101  1
  Al  Al29  1  0.999557  0.999169  0.749899  1
  Os  Os30  1  0.500000  0.500000  0.500000  1
  Os  Os31  1  0.000000  0.500000  0.500000  1
  Os  Os32  1  0.500000  0.500000  0.000000  1
  Ru  Ru33  1  0.000000  0.000000  0.500000  1
  Ru  Ru34  1  0.000000  0.000000  0.000000  1
  Ru  Ru35  1  0.500000  0.000000  0.500000  1
  Ru  Ru36  1  0.500000  0.000000  0.000000  1
  Pt  Pt37  1  0.000000  0.500000  0.000000  1
