# generated using pymatgen
data_HoSc11ZnInCo4
_symmetry_space_group_name_H-M   'P 1'
_cell_length_a   7.80864064
_cell_length_b   7.81610678
_cell_length_c   7.81613143
_cell_angle_alpha   111.69463346
_cell_angle_beta   110.64847671
_cell_angle_gamma   106.15931243
_symmetry_Int_Tables_number   1
_chemical_formula_structural   HoSc11ZnInCo4
_chemical_formula_sum   'Ho1 Sc11 Zn1 In1 Co4'
_cell_volume   366.10940791
_cell_formula_units_Z   1
loop_
 _symmetry_equiv_pos_site_id
 _symmetry_equiv_pos_as_xyz
  1  'x, y, z'
loop_
 _atom_site_type_symbol
 _atom_site_label
 _atom_site_symmetry_multiplicity
 _atom_site_fract_x
 _atom_site_fract_y
 _atom_site_fract_z
 _atom_site_occupancy
  Ho  Ho0  1  0.972336  0.770084  0.202250  1
  Sc  Sc1  1  0.318536  0.614457  0.303303  1
  Sc  Sc2  1  0.679645  0.379326  0.691742  1
  Sc  Sc3  1  0.318537  0.015233  0.704080  1
  Sc  Sc4  1  0.679645  0.987906  0.300319  1
  Sc  Sc5  1  0.188086  0.286859  0.471263  1
  Sc  Sc6  1  0.812384  0.716786  0.535077  1
  Sc  Sc7  1  0.188087  0.716822  0.901228  1
  Sc  Sc8  1  0.812384  0.277307  0.095598  1
  Sc  Sc9  1  0.433531  0.228339  0.205191  1
  Sc  Sc10  1  0.563202  0.770064  0.793138  1
  Sc  Sc11  1  0.020536  0.230732  0.789803  1
  Zn  Zn12  1  0.999151  0.006523  0.992628  1
  In  In13  1  0.492500  0.496252  0.996248  1
  Co  Co14  1  0.124745  0.619639  0.505105  1
  Co  Co15  1  0.882120  0.382091  0.500031  1
  Co  Co16  1  0.377129  0.003597  0.373533  1
  Co  Co17  1  0.637446  0.997982  0.639464  1
