# generated using pymatgen
data_Hf11Th8ScGe16
_symmetry_space_group_name_H-M   'P 1'
_cell_length_a   7.39570584
_cell_length_b   7.47977559
_cell_length_c   14.12618414
_cell_angle_alpha   89.97618559
_cell_angle_beta   90.03946047
_cell_angle_gamma   89.92925701
_symmetry_Int_Tables_number   1
_chemical_formula_structural   Hf11Th8ScGe16
_chemical_formula_sum   'Hf11 Th8 Sc1 Ge16'
_cell_volume   781.43451420
_cell_formula_units_Z   1
loop_
 _symmetry_equiv_pos_site_id
 _symmetry_equiv_pos_as_xyz
  1  'x, y, z'
loop_
 _atom_site_type_symbol
 _atom_site_label
 _atom_site_symmetry_multiplicity
 _atom_site_fract_x
 _atom_site_fract_y
 _atom_site_fract_z
 _atom_site_occupancy
  Hf  Hf0  1  0.171680  0.499193  0.749949  1
  Hf  Hf1  1  0.826618  0.499618  0.250607  1
  Hf  Hf2  1  0.328537  0.000200  0.250298  1
  Hf  Hf3  1  0.672459  0.000268  0.750014  1
  Hf  Hf4  1  0.341253  0.165595  0.624916  1
  Hf  Hf5  1  0.658976  0.834786  0.375384  1
  Hf  Hf6  1  0.158207  0.665452  0.374407  1
  Hf  Hf7  1  0.658586  0.834997  0.125119  1
  Hf  Hf8  1  0.841154  0.334394  0.625096  1
  Hf  Hf9  1  0.341444  0.165335  0.874934  1
  Hf  Hf10  1  0.841567  0.334527  0.875342  1
  Th  Th11  1  0.994908  0.173266  0.095682  1
  Th  Th12  1  0.004826  0.826785  0.903910  1
  Th  Th13  1  0.505244  0.673388  0.904187  1
  Th  Th14  1  0.005116  0.826768  0.595446  1
  Th  Th15  1  0.495952  0.325870  0.095635  1
  Th  Th16  1  0.994642  0.173296  0.404595  1
  Th  Th17  1  0.494970  0.326903  0.404802  1
  Th  Th18  1  0.504753  0.673090  0.595399  1
  Sc  Sc19  1  0.158237  0.664614  0.124628  1
  Ge  Ge20  1  0.179471  0.456752  0.545005  1
  Ge  Ge21  1  0.820780  0.543396  0.455328  1
  Ge  Ge22  1  0.320551  0.956837  0.455210  1
  Ge  Ge23  1  0.818001  0.543789  0.044371  1
  Ge  Ge24  1  0.679148  0.043589  0.545013  1
  Ge  Ge25  1  0.179822  0.456040  0.953714  1
  Ge  Ge26  1  0.679779  0.044035  0.955246  1
  Ge  Ge27  1  0.321455  0.957233  0.044755  1
  Ge  Ge28  1  0.042856  0.133264  0.750040  1
  Ge  Ge29  1  0.956983  0.866883  0.249998  1
  Ge  Ge30  1  0.458495  0.633686  0.250605  1
  Ge  Ge31  1  0.543088  0.366275  0.749888  1
  Ge  Ge32  1  0.309647  0.866810  0.750006  1
  Ge  Ge33  1  0.690564  0.133794  0.250240  1
  Ge  Ge34  1  0.190418  0.365814  0.250321  1
  Ge  Ge35  1  0.809813  0.633456  0.749912  1
