# generated using pymatgen
data_Ho3LuAl18(Ir2Pt)2
_symmetry_space_group_name_H-M   'P 1'
_cell_length_a   7.55777060
_cell_length_b   7.56263648
_cell_length_c   9.42853825
_cell_angle_alpha   89.95271072
_cell_angle_beta   89.91225071
_cell_angle_gamma   119.62082496
_symmetry_Int_Tables_number   1
_chemical_formula_structural   Ho3LuAl18(Ir2Pt)2
_chemical_formula_sum   'Ho3 Lu1 Al18 Ir4 Pt2'
_cell_volume   468.47607219
_cell_formula_units_Z   1
loop_
 _symmetry_equiv_pos_site_id
 _symmetry_equiv_pos_as_xyz
  1  'x, y, z'
loop_
 _atom_site_type_symbol
 _atom_site_label
 _atom_site_symmetry_multiplicity
 _atom_site_fract_x
 _atom_site_fract_y
 _atom_site_fract_z
 _atom_site_occupancy
  Ho  Ho0  1  0.995711  0.671054  0.251234  1
  Ho  Ho1  1  0.004943  0.329134  0.748765  1
  Ho  Ho2  1  0.670586  0.994918  0.251297  1
  Lu  Lu3  1  0.328132  0.004959  0.748057  1
  Al  Al4  1  0.128208  0.127747  0.250577  1
  Al  Al5  1  0.872371  0.872078  0.749462  1
  Al  Al6  1  0.001110  0.331507  0.077135  1
  Al  Al7  1  0.999966  0.669114  0.921983  1
  Al  Al8  1  0.000624  0.665440  0.575237  1
  Al  Al9  1  0.334905  0.999801  0.426465  1
  Al  Al10  1  0.999827  0.334875  0.425652  1
  Al  Al11  1  0.664248  0.000310  0.575515  1
  Al  Al12  1  0.667509  0.999267  0.921875  1
  Al  Al13  1  0.331671  0.000998  0.075900  1
  Al  Al14  1  0.332362  0.332063  0.552508  1
  Al  Al15  1  0.667776  0.667696  0.449136  1
  Al  Al16  1  0.669104  0.668955  0.058686  1
  Al  Al17  1  0.331134  0.330548  0.939565  1
  Al  Al18  1  0.340278  0.546801  0.253262  1
  Al  Al19  1  0.659215  0.451985  0.747044  1
  Al  Al20  1  0.547143  0.339837  0.253144  1
  Al  Al21  1  0.452691  0.660621  0.747084  1
  Ir  Ir22  1  0.328053  0.671993  0.500369  1
  Ir  Ir23  1  0.671660  0.327806  0.500388  1
  Ir  Ir24  1  0.000311  0.000254  0.999478  1
  Ir  Ir25  1  0.000284  0.000249  0.500524  1
  Pt  Pt26  1  0.672390  0.327756  0.999740  1
  Pt  Pt27  1  0.327786  0.672237  0.999918  1
