# generated using pymatgen
data_Sc12ZnCo4Ir
_symmetry_space_group_name_H-M   'P 1'
_cell_length_a   7.68591920
_cell_length_b   7.68591886
_cell_length_c   7.68591956
_cell_angle_alpha   110.93860129
_cell_angle_beta   111.08573236
_cell_angle_gamma   106.43146644
_symmetry_Int_Tables_number   1
_chemical_formula_structural   Sc12ZnCo4Ir
_chemical_formula_sum   'Sc12 Zn1 Co4 Ir1'
_cell_volume   348.78131047
_cell_formula_units_Z   1
loop_
 _symmetry_equiv_pos_site_id
 _symmetry_equiv_pos_as_xyz
  1  'x, y, z'
loop_
 _atom_site_type_symbol
 _atom_site_label
 _atom_site_symmetry_multiplicity
 _atom_site_fract_x
 _atom_site_fract_y
 _atom_site_fract_z
 _atom_site_occupancy
  Sc  Sc0  1  0.426241  0.230264  0.195977  1
  Sc  Sc1  1  0.573759  0.769736  0.804023  1
  Sc  Sc2  1  0.034288  0.230264  0.804023  1
  Sc  Sc3  1  0.965712  0.769736  0.195977  1
  Sc  Sc4  1  0.317860  0.618940  0.301079  1
  Sc  Sc5  1  0.682140  0.381060  0.698921  1
  Sc  Sc6  1  0.317860  0.016780  0.698921  1
  Sc  Sc7  1  0.682140  0.983220  0.301079  1
  Sc  Sc8  1  0.183770  0.276876  0.460646  1
  Sc  Sc9  1  0.816230  0.723123  0.539354  1
  Sc  Sc10  1  0.183770  0.723123  0.906893  1
  Sc  Sc11  1  0.816230  0.276876  0.093107  1
  Zn  Zn12  1  0.500000  0.500000  0.000000  1
  Co  Co13  1  0.361380  0.000000  0.361380  1
  Co  Co14  1  0.638620  0.000000  0.638620  1
  Co  Co15  1  0.119350  0.619350  0.500000  1
  Co  Co16  1  0.880650  0.380650  0.500000  1
  Ir  Ir17  1  0.000000  0.000000  0.000000  1
