# generated using pymatgen
data_Sr3(IrO5)2
_symmetry_space_group_name_H-M   'P 1'
_cell_length_a   7.86798716
_cell_length_b   7.86798739
_cell_length_c   8.14426744
_cell_angle_alpha   72.30027179
_cell_angle_beta   72.30026223
_cell_angle_gamma   90.54706569
_symmetry_Int_Tables_number   1
_chemical_formula_structural   Sr3(IrO5)2
_chemical_formula_sum   'Sr6 Ir4 O20'
_cell_volume   454.67235708
_cell_formula_units_Z   2
loop_
 _symmetry_equiv_pos_site_id
 _symmetry_equiv_pos_as_xyz
  1  'x, y, z'
loop_
 _atom_site_type_symbol
 _atom_site_label
 _atom_site_symmetry_multiplicity
 _atom_site_fract_x
 _atom_site_fract_y
 _atom_site_fract_z
 _atom_site_occupancy
  Sr  Sr0  1  0.953596  0.744148  0.005137  1
  Sr  Sr1  1  0.255852  0.046404  0.494863  1
  Sr  Sr2  1  0.046404  0.255852  0.994863  1
  Sr  Sr3  1  0.744148  0.953596  0.505137  1
  Sr  Sr4  1  0.500000  0.500000  0.000000  1
  Sr  Sr5  1  0.500000  0.500000  0.500000  1
  Ir  Ir6  1  0.049477  0.417647  0.341493  1
  Ir  Ir7  1  0.582353  0.950523  0.158507  1
  Ir  Ir8  1  0.950523  0.582353  0.658507  1
  Ir  Ir9  1  0.417647  0.049477  0.841493  1
  O  O10  1  0.948389  0.353144  0.606168  1
  O  O11  1  0.646856  0.051611  0.893832  1
  O  O12  1  0.051611  0.646856  0.393832  1
  O  O13  1  0.353144  0.948389  0.106168  1
  O  O14  1  0.827125  0.454781  0.308517  1
  O  O15  1  0.545219  0.172875  0.191483  1
  O  O16  1  0.172875  0.545219  0.691483  1
  O  O17  1  0.454781  0.827125  0.808517  1
  O  O18  1  0.160562  0.518396  0.084140  1
  O  O19  1  0.481604  0.839438  0.415860  1
  O  O20  1  0.839438  0.481604  0.915860  1
  O  O21  1  0.518396  0.160562  0.584140  1
  O  O22  1  0.027323  0.176116  0.338559  1
  O  O23  1  0.823884  0.972677  0.161441  1
  O  O24  1  0.972677  0.823884  0.661441  1
  O  O25  1  0.176116  0.027323  0.838559  1
  O  O26  1  0.715188  0.610201  0.640770  1
  O  O27  1  0.389799  0.284812  0.859230  1
  O  O28  1  0.284812  0.389799  0.359230  1
  O  O29  1  0.610201  0.715188  0.140770  1
