# generated using pymatgen
data_Sr4Zn5PdAu12
_symmetry_space_group_name_H-M   'P 1'
_cell_length_a   8.90687237
_cell_length_b   8.88982972
_cell_length_c   8.90687242
_cell_angle_alpha   57.74054659
_cell_angle_beta   57.15051380
_cell_angle_gamma   57.74055080
_symmetry_Int_Tables_number   1
_chemical_formula_structural   Sr4Zn5PdAu12
_chemical_formula_sum   'Sr4 Zn5 Pd1 Au12'
_cell_volume   470.48791034
_cell_formula_units_Z   1
loop_
 _symmetry_equiv_pos_site_id
 _symmetry_equiv_pos_as_xyz
  1  'x, y, z'
loop_
 _atom_site_type_symbol
 _atom_site_label
 _atom_site_symmetry_multiplicity
 _atom_site_fract_x
 _atom_site_fract_y
 _atom_site_fract_z
 _atom_site_occupancy
  Sr  Sr0  1  0.905144  0.906667  0.906636  1
  Sr  Sr1  1  0.407532  0.411955  0.403218  1
  Sr  Sr2  1  0.096782  0.088045  0.092468  1
  Sr  Sr3  1  0.593364  0.593333  0.594856  1
  Zn  Zn4  1  0.934583  0.561777  0.754941  1
  Zn  Zn5  1  0.745059  0.938223  0.565417  1
  Zn  Zn6  1  0.436655  0.250000  0.063345  1
  Zn  Zn7  1  0.063090  0.436487  0.251311  1
  Zn  Zn8  1  0.248689  0.063513  0.436910  1
  Pd  Pd9  1  0.579168  0.750000  0.920832  1
  Au  Au10  1  0.482419  0.861784  0.208192  1
  Au  Au11  1  0.204418  0.480584  0.861289  1
  Au  Au12  1  0.864284  0.202964  0.479121  1
  Au  Au13  1  0.706453  0.356198  0.983530  1
  Au  Au14  1  0.979316  0.703942  0.366747  1
  Au  Au15  1  0.355232  0.984995  0.703308  1
  Au  Au16  1  0.516470  0.143802  0.793547  1
  Au  Au17  1  0.796692  0.515005  0.144768  1
  Au  Au18  1  0.133253  0.796058  0.520684  1
  Au  Au19  1  0.291808  0.638216  0.017581  1
  Au  Au20  1  0.020879  0.297036  0.635716  1
  Au  Au21  1  0.638711  0.019416  0.295582  1
