# generated using pymatgen
data_Dy4CuPt3
_symmetry_space_group_name_H-M   'P 1'
_cell_length_a   4.53634100
_cell_length_b   5.53299401
_cell_length_c   7.04179908
_cell_angle_alpha   89.70702598
_cell_angle_beta   90.00000000
_cell_angle_gamma   90.00000000
_symmetry_Int_Tables_number   1
_chemical_formula_structural   Dy4CuPt3
_chemical_formula_sum   'Dy4 Cu1 Pt3'
_cell_volume   176.74366063
_cell_formula_units_Z   1
loop_
 _symmetry_equiv_pos_site_id
 _symmetry_equiv_pos_as_xyz
  1  'x, y, z'
loop_
 _atom_site_type_symbol
 _atom_site_label
 _atom_site_symmetry_multiplicity
 _atom_site_fract_x
 _atom_site_fract_y
 _atom_site_fract_z
 _atom_site_occupancy
  Dy  Dy0  1  0.000000  0.642418  0.314979  1
  Dy  Dy1  1  0.000000  0.855014  0.817703  1
  Dy  Dy2  1  0.500000  0.363411  0.688799  1
  Dy  Dy3  1  0.500000  0.139878  0.177717  1
  Cu  Cu4  1  0.000000  0.136880  0.463864  1
  Pt  Pt5  1  0.000000  0.340068  0.955795  1
  Pt  Pt6  1  0.500000  0.866126  0.534639  1
  Pt  Pt7  1  0.500000  0.656206  0.046505  1
