# generated using pymatgen
data_NdSmBi2O7
_symmetry_space_group_name_H-M   'P 1'
_cell_length_a   6.71674795
_cell_length_b   6.81967129
_cell_length_c   7.92632956
_cell_angle_alpha   106.53792667
_cell_angle_beta   89.62959480
_cell_angle_gamma   97.69902804
_symmetry_Int_Tables_number   1
_chemical_formula_structural   NdSmBi2O7
_chemical_formula_sum   'Nd2 Sm2 Bi4 O14'
_cell_volume   344.72450268
_cell_formula_units_Z   2
loop_
 _symmetry_equiv_pos_site_id
 _symmetry_equiv_pos_as_xyz
  1  'x, y, z'
loop_
 _atom_site_type_symbol
 _atom_site_label
 _atom_site_symmetry_multiplicity
 _atom_site_fract_x
 _atom_site_fract_y
 _atom_site_fract_z
 _atom_site_occupancy
  Nd  Nd0  1  0.257821  0.535594  0.884152  1
  Nd  Nd1  1  0.742179  0.464406  0.115848  1
  Sm  Sm2  1  0.457665  0.004119  0.251355  1
  Sm  Sm3  1  0.542335  0.995881  0.748645  1
  Bi  Bi4  1  0.000000  0.000000  0.500000  1
  Bi  Bi5  1  0.000000  0.000000  0.000000  1
  Bi  Bi6  1  0.723459  0.459502  0.610838  1
  Bi  Bi7  1  0.276541  0.540498  0.389162  1
  O  O8  1  0.440954  0.647741  0.170385  1
  O  O9  1  0.559046  0.352259  0.829615  1
  O  O10  1  0.300331  0.926228  0.950413  1
  O  O11  1  0.699669  0.073772  0.049587  1
  O  O12  1  0.297779  0.914778  0.509058  1
  O  O13  1  0.702221  0.085222  0.490942  1
  O  O14  1  0.541957  0.362076  0.347685  1
  O  O15  1  0.458043  0.637924  0.652315  1
  O  O16  1  0.932332  0.678157  0.965925  1
  O  O17  1  0.067668  0.321843  0.034075  1
  O  O18  1  0.091918  0.317260  0.624724  1
  O  O19  1  0.908082  0.682740  0.375276  1
  O  O20  1  0.883480  0.924204  0.732011  1
  O  O21  1  0.116520  0.075796  0.267989  1
