# generated using pymatgen
data_Yb15CeBi12
_symmetry_space_group_name_H-M   'P 1'
_cell_length_a   9.66655980
_cell_length_b   9.66656053
_cell_length_c   9.66656000
_cell_angle_alpha   89.73834220
_cell_angle_beta   89.73834218
_cell_angle_gamma   90.26165743
_symmetry_Int_Tables_number   1
_chemical_formula_structural   Yb15CeBi12
_chemical_formula_sum   'Yb15 Ce1 Bi12'
_cell_volume   903.23808156
_cell_formula_units_Z   1
loop_
 _symmetry_equiv_pos_site_id
 _symmetry_equiv_pos_as_xyz
  1  'x, y, z'
loop_
 _atom_site_type_symbol
 _atom_site_label
 _atom_site_symmetry_multiplicity
 _atom_site_fract_x
 _atom_site_fract_y
 _atom_site_fract_z
 _atom_site_occupancy
  Yb  Yb0  1  0.821073  0.321073  0.178927  1
  Yb  Yb1  1  0.924177  0.932770  0.926856  1
  Yb  Yb2  1  0.823990  0.675368  0.325210  1
  Yb  Yb3  1  0.175590  0.825476  0.326070  1
  Yb  Yb4  1  0.175368  0.174790  0.176010  1
  Yb  Yb5  1  0.328374  0.828374  0.671626  1
  Yb  Yb6  1  0.073144  0.424177  0.567230  1
  Yb  Yb7  1  0.325476  0.173930  0.824410  1
  Yb  Yb8  1  0.674790  0.323990  0.824632  1
  Yb  Yb9  1  0.673930  0.675590  0.674524  1
  Yb  Yb10  1  0.574054  0.074054  0.425946  1
  Yb  Yb11  1  0.432770  0.573144  0.075823  1
  Yb  Yb12  1  0.924071  0.073412  0.573564  1
  Yb  Yb13  1  0.426436  0.424071  0.426588  1
  Yb  Yb14  1  0.573412  0.926436  0.075929  1
  Ce  Ce15  1  0.074363  0.574363  0.925637  1
  Bi  Bi16  1  0.748581  0.375382  0.501040  1
  Bi  Bi17  1  0.875382  0.998960  0.251419  1
  Bi  Bi18  1  0.001702  0.747449  0.630042  1
  Bi  Bi19  1  0.248770  0.125981  0.500694  1
  Bi  Bi20  1  0.125603  0.501987  0.244697  1
  Bi  Bi21  1  0.001987  0.255303  0.874397  1
  Bi  Bi22  1  0.247449  0.869958  0.998298  1
  Bi  Bi23  1  0.369958  0.501702  0.752551  1
  Bi  Bi24  1  0.498960  0.248581  0.124618  1
  Bi  Bi25  1  0.755303  0.625603  0.998013  1
  Bi  Bi26  1  0.625981  0.999306  0.751230  1
  Bi  Bi27  1  0.499306  0.748770  0.374019  1
