# generated using pymatgen
data_Dy2Tc3Os
_symmetry_space_group_name_H-M   'P 1'
_cell_length_a   5.28249900
_cell_length_b   5.28249896
_cell_length_c   9.10968500
_cell_angle_alpha   90.00000000
_cell_angle_beta   90.00000000
_cell_angle_gamma   120.00000648
_symmetry_Int_Tables_number   1
_chemical_formula_structural   Dy2Tc3Os
_chemical_formula_sum   'Dy4 Tc6 Os2'
_cell_volume   220.14701814
_cell_formula_units_Z   2
loop_
 _symmetry_equiv_pos_site_id
 _symmetry_equiv_pos_as_xyz
  1  'x, y, z'
loop_
 _atom_site_type_symbol
 _atom_site_label
 _atom_site_symmetry_multiplicity
 _atom_site_fract_x
 _atom_site_fract_y
 _atom_site_fract_z
 _atom_site_occupancy
  Dy  Dy0  1  0.333333  0.666667  0.436324  1
  Dy  Dy1  1  0.666667  0.333333  0.563676  1
  Dy  Dy2  1  0.666667  0.333333  0.936324  1
  Dy  Dy3  1  0.333333  0.666667  0.063676  1
  Tc  Tc4  1  0.829356  0.170644  0.250000  1
  Tc  Tc5  1  0.829356  0.658711  0.250000  1
  Tc  Tc6  1  0.341289  0.170644  0.250000  1
  Tc  Tc7  1  0.170644  0.829356  0.750000  1
  Tc  Tc8  1  0.170644  0.341289  0.750000  1
  Tc  Tc9  1  0.658711  0.829356  0.750000  1
  Os  Os10  1  0.000000  0.000000  0.500000  1
  Os  Os11  1  0.000000  0.000000  0.000000  1
