# generated using pymatgen
data_Tb3YSe6
_symmetry_space_group_name_H-M   'P 1'
_cell_length_a   13.65682819
_cell_length_b   13.03502784
_cell_length_c   7.12872632
_cell_angle_alpha   79.37396239
_cell_angle_beta   69.73139463
_cell_angle_gamma   30.85143953
_symmetry_Int_Tables_number   1
_chemical_formula_structural   Tb3YSe6
_chemical_formula_sum   'Tb6 Y2 Se12'
_cell_volume   593.39917470
_cell_formula_units_Z   2
loop_
 _symmetry_equiv_pos_site_id
 _symmetry_equiv_pos_as_xyz
  1  'x, y, z'
loop_
 _atom_site_type_symbol
 _atom_site_label
 _atom_site_symmetry_multiplicity
 _atom_site_fract_x
 _atom_site_fract_y
 _atom_site_fract_z
 _atom_site_occupancy
  Tb  Tb0  1  0.916287  0.916241  0.083713  1
  Tb  Tb1  1  0.333945  0.333976  0.166027  1
  Tb  Tb2  1  0.747338  0.747324  0.252635  1
  Tb  Tb3  1  0.165960  0.165926  0.334021  1
  Tb  Tb4  1  0.997598  0.997582  0.502374  1
  Tb  Tb5  1  0.252396  0.252402  0.747603  1
  Y  Y6  1  0.083561  0.083611  0.916429  1
  Y  Y7  1  0.502489  0.502517  0.997493  1
  Se  Se8  1  0.490728  0.009293  0.009125  1
  Se  Se9  1  0.930698  0.406995  0.076013  1
  Se  Se10  1  0.319579  0.842129  0.172316  1
  Se  Se11  1  0.759160  0.241259  0.240520  1
  Se  Se12  1  0.174876  0.663803  0.318742  1
  Se  Se13  1  0.585794  0.076023  0.407419  1
  Se  Se14  1  0.009288  0.490735  0.490813  1
  Se  Se15  1  0.407049  0.930678  0.586095  1
  Se  Se16  1  0.842247  0.319565  0.666025  1
  Se  Se17  1  0.241293  0.759273  0.758986  1
  Se  Se18  1  0.663746  0.174888  0.842874  1
  Se  Se19  1  0.075971  0.585778  0.930780  1
