# generated using pymatgen
data_Tb(Tc2Ge)2
_symmetry_space_group_name_H-M   'P 1'
_cell_length_a   7.27299400
_cell_length_b   7.68161600
_cell_length_c   4.20077000
_cell_angle_alpha   90.00000000
_cell_angle_beta   90.00000000
_cell_angle_gamma   90.00000000
_symmetry_Int_Tables_number   1
_chemical_formula_structural   Tb(Tc2Ge)2
_chemical_formula_sum   'Tb2 Tc8 Ge4'
_cell_volume   234.69007636
_cell_formula_units_Z   2
loop_
 _symmetry_equiv_pos_site_id
 _symmetry_equiv_pos_as_xyz
  1  'x, y, z'
loop_
 _atom_site_type_symbol
 _atom_site_label
 _atom_site_symmetry_multiplicity
 _atom_site_fract_x
 _atom_site_fract_y
 _atom_site_fract_z
 _atom_site_occupancy
  Tb  Tb0  1  0.500000  0.500000  0.000000  1
  Tb  Tb1  1  0.000000  0.000000  0.500000  1
  Tc  Tc2  1  0.853850  0.394935  0.500000  1
  Tc  Tc3  1  0.146150  0.605065  0.500000  1
  Tc  Tc4  1  0.646150  0.894935  0.000000  1
  Tc  Tc5  1  0.353850  0.105065  0.000000  1
  Tc  Tc6  1  0.584326  0.153081  0.500000  1
  Tc  Tc7  1  0.415674  0.846919  0.500000  1
  Tc  Tc8  1  0.915674  0.653081  0.000000  1
  Tc  Tc9  1  0.084326  0.346919  0.000000  1
  Ge  Ge10  1  0.282724  0.304801  0.500000  1
  Ge  Ge11  1  0.717276  0.695199  0.500000  1
  Ge  Ge12  1  0.217276  0.804801  0.000000  1
  Ge  Ge13  1  0.782724  0.195199  0.000000  1
