# generated using pymatgen
data_Er8Mn(B8Ru)3
_symmetry_space_group_name_H-M   'P 1'
_cell_length_a   3.61354500
_cell_length_b   9.08960506
_cell_length_c   11.46519207
_cell_angle_alpha   89.98723059
_cell_angle_beta   90.00000000
_cell_angle_gamma   90.00000000
_symmetry_Int_Tables_number   1
_chemical_formula_structural   Er8Mn(B8Ru)3
_chemical_formula_sum   'Er8 Mn1 B24 Ru3'
_cell_volume   376.58221436
_cell_formula_units_Z   1
loop_
 _symmetry_equiv_pos_site_id
 _symmetry_equiv_pos_as_xyz
  1  'x, y, z'
loop_
 _atom_site_type_symbol
 _atom_site_label
 _atom_site_symmetry_multiplicity
 _atom_site_fract_x
 _atom_site_fract_y
 _atom_site_fract_z
 _atom_site_occupancy
  Er  Er0  1  0.000000  0.325831  0.412801  1
  Er  Er1  1  0.000000  0.676300  0.581815  1
  Er  Er2  1  0.000000  0.820406  0.088480  1
  Er  Er3  1  0.000000  0.177197  0.915177  1
  Er  Er4  1  0.000000  0.940657  0.371656  1
  Er  Er5  1  0.000000  0.056679  0.627463  1
  Er  Er6  1  0.000000  0.445982  0.130384  1
  Er  Er7  1  0.000000  0.556750  0.871860  1
  Mn  Mn8  1  0.000000  0.638077  0.320913  1
  B  B9  1  0.500000  0.554177  0.431865  1
  B  B10  1  0.500000  0.446746  0.566270  1
  B  B11  1  0.500000  0.053642  0.067063  1
  B  B12  1  0.500000  0.946321  0.933505  1
  B  B13  1  0.500000  0.746565  0.417907  1
  B  B14  1  0.500000  0.251626  0.579758  1
  B  B15  1  0.500000  0.249085  0.080680  1
  B  B16  1  0.500000  0.751547  0.920101  1
  B  B17  1  0.500000  0.789976  0.266583  1
  B  B18  1  0.500000  0.208388  0.734091  1
  B  B19  1  0.500000  0.292162  0.234180  1
  B  B20  1  0.500000  0.708393  0.765724  1
  B  B21  1  0.500000  0.632180  0.186806  1
  B  B22  1  0.500000  0.367905  0.815145  1
  B  B23  1  0.500000  0.131693  0.314853  1
  B  B24  1  0.500000  0.867831  0.684705  1
  B  B25  1  0.500000  0.982611  0.212779  1
  B  B26  1  0.500000  0.016902  0.787642  1
  B  B27  1  0.500000  0.485614  0.288328  1
  B  B28  1  0.500000  0.516982  0.712272  1
  B  B29  1  0.500000  0.607249  0.029887  1
  B  B30  1  0.500000  0.393076  0.970787  1
  B  B31  1  0.500000  0.107117  0.470141  1
  B  B32  1  0.500000  0.892530  0.529290  1
  Ru  Ru33  1  0.000000  0.361633  0.679335  1
  Ru  Ru34  1  0.000000  0.138190  0.178648  1
  Ru  Ru35  1  0.000000  0.861979  0.821108  1
