# generated using pymatgen
data_Tb6YHo(Sc3Si4)4
_symmetry_space_group_name_H-M   'P 1'
_cell_length_a   7.10689900
_cell_length_b   7.39732033
_cell_length_c   14.02054945
_cell_angle_alpha   89.95832816
_cell_angle_beta   89.99203151
_cell_angle_gamma   90.01423437
_symmetry_Int_Tables_number   1
_chemical_formula_structural   Tb6YHo(Sc3Si4)4
_chemical_formula_sum   'Tb6 Y1 Ho1 Sc12 Si16'
_cell_volume   737.08821958
_cell_formula_units_Z   1
loop_
 _symmetry_equiv_pos_site_id
 _symmetry_equiv_pos_as_xyz
  1  'x, y, z'
loop_
 _atom_site_type_symbol
 _atom_site_label
 _atom_site_symmetry_multiplicity
 _atom_site_fract_x
 _atom_site_fract_y
 _atom_site_fract_z
 _atom_site_occupancy
  Tb  Tb0  1  0.988115  0.824806  0.902859  1
  Tb  Tb1  1  0.487989  0.674991  0.903208  1
  Tb  Tb2  1  0.987945  0.824700  0.596982  1
  Tb  Tb3  1  0.512013  0.324880  0.097012  1
  Tb  Tb4  1  0.012184  0.175086  0.403283  1
  Tb  Tb5  1  0.511866  0.324973  0.403190  1
  Y  Y6  1  0.011826  0.175189  0.096984  1
  Ho  Ho7  1  0.487896  0.675560  0.597280  1
  Sc  Sc8  1  0.160692  0.502317  0.749888  1
  Sc  Sc9  1  0.839514  0.498034  0.249965  1
  Sc  Sc10  1  0.339444  0.002128  0.250054  1
  Sc  Sc11  1  0.660459  0.997814  0.749787  1
  Sc  Sc12  1  0.330974  0.176764  0.625275  1
  Sc  Sc13  1  0.668945  0.822984  0.374735  1
  Sc  Sc14  1  0.169376  0.676572  0.374781  1
  Sc  Sc15  1  0.669158  0.823480  0.125307  1
  Sc  Sc16  1  0.830648  0.323728  0.625206  1
  Sc  Sc17  1  0.330686  0.176653  0.874606  1
  Sc  Sc18  1  0.830804  0.323312  0.874505  1
  Sc  Sc19  1  0.169093  0.676665  0.125272  1
  Si  Si20  1  0.033445  0.117760  0.749943  1
  Si  Si21  1  0.966472  0.882357  0.250066  1
  Si  Si22  1  0.466502  0.617718  0.250043  1
  Si  Si23  1  0.533385  0.382898  0.749809  1
  Si  Si24  1  0.285980  0.874006  0.749650  1
  Si  Si25  1  0.714653  0.125450  0.249904  1
  Si  Si26  1  0.214453  0.374479  0.250010  1
  Si  Si27  1  0.784901  0.625634  0.749567  1
  Si  Si28  1  0.158250  0.465005  0.539588  1
  Si  Si29  1  0.842521  0.535618  0.460727  1
  Si  Si30  1  0.343199  0.963816  0.460892  1
  Si  Si31  1  0.842918  0.535503  0.039416  1
  Si  Si32  1  0.656765  0.034770  0.539608  1
  Si  Si33  1  0.156916  0.464296  0.960576  1
  Si  Si34  1  0.657315  0.035536  0.960644  1
  Si  Si35  1  0.342696  0.964517  0.039380  1
