# generated using pymatgen
data_Nb3VOs2C
_symmetry_space_group_name_H-M   'P 1'
_cell_length_a   8.35470339
_cell_length_b   8.35464392
_cell_length_c   8.35407500
_cell_angle_alpha   60.00347384
_cell_angle_beta   60.00367105
_cell_angle_gamma   60.00598362
_symmetry_Int_Tables_number   1
_chemical_formula_structural   Nb3VOs2C
_chemical_formula_sum   'Nb12 V4 Os8 C4'
_cell_volume   412.36845818
_cell_formula_units_Z   4
loop_
 _symmetry_equiv_pos_site_id
 _symmetry_equiv_pos_as_xyz
  1  'x, y, z'
loop_
 _atom_site_type_symbol
 _atom_site_label
 _atom_site_symmetry_multiplicity
 _atom_site_fract_x
 _atom_site_fract_y
 _atom_site_fract_z
 _atom_site_occupancy
  Nb  Nb0  1  0.807903  0.807914  0.192081  1
  Nb  Nb1  1  0.192083  0.192081  0.807922  1
  Nb  Nb2  1  0.807905  0.192094  0.807915  1
  Nb  Nb3  1  0.192096  0.807919  0.192071  1
  Nb  Nb4  1  0.192092  0.807914  0.807911  1
  Nb  Nb5  1  0.807911  0.192101  0.192076  1
  Nb  Nb6  1  0.442097  0.442086  0.057918  1
  Nb  Nb7  1  0.057916  0.057920  0.442078  1
  Nb  Nb8  1  0.442095  0.057906  0.442084  1
  Nb  Nb9  1  0.057903  0.442079  0.057930  1
  Nb  Nb10  1  0.057907  0.442087  0.442088  1
  Nb  Nb11  1  0.442090  0.057901  0.057922  1
  V  V12  1  0.125005  0.624999  0.624997  1
  V  V13  1  0.624998  0.125004  0.624998  1
  V  V14  1  0.624999  0.624999  0.125004  1
  V  V15  1  0.624999  0.624999  0.624999  1
  Os  Os16  1  0.749962  0.416688  0.416649  1
  Os  Os17  1  0.416710  0.749949  0.416649  1
  Os  Os18  1  0.416681  0.416662  0.749983  1
  Os  Os19  1  0.416711  0.416687  0.416647  1
  Os  Os20  1  0.500040  0.833312  0.833352  1
  Os  Os21  1  0.833290  0.500051  0.833352  1
  Os  Os22  1  0.833320  0.833336  0.500020  1
  Os  Os23  1  0.833289  0.833312  0.833352  1
  C  C24  1  0.625001  0.125000  0.124999  1
  C  C25  1  0.125000  0.625001  0.125000  1
  C  C26  1  0.124999  0.125000  0.625001  1
  C  C27  1  0.125000  0.124999  0.125000  1
