# generated using pymatgen
data_CaPa3(Al3Rh)6
_symmetry_space_group_name_H-M   'P 1'
_cell_length_a   7.60723921
_cell_length_b   7.61025147
_cell_length_c   9.39440700
_cell_angle_alpha   90.00000000
_cell_angle_beta   90.00000000
_cell_angle_gamma   119.51355539
_symmetry_Int_Tables_number   1
_chemical_formula_structural   CaPa3(Al3Rh)6
_chemical_formula_sum   'Ca1 Pa3 Al18 Rh6'
_cell_volume   473.29735735
_cell_formula_units_Z   1
loop_
 _symmetry_equiv_pos_site_id
 _symmetry_equiv_pos_as_xyz
  1  'x, y, z'
loop_
 _atom_site_type_symbol
 _atom_site_label
 _atom_site_symmetry_multiplicity
 _atom_site_fract_x
 _atom_site_fract_y
 _atom_site_fract_z
 _atom_site_occupancy
  Ca  Ca0  1  0.328488  0.005880  0.750000  1
  Pa  Pa1  1  0.997596  0.670823  0.250000  1
  Pa  Pa2  1  0.001201  0.328254  0.750000  1
  Pa  Pa3  1  0.672629  0.997230  0.250000  1
  Al  Al4  1  0.131613  0.130212  0.250000  1
  Al  Al5  1  0.870358  0.873837  0.750000  1
  Al  Al6  1  0.003743  0.335385  0.075564  1
  Al  Al7  1  0.000629  0.667404  0.922092  1
  Al  Al8  1  0.000629  0.667404  0.577908  1
  Al  Al9  1  0.336044  0.003608  0.426821  1
  Al  Al10  1  0.003743  0.335385  0.424436  1
  Al  Al11  1  0.660923  0.996566  0.577699  1
  Al  Al12  1  0.660923  0.996566  0.922301  1
  Al  Al13  1  0.336044  0.003608  0.073179  1
  Al  Al14  1  0.334001  0.332764  0.554632  1
  Al  Al15  1  0.665057  0.664426  0.448968  1
  Al  Al16  1  0.665057  0.664426  0.051032  1
  Al  Al17  1  0.334001  0.332764  0.945368  1
  Al  Al18  1  0.342421  0.548155  0.250000  1
  Al  Al19  1  0.660821  0.451005  0.750000  1
  Al  Al20  1  0.548195  0.340427  0.250000  1
  Al  Al21  1  0.446360  0.654987  0.750000  1
  Rh  Rh22  1  0.675860  0.329199  0.001768  1
  Rh  Rh23  1  0.327515  0.672017  0.003231  1
  Rh  Rh24  1  0.327515  0.672017  0.496769  1
  Rh  Rh25  1  0.675860  0.329199  0.498232  1
  Rh  Rh26  1  0.996389  0.998229  0.003119  1
  Rh  Rh27  1  0.996389  0.998229  0.496881  1
