# generated using pymatgen
data_TmZr4Re17Tc7
_symmetry_space_group_name_H-M   'P 1'
_cell_length_a   8.48624897
_cell_length_b   8.48624838
_cell_length_c   8.47407900
_cell_angle_alpha   109.48044833
_cell_angle_beta   109.48043976
_cell_angle_gamma   109.59915643
_symmetry_Int_Tables_number   1
_chemical_formula_structural   TmZr4Re17Tc7
_chemical_formula_sum   'Tm1 Zr4 Re17 Tc7'
_cell_volume   468.93710068
_cell_formula_units_Z   1
loop_
 _symmetry_equiv_pos_site_id
 _symmetry_equiv_pos_as_xyz
  1  'x, y, z'
loop_
 _atom_site_type_symbol
 _atom_site_label
 _atom_site_symmetry_multiplicity
 _atom_site_fract_x
 _atom_site_fract_y
 _atom_site_fract_z
 _atom_site_occupancy
  Tm  Tm0  1  0.999164  0.999164  0.999563  1
  Zr  Zr1  1  0.625543  0.999523  0.999585  1
  Zr  Zr2  1  0.999523  0.625543  0.999585  1
  Zr  Zr3  1  0.001800  0.001800  0.628283  1
  Zr  Zr4  1  0.372006  0.372006  0.372626  1
  Re  Re5  1  0.000606  0.675792  0.396521  1
  Re  Re6  1  0.675792  0.000606  0.396521  1
  Re  Re7  1  0.603374  0.603374  0.278065  1
  Re  Re8  1  0.278611  0.604539  0.603449  1
  Re  Re9  1  0.604539  0.278611  0.603449  1
  Re  Re10  1  0.378328  0.196298  0.001303  1
  Re  Re11  1  0.181075  0.805361  0.804549  1
  Re  Re12  1  0.376737  0.000724  0.195348  1
  Re  Re13  1  0.196298  0.378328  0.001303  1
  Re  Re14  1  0.000724  0.376737  0.195348  1
  Re  Re15  1  0.805361  0.181075  0.804549  1
  Re  Re16  1  0.805372  0.805372  0.182156  1
  Re  Re17  1  0.000552  0.194895  0.378487  1
  Re  Re18  1  0.194895  0.000552  0.378487  1
  Re  Re19  1  0.621197  0.621197  0.815280  1
  Re  Re20  1  0.815544  0.621580  0.620836  1
  Re  Re21  1  0.621580  0.815544  0.620836  1
  Tc  Tc22  1  0.396516  0.677386  0.000546  1
  Tc  Tc23  1  0.720778  0.323318  0.323079  1
  Tc  Tc24  1  0.397639  0.001796  0.677864  1
  Tc  Tc25  1  0.677386  0.396516  0.000546  1
  Tc  Tc26  1  0.001796  0.397639  0.677864  1
  Tc  Tc27  1  0.323318  0.720778  0.323079  1
  Tc  Tc28  1  0.323945  0.323945  0.720896  1
