# generated using pymatgen
data_Th4MgBiPt4
_symmetry_space_group_name_H-M   'P 1'
_cell_length_a   7.97005000
_cell_length_b   7.97005000
_cell_length_c   3.83281900
_cell_angle_alpha   90.00000000
_cell_angle_beta   90.00000000
_cell_angle_gamma   90.00000000
_symmetry_Int_Tables_number   1
_chemical_formula_structural   Th4MgBiPt4
_chemical_formula_sum   'Th4 Mg1 Bi1 Pt4'
_cell_volume   243.46716718
_cell_formula_units_Z   1
loop_
 _symmetry_equiv_pos_site_id
 _symmetry_equiv_pos_as_xyz
  1  'x, y, z'
loop_
 _atom_site_type_symbol
 _atom_site_label
 _atom_site_symmetry_multiplicity
 _atom_site_fract_x
 _atom_site_fract_y
 _atom_site_fract_z
 _atom_site_occupancy
  Th  Th0  1  0.332162  0.823292  0.500000  1
  Th  Th1  1  0.823292  0.667838  0.500000  1
  Th  Th2  1  0.176708  0.332162  0.500000  1
  Th  Th3  1  0.667838  0.176708  0.500000  1
  Mg  Mg4  1  0.500000  0.500000  0.000000  1
  Bi  Bi5  1  0.000000  0.000000  0.000000  1
  Pt  Pt6  1  0.140703  0.618407  0.000000  1
  Pt  Pt7  1  0.618407  0.859297  0.000000  1
  Pt  Pt8  1  0.859297  0.381593  0.000000  1
  Pt  Pt9  1  0.381593  0.140703  0.000000  1
