# generated using pymatgen
data_Er4Ga4PtAu3
_symmetry_space_group_name_H-M   'P 1'
_cell_length_a   4.43553000
_cell_length_b   7.03628865
_cell_length_c   7.78139984
_cell_angle_alpha   89.94882159
_cell_angle_beta   90.00000000
_cell_angle_gamma   90.00000000
_symmetry_Int_Tables_number   1
_chemical_formula_structural   Er4Ga4PtAu3
_chemical_formula_sum   'Er4 Ga4 Pt1 Au3'
_cell_volume   242.85481943
_cell_formula_units_Z   1
loop_
 _symmetry_equiv_pos_site_id
 _symmetry_equiv_pos_as_xyz
  1  'x, y, z'
loop_
 _atom_site_type_symbol
 _atom_site_label
 _atom_site_symmetry_multiplicity
 _atom_site_fract_x
 _atom_site_fract_y
 _atom_site_fract_z
 _atom_site_occupancy
  Er  Er0  1  0.250000  0.002307  0.295901  1
  Er  Er1  1  0.250000  0.491858  0.212379  1
  Er  Er2  1  0.750000  0.009789  0.700989  1
  Er  Er3  1  0.750000  0.502628  0.788711  1
  Ga  Ga4  1  0.250000  0.310035  0.580023  1
  Ga  Ga5  1  0.250000  0.809272  0.916008  1
  Ga  Ga6  1  0.750000  0.682648  0.415812  1
  Ga  Ga7  1  0.750000  0.197060  0.089055  1
  Pt  Pt8  1  0.750000  0.283361  0.412629  1
  Au  Au9  1  0.250000  0.211981  0.910643  1
  Au  Au10  1  0.250000  0.715734  0.588724  1
  Au  Au11  1  0.750000  0.783326  0.089126  1
