# generated using pymatgen
data_Yb2Tm3Pa3(ReB6)4
_symmetry_space_group_name_H-M   'P 1'
_cell_length_a   3.69323600
_cell_length_b   9.12841120
_cell_length_c   11.48149387
_cell_angle_alpha   90.23504004
_cell_angle_beta   90.00000000
_cell_angle_gamma   90.00000000
_symmetry_Int_Tables_number   1
_chemical_formula_structural   Yb2Tm3Pa3(ReB6)4
_chemical_formula_sum   'Yb2 Tm3 Pa3 Re4 B24'
_cell_volume   387.07667282
_cell_formula_units_Z   1
loop_
 _symmetry_equiv_pos_site_id
 _symmetry_equiv_pos_as_xyz
  1  'x, y, z'
loop_
 _atom_site_type_symbol
 _atom_site_label
 _atom_site_symmetry_multiplicity
 _atom_site_fract_x
 _atom_site_fract_y
 _atom_site_fract_z
 _atom_site_occupancy
  Yb  Yb0  1  0.000000  0.177978  0.913367  1
  Yb  Yb1  1  0.000000  0.945634  0.374902  1
  Tm  Tm2  1  0.000000  0.055038  0.627069  1
  Tm  Tm3  1  0.000000  0.442064  0.124994  1
  Tm  Tm4  1  0.000000  0.553327  0.873073  1
  Pa  Pa5  1  0.000000  0.320198  0.413159  1
  Pa  Pa6  1  0.000000  0.678646  0.586629  1
  Pa  Pa7  1  0.000000  0.826120  0.086264  1
  Re  Re8  1  0.000000  0.638276  0.321507  1
  Re  Re9  1  0.000000  0.364939  0.675300  1
  Re  Re10  1  0.000000  0.138889  0.181736  1
  Re  Re11  1  0.000000  0.857994  0.820783  1
  B  B12  1  0.500000  0.553789  0.432007  1
  B  B13  1  0.500000  0.446526  0.566403  1
  B  B14  1  0.500000  0.053467  0.068545  1
  B  B15  1  0.500000  0.945485  0.932547  1
  B  B16  1  0.500000  0.749165  0.419858  1
  B  B17  1  0.500000  0.250956  0.580161  1
  B  B18  1  0.500000  0.248757  0.080015  1
  B  B19  1  0.500000  0.750809  0.920067  1
  B  B20  1  0.500000  0.792296  0.265844  1
  B  B21  1  0.500000  0.207922  0.734067  1
  B  B22  1  0.500000  0.292278  0.233834  1
  B  B23  1  0.500000  0.706878  0.766193  1
  B  B24  1  0.500000  0.632022  0.184732  1
  B  B25  1  0.500000  0.368367  0.814252  1
  B  B26  1  0.500000  0.132078  0.315112  1
  B  B27  1  0.500000  0.867781  0.686070  1
  B  B28  1  0.500000  0.983002  0.213002  1
  B  B29  1  0.500000  0.017828  0.787050  1
  B  B30  1  0.500000  0.482864  0.286012  1
  B  B31  1  0.500000  0.517007  0.712868  1
  B  B32  1  0.500000  0.605453  0.029307  1
  B  B33  1  0.500000  0.395325  0.970703  1
  B  B34  1  0.500000  0.110401  0.470908  1
  B  B35  1  0.500000  0.890443  0.531662  1
