# generated using pymatgen
data_Ta11TiBe4(B2Ru3)4
_symmetry_space_group_name_H-M   'P 1'
_cell_length_a   3.18340100
_cell_length_b   9.01532806
_cell_length_c   15.64194610
_cell_angle_alpha   90.01322317
_cell_angle_beta   90.00000000
_cell_angle_gamma   90.00000000
_symmetry_Int_Tables_number   1
_chemical_formula_structural   Ta11TiBe4(B2Ru3)4
_chemical_formula_sum   'Ta11 Ti1 Be4 B8 Ru12'
_cell_volume   448.91452429
_cell_formula_units_Z   1
loop_
 _symmetry_equiv_pos_site_id
 _symmetry_equiv_pos_as_xyz
  1  'x, y, z'
loop_
 _atom_site_type_symbol
 _atom_site_label
 _atom_site_symmetry_multiplicity
 _atom_site_fract_x
 _atom_site_fract_y
 _atom_site_fract_z
 _atom_site_occupancy
  Ta  Ta0  1  0.000000  0.197582  0.504717  1
  Ta  Ta1  1  0.000000  0.301109  0.004849  1
  Ta  Ta2  1  0.000000  0.698963  0.995204  1
  Ta  Ta3  1  0.000000  0.516052  0.594573  1
  Ta  Ta4  1  0.000000  0.486668  0.405205  1
  Ta  Ta5  1  0.000000  0.014442  0.904806  1
  Ta  Ta6  1  0.000000  0.985453  0.095183  1
  Ta  Ta7  1  0.000000  0.684706  0.205776  1
  Ta  Ta8  1  0.000000  0.315114  0.795283  1
  Ta  Ta9  1  0.000000  0.183793  0.297182  1
  Ta  Ta10  1  0.000000  0.814494  0.702243  1
  Ti  Ti11  1  0.000000  0.801783  0.495148  1
  Be  Be12  1  0.000000  0.609682  0.832210  1
  Be  Be13  1  0.000000  0.390488  0.167870  1
  Be  Be14  1  0.000000  0.107561  0.666462  1
  Be  Be15  1  0.000000  0.889890  0.333561  1
  B  B16  1  0.500000  0.606462  0.496231  1
  B  B17  1  0.500000  0.396167  0.503670  1
  B  B18  1  0.500000  0.104154  0.003702  1
  B  B19  1  0.500000  0.895837  0.996341  1
  B  B20  1  0.500000  0.714074  0.597757  1
  B  B21  1  0.500000  0.287167  0.400714  1
  B  B22  1  0.500000  0.213718  0.900383  1
  B  B23  1  0.500000  0.786092  0.099809  1
  Ru  Ru24  1  0.500000  0.715261  0.359505  1
  Ru  Ru25  1  0.500000  0.285602  0.641852  1
  Ru  Ru26  1  0.500000  0.214258  0.141668  1
  Ru  Ru27  1  0.500000  0.785849  0.858330  1
  Ru  Ru28  1  0.500000  0.522698  0.093921  1
  Ru  Ru29  1  0.500000  0.477333  0.906250  1
  Ru  Ru30  1  0.500000  0.022432  0.406374  1
  Ru  Ru31  1  0.500000  0.974927  0.593007  1
  Ru  Ru32  1  0.500000  0.568228  0.730627  1
  Ru  Ru33  1  0.500000  0.431999  0.269380  1
  Ru  Ru34  1  0.500000  0.067791  0.769492  1
  Ru  Ru35  1  0.500000  0.932171  0.230717  1
