# generated using pymatgen
data_Ti8Mo4IrPt3
_symmetry_space_group_name_H-M   'P 1'
_cell_length_a   6.26774500
_cell_length_b   4.44172100
_cell_length_c   8.88221400
_cell_angle_alpha   90.00000000
_cell_angle_beta   89.99979624
_cell_angle_gamma   90.00000000
_symmetry_Int_Tables_number   1
_chemical_formula_structural   Ti8Mo4IrPt3
_chemical_formula_sum   'Ti8 Mo4 Ir1 Pt3'
_cell_volume   247.27705917
_cell_formula_units_Z   1
loop_
 _symmetry_equiv_pos_site_id
 _symmetry_equiv_pos_as_xyz
  1  'x, y, z'
loop_
 _atom_site_type_symbol
 _atom_site_label
 _atom_site_symmetry_multiplicity
 _atom_site_fract_x
 _atom_site_fract_y
 _atom_site_fract_z
 _atom_site_occupancy
  Ti  Ti0  1  0.998176  0.749999  0.121852  1
  Ti  Ti1  1  0.501789  0.749999  0.121857  1
  Ti  Ti2  1  0.000266  0.249999  0.374996  1
  Ti  Ti3  1  0.499743  0.249999  0.374999  1
  Ti  Ti4  1  0.501807  0.749999  0.628142  1
  Ti  Ti5  1  0.998180  0.749999  0.628146  1
  Ti  Ti6  1  0.504814  0.249999  0.874996  1
  Ti  Ti7  1  0.995210  0.249999  0.874998  1
  Mo  Mo8  1  0.750101  0.249999  0.126131  1
  Mo  Mo9  1  0.249892  0.749999  0.375014  1
  Mo  Mo10  1  0.750106  0.249999  0.623858  1
  Mo  Mo11  1  0.249907  0.749999  0.875012  1
  Ir  Ir12  1  0.750025  0.749999  0.874991  1
  Pt  Pt13  1  0.249984  0.249999  0.124726  1
  Pt  Pt14  1  0.750012  0.749999  0.374992  1
  Pt  Pt15  1  0.249988  0.249999  0.625293  1
