# generated using pymatgen
data_Ho5Er11CdAg3Rh4
_symmetry_space_group_name_H-M   'P 1'
_cell_length_a   9.49804243
_cell_length_b   9.48343649
_cell_length_c   9.50163900
_cell_angle_alpha   59.93648293
_cell_angle_beta   59.98746961
_cell_angle_gamma   59.96325227
_symmetry_Int_Tables_number   1
_chemical_formula_structural   Ho5Er11CdAg3Rh4
_chemical_formula_sum   'Ho5 Er11 Cd1 Ag3 Rh4'
_cell_volume   604.66209131
_cell_formula_units_Z   1
loop_
 _symmetry_equiv_pos_site_id
 _symmetry_equiv_pos_as_xyz
  1  'x, y, z'
loop_
 _atom_site_type_symbol
 _atom_site_label
 _atom_site_symmetry_multiplicity
 _atom_site_fract_x
 _atom_site_fract_y
 _atom_site_fract_z
 _atom_site_occupancy
  Ho  Ho0  1  0.935143  0.567024  0.562436  1
  Ho  Ho1  1  0.935143  0.567024  0.935397  1
  Ho  Ho2  1  0.564238  0.936177  0.564082  1
  Ho  Ho3  1  0.564238  0.936177  0.935502  1
  Ho  Ho4  1  0.311824  0.312723  0.687726  1
  Er  Er5  1  0.935684  0.936511  0.563902  1
  Er  Er6  1  0.562160  0.566692  0.935574  1
  Er  Er7  1  0.687538  0.687658  0.312402  1
  Er  Er8  1  0.147327  0.558181  0.147246  1
  Er  Er9  1  0.687919  0.312696  0.687775  1
  Er  Er10  1  0.147996  0.147721  0.148505  1
  Er  Er11  1  0.555956  0.147834  0.148105  1
  Er  Er12  1  0.687919  0.312696  0.311610  1
  Er  Er13  1  0.147996  0.147721  0.555779  1
  Er  Er14  1  0.312295  0.687968  0.312058  1
  Er  Er15  1  0.312295  0.687968  0.687679  1
  Cd  Cd16  1  0.920569  0.237736  0.920848  1
  Ag  Ag17  1  0.917836  0.916729  0.247945  1
  Ag  Ag18  1  0.247989  0.916235  0.917888  1
  Ag  Ag19  1  0.917836  0.916729  0.917490  1
  Rh  Rh20  1  0.356710  0.356694  0.930653  1
  Rh  Rh21  1  0.356411  0.930099  0.356744  1
  Rh  Rh22  1  0.930271  0.356306  0.356711  1
  Rh  Rh23  1  0.356710  0.356694  0.355943  1
