# generated using pymatgen
data_Sm5ErU4O20
_symmetry_space_group_name_H-M   'P 1'
_cell_length_a   6.70267617
_cell_length_b   7.60983527
_cell_length_c   8.51777265
_cell_angle_alpha   101.31899062
_cell_angle_beta   97.70368785
_cell_angle_gamma   107.20138519
_symmetry_Int_Tables_number   1
_chemical_formula_structural   Sm5ErU4O20
_chemical_formula_sum   'Sm5 Er1 U4 O20'
_cell_volume   398.30501969
_cell_formula_units_Z   1
loop_
 _symmetry_equiv_pos_site_id
 _symmetry_equiv_pos_as_xyz
  1  'x, y, z'
loop_
 _atom_site_type_symbol
 _atom_site_label
 _atom_site_symmetry_multiplicity
 _atom_site_fract_x
 _atom_site_fract_y
 _atom_site_fract_z
 _atom_site_occupancy
  Sm  Sm0  1  0.613444  0.704405  0.699088  1
  Sm  Sm1  1  0.386556  0.295595  0.300912  1
  Sm  Sm2  1  0.198115  0.897569  0.891989  1
  Sm  Sm3  1  0.000000  0.500000  0.500000  1
  Sm  Sm4  1  0.801885  0.102431  0.108011  1
  Er  Er5  1  0.000000  0.000000  0.500000  1
  U  U6  1  0.401798  0.804128  0.302145  1
  U  U7  1  0.198684  0.400173  0.899748  1
  U  U8  1  0.801316  0.599827  0.100252  1
  U  U9  1  0.598202  0.195872  0.697855  1
  O  O10  1  0.439951  0.533169  0.135470  1
  O  O11  1  0.556172  0.990623  0.838978  1
  O  O12  1  0.269328  0.147840  0.742670  1
  O  O13  1  0.359372  0.596496  0.439953  1
  O  O14  1  0.054704  0.733242  0.330260  1
  O  O15  1  0.443828  0.009377  0.161022  1
  O  O16  1  0.149981  0.186754  0.030868  1
  O  O17  1  0.560049  0.466831  0.864530  1
  O  O18  1  0.854443  0.339159  0.949294  1
  O  O19  1  0.255121  0.604111  0.761223  1
  O  O20  1  0.954814  0.778484  0.647429  1
  O  O21  1  0.352652  0.059751  0.455457  1
  O  O22  1  0.647348  0.940249  0.544543  1
  O  O23  1  0.045186  0.221516  0.352571  1
  O  O24  1  0.744879  0.395889  0.238777  1
  O  O25  1  0.145557  0.660841  0.050706  1
  O  O26  1  0.850019  0.813246  0.969132  1
  O  O27  1  0.945296  0.266758  0.669740  1
  O  O28  1  0.640628  0.403504  0.560047  1
  O  O29  1  0.730672  0.852160  0.257330  1
