# generated using pymatgen
data_La3Tb9Tc3Ir
_symmetry_space_group_name_H-M   'P 1'
_cell_length_a   6.47586011
_cell_length_b   7.41155566
_cell_length_c   9.41408200
_cell_angle_alpha   90.00000000
_cell_angle_beta   90.00000000
_cell_angle_gamma   89.94076393
_symmetry_Int_Tables_number   1
_chemical_formula_structural   La3Tb9Tc3Ir
_chemical_formula_sum   'La3 Tb9 Tc3 Ir1'
_cell_volume   451.83989912
_cell_formula_units_Z   1
loop_
 _symmetry_equiv_pos_site_id
 _symmetry_equiv_pos_as_xyz
  1  'x, y, z'
loop_
 _atom_site_type_symbol
 _atom_site_label
 _atom_site_symmetry_multiplicity
 _atom_site_fract_x
 _atom_site_fract_y
 _atom_site_fract_z
 _atom_site_occupancy
  La  La0  1  0.874193  0.553495  0.250000  1
  La  La1  1  0.625806  0.051033  0.250000  1
  La  La2  1  0.130974  0.444681  0.750000  1
  Tb  Tb3  1  0.332046  0.676758  0.065759  1
  Tb  Tb4  1  0.164995  0.173167  0.434757  1
  Tb  Tb5  1  0.661866  0.323856  0.564094  1
  Tb  Tb6  1  0.833197  0.827561  0.933185  1
  Tb  Tb7  1  0.661866  0.323856  0.935906  1
  Tb  Tb8  1  0.833197  0.827561  0.566815  1
  Tb  Tb9  1  0.332046  0.676758  0.434241  1
  Tb  Tb10  1  0.164995  0.173167  0.065243  1
  Tb  Tb11  1  0.368960  0.956763  0.750000  1
  Tc  Tc12  1  0.025585  0.875157  0.250000  1
  Tc  Tc13  1  0.471839  0.375623  0.250000  1
  Tc  Tc14  1  0.969690  0.123724  0.750000  1
  Ir  Ir15  1  0.548747  0.616843  0.750000  1
