# generated using pymatgen
data_CsCr(CO3)2
_symmetry_space_group_name_H-M   'P 1'
_cell_length_a   14.06325486
_cell_length_b   14.06424511
_cell_length_c   14.06186294
_cell_angle_alpha   20.04223377
_cell_angle_beta   20.05580015
_cell_angle_gamma   20.03517217
_symmetry_Int_Tables_number   1
_chemical_formula_structural   CsCr(CO3)2
_chemical_formula_sum   'Cs2 Cr2 C4 O12'
_cell_volume   285.84578318
_cell_formula_units_Z   2
loop_
 _symmetry_equiv_pos_site_id
 _symmetry_equiv_pos_as_xyz
  1  'x, y, z'
loop_
 _atom_site_type_symbol
 _atom_site_label
 _atom_site_symmetry_multiplicity
 _atom_site_fract_x
 _atom_site_fract_y
 _atom_site_fract_z
 _atom_site_occupancy
  Cs  Cs0  1  0.249747  0.250187  0.250056  1
  Cs  Cs1  1  0.750253  0.749813  0.749944  1
  Cr  Cr2  1  0.500000  0.500000  0.500000  1
  Cr  Cr3  1  0.000000  0.000000  0.000000  1
  C  C4  1  0.360335  0.359785  0.360335  1
  C  C5  1  0.860345  0.859887  0.860211  1
  C  C6  1  0.639665  0.640215  0.639665  1
  C  C7  1  0.139655  0.140113  0.139789  1
  O  O8  1  0.306662  0.648955  0.128240  1
  O  O9  1  0.128368  0.306261  0.649311  1
  O  O10  1  0.649422  0.127771  0.306776  1
  O  O11  1  0.627967  0.149396  0.806561  1
  O  O12  1  0.806628  0.627738  0.149528  1
  O  O13  1  0.149364  0.806357  0.628207  1
  O  O14  1  0.693338  0.351045  0.871760  1
  O  O15  1  0.871632  0.693739  0.350689  1
  O  O16  1  0.350578  0.872229  0.693224  1
  O  O17  1  0.372033  0.850604  0.193439  1
  O  O18  1  0.193372  0.372262  0.850472  1
  O  O19  1  0.850636  0.193643  0.371793  1
