# generated using pymatgen
data_Th6ZnNi5Sn8
_symmetry_space_group_name_H-M   'P 1'
_cell_length_a   8.41424968
_cell_length_b   8.41425087
_cell_length_c   8.41425051
_cell_angle_alpha   109.28517967
_cell_angle_beta   109.84394706
_cell_angle_gamma   109.28517908
_symmetry_Int_Tables_number   1
_chemical_formula_structural   Th6ZnNi5Sn8
_chemical_formula_sum   'Th6 Zn1 Ni5 Sn8'
_cell_volume   458.57524305
_cell_formula_units_Z   1
loop_
 _symmetry_equiv_pos_site_id
 _symmetry_equiv_pos_as_xyz
  1  'x, y, z'
loop_
 _atom_site_type_symbol
 _atom_site_label
 _atom_site_symmetry_multiplicity
 _atom_site_fract_x
 _atom_site_fract_y
 _atom_site_fract_z
 _atom_site_occupancy
  Th  Th0  1  0.875000  0.250000  0.125000  1
  Th  Th1  1  0.625000  0.750000  0.375000  1
  Th  Th2  1  0.246077  0.120699  0.880716  1
  Th  Th3  1  0.760017  0.379301  0.625378  1
  Th  Th4  1  0.119284  0.865361  0.239983  1
  Th  Th5  1  0.374622  0.634639  0.753923  1
  Zn  Zn6  1  0.375000  0.250000  0.625000  1
  Ni  Ni7  1  0.125000  0.750000  0.875000  1
  Ni  Ni8  1  0.248755  0.625511  0.374671  1
  Ni  Ni9  1  0.749160  0.874489  0.123244  1
  Ni  Ni10  1  0.625329  0.374084  0.250840  1
  Ni  Ni11  1  0.876756  0.125916  0.751245  1
  Sn  Sn12  1  0.662280  0.504393  0.007003  1
  Sn  Sn13  1  0.502610  0.995607  0.657887  1
  Sn  Sn14  1  0.999895  0.660548  0.498660  1
  Sn  Sn15  1  0.838112  0.839452  0.839347  1
  Sn  Sn16  1  0.501340  0.001234  0.161888  1
  Sn  Sn17  1  0.160653  0.498766  0.000105  1
  Sn  Sn18  1  0.992997  0.155276  0.497390  1
  Sn  Sn19  1  0.342113  0.344724  0.337720  1
