# generated using pymatgen
data_YbAl2(Fe4Re)2
_symmetry_space_group_name_H-M   'P 1'
_cell_length_a   4.74031029
_cell_length_b   6.50442904
_cell_length_c   6.50442803
_cell_angle_alpha   96.71057077
_cell_angle_beta   111.37009827
_cell_angle_gamma   68.62989404
_symmetry_Int_Tables_number   1
_chemical_formula_structural   YbAl2(Fe4Re)2
_chemical_formula_sum   'Yb1 Al2 Fe8 Re2'
_cell_volume   173.89245281
_cell_formula_units_Z   1
loop_
 _symmetry_equiv_pos_site_id
 _symmetry_equiv_pos_as_xyz
  1  'x, y, z'
loop_
 _atom_site_type_symbol
 _atom_site_label
 _atom_site_symmetry_multiplicity
 _atom_site_fract_x
 _atom_site_fract_y
 _atom_site_fract_z
 _atom_site_occupancy
  Yb  Yb0  1  0.000000  0.000000  0.000000  1
  Al  Al1  1  0.709621  0.790379  0.209621  1
  Al  Al2  1  0.290379  0.209621  0.790379  1
  Fe  Fe3  1  0.500000  0.770407  0.770407  1
  Fe  Fe4  1  0.500000  0.229593  0.229593  1
  Fe  Fe5  1  0.500000  0.000000  0.500000  1
  Fe  Fe6  1  0.000000  0.000000  0.500000  1
  Fe  Fe7  1  0.500000  0.500000  0.000000  1
  Fe  Fe8  1  0.000000  0.500000  0.000000  1
  Fe  Fe9  1  0.638214  0.361786  0.638214  1
  Fe  Fe10  1  0.361786  0.638214  0.361786  1
  Re  Re11  1  0.000000  0.356575  0.356575  1
  Re  Re12  1  0.000000  0.643425  0.643425  1
