# generated using pymatgen
data_LaNd6Ho9(CdPt)4
_symmetry_space_group_name_H-M   'P 1'
_cell_length_a   9.77903179
_cell_length_b   9.77903286
_cell_length_c   9.77903245
_cell_angle_alpha   60.33156596
_cell_angle_beta   60.33156278
_cell_angle_gamma   60.33156691
_symmetry_Int_Tables_number   1
_chemical_formula_structural   LaNd6Ho9(CdPt)4
_chemical_formula_sum   'La1 Nd6 Ho9 Cd4 Pt4'
_cell_volume   666.22108021
_cell_formula_units_Z   1
loop_
 _symmetry_equiv_pos_site_id
 _symmetry_equiv_pos_as_xyz
  1  'x, y, z'
loop_
 _atom_site_type_symbol
 _atom_site_label
 _atom_site_symmetry_multiplicity
 _atom_site_fract_x
 _atom_site_fract_y
 _atom_site_fract_z
 _atom_site_occupancy
  La  La0  1  0.350369  0.350369  0.350369  1
  Nd  Nd1  1  0.938595  0.562410  0.562410  1
  Nd  Nd2  1  0.561106  0.937910  0.937910  1
  Nd  Nd3  1  0.562410  0.938595  0.562410  1
  Nd  Nd4  1  0.937910  0.561106  0.937910  1
  Nd  Nd5  1  0.562410  0.562410  0.938595  1
  Nd  Nd6  1  0.937910  0.937910  0.561106  1
  Ho  Ho7  1  0.350908  0.350908  0.946243  1
  Ho  Ho8  1  0.350908  0.946243  0.350908  1
  Ho  Ho9  1  0.946243  0.350908  0.350908  1
  Ho  Ho10  1  0.815479  0.186633  0.186633  1
  Ho  Ho11  1  0.188112  0.812094  0.812094  1
  Ho  Ho12  1  0.186633  0.815479  0.186633  1
  Ho  Ho13  1  0.812094  0.188112  0.812094  1
  Ho  Ho14  1  0.186633  0.186633  0.815479  1
  Ho  Ho15  1  0.812094  0.812094  0.188112  1
  Cd  Cd16  1  0.580019  0.580019  0.580019  1
  Cd  Cd17  1  0.582138  0.582138  0.259873  1
  Cd  Cd18  1  0.582138  0.259873  0.582138  1
  Cd  Cd19  1  0.259873  0.582138  0.582138  1
  Pt  Pt20  1  0.143217  0.143217  0.143217  1
  Pt  Pt21  1  0.138961  0.138961  0.574878  1
  Pt  Pt22  1  0.138961  0.574878  0.138961  1
  Pt  Pt23  1  0.574878  0.138961  0.138961  1
