# generated using pymatgen
data_KRb5Y2F12
_symmetry_space_group_name_H-M   'P 1'
_cell_length_a   6.82688803
_cell_length_b   6.62900070
_cell_length_c   11.51215787
_cell_angle_alpha   55.18742601
_cell_angle_beta   89.95370144
_cell_angle_gamma   90.12929771
_symmetry_Int_Tables_number   1
_chemical_formula_structural   KRb5Y2F12
_chemical_formula_sum   'K1 Rb5 Y2 F12'
_cell_volume   427.74100110
_cell_formula_units_Z   1
loop_
 _symmetry_equiv_pos_site_id
 _symmetry_equiv_pos_as_xyz
  1  'x, y, z'
loop_
 _atom_site_type_symbol
 _atom_site_label
 _atom_site_symmetry_multiplicity
 _atom_site_fract_x
 _atom_site_fract_y
 _atom_site_fract_z
 _atom_site_occupancy
  K  K0  1  0.500000  0.500000  0.000000  1
  Rb  Rb1  1  0.953719  0.728052  0.757335  1
  Rb  Rb2  1  0.455801  0.264381  0.749124  1
  Rb  Rb3  1  0.046281  0.271948  0.242665  1
  Rb  Rb4  1  0.544199  0.735619  0.250876  1
  Rb  Rb5  1  0.000000  0.500000  0.500000  1
  Y  Y6  1  0.500000  0.000000  0.500000  1
  Y  Y7  1  0.000000  0.000000  0.000000  1
  F  F8  1  0.950450  0.883495  0.218222  1
  F  F9  1  0.451356  0.123770  0.278253  1
  F  F10  1  0.049550  0.116505  0.781778  1
  F  F11  1  0.548644  0.876230  0.721747  1
  F  F12  1  0.742432  0.242761  0.937395  1
  F  F13  1  0.236986  0.765890  0.565998  1
  F  F14  1  0.257568  0.757239  0.062605  1
  F  F15  1  0.763014  0.234110  0.434002  1
  F  F16  1  0.326262  0.314062  0.455684  1
  F  F17  1  0.813041  0.694541  0.040847  1
  F  F18  1  0.673738  0.685938  0.544316  1
  F  F19  1  0.186959  0.305459  0.959153  1
