# generated using pymatgen
data_Pr4HoTl2InBr
_symmetry_space_group_name_H-M   'P 1'
_cell_length_a   9.56492128
_cell_length_b   9.56492168
_cell_length_c   6.92657726
_cell_angle_alpha   90.01794353
_cell_angle_beta   90.01794786
_cell_angle_gamma   119.94411630
_symmetry_Int_Tables_number   1
_chemical_formula_structural   Pr4HoTl2InBr
_chemical_formula_sum   'Pr8 Ho2 Tl4 In2 Br2'
_cell_volume   549.10618092
_cell_formula_units_Z   2
loop_
 _symmetry_equiv_pos_site_id
 _symmetry_equiv_pos_as_xyz
  1  'x, y, z'
loop_
 _atom_site_type_symbol
 _atom_site_label
 _atom_site_symmetry_multiplicity
 _atom_site_fract_x
 _atom_site_fract_y
 _atom_site_fract_z
 _atom_site_occupancy
  Pr  Pr0  1  0.732592  0.732592  0.252979  1
  Pr  Pr1  1  0.999332  0.732757  0.746850  1
  Pr  Pr2  1  0.732757  0.999332  0.746850  1
  Pr  Pr3  1  0.267408  0.267408  0.747021  1
  Pr  Pr4  1  0.000668  0.267243  0.253150  1
  Pr  Pr5  1  0.267243  0.000668  0.253150  1
  Pr  Pr6  1  0.334109  0.665891  0.000000  1
  Pr  Pr7  1  0.665891  0.334109  0.000000  1
  Ho  Ho8  1  0.334226  0.665774  0.500000  1
  Ho  Ho9  1  0.665774  0.334226  0.500000  1
  Tl  Tl10  1  0.393373  0.000241  0.744259  1
  Tl  Tl11  1  0.999759  0.606627  0.255741  1
  Tl  Tl12  1  0.606627  0.999759  0.255741  1
  Tl  Tl13  1  0.000241  0.393373  0.744259  1
  In  In14  1  0.393652  0.393652  0.256278  1
  In  In15  1  0.606348  0.606348  0.743722  1
  Br  Br16  1  0.000000  0.000000  0.500000  1
  Br  Br17  1  0.000000  0.000000  0.000000  1
