# generated using pymatgen
data_Eu2HgPt2
_symmetry_space_group_name_H-M   'P 1'
_cell_length_a   5.89824000
_cell_length_b   5.89824052
_cell_length_c   8.51595866
_cell_angle_alpha   75.94535694
_cell_angle_beta   75.94535544
_cell_angle_gamma   58.32659031
_symmetry_Int_Tables_number   1
_chemical_formula_structural   Eu2HgPt2
_chemical_formula_sum   'Eu4 Hg2 Pt4'
_cell_volume   242.19036849
_cell_formula_units_Z   2
loop_
 _symmetry_equiv_pos_site_id
 _symmetry_equiv_pos_as_xyz
  1  'x, y, z'
loop_
 _atom_site_type_symbol
 _atom_site_label
 _atom_site_symmetry_multiplicity
 _atom_site_fract_x
 _atom_site_fract_y
 _atom_site_fract_z
 _atom_site_occupancy
  Eu  Eu0  1  0.799762  0.497105  0.351015  1
  Eu  Eu1  1  0.502895  0.200238  0.148985  1
  Eu  Eu2  1  0.200238  0.502895  0.648985  1
  Eu  Eu3  1  0.497105  0.799762  0.851015  1
  Hg  Hg4  1  0.174465  0.825535  0.250000  1
  Hg  Hg5  1  0.825535  0.174465  0.750000  1
  Pt  Pt6  1  0.004774  0.720856  0.005560  1
  Pt  Pt7  1  0.279144  0.995226  0.494440  1
  Pt  Pt8  1  0.995226  0.279144  0.994440  1
  Pt  Pt9  1  0.720856  0.004774  0.505560  1
