# generated using pymatgen
data_Th3Ga3PdPtRh
_symmetry_space_group_name_H-M   'P 1'
_cell_length_a   7.36508800
_cell_length_b   7.36508910
_cell_length_c   4.09008100
_cell_angle_alpha   90.00000000
_cell_angle_beta   90.00000000
_cell_angle_gamma   120.00000405
_symmetry_Int_Tables_number   1
_chemical_formula_structural   Th3Ga3PdPtRh
_chemical_formula_sum   'Th3 Ga3 Pd1 Pt1 Rh1'
_cell_volume   192.14030163
_cell_formula_units_Z   1
loop_
 _symmetry_equiv_pos_site_id
 _symmetry_equiv_pos_as_xyz
  1  'x, y, z'
loop_
 _atom_site_type_symbol
 _atom_site_label
 _atom_site_symmetry_multiplicity
 _atom_site_fract_x
 _atom_site_fract_y
 _atom_site_fract_z
 _atom_site_occupancy
  Th  Th0  1  0.995400  0.413776  0.500000  1
  Th  Th1  1  0.586224  0.581624  0.500000  1
  Th  Th2  1  0.418376  0.004600  0.500000  1
  Ga  Ga3  1  0.996175  0.754309  0.000000  1
  Ga  Ga4  1  0.245691  0.241866  0.000000  1
  Ga  Ga5  1  0.758134  0.003825  0.000000  1
  Pd  Pd6  1  0.000000  0.000000  0.500000  1
  Pt  Pt7  1  0.333333  0.666667  0.000000  1
  Rh  Rh8  1  0.666667  0.333333  0.000000  1
