# generated using pymatgen
data_Sc4OsRu7
_symmetry_space_group_name_H-M   'P 1'
_cell_length_a   5.12366933
_cell_length_b   5.12366940
_cell_length_c   8.67520000
_cell_angle_alpha   90.00000000
_cell_angle_beta   90.00000000
_cell_angle_gamma   119.17954222
_symmetry_Int_Tables_number   1
_chemical_formula_structural   Sc4OsRu7
_chemical_formula_sum   'Sc4 Os1 Ru7'
_cell_volume   198.84001853
_cell_formula_units_Z   1
loop_
 _symmetry_equiv_pos_site_id
 _symmetry_equiv_pos_as_xyz
  1  'x, y, z'
loop_
 _atom_site_type_symbol
 _atom_site_label
 _atom_site_symmetry_multiplicity
 _atom_site_fract_x
 _atom_site_fract_y
 _atom_site_fract_z
 _atom_site_occupancy
  Sc  Sc0  1  0.332081  0.667919  0.432396  1
  Sc  Sc1  1  0.667026  0.332974  0.568182  1
  Sc  Sc2  1  0.667026  0.332974  0.931818  1
  Sc  Sc3  1  0.332081  0.667919  0.067604  1
  Os  Os4  1  0.832260  0.167740  0.250000  1
  Ru  Ru5  1  0.173238  0.342644  0.750000  1
  Ru  Ru6  1  0.172302  0.827698  0.750000  1
  Ru  Ru7  1  0.346886  0.169483  0.250000  1
  Ru  Ru8  1  0.830517  0.653114  0.250000  1
  Ru  Ru9  1  0.657356  0.826762  0.750000  1
  Ru  Ru10  1  0.994613  0.005387  0.999781  1
  Ru  Ru11  1  0.994613  0.005387  0.500219  1
