# generated using pymatgen
data_Sc2Ta8Be3Nb2(B3Os4)3
_symmetry_space_group_name_H-M   'P 1'
_cell_length_a   3.12648900
_cell_length_b   9.08854775
_cell_length_c   15.84543700
_cell_angle_alpha   90.31544981
_cell_angle_beta   90.00000000
_cell_angle_gamma   90.00000000
_symmetry_Int_Tables_number   1
_chemical_formula_structural   Sc2Ta8Be3Nb2(B3Os4)3
_chemical_formula_sum   'Sc2 Ta8 Be3 Nb2 B9 Os12'
_cell_volume   450.24514340
_cell_formula_units_Z   1
loop_
 _symmetry_equiv_pos_site_id
 _symmetry_equiv_pos_as_xyz
  1  'x, y, z'
loop_
 _atom_site_type_symbol
 _atom_site_label
 _atom_site_symmetry_multiplicity
 _atom_site_fract_x
 _atom_site_fract_y
 _atom_site_fract_z
 _atom_site_occupancy
  Sc  Sc0  1  0.000000  0.680523  0.207474  1
  Sc  Sc1  1  0.000000  0.319878  0.791829  1
  Ta  Ta2  1  0.000000  0.801515  0.495483  1
  Ta  Ta3  1  0.000000  0.198187  0.505456  1
  Ta  Ta4  1  0.000000  0.304159  0.005563  1
  Ta  Ta5  1  0.000000  0.695102  0.994487  1
  Ta  Ta6  1  0.000000  0.515841  0.594715  1
  Ta  Ta7  1  0.000000  0.483273  0.405152  1
  Ta  Ta8  1  0.000000  0.015989  0.905221  1
  Ta  Ta9  1  0.000000  0.983523  0.094562  1
  Be  Be10  1  0.000000  0.607095  0.832426  1
  Be  Be11  1  0.000000  0.392550  0.167484  1
  Be  Be12  1  0.000000  0.110815  0.668531  1
  Nb  Nb13  1  0.000000  0.183320  0.293774  1
  Nb  Nb14  1  0.000000  0.819384  0.706581  1
  B  B15  1  0.500000  0.604790  0.495723  1
  B  B16  1  0.500000  0.395338  0.503249  1
  B  B17  1  0.500000  0.104815  0.005164  1
  B  B18  1  0.500000  0.894584  0.995553  1
  B  B19  1  0.000000  0.887796  0.330860  1
  B  B20  1  0.500000  0.716796  0.600029  1
  B  B21  1  0.500000  0.283115  0.400394  1
  B  B22  1  0.500000  0.216390  0.900833  1
  B  B23  1  0.500000  0.782932  0.098761  1
  Os  Os24  1  0.500000  0.719145  0.361107  1
  Os  Os25  1  0.500000  0.285997  0.637448  1
  Os  Os26  1  0.500000  0.213230  0.142159  1
  Os  Os27  1  0.500000  0.785650  0.858963  1
  Os  Os28  1  0.500000  0.518943  0.092677  1
  Os  Os29  1  0.500000  0.480719  0.907954  1
  Os  Os30  1  0.500000  0.017428  0.405448  1
  Os  Os31  1  0.500000  0.979258  0.591605  1
  Os  Os32  1  0.500000  0.573561  0.728385  1
  Os  Os33  1  0.500000  0.428360  0.271415  1
  Os  Os34  1  0.500000  0.062643  0.768606  1
  Os  Os35  1  0.500000  0.937357  0.234928  1
