# generated using pymatgen
data_Li6Tm2PuN6
_symmetry_space_group_name_H-M   'P 1'
_cell_length_a   5.89296100
_cell_length_b   5.89296118
_cell_length_c   5.49268000
_cell_angle_alpha   90.00000000
_cell_angle_beta   90.00000000
_cell_angle_gamma   120.00000161
_symmetry_Int_Tables_number   1
_chemical_formula_structural   Li6Tm2PuN6
_chemical_formula_sum   'Li6 Tm2 Pu1 N6'
_cell_volume   165.18935962
_cell_formula_units_Z   1
loop_
 _symmetry_equiv_pos_site_id
 _symmetry_equiv_pos_as_xyz
  1  'x, y, z'
loop_
 _atom_site_type_symbol
 _atom_site_label
 _atom_site_symmetry_multiplicity
 _atom_site_fract_x
 _atom_site_fract_y
 _atom_site_fract_z
 _atom_site_occupancy
  Li  Li0  1  0.995193  0.670537  0.612245  1
  Li  Li1  1  0.329463  0.324658  0.612245  1
  Li  Li2  1  0.675342  0.004807  0.612245  1
  Li  Li3  1  0.004807  0.329463  0.387755  1
  Li  Li4  1  0.670537  0.675342  0.387755  1
  Li  Li5  1  0.324658  0.995193  0.387755  1
  Tm  Tm6  1  0.333333  0.666667  0.996884  1
  Tm  Tm7  1  0.666667  0.333333  0.003116  1
  Pu  Pu8  1  0.000000  0.000000  0.000000  1
  N  N9  1  0.999204  0.689946  0.223529  1
  N  N10  1  0.310054  0.309258  0.223529  1
  N  N11  1  0.690742  0.000796  0.223529  1
  N  N12  1  0.000796  0.310054  0.776471  1
  N  N13  1  0.689946  0.690742  0.776471  1
  N  N14  1  0.309258  0.999204  0.776471  1
