# generated using pymatgen
data_Pu(SO4)2
_symmetry_space_group_name_H-M   'P 1'
_cell_length_a   9.00421400
_cell_length_b   9.40304100
_cell_length_c   13.48170600
_cell_angle_alpha   90.00000000
_cell_angle_beta   90.00000000
_cell_angle_gamma   90.00000000
_symmetry_Int_Tables_number   1
_chemical_formula_structural   Pu(SO4)2
_chemical_formula_sum   'Pu8 S16 O64'
_cell_volume   1141.45551312
_cell_formula_units_Z   8
loop_
 _symmetry_equiv_pos_site_id
 _symmetry_equiv_pos_as_xyz
  1  'x, y, z'
loop_
 _atom_site_type_symbol
 _atom_site_label
 _atom_site_symmetry_multiplicity
 _atom_site_fract_x
 _atom_site_fract_y
 _atom_site_fract_z
 _atom_site_occupancy
  Pu  Pu0  1  0.785154  0.032890  0.105886  1
  Pu  Pu1  1  0.714846  0.532890  0.894114  1
  Pu  Pu2  1  0.285154  0.967110  0.394114  1
  Pu  Pu3  1  0.214846  0.467110  0.605886  1
  Pu  Pu4  1  0.214846  0.967110  0.894114  1
  Pu  Pu5  1  0.285154  0.467110  0.105886  1
  Pu  Pu6  1  0.714846  0.032890  0.605886  1
  Pu  Pu7  1  0.785154  0.532890  0.394114  1
  S  S8  1  0.995972  0.721110  0.056964  1
  S  S9  1  0.504028  0.221110  0.943036  1
  S  S10  1  0.495972  0.278890  0.443036  1
  S  S11  1  0.004028  0.778890  0.556964  1
  S  S12  1  0.004028  0.278890  0.943036  1
  S  S13  1  0.495972  0.778890  0.056964  1
  S  S14  1  0.504028  0.721110  0.556964  1
  S  S15  1  0.995972  0.221110  0.443036  1
  S  S16  1  0.818494  0.893766  0.845538  1
  S  S17  1  0.681506  0.393766  0.154462  1
  S  S18  1  0.318494  0.106234  0.654462  1
  S  S19  1  0.181506  0.606234  0.345538  1
  S  S20  1  0.181506  0.106234  0.154462  1
  S  S21  1  0.318494  0.606234  0.845538  1
  S  S22  1  0.681506  0.893766  0.345538  1
  S  S23  1  0.818494  0.393766  0.654462  1
  O  O24  1  0.891283  0.802124  0.121161  1
  O  O25  1  0.608717  0.302124  0.878839  1
  O  O26  1  0.391283  0.197876  0.378839  1
  O  O27  1  0.108717  0.697876  0.621161  1
  O  O28  1  0.108717  0.197876  0.878839  1
  O  O29  1  0.391283  0.697876  0.121161  1
  O  O30  1  0.608717  0.802124  0.621161  1
  O  O31  1  0.891283  0.302124  0.378839  1
  O  O32  1  0.918233  0.641305  0.978727  1
  O  O33  1  0.581767  0.141305  0.021273  1
  O  O34  1  0.418233  0.358695  0.521273  1
  O  O35  1  0.081767  0.858695  0.478727  1
  O  O36  1  0.081767  0.358695  0.021273  1
  O  O37  1  0.418233  0.858695  0.978727  1
  O  O38  1  0.581767  0.641305  0.478727  1
  O  O39  1  0.918233  0.141305  0.521273  1
  O  O40  1  0.081372  0.621120  0.120401  1
  O  O41  1  0.418628  0.121120  0.879599  1
  O  O42  1  0.581372  0.378880  0.379599  1
  O  O43  1  0.918628  0.878880  0.620401  1
  O  O44  1  0.918628  0.378880  0.879599  1
  O  O45  1  0.581372  0.878880  0.120401  1
  O  O46  1  0.418628  0.621120  0.620401  1
  O  O47  1  0.081372  0.121120  0.379599  1
  O  O48  1  0.099836  0.825709  0.011608  1
  O  O49  1  0.400164  0.325709  0.988392  1
  O  O50  1  0.599836  0.174291  0.488392  1
  O  O51  1  0.900164  0.674291  0.511608  1
  O  O52  1  0.900164  0.174291  0.988392  1
  O  O53  1  0.599836  0.674291  0.011608  1
  O  O54  1  0.400164  0.825709  0.511608  1
  O  O55  1  0.099836  0.325709  0.488392  1
  O  O56  1  0.770214  0.923798  0.947587  1
  O  O57  1  0.729786  0.423798  0.052413  1
  O  O58  1  0.270214  0.076202  0.552413  1
  O  O59  1  0.229786  0.576202  0.447587  1
  O  O60  1  0.229786  0.076202  0.052413  1
  O  O61  1  0.270214  0.576202  0.947587  1
  O  O62  1  0.729786  0.923798  0.447587  1
  O  O63  1  0.770214  0.423798  0.552413  1
  O  O64  1  0.742849  0.990131  0.775145  1
  O  O65  1  0.757151  0.490131  0.224855  1
  O  O66  1  0.242849  0.009869  0.724855  1
  O  O67  1  0.257151  0.509869  0.275145  1
  O  O68  1  0.257151  0.009869  0.224855  1
  O  O69  1  0.242849  0.509869  0.775145  1
  O  O70  1  0.757151  0.990131  0.275145  1
  O  O71  1  0.742849  0.490131  0.724855  1
  O  O72  1  0.777180  0.745029  0.819596  1
  O  O73  1  0.722820  0.245029  0.180404  1
  O  O74  1  0.277180  0.254971  0.680404  1
  O  O75  1  0.222820  0.754971  0.319596  1
  O  O76  1  0.222820  0.254971  0.180404  1
  O  O77  1  0.277180  0.754971  0.819596  1
  O  O78  1  0.722820  0.745029  0.319596  1
  O  O79  1  0.777180  0.245029  0.680404  1
  O  O80  1  0.981809  0.912932  0.834602  1
  O  O81  1  0.518191  0.412932  0.165398  1
  O  O82  1  0.481809  0.087068  0.665398  1
  O  O83  1  0.018191  0.587068  0.334602  1
  O  O84  1  0.018191  0.087068  0.165398  1
  O  O85  1  0.481809  0.587068  0.834602  1
  O  O86  1  0.518191  0.912932  0.334602  1
  O  O87  1  0.981809  0.412932  0.665398  1
