# generated using pymatgen
data_TcHg4As3F28
_symmetry_space_group_name_H-M   'P 1'
_cell_length_a   10.36093971
_cell_length_b   7.29143500
_cell_length_c   8.06233900
_cell_angle_alpha   80.82874598
_cell_angle_beta   89.62686756
_cell_angle_gamma   89.79178780
_symmetry_Int_Tables_number   1
_chemical_formula_structural   TcHg4As3F28
_chemical_formula_sum   'Tc1 Hg4 As3 F28'
_cell_volume   601.27734538
_cell_formula_units_Z   1
loop_
 _symmetry_equiv_pos_site_id
 _symmetry_equiv_pos_as_xyz
  1  'x, y, z'
loop_
 _atom_site_type_symbol
 _atom_site_label
 _atom_site_symmetry_multiplicity
 _atom_site_fract_x
 _atom_site_fract_y
 _atom_site_fract_z
 _atom_site_occupancy
  Tc  Tc0  1  0.560516  0.218786  0.209733  1
  Hg  Hg1  1  0.248379  0.284043  0.885308  1
  Hg  Hg2  1  0.753570  0.710585  0.613468  1
  Hg  Hg3  1  0.750221  0.729587  0.108344  1
  Hg  Hg4  1  0.240744  0.271692  0.389480  1
  As  As5  1  0.060593  0.786856  0.290795  1
  As  As6  1  0.441304  0.793447  0.801796  1
  As  As7  1  0.939243  0.202162  0.699788  1
  F  F8  1  0.704079  0.380170  0.145133  1
  F  F9  1  0.192620  0.632048  0.341518  1
  F  F10  1  0.307854  0.644418  0.860417  1
  F  F11  1  0.804581  0.348483  0.638397  1
  F  F12  1  0.637894  0.127971  0.413469  1
  F  F13  1  0.135065  0.885161  0.103185  1
  F  F14  1  0.365315  0.891404  0.615521  1
  F  F15  1  0.863243  0.109162  0.888297  1
  F  F16  1  0.480631  0.307177  0.000184  1
  F  F17  1  0.984310  0.688077  0.483448  1
  F  F18  1  0.520181  0.695386  0.993400  1
  F  F19  1  0.017069  0.295942  0.504378  1
  F  F20  1  0.409953  0.070310  0.269965  1
  F  F21  1  0.921904  0.932242  0.243490  1
  F  F22  1  0.581456  0.932417  0.748104  1
  F  F23  1  0.080569  0.066225  0.754890  1
  F  F24  1  0.646375  0.031753  0.105756  1
  F  F25  1  0.133099  0.953746  0.399264  1
  F  F26  1  0.373571  0.965398  0.909440  1
  F  F27  1  0.874168  0.025923  0.597293  1
  F  F28  1  0.467450  0.402793  0.308201  1
  F  F29  1  0.981582  0.617320  0.188250  1
  F  F30  1  0.514810  0.618186  0.699785  1
  F  F31  1  0.010542  0.382672  0.794516  1
  F  F32  1  0.179996  0.301943  0.128365  1
  F  F33  1  0.685169  0.699759  0.369917  1
  F  F34  1  0.819531  0.689602  0.863411  1
  F  F35  1  0.312409  0.307157  0.633294  1
