# generated using pymatgen
data_Dy7ErTi3Si16Mo9
_symmetry_space_group_name_H-M   'P 1'
_cell_length_a   6.91131346
_cell_length_b   6.91113418
_cell_length_c   12.80381207
_cell_angle_alpha   90.01509166
_cell_angle_beta   90.00189706
_cell_angle_gamma   89.81165892
_symmetry_Int_Tables_number   1
_chemical_formula_structural   Dy7ErTi3Si16Mo9
_chemical_formula_sum   'Dy7 Er1 Ti3 Si16 Mo9'
_cell_volume   611.57094631
_cell_formula_units_Z   1
loop_
 _symmetry_equiv_pos_site_id
 _symmetry_equiv_pos_as_xyz
  1  'x, y, z'
loop_
 _atom_site_type_symbol
 _atom_site_label
 _atom_site_symmetry_multiplicity
 _atom_site_fract_x
 _atom_site_fract_y
 _atom_site_fract_z
 _atom_site_occupancy
  Dy  Dy0  1  0.339340  0.001831  0.468524  1
  Dy  Dy1  1  0.497156  0.838915  0.719233  1
  Dy  Dy2  1  0.499342  0.161827  0.217478  1
  Dy  Dy3  1  0.838978  0.497241  0.280694  1
  Dy  Dy4  1  0.161755  0.499418  0.782602  1
  Dy  Dy5  1  0.659862  0.999714  0.968816  1
  Dy  Dy6  1  0.001840  0.339362  0.531471  1
  Er  Er7  1  0.000307  0.659197  0.031055  1
  Ti  Ti8  1  0.169872  0.831475  0.248501  1
  Ti  Ti9  1  0.831539  0.169963  0.751401  1
  Ti  Ti10  1  0.668839  0.668857  0.500002  1
  Si  Si11  1  0.200801  0.128755  0.683715  1
  Si  Si12  1  0.373471  0.697174  0.934379  1
  Si  Si13  1  0.628439  0.299116  0.433739  1
  Si  Si14  1  0.697559  0.374407  0.065760  1
  Si  Si15  1  0.299104  0.628445  0.566271  1
  Si  Si16  1  0.797229  0.871741  0.183979  1
  Si  Si17  1  0.128739  0.200818  0.316292  1
  Si  Si18  1  0.872237  0.796726  0.815945  1
  Si  Si19  1  0.287022  0.963323  0.061602  1
  Si  Si20  1  0.539406  0.790784  0.313456  1
  Si  Si21  1  0.458300  0.211317  0.815012  1
  Si  Si22  1  0.790794  0.539406  0.686550  1
  Si  Si23  1  0.210904  0.458707  0.184725  1
  Si  Si24  1  0.710321  0.041055  0.563797  1
  Si  Si25  1  0.963755  0.287993  0.938554  1
  Si  Si26  1  0.041060  0.710330  0.436213  1
  Mo  Mo27  1  0.331303  0.331625  0.000032  1
  Mo  Mo28  1  0.155582  0.002015  0.873252  1
  Mo  Mo29  1  0.495907  0.666330  0.124405  1
  Mo  Mo30  1  0.506142  0.340486  0.624546  1
  Mo  Mo31  1  0.666675  0.496139  0.875736  1
  Mo  Mo32  1  0.340437  0.506199  0.375386  1
  Mo  Mo33  1  0.840715  0.993012  0.374200  1
  Mo  Mo34  1  0.002175  0.155618  0.126900  1
  Mo  Mo35  1  0.993095  0.840683  0.625776  1
