# generated using pymatgen
data_Li2LaSm2Al7
_symmetry_space_group_name_H-M   'P 1'
_cell_length_a   9.44150139
_cell_length_b   9.44150112
_cell_length_c   9.44150108
_cell_angle_alpha   34.75795009
_cell_angle_beta   34.75795464
_cell_angle_gamma   34.75793794
_symmetry_Int_Tables_number   1
_chemical_formula_structural   Li2LaSm2Al7
_chemical_formula_sum   'Li2 La1 Sm2 Al7'
_cell_volume   244.14956888
_cell_formula_units_Z   1
loop_
 _symmetry_equiv_pos_site_id
 _symmetry_equiv_pos_as_xyz
  1  'x, y, z'
loop_
 _atom_site_type_symbol
 _atom_site_label
 _atom_site_symmetry_multiplicity
 _atom_site_fract_x
 _atom_site_fract_y
 _atom_site_fract_z
 _atom_site_occupancy
  Li  Li0  1  0.664695  0.664695  0.664695  1
  Li  Li1  1  0.335305  0.335305  0.335305  1
  La  La2  1  0.000000  0.000000  0.000000  1
  Sm  Sm3  1  0.140364  0.140364  0.140364  1
  Sm  Sm4  1  0.859636  0.859636  0.859636  1
  Al  Al5  1  0.413693  0.413693  0.923322  1
  Al  Al6  1  0.923322  0.413693  0.413693  1
  Al  Al7  1  0.500000  0.500000  0.500000  1
  Al  Al8  1  0.586307  0.586307  0.076678  1
  Al  Al9  1  0.413693  0.923322  0.413693  1
  Al  Al10  1  0.076678  0.586307  0.586307  1
  Al  Al11  1  0.586307  0.076678  0.586307  1
