# generated using pymatgen
data_Nd4Ga18PdRh5
_symmetry_space_group_name_H-M   'P 1'
_cell_length_a   7.66338224
_cell_length_b   7.66338268
_cell_length_c   9.63821301
_cell_angle_alpha   89.99165455
_cell_angle_beta   89.99165239
_cell_angle_gamma   119.48552331
_symmetry_Int_Tables_number   1
_chemical_formula_structural   Nd4Ga18PdRh5
_chemical_formula_sum   'Nd4 Ga18 Pd1 Rh5'
_cell_volume   492.71563474
_cell_formula_units_Z   1
loop_
 _symmetry_equiv_pos_site_id
 _symmetry_equiv_pos_as_xyz
  1  'x, y, z'
loop_
 _atom_site_type_symbol
 _atom_site_label
 _atom_site_symmetry_multiplicity
 _atom_site_fract_x
 _atom_site_fract_y
 _atom_site_fract_z
 _atom_site_occupancy
  Nd  Nd0  1  0.994797  0.668612  0.750221  1
  Nd  Nd1  1  0.002734  0.329636  0.250094  1
  Nd  Nd2  1  0.670364  0.997266  0.749906  1
  Nd  Nd3  1  0.331388  0.005203  0.249779  1
  Ga  Ga4  1  0.128476  0.127130  0.750407  1
  Ga  Ga5  1  0.872870  0.871524  0.249593  1
  Ga  Ga6  1  0.006226  0.335388  0.579342  1
  Ga  Ga7  1  0.001574  0.668725  0.421258  1
  Ga  Ga8  1  0.999154  0.664771  0.076955  1
  Ga  Ga9  1  0.335229  0.000846  0.923045  1
  Ga  Ga10  1  0.001968  0.335193  0.922758  1
  Ga  Ga11  1  0.664807  0.998032  0.077242  1
  Ga  Ga12  1  0.664612  0.993774  0.420658  1
  Ga  Ga13  1  0.331275  0.998426  0.578742  1
  Ga  Ga14  1  0.332048  0.332243  0.052153  1
  Ga  Ga15  1  0.667757  0.667952  0.947847  1
  Ga  Ga16  1  0.666564  0.669749  0.555025  1
  Ga  Ga17  1  0.330251  0.333436  0.444975  1
  Ga  Ga18  1  0.341886  0.549322  0.750359  1
  Ga  Ga19  1  0.658969  0.454832  0.246849  1
  Ga  Ga20  1  0.545168  0.341031  0.753151  1
  Ga  Ga21  1  0.450678  0.658114  0.249641  1
  Pd  Pd22  1  0.671541  0.328459  0.500000  1
  Rh  Rh23  1  0.329139  0.670861  0.500000  1
  Rh  Rh24  1  0.328940  0.671060  0.000000  1
  Rh  Rh25  1  0.671566  0.328434  0.000000  1
  Rh  Rh26  1  0.000073  0.999927  0.500000  1
  Rh  Rh27  1  0.999943  0.000057  0.000000  1
