# generated using pymatgen
data_BaLiHoSe3
_symmetry_space_group_name_H-M   'P 1'
_cell_length_a   7.35605438
_cell_length_b   7.35605439
_cell_length_c   10.73813400
_cell_angle_alpha   90.00000000
_cell_angle_beta   90.00000000
_cell_angle_gamma   146.23076456
_symmetry_Int_Tables_number   1
_chemical_formula_structural   BaLiHoSe3
_chemical_formula_sum   'Ba2 Li2 Ho2 Se6'
_cell_volume   322.98011110
_cell_formula_units_Z   2
loop_
 _symmetry_equiv_pos_site_id
 _symmetry_equiv_pos_as_xyz
  1  'x, y, z'
loop_
 _atom_site_type_symbol
 _atom_site_label
 _atom_site_symmetry_multiplicity
 _atom_site_fract_x
 _atom_site_fract_y
 _atom_site_fract_z
 _atom_site_occupancy
  Ba  Ba0  1  0.253210  0.746788  0.250000  1
  Ba  Ba1  1  0.746788  0.253210  0.750000  1
  Li  Li2  1  0.529413  0.470585  0.250000  1
  Li  Li3  1  0.470585  0.529413  0.750000  1
  Ho  Ho4  1  0.000000  0.000000  0.000000  1
  Ho  Ho5  1  0.000000  0.000000  0.500000  1
  Se  Se6  1  0.631925  0.368073  0.058292  1
  Se  Se7  1  0.931554  0.068444  0.250000  1
  Se  Se8  1  0.631925  0.368073  0.441708  1
  Se  Se9  1  0.368073  0.631925  0.558291  1
  Se  Se10  1  0.068444  0.931554  0.750000  1
  Se  Se11  1  0.368073  0.631925  0.941709  1
