# generated using pymatgen
data_Pr3Tm3TcSn2
_symmetry_space_group_name_H-M   'P 1'
_cell_length_a   8.16303500
_cell_length_b   8.16303416
_cell_length_c   4.50676100
_cell_angle_alpha   90.00000000
_cell_angle_beta   90.00000000
_cell_angle_gamma   119.99999935
_symmetry_Int_Tables_number   1
_chemical_formula_structural   Pr3Tm3TcSn2
_chemical_formula_sum   'Pr3 Tm3 Tc1 Sn2'
_cell_volume   260.07489655
_cell_formula_units_Z   1
loop_
 _symmetry_equiv_pos_site_id
 _symmetry_equiv_pos_as_xyz
  1  'x, y, z'
loop_
 _atom_site_type_symbol
 _atom_site_label
 _atom_site_symmetry_multiplicity
 _atom_site_fract_x
 _atom_site_fract_y
 _atom_site_fract_z
 _atom_site_occupancy
  Pr  Pr0  1  0.401336  0.000000  0.000000  1
  Pr  Pr1  1  0.000000  0.401336  0.000000  1
  Pr  Pr2  1  0.598664  0.598663  0.000000  1
  Tm  Tm3  1  0.764001  0.000000  0.500000  1
  Tm  Tm4  1  0.235999  0.235999  0.500000  1
  Tm  Tm5  1  0.000000  0.764002  0.500000  1
  Tc  Tc6  1  0.000000  0.000000  0.000000  1
  Sn  Sn7  1  0.666666  0.333334  0.500000  1
  Sn  Sn8  1  0.333334  0.666667  0.500000  1
