# generated using pymatgen
data_Tc5Ru2
_symmetry_space_group_name_H-M   'P 1'
_cell_length_a   4.77110366
_cell_length_b   7.02801947
_cell_length_c   6.48813628
_cell_angle_alpha   94.19846835
_cell_angle_beta   111.57254884
_cell_angle_gamma   90.00000489
_symmetry_Int_Tables_number   1
_chemical_formula_structural   Tc5Ru2
_chemical_formula_sum   'Tc10 Ru4'
_cell_volume   201.68919512
_cell_formula_units_Z   2
loop_
 _symmetry_equiv_pos_site_id
 _symmetry_equiv_pos_as_xyz
  1  'x, y, z'
loop_
 _atom_site_type_symbol
 _atom_site_label
 _atom_site_symmetry_multiplicity
 _atom_site_fract_x
 _atom_site_fract_y
 _atom_site_fract_z
 _atom_site_occupancy
  Tc  Tc0  1  0.527535  0.038492  0.720085  1
  Tc  Tc1  1  0.472465  0.961508  0.279915  1
  Tc  Tc2  1  0.807451  0.461508  0.279915  1
  Tc  Tc3  1  0.192549  0.538492  0.720085  1
  Tc  Tc4  1  0.386374  0.324370  0.434165  1
  Tc  Tc5  1  0.613626  0.675630  0.565835  1
  Tc  Tc6  1  0.952210  0.175630  0.565835  1
  Tc  Tc7  1  0.047790  0.824370  0.434165  1
  Tc  Tc8  1  0.335399  0.250000  0.000000  1
  Tc  Tc9  1  0.664601  0.750000  0.000000  1
  Ru  Ru10  1  0.238905  0.607972  0.143184  1
  Ru  Ru11  1  0.761095  0.392028  0.856816  1
  Ru  Ru12  1  0.095722  0.892028  0.856816  1
  Ru  Ru13  1  0.904278  0.107972  0.143184  1
