# generated using pymatgen
data_Sc3Ga2PdO
_symmetry_space_group_name_H-M   'P 1'
_cell_length_a   8.61097589
_cell_length_b   8.60681452
_cell_length_c   8.60917300
_cell_angle_alpha   60.02218384
_cell_angle_beta   59.99163227
_cell_angle_gamma   59.98534347
_symmetry_Int_Tables_number   1
_chemical_formula_structural   Sc3Ga2PdO
_chemical_formula_sum   'Sc12 Ga8 Pd4 O4'
_cell_volume   451.16810848
_cell_formula_units_Z   4
loop_
 _symmetry_equiv_pos_site_id
 _symmetry_equiv_pos_as_xyz
  1  'x, y, z'
loop_
 _atom_site_type_symbol
 _atom_site_label
 _atom_site_symmetry_multiplicity
 _atom_site_fract_x
 _atom_site_fract_y
 _atom_site_fract_z
 _atom_site_occupancy
  Sc  Sc0  1  0.561826  0.938187  0.561831  1
  Sc  Sc1  1  0.311993  0.687980  0.688036  1
  Sc  Sc2  1  0.688072  0.311930  0.311924  1
  Sc  Sc3  1  0.311852  0.688135  0.311818  1
  Sc  Sc4  1  0.688126  0.688067  0.311908  1
  Sc  Sc5  1  0.311914  0.311872  0.688098  1
  Sc  Sc6  1  0.561874  0.561933  0.938092  1
  Sc  Sc7  1  0.938007  0.562020  0.561964  1
  Sc  Sc8  1  0.561928  0.938070  0.938076  1
  Sc  Sc9  1  0.938086  0.938128  0.561902  1
  Sc  Sc10  1  0.688174  0.311813  0.688169  1
  Sc  Sc11  1  0.938148  0.561865  0.938182  1
  Ga  Ga12  1  0.334374  0.334462  0.334501  1
  Ga  Ga13  1  0.253361  0.915554  0.915460  1
  Ga  Ga14  1  0.915569  0.253340  0.915533  1
  Ga  Ga15  1  0.915524  0.915573  0.253330  1
  Ga  Ga16  1  0.334431  0.996660  0.334467  1
  Ga  Ga17  1  0.334476  0.334427  0.996670  1
  Ga  Ga18  1  0.996639  0.334446  0.334540  1
  Ga  Ga19  1  0.915626  0.915538  0.915499  1
  Pd  Pd20  1  0.125000  0.125000  0.125000  1
  Pd  Pd21  1  0.625000  0.125000  0.125000  1
  Pd  Pd22  1  0.125000  0.625000  0.125000  1
  Pd  Pd23  1  0.125000  0.125000  0.625000  1
  O  O24  1  0.625000  0.625000  0.625000  1
  O  O25  1  0.125000  0.625000  0.625000  1
  O  O26  1  0.625000  0.125000  0.625000  1
  O  O27  1  0.625000  0.625000  0.125000  1
