# generated using pymatgen
data_Nd4GeI5
_symmetry_space_group_name_H-M   'P 1'
_cell_length_a   10.07379189
_cell_length_b   10.07379227
_cell_length_c   9.06841899
_cell_angle_alpha   77.84051718
_cell_angle_beta   77.84051527
_cell_angle_gamma   24.94894315
_symmetry_Int_Tables_number   1
_chemical_formula_structural   Nd4GeI5
_chemical_formula_sum   'Nd4 Ge1 I5'
_cell_volume   379.04138309
_cell_formula_units_Z   1
loop_
 _symmetry_equiv_pos_site_id
 _symmetry_equiv_pos_as_xyz
  1  'x, y, z'
loop_
 _atom_site_type_symbol
 _atom_site_label
 _atom_site_symmetry_multiplicity
 _atom_site_fract_x
 _atom_site_fract_y
 _atom_site_fract_z
 _atom_site_occupancy
  Nd  Nd0  1  0.852146  0.852146  0.076414  1
  Nd  Nd1  1  0.147854  0.147854  0.923586  1
  Nd  Nd2  1  0.501249  0.501249  0.215057  1
  Nd  Nd3  1  0.498751  0.498751  0.784943  1
  Ge  Ge4  1  0.000000  0.000000  0.000000  1
  I  I5  1  0.672057  0.672057  0.170045  1
  I  I6  1  0.327943  0.327943  0.829955  1
  I  I7  1  0.665116  0.665116  0.662336  1
  I  I8  1  0.334884  0.334884  0.337664  1
  I  I9  1  0.000000  0.000000  0.500000  1
