# generated using pymatgen
data_Ta7Nb5Al8(RhC)4
_symmetry_space_group_name_H-M   'P 1'
_cell_length_a   8.32564448
_cell_length_b   8.32561180
_cell_length_c   8.33063800
_cell_angle_alpha   59.97943092
_cell_angle_beta   59.97970801
_cell_angle_gamma   59.95673546
_symmetry_Int_Tables_number   1
_chemical_formula_structural   Ta7Nb5Al8(RhC)4
_chemical_formula_sum   'Ta7 Nb5 Al8 Rh4 C4'
_cell_volume   408.05714469
_cell_formula_units_Z   1
loop_
 _symmetry_equiv_pos_site_id
 _symmetry_equiv_pos_as_xyz
  1  'x, y, z'
loop_
 _atom_site_type_symbol
 _atom_site_label
 _atom_site_symmetry_multiplicity
 _atom_site_fract_x
 _atom_site_fract_y
 _atom_site_fract_z
 _atom_site_occupancy
  Ta  Ta0  1  0.314681  0.314390  0.685666  1
  Ta  Ta1  1  0.564656  0.564371  0.935674  1
  Ta  Ta2  1  0.935838  0.563988  0.564680  1
  Ta  Ta3  1  0.564248  0.935444  0.935885  1
  Ta  Ta4  1  0.935562  0.935208  0.564762  1
  Ta  Ta5  1  0.685724  0.314174  0.685640  1
  Ta  Ta6  1  0.935116  0.564649  0.935173  1
  Nb  Nb7  1  0.564319  0.935449  0.564767  1
  Nb  Nb8  1  0.314430  0.685414  0.685719  1
  Nb  Nb9  1  0.685793  0.314163  0.314731  1
  Nb  Nb10  1  0.313862  0.686061  0.314133  1
  Nb  Nb11  1  0.686066  0.685653  0.314277  1
  Al  Al12  1  0.917289  0.916214  0.916938  1
  Al  Al13  1  0.000223  0.333398  0.332647  1
  Al  Al14  1  0.333441  0.000023  0.333757  1
  Al  Al15  1  0.332701  0.333827  0.000418  1
  Al  Al16  1  0.916737  0.249475  0.917423  1
  Al  Al17  1  0.916132  0.917201  0.249820  1
  Al  Al18  1  0.249754  0.916657  0.916244  1
  Al  Al19  1  0.333848  0.332842  0.333145  1
  Rh  Rh20  1  0.126171  0.125988  0.122999  1
  Rh  Rh21  1  0.625221  0.127032  0.120683  1
  Rh  Rh22  1  0.125200  0.624414  0.125278  1
  Rh  Rh23  1  0.121607  0.127908  0.625665  1
  C  C24  1  0.626929  0.622209  0.627214  1
  C  C25  1  0.123044  0.623885  0.626814  1
  C  C26  1  0.625213  0.124365  0.627521  1
  C  C27  1  0.626194  0.625594  0.122328  1
