# generated using pymatgen
data_Cs2Li3MnO4
_symmetry_space_group_name_H-M   'P 1'
_cell_length_a   5.21265130
_cell_length_b   8.20622770
_cell_length_c   8.20620342
_cell_angle_alpha   89.96647766
_cell_angle_beta   108.51783151
_cell_angle_gamma   108.51831952
_symmetry_Int_Tables_number   1
_chemical_formula_structural   Cs2Li3MnO4
_chemical_formula_sum   'Cs4 Li6 Mn2 O8'
_cell_volume   313.65161235
_cell_formula_units_Z   2
loop_
 _symmetry_equiv_pos_site_id
 _symmetry_equiv_pos_as_xyz
  1  'x, y, z'
loop_
 _atom_site_type_symbol
 _atom_site_label
 _atom_site_symmetry_multiplicity
 _atom_site_fract_x
 _atom_site_fract_y
 _atom_site_fract_z
 _atom_site_occupancy
  Cs  Cs0  1  0.393451  0.129033  0.129033  1
  Cs  Cs1  1  0.135384  0.370967  0.370967  1
  Cs  Cs2  1  0.864616  0.629033  0.629033  1
  Cs  Cs3  1  0.606550  0.870967  0.870967  1
  Li  Li4  1  0.257859  0.507858  0.007859  1
  Li  Li5  1  0.500000  0.749999  0.250000  1
  Li  Li6  1  0.742142  0.992141  0.492142  1
  Li  Li7  1  0.257858  0.007858  0.507857  1
  Li  Li8  1  0.500000  0.250000  0.749999  1
  Li  Li9  1  0.742141  0.492141  0.992140  1
  Mn  Mn10  1  0.000001  0.750000  0.250001  1
  Mn  Mn11  1  0.999999  0.249999  0.749998  1
  O  O12  1  0.119188  0.694020  0.064036  1
  O  O13  1  0.638868  0.564036  0.194020  1
  O  O14  1  0.880816  0.935966  0.305981  1
  O  O15  1  0.361130  0.805981  0.435966  1
  O  O16  1  0.638870  0.194020  0.564035  1
  O  O17  1  0.119184  0.064035  0.694020  1
  O  O18  1  0.361132  0.435965  0.805981  1
  O  O19  1  0.880812  0.305981  0.935965  1
