# generated using pymatgen
data_DyTh7TiS17
_symmetry_space_group_name_H-M   'P 1'
_cell_length_a   8.07937530
_cell_length_b   8.06796481
_cell_length_c   10.70368065
_cell_angle_alpha   80.63013751
_cell_angle_beta   80.88946621
_cell_angle_gamma   65.08206664
_symmetry_Int_Tables_number   1
_chemical_formula_structural   DyTh7TiS17
_chemical_formula_sum   'Dy1 Th7 Ti1 S17'
_cell_volume   621.17129375
_cell_formula_units_Z   1
loop_
 _symmetry_equiv_pos_site_id
 _symmetry_equiv_pos_as_xyz
  1  'x, y, z'
loop_
 _atom_site_type_symbol
 _atom_site_label
 _atom_site_symmetry_multiplicity
 _atom_site_fract_x
 _atom_site_fract_y
 _atom_site_fract_z
 _atom_site_occupancy
  Dy  Dy0  1  0.811984  0.300995  0.297258  1
  Th  Th1  1  0.299655  0.811801  0.293519  1
  Th  Th2  1  0.187289  0.700341  0.703524  1
  Th  Th3  1  0.700347  0.188987  0.702592  1
  Th  Th4  1  0.205474  0.205669  0.541801  1
  Th  Th5  1  0.793440  0.796781  0.453706  1
  Th  Th6  1  0.684202  0.680642  0.980789  1
  Th  Th7  1  0.317511  0.315515  0.024465  1
  Ti  Ti8  1  0.999291  0.002784  0.001350  1
  S  S9  1  0.824957  0.429119  0.528682  1
  S  S10  1  0.430950  0.822673  0.529694  1
  S  S11  1  0.176155  0.569949  0.469433  1
  S  S12  1  0.571390  0.177100  0.469621  1
  S  S13  1  0.941413  0.320639  0.030495  1
  S  S14  1  0.323260  0.941147  0.027226  1
  S  S15  1  0.058803  0.678681  0.971172  1
  S  S16  1  0.677545  0.058927  0.971169  1
  S  S17  1  0.204716  0.205353  0.277882  1
  S  S18  1  0.793315  0.792879  0.722771  1
  S  S19  1  0.061629  0.060319  0.773518  1
  S  S20  1  0.936430  0.945143  0.227531  1
  S  S21  1  0.304060  0.305726  0.755458  1
  S  S22  1  0.694689  0.692326  0.244760  1
  S  S23  1  0.520101  0.521451  0.833258  1
  S  S24  1  0.479509  0.478978  0.165476  1
  S  S25  1  0.001884  0.996076  0.502851  1
