# generated using pymatgen
data_Nd2YHo3Co2(P3Rh4)4
_symmetry_space_group_name_H-M   'P 1'
_cell_length_a   3.88159500
_cell_length_b   11.16145400
_cell_length_c   12.84057100
_cell_angle_alpha   89.99819072
_cell_angle_beta   90.00000000
_cell_angle_gamma   90.00000000
_symmetry_Int_Tables_number   1
_chemical_formula_structural   Nd2YHo3Co2(P3Rh4)4
_chemical_formula_sum   'Nd2 Y1 Ho3 Co2 P12 Rh16'
_cell_volume   556.30803147
_cell_formula_units_Z   1
loop_
 _symmetry_equiv_pos_site_id
 _symmetry_equiv_pos_as_xyz
  1  'x, y, z'
loop_
 _atom_site_type_symbol
 _atom_site_label
 _atom_site_symmetry_multiplicity
 _atom_site_fract_x
 _atom_site_fract_y
 _atom_site_fract_z
 _atom_site_occupancy
  Nd  Nd0  1  0.000000  0.500000  0.522203  1
  Nd  Nd1  1  0.500000  0.000020  0.477704  1
  Y  Y2  1  0.000000  0.315038  0.798588  1
  Ho  Ho3  1  0.500000  0.815014  0.201469  1
  Ho  Ho4  1  0.500000  0.184984  0.201463  1
  Ho  Ho5  1  0.000000  0.685004  0.798571  1
  Co  Co6  1  0.000000  0.500155  0.980205  1
  Co  Co7  1  0.500000  0.999940  0.019988  1
  P  P8  1  0.500000  0.500270  0.882961  1
  P  P9  1  0.000000  0.999974  0.117191  1
  P  P10  1  0.500000  0.499984  0.347888  1
  P  P11  1  0.000000  0.000067  0.652188  1
  P  P12  1  0.500000  0.314254  0.620620  1
  P  P13  1  0.500000  0.685848  0.620909  1
  P  P14  1  0.000000  0.185732  0.379068  1
  P  P15  1  0.000000  0.814247  0.379082  1
  P  P16  1  0.500000  0.852982  0.896499  1
  P  P17  1  0.500000  0.146682  0.896634  1
  P  P18  1  0.000000  0.646983  0.103470  1
  P  P19  1  0.000000  0.353001  0.103457  1
  Rh  Rh20  1  0.500000  0.500053  0.166795  1
  Rh  Rh21  1  0.000000  0.999902  0.833105  1
  Rh  Rh22  1  0.500000  0.500480  0.706521  1
  Rh  Rh23  1  0.000000  0.999966  0.293348  1
  Rh  Rh24  1  0.500000  0.336619  0.994237  1
  Rh  Rh25  1  0.500000  0.663515  0.993978  1
  Rh  Rh26  1  0.000000  0.163470  0.006218  1
  Rh  Rh27  1  0.000000  0.836406  0.006057  1
  Rh  Rh28  1  0.500000  0.292468  0.428682  1
  Rh  Rh29  1  0.500000  0.707586  0.428711  1
  Rh  Rh30  1  0.000000  0.207471  0.571072  1
  Rh  Rh31  1  0.000000  0.792389  0.571282  1
  Rh  Rh32  1  0.500000  0.873290  0.713992  1
  Rh  Rh33  1  0.500000  0.126198  0.713702  1
  Rh  Rh34  1  0.000000  0.626623  0.286070  1
  Rh  Rh35  1  0.000000  0.373386  0.286071  1
