# generated using pymatgen
data_Tb5NdMn2(Co4P3)4
_symmetry_space_group_name_H-M   'P 1'
_cell_length_a   3.70796700
_cell_length_b   10.56928400
_cell_length_c   12.23951200
_cell_angle_alpha   90.00000000
_cell_angle_beta   90.00000000
_cell_angle_gamma   90.00000000
_symmetry_Int_Tables_number   1
_chemical_formula_structural   Tb5NdMn2(Co4P3)4
_chemical_formula_sum   'Tb5 Nd1 Mn2 Co16 P12'
_cell_volume   479.67328394
_cell_formula_units_Z   1
loop_
 _symmetry_equiv_pos_site_id
 _symmetry_equiv_pos_as_xyz
  1  'x, y, z'
loop_
 _atom_site_type_symbol
 _atom_site_label
 _atom_site_symmetry_multiplicity
 _atom_site_fract_x
 _atom_site_fract_y
 _atom_site_fract_z
 _atom_site_occupancy
  Tb  Tb0  1  0.500000  0.000000  0.477760  1
  Tb  Tb1  1  0.500000  0.818183  0.205070  1
  Tb  Tb2  1  0.500000  0.181817  0.205070  1
  Tb  Tb3  1  0.000000  0.682311  0.795398  1
  Tb  Tb4  1  0.000000  0.317689  0.795398  1
  Nd  Nd5  1  0.000000  0.500000  0.522898  1
  Mn  Mn6  1  0.500000  0.500000  0.156722  1
  Mn  Mn7  1  0.000000  0.000000  0.841871  1
  Co  Co8  1  0.500000  0.500000  0.705164  1
  Co  Co9  1  0.000000  0.000000  0.296630  1
  Co  Co10  1  0.000000  0.500000  0.986521  1
  Co  Co11  1  0.500000  0.000000  0.013864  1
  Co  Co12  1  0.500000  0.332924  0.994453  1
  Co  Co13  1  0.500000  0.667076  0.994453  1
  Co  Co14  1  0.000000  0.166481  0.005483  1
  Co  Co15  1  0.000000  0.833519  0.005483  1
  Co  Co16  1  0.500000  0.294018  0.429733  1
  Co  Co17  1  0.500000  0.705982  0.429733  1
  Co  Co18  1  0.000000  0.201529  0.570129  1
  Co  Co19  1  0.000000  0.798471  0.570129  1
  Co  Co20  1  0.500000  0.880523  0.710521  1
  Co  Co21  1  0.500000  0.119477  0.710521  1
  Co  Co22  1  0.000000  0.620473  0.288979  1
  Co  Co23  1  0.000000  0.379527  0.288979  1
  P  P24  1  0.500000  0.500000  0.884075  1
  P  P25  1  0.000000  0.000000  0.116616  1
  P  P26  1  0.500000  0.500000  0.341010  1
  P  P27  1  0.000000  0.000000  0.655826  1
  P  P28  1  0.500000  0.307344  0.616915  1
  P  P29  1  0.500000  0.692656  0.616915  1
  P  P30  1  0.000000  0.189118  0.384048  1
  P  P31  1  0.000000  0.810882  0.384048  1
  P  P32  1  0.500000  0.847515  0.893872  1
  P  P33  1  0.500000  0.152485  0.893872  1
  P  P34  1  0.000000  0.653122  0.105922  1
  P  P35  1  0.000000  0.346878  0.105922  1
