# generated using pymatgen
data_K8Zr6BeI20
_symmetry_space_group_name_H-M   'P 1'
_cell_length_a   12.61609049
_cell_length_b   12.61609068
_cell_length_c   12.61609000
_cell_angle_alpha   60.00000179
_cell_angle_beta   60.00000128
_cell_angle_gamma   59.99999985
_symmetry_Int_Tables_number   1
_chemical_formula_structural   K8Zr6BeI20
_chemical_formula_sum   'K8 Zr6 Be1 I20'
_cell_volume   1419.90532343
_cell_formula_units_Z   1
loop_
 _symmetry_equiv_pos_site_id
 _symmetry_equiv_pos_as_xyz
  1  'x, y, z'
loop_
 _atom_site_type_symbol
 _atom_site_label
 _atom_site_symmetry_multiplicity
 _atom_site_fract_x
 _atom_site_fract_y
 _atom_site_fract_z
 _atom_site_occupancy
  K  K0  1  0.361651  0.361651  0.361651  1
  K  K1  1  0.638349  0.638349  0.638349  1
  K  K2  1  0.361651  0.361651  0.915047  1
  K  K3  1  0.361651  0.915047  0.361651  1
  K  K4  1  0.638349  0.638349  0.084953  1
  K  K5  1  0.638349  0.084953  0.638349  1
  K  K6  1  0.915047  0.361651  0.361651  1
  K  K7  1  0.084953  0.638349  0.638349  1
  Zr  Zr8  1  0.863066  0.136934  0.136934  1
  Zr  Zr9  1  0.136934  0.863066  0.863066  1
  Zr  Zr10  1  0.136934  0.863066  0.136934  1
  Zr  Zr11  1  0.863066  0.136934  0.863066  1
  Zr  Zr12  1  0.136934  0.136934  0.863066  1
  Zr  Zr13  1  0.863066  0.863066  0.136934  1
  Be  Be14  1  0.000000  0.000000  0.000000  1
  I  I15  1  0.325824  0.000000  0.000000  1
  I  I16  1  0.674176  0.000000  0.000000  1
  I  I17  1  0.000000  0.325824  0.674176  1
  I  I18  1  0.000000  0.674176  0.325824  1
  I  I19  1  0.000000  0.325824  0.000000  1
  I  I20  1  0.674176  0.000000  0.325824  1
  I  I21  1  0.000000  0.674176  0.000000  1
  I  I22  1  0.325824  0.000000  0.674176  1
  I  I23  1  0.000000  0.000000  0.325824  1
  I  I24  1  0.000000  0.000000  0.674176  1
  I  I25  1  0.674176  0.325824  0.000000  1
  I  I26  1  0.325824  0.674176  0.000000  1
  I  I27  1  0.684304  0.315696  0.315696  1
  I  I28  1  0.315696  0.684304  0.684304  1
  I  I29  1  0.315696  0.684304  0.315696  1
  I  I30  1  0.684304  0.315696  0.684304  1
  I  I31  1  0.315696  0.315696  0.684304  1
  I  I32  1  0.684304  0.684304  0.315696  1
  I  I33  1  0.250000  0.250000  0.250000  1
  I  I34  1  0.750000  0.750000  0.750000  1
