# generated using pymatgen
data_CeTh9(Sn3C)2
_symmetry_space_group_name_H-M   'P 1'
_cell_length_a   9.39724000
_cell_length_b   9.39723814
_cell_length_c   6.45288400
_cell_angle_alpha   90.00000000
_cell_angle_beta   90.00000000
_cell_angle_gamma   119.99999949
_symmetry_Int_Tables_number   1
_chemical_formula_structural   CeTh9(Sn3C)2
_chemical_formula_sum   'Ce1 Th9 Sn6 C2'
_cell_volume   493.49759838
_cell_formula_units_Z   1
loop_
 _symmetry_equiv_pos_site_id
 _symmetry_equiv_pos_as_xyz
  1  'x, y, z'
loop_
 _atom_site_type_symbol
 _atom_site_label
 _atom_site_symmetry_multiplicity
 _atom_site_fract_x
 _atom_site_fract_y
 _atom_site_fract_z
 _atom_site_occupancy
  Ce  Ce0  1  0.333333  0.666667  0.500000  1
  Th  Th1  1  0.666667  0.333333  0.500000  1
  Th  Th2  1  0.666667  0.333333  0.000000  1
  Th  Th3  1  0.333333  0.666667  0.000000  1
  Th  Th4  1  0.221845  0.000432  0.750492  1
  Th  Th5  1  0.778588  0.000432  0.249508  1
  Th  Th6  1  0.999568  0.221412  0.750492  1
  Th  Th7  1  0.999568  0.778155  0.249508  1
  Th  Th8  1  0.778588  0.778155  0.750492  1
  Th  Th9  1  0.221845  0.221412  0.249508  1
  Sn  Sn10  1  0.600014  0.998569  0.749410  1
  Sn  Sn11  1  0.398555  0.998569  0.250590  1
  Sn  Sn12  1  0.001431  0.601445  0.749410  1
  Sn  Sn13  1  0.001431  0.399986  0.250590  1
  Sn  Sn14  1  0.398555  0.399986  0.749410  1
  Sn  Sn15  1  0.600014  0.601445  0.250590  1
  C  C16  1  0.000000  0.000000  0.500000  1
  C  C17  1  0.000000  0.000000  0.000000  1
