# generated using pymatgen
data_Hf6Al16Ni2Ir5
_symmetry_space_group_name_H-M   'P 1'
_cell_length_a   8.71137606
_cell_length_b   8.62198186
_cell_length_c   8.62198182
_cell_angle_alpha   60.68713933
_cell_angle_beta   59.65643120
_cell_angle_gamma   59.65642752
_symmetry_Int_Tables_number   1
_chemical_formula_structural   Hf6Al16Ni2Ir5
_chemical_formula_sum   'Hf6 Al16 Ni2 Ir5'
_cell_volume   457.81667153
_cell_formula_units_Z   1
loop_
 _symmetry_equiv_pos_site_id
 _symmetry_equiv_pos_as_xyz
  1  'x, y, z'
loop_
 _atom_site_type_symbol
 _atom_site_label
 _atom_site_symmetry_multiplicity
 _atom_site_fract_x
 _atom_site_fract_y
 _atom_site_fract_z
 _atom_site_occupancy
  Hf  Hf0  1  0.672565  0.327434  0.327434  1
  Hf  Hf1  1  0.327434  0.672565  0.672565  1
  Hf  Hf2  1  0.307038  0.692961  0.307038  1
  Hf  Hf3  1  0.307038  0.307038  0.692961  1
  Hf  Hf4  1  0.692961  0.307038  0.692961  1
  Hf  Hf5  1  0.692961  0.692961  0.307038  1
  Al  Al6  1  0.328670  0.340840  0.340840  1
  Al  Al7  1  0.340840  0.328670  0.989648  1
  Al  Al8  1  0.989648  0.340840  0.340840  1
  Al  Al9  1  0.340840  0.989648  0.328670  1
  Al  Al10  1  0.671330  0.659160  0.659160  1
  Al  Al11  1  0.659160  0.671330  0.010352  1
  Al  Al12  1  0.659160  0.010352  0.671330  1
  Al  Al13  1  0.010352  0.659160  0.659160  1
  Al  Al14  1  0.118526  0.120964  0.120964  1
  Al  Al15  1  0.120964  0.118526  0.639545  1
  Al  Al16  1  0.639545  0.120964  0.120964  1
  Al  Al17  1  0.120964  0.639545  0.118526  1
  Al  Al18  1  0.881473  0.879035  0.879035  1
  Al  Al19  1  0.879035  0.881473  0.360458  1
  Al  Al20  1  0.879035  0.360458  0.881473  1
  Al  Al21  1  0.360458  0.879035  0.879035  1
  Ni  Ni22  1  0.500000  0.000000  0.000000  1
  Ni  Ni23  1  0.000000  0.500000  0.500000  1
  Ir  Ir24  1  0.000000  0.000000  0.000000  1
  Ir  Ir25  1  0.000000  0.500000  0.000000  1
  Ir  Ir26  1  0.000000  0.000000  0.500000  1
  Ir  Ir27  1  0.500000  0.000000  0.500000  1
  Ir  Ir28  1  0.500000  0.500000  0.000000  1
