# generated using pymatgen
data_DySi2(AsRh3)2
_symmetry_space_group_name_H-M   'P 1'
_cell_length_a   7.17066600
_cell_length_b   7.15330013
_cell_length_c   3.80799400
_cell_angle_alpha   90.00000000
_cell_angle_beta   90.00000000
_cell_angle_gamma   120.08033004
_symmetry_Int_Tables_number   1
_chemical_formula_structural   DySi2(AsRh3)2
_chemical_formula_sum   'Dy1 Si2 As2 Rh6'
_cell_volume   169.02101894
_cell_formula_units_Z   1
loop_
 _symmetry_equiv_pos_site_id
 _symmetry_equiv_pos_as_xyz
  1  'x, y, z'
loop_
 _atom_site_type_symbol
 _atom_site_label
 _atom_site_symmetry_multiplicity
 _atom_site_fract_x
 _atom_site_fract_y
 _atom_site_fract_z
 _atom_site_occupancy
  Dy  Dy0  1  0.994797  0.989592  0.000000  1
  Si  Si1  1  0.803920  0.607838  0.500000  1
  Si  Si2  1  0.333921  0.667844  0.000000  1
  As  As3  1  0.383031  0.193578  0.500000  1
  As  As4  1  0.810548  0.193578  0.500000  1
  Rh  Rh5  1  0.531193  0.062386  0.000000  1
  Rh  Rh6  1  0.603627  0.797074  0.500000  1
  Rh  Rh7  1  0.203405  0.406809  0.500000  1
  Rh  Rh8  1  0.542011  0.475446  0.000000  1
  Rh  Rh9  1  0.193447  0.797074  0.500000  1
  Rh  Rh10  1  0.933435  0.475446  0.000000  1
