# generated using pymatgen
data_La2Zn(SbH)2
_symmetry_space_group_name_H-M   'P 1'
_cell_length_a   4.39312600
_cell_length_b   4.39312600
_cell_length_c   7.83304900
_cell_angle_alpha   90.00000000
_cell_angle_beta   90.00000000
_cell_angle_gamma   90.00000000
_symmetry_Int_Tables_number   1
_chemical_formula_structural   La2Zn(SbH)2
_chemical_formula_sum   'La2 Zn1 Sb2 H2'
_cell_volume   151.17436823
_cell_formula_units_Z   1
loop_
 _symmetry_equiv_pos_site_id
 _symmetry_equiv_pos_as_xyz
  1  'x, y, z'
loop_
 _atom_site_type_symbol
 _atom_site_label
 _atom_site_symmetry_multiplicity
 _atom_site_fract_x
 _atom_site_fract_y
 _atom_site_fract_z
 _atom_site_occupancy
  La  La0  1  0.500000  0.000000  0.651756  1
  La  La1  1  0.000000  0.500000  0.348244  1
  Zn  Zn2  1  0.500000  0.500000  0.000000  1
  Sb  Sb3  1  0.500000  0.000000  0.198516  1
  Sb  Sb4  1  0.000000  0.500000  0.801484  1
  H  H5  1  0.500000  0.500000  0.500000  1
  H  H6  1  0.000000  0.000000  0.500000  1
