# generated using pymatgen
data_YHo3Ga18(Co2Pt)2
_symmetry_space_group_name_H-M   'P 1'
_cell_length_a   7.47298912
_cell_length_b   7.47252491
_cell_length_c   9.41710700
_cell_angle_alpha   90.00000000
_cell_angle_beta   90.00000000
_cell_angle_gamma   119.74186289
_symmetry_Int_Tables_number   1
_chemical_formula_structural   YHo3Ga18(Co2Pt)2
_chemical_formula_sum   'Y1 Ho3 Ga18 Co4 Pt2'
_cell_volume   456.59763907
_cell_formula_units_Z   1
loop_
 _symmetry_equiv_pos_site_id
 _symmetry_equiv_pos_as_xyz
  1  'x, y, z'
loop_
 _atom_site_type_symbol
 _atom_site_label
 _atom_site_symmetry_multiplicity
 _atom_site_fract_x
 _atom_site_fract_y
 _atom_site_fract_z
 _atom_site_occupancy
  Y  Y0  1  0.321662  0.003527  0.750000  1
  Ho  Ho1  1  0.003509  0.321802  0.750000  1
  Ho  Ho2  1  0.678373  0.996501  0.250000  1
  Ho  Ho3  1  0.996455  0.678318  0.250000  1
  Ga  Ga4  1  0.654811  0.002468  0.923939  1
  Ga  Ga5  1  0.345887  0.997516  0.423080  1
  Ga  Ga6  1  0.997535  0.345850  0.423575  1
  Ga  Ga7  1  0.345887  0.997516  0.076920  1
  Ga  Ga8  1  0.001860  0.653526  0.923904  1
  Ga  Ga9  1  0.997535  0.345850  0.076424  1
  Ga  Ga10  1  0.344069  0.344643  0.564022  1
  Ga  Ga11  1  0.344069  0.344643  0.935978  1
  Ga  Ga12  1  0.655922  0.655925  0.064396  1
  Ga  Ga13  1  0.655922  0.655925  0.435604  1
  Ga  Ga14  1  0.854070  0.854533  0.750000  1
  Ga  Ga15  1  0.145485  0.145523  0.250000  1
  Ga  Ga16  1  0.333797  0.559227  0.250000  1
  Ga  Ga17  1  0.559245  0.333830  0.250000  1
  Ga  Ga18  1  0.666768  0.441435  0.750000  1
  Ga  Ga19  1  0.440796  0.665553  0.750000  1
  Ga  Ga20  1  0.654811  0.002468  0.576062  1
  Ga  Ga21  1  0.001860  0.653526  0.576096  1
  Co  Co22  1  0.329423  0.670495  0.000181  1
  Co  Co23  1  0.670749  0.329524  0.499825  1
  Co  Co24  1  0.670749  0.329524  0.000175  1
  Co  Co25  1  0.329423  0.670495  0.499819  1
  Pt  Pt26  1  0.999664  0.999929  0.000280  1
  Pt  Pt27  1  0.999664  0.999929  0.499720  1
