# generated using pymatgen
data_ZrV(SeO3)4
_symmetry_space_group_name_H-M   'P 1'
_cell_length_a   8.44001000
_cell_length_b   8.53238266
_cell_length_c   8.32287804
_cell_angle_alpha   89.53437484
_cell_angle_beta   89.99725153
_cell_angle_gamma   90.00119778
_symmetry_Int_Tables_number   1
_chemical_formula_structural   ZrV(SeO3)4
_chemical_formula_sum   'Zr2 V2 Se8 O24'
_cell_volume   599.33891145
_cell_formula_units_Z   2
loop_
 _symmetry_equiv_pos_site_id
 _symmetry_equiv_pos_as_xyz
  1  'x, y, z'
loop_
 _atom_site_type_symbol
 _atom_site_label
 _atom_site_symmetry_multiplicity
 _atom_site_fract_x
 _atom_site_fract_y
 _atom_site_fract_z
 _atom_site_occupancy
  Zr  Zr0  1  0.000000  0.000000  0.500000  1
  Zr  Zr1  1  0.500000  0.000000  0.000000  1
  V  V2  1  0.000000  0.500000  0.000000  1
  V  V3  1  0.500000  0.500000  0.500000  1
  Se  Se4  1  0.307927  0.661017  0.197105  1
  Se  Se5  1  0.807901  0.338956  0.302992  1
  Se  Se6  1  0.671258  0.799001  0.668053  1
  Se  Se7  1  0.171221  0.201081  0.831979  1
  Se  Se8  1  0.692073  0.338983  0.802895  1
  Se  Se9  1  0.192099  0.661044  0.697008  1
  Se  Se10  1  0.328742  0.200999  0.331947  1
  Se  Se11  1  0.828779  0.798919  0.168021  1
  O  O12  1  0.225704  0.545093  0.048995  1
  O  O13  1  0.725767  0.454686  0.451293  1
  O  O14  1  0.763932  0.943447  0.556973  1
  O  O15  1  0.263997  0.056661  0.942989  1
  O  O16  1  0.531245  0.908352  0.766164  1
  O  O17  1  0.448105  0.527301  0.270783  1
  O  O18  1  0.947851  0.472867  0.229180  1
  O  O19  1  0.031236  0.091686  0.733815  1
  O  O20  1  0.931000  0.224487  0.419734  1
  O  O21  1  0.554006  0.720132  0.515126  1
  O  O22  1  0.430786  0.775536  0.080139  1
  O  O23  1  0.053936  0.279807  0.984909  1
  O  O24  1  0.774296  0.454907  0.951005  1
  O  O25  1  0.274233  0.545314  0.548707  1
  O  O26  1  0.236068  0.056553  0.443027  1
  O  O27  1  0.736003  0.943339  0.057011  1
  O  O28  1  0.468755  0.091648  0.233836  1
  O  O29  1  0.551895  0.472699  0.729217  1
  O  O30  1  0.052149  0.527133  0.770820  1
  O  O31  1  0.968764  0.908314  0.266185  1
  O  O32  1  0.069000  0.775513  0.580266  1
  O  O33  1  0.445994  0.279868  0.484874  1
  O  O34  1  0.569214  0.224464  0.919861  1
  O  O35  1  0.946064  0.720193  0.015091  1
