# generated using pymatgen
data_Zr10Tl2Bi5
_symmetry_space_group_name_H-M   'P 1'
_cell_length_a   6.03443894
_cell_length_b   8.83285851
_cell_length_c   8.79192600
_cell_angle_alpha   120.15413802
_cell_angle_beta   89.94340150
_cell_angle_gamma   90.11267333
_symmetry_Int_Tables_number   1
_chemical_formula_structural   Zr10Tl2Bi5
_chemical_formula_sum   'Zr10 Tl2 Bi5'
_cell_volume   405.20551227
_cell_formula_units_Z   1
loop_
 _symmetry_equiv_pos_site_id
 _symmetry_equiv_pos_as_xyz
  1  'x, y, z'
loop_
 _atom_site_type_symbol
 _atom_site_label
 _atom_site_symmetry_multiplicity
 _atom_site_fract_x
 _atom_site_fract_y
 _atom_site_fract_z
 _atom_site_occupancy
  Zr  Zr0  1  0.497912  0.332728  0.666026  1
  Zr  Zr1  1  0.497912  0.666702  0.333974  1
  Zr  Zr2  1  0.003504  0.667809  0.334552  1
  Zr  Zr3  1  0.003504  0.333258  0.665448  1
  Zr  Zr4  1  0.775517  0.267414  0.000000  1
  Zr  Zr5  1  0.787989  0.737314  0.735482  1
  Zr  Zr6  1  0.787989  0.001831  0.264518  1
  Zr  Zr7  1  0.217481  0.730341  0.000000  1
  Zr  Zr8  1  0.220296  0.268152  0.273406  1
  Zr  Zr9  1  0.220296  0.994747  0.726594  1
  Tl  Tl10  1  0.259880  0.614789  0.615744  1
  Tl  Tl11  1  0.259880  0.999046  0.384256  1
  Bi  Bi12  1  0.739558  0.613843  0.000000  1
  Bi  Bi13  1  0.739768  0.390596  0.390891  1
  Bi  Bi14  1  0.739768  0.999705  0.609109  1
  Bi  Bi15  1  0.254330  0.383330  0.000000  1
  Bi  Bi16  1  0.494414  0.998401  0.000000  1
