# generated using pymatgen
data_DyHo2Al10(SiRu2)2
_symmetry_space_group_name_H-M   'P 1'
_cell_length_a   8.68468100
_cell_length_b   8.68413188
_cell_length_c   9.62840100
_cell_angle_alpha   90.00000000
_cell_angle_beta   90.00000000
_cell_angle_gamma   120.00209557
_symmetry_Int_Tables_number   1
_chemical_formula_structural   DyHo2Al10(SiRu2)2
_chemical_formula_sum   'Dy2 Ho4 Al20 Si4 Ru8'
_cell_volume   628.86280820
_cell_formula_units_Z   2
loop_
 _symmetry_equiv_pos_site_id
 _symmetry_equiv_pos_as_xyz
  1  'x, y, z'
loop_
 _atom_site_type_symbol
 _atom_site_label
 _atom_site_symmetry_multiplicity
 _atom_site_fract_x
 _atom_site_fract_y
 _atom_site_fract_z
 _atom_site_occupancy
  Dy  Dy0  1  0.195115  0.390231  0.250000  1
  Dy  Dy1  1  0.804885  0.609769  0.750000  1
  Ho  Ho2  1  0.609369  0.804750  0.250000  1
  Ho  Ho3  1  0.390631  0.195250  0.750000  1
  Ho  Ho4  1  0.195380  0.804750  0.250000  1
  Ho  Ho5  1  0.804620  0.195250  0.750000  1
  Al  Al6  1  0.164903  0.329807  0.577306  1
  Al  Al7  1  0.835097  0.670193  0.422694  1
  Al  Al8  1  0.670149  0.835135  0.577208  1
  Al  Al9  1  0.835097  0.670193  0.077306  1
  Al  Al10  1  0.329851  0.164865  0.422792  1
  Al  Al11  1  0.164903  0.329807  0.922694  1
  Al  Al12  1  0.164984  0.835135  0.577208  1
  Al  Al13  1  0.329851  0.164865  0.077208  1
  Al  Al14  1  0.835016  0.164865  0.422792  1
  Al  Al15  1  0.670149  0.835135  0.922792  1
  Al  Al16  1  0.835016  0.164865  0.077208  1
  Al  Al17  1  0.164984  0.835135  0.922792  1
  Al  Al18  1  0.563404  0.126806  0.250000  1
  Al  Al19  1  0.436596  0.873194  0.750000  1
  Al  Al20  1  0.873018  0.436596  0.250000  1
  Al  Al21  1  0.126982  0.563404  0.750000  1
  Al  Al22  1  0.563579  0.436596  0.250000  1
  Al  Al23  1  0.436421  0.563404  0.750000  1
  Al  Al24  1  0.999923  0.999847  0.250000  1
  Al  Al25  1  0.000077  0.000153  0.750000  1
  Si  Si26  1  0.333429  0.666859  0.037139  1
  Si  Si27  1  0.666571  0.333141  0.962861  1
  Si  Si28  1  0.666571  0.333141  0.537139  1
  Si  Si29  1  0.333429  0.666859  0.462861  1
  Ru  Ru30  1  0.500000  0.000000  0.000000  1
  Ru  Ru31  1  0.000000  0.500000  0.000000  1
  Ru  Ru32  1  0.500000  0.000000  0.500000  1
  Ru  Ru33  1  0.500000  0.500000  0.000000  1
  Ru  Ru34  1  0.000000  0.500000  0.500000  1
  Ru  Ru35  1  0.500000  0.500000  0.500000  1
  Ru  Ru36  1  0.000000  0.000000  0.000000  1
  Ru  Ru37  1  0.000000  0.000000  0.500000  1
