# generated using pymatgen
data_CaEu(SiPt2)2
_symmetry_space_group_name_H-M   'P 1'
_cell_length_a   4.16078148
_cell_length_b   4.19328900
_cell_length_c   9.21084353
_cell_angle_alpha   90.00000000
_cell_angle_beta   103.05362162
_cell_angle_gamma   90.00000000
_symmetry_Int_Tables_number   1
_chemical_formula_structural   CaEu(SiPt2)2
_chemical_formula_sum   'Ca1 Eu1 Si2 Pt4'
_cell_volume   156.55213857
_cell_formula_units_Z   1
loop_
 _symmetry_equiv_pos_site_id
 _symmetry_equiv_pos_as_xyz
  1  'x, y, z'
loop_
 _atom_site_type_symbol
 _atom_site_label
 _atom_site_symmetry_multiplicity
 _atom_site_fract_x
 _atom_site_fract_y
 _atom_site_fract_z
 _atom_site_occupancy
  Ca  Ca0  1  0.597970  0.250000  0.195939  1
  Eu  Eu1  1  0.403653  0.750000  0.807307  1
  Si  Si2  1  0.822347  0.250000  0.644693  1
  Si  Si3  1  0.176777  0.750000  0.353554  1
  Pt  Pt4  1  0.952691  0.250000  0.905382  1
  Pt  Pt5  1  0.047809  0.750000  0.095618  1
  Pt  Pt6  1  0.250707  0.250000  0.501413  1
  Pt  Pt7  1  0.748046  0.750000  0.496093  1
