# generated using pymatgen
data_ErTh3(BRu)16
_symmetry_space_group_name_H-M   'P 1'
_cell_length_a   9.29192722
_cell_length_b   7.54661765
_cell_length_c   7.54661824
_cell_angle_alpha   89.67557006
_cell_angle_beta   114.10335540
_cell_angle_gamma   114.10336310
_symmetry_Int_Tables_number   1
_chemical_formula_structural   ErTh3(BRu)16
_chemical_formula_sum   'Er1 Th3 B16 Ru16'
_cell_volume   432.61025269
_cell_formula_units_Z   1
loop_
 _symmetry_equiv_pos_site_id
 _symmetry_equiv_pos_as_xyz
  1  'x, y, z'
loop_
 _atom_site_type_symbol
 _atom_site_label
 _atom_site_symmetry_multiplicity
 _atom_site_fract_x
 _atom_site_fract_y
 _atom_site_fract_z
 _atom_site_occupancy
  Er  Er0  1  0.250000  0.125000  0.875001  1
  Th  Th1  1  0.750000  0.875000  0.125000  1
  Th  Th2  1  0.250000  0.625000  0.375000  1
  Th  Th3  1  0.750000  0.375000  0.625000  1
  B  B4  1  0.913883  0.289569  0.063797  1
  B  B5  1  0.415101  0.564546  0.124928  1
  B  B6  1  0.084899  0.209828  0.149445  1
  B  B7  1  0.582586  0.147190  0.207199  1
  B  B8  1  0.412821  0.063729  0.287101  1
  B  B9  1  0.913883  0.624314  0.350087  1
  B  B10  1  0.586117  0.649913  0.375686  1
  B  B11  1  0.084899  0.875071  0.435453  1
  B  B12  1  0.917414  0.124613  0.564605  1
  B  B13  1  0.412821  0.349092  0.625721  1
  B  B14  1  0.087179  0.374280  0.650907  1
  B  B15  1  0.586117  0.936204  0.710432  1
  B  B16  1  0.415101  0.850555  0.790172  1
  B  B17  1  0.917414  0.792801  0.852810  1
  B  B18  1  0.582586  0.435395  0.875387  1
  B  B19  1  0.087179  0.712900  0.936272  1
  Ru  Ru20  1  0.872531  0.551452  0.039113  1
  Ru  Ru21  1  0.371576  0.833825  0.048930  1
  Ru  Ru22  1  0.128424  0.951070  0.166176  1
  Ru  Ru23  1  0.625604  0.458180  0.177322  1
  Ru  Ru24  1  0.373051  0.334286  0.321441  1
  Ru  Ru25  1  0.872531  0.321080  0.333418  1
  Ru  Ru26  1  0.627469  0.960887  0.448548  1
  Ru  Ru27  1  0.128424  0.177355  0.462250  1
  Ru  Ru28  1  0.874396  0.822679  0.541820  1
  Ru  Ru29  1  0.373051  0.038765  0.551610  1
  Ru  Ru30  1  0.126949  0.678558  0.665713  1
  Ru  Ru31  1  0.627469  0.666582  0.678920  1
  Ru  Ru32  1  0.371576  0.537751  0.822646  1
  Ru  Ru33  1  0.874396  0.051716  0.832576  1
  Ru  Ru34  1  0.625604  0.167425  0.948284  1
  Ru  Ru35  1  0.126949  0.448391  0.961236  1
