# generated using pymatgen
data_La11Zn9Ni4
_symmetry_space_group_name_H-M   'P 1'
_cell_length_a   12.96562156
_cell_length_b   12.96562108
_cell_length_c   3.77284500
_cell_angle_alpha   90.00000000
_cell_angle_beta   90.00000000
_cell_angle_gamma   67.15898975
_symmetry_Int_Tables_number   1
_chemical_formula_structural   La11Zn9Ni4
_chemical_formula_sum   'La11 Zn9 Ni4'
_cell_volume   584.50911015
_cell_formula_units_Z   1
loop_
 _symmetry_equiv_pos_site_id
 _symmetry_equiv_pos_as_xyz
  1  'x, y, z'
loop_
 _atom_site_type_symbol
 _atom_site_label
 _atom_site_symmetry_multiplicity
 _atom_site_fract_x
 _atom_site_fract_y
 _atom_site_fract_z
 _atom_site_occupancy
  La  La0  1  0.307937  0.692064  0.000000  1
  La  La1  1  0.692064  0.307937  0.000000  1
  La  La2  1  0.000000  0.000000  0.000000  1
  La  La3  1  0.415149  0.928765  0.000000  1
  La  La4  1  0.584851  0.071235  0.000000  1
  La  La5  1  0.071235  0.584851  0.000000  1
  La  La6  1  0.928765  0.415149  0.000000  1
  La  La7  1  0.165312  0.165312  0.000000  1
  La  La8  1  0.834687  0.834687  0.000000  1
  La  La9  1  0.372962  0.372962  0.000000  1
  La  La10  1  0.627038  0.627038  0.000000  1
  Zn  Zn11  1  0.364544  0.168187  0.500002  1
  Zn  Zn12  1  0.635456  0.831813  0.500002  1
  Zn  Zn13  1  0.831813  0.635456  0.500002  1
  Zn  Zn14  1  0.168187  0.364544  0.500002  1
  Zn  Zn15  1  0.218663  0.919177  0.500002  1
  Zn  Zn16  1  0.781337  0.080823  0.500002  1
  Zn  Zn17  1  0.080823  0.781337  0.500002  1
  Zn  Zn18  1  0.919177  0.218663  0.500002  1
  Zn  Zn19  1  0.500000  0.500000  0.500002  1
  Ni  Ni20  1  0.448311  0.755394  0.500002  1
  Ni  Ni21  1  0.551689  0.244606  0.500002  1
  Ni  Ni22  1  0.244606  0.551689  0.500002  1
  Ni  Ni23  1  0.755394  0.448311  0.500002  1
