# generated using pymatgen
data_Np3AlI16
_symmetry_space_group_name_H-M   'P 1'
_cell_length_a   9.08821846
_cell_length_b   9.18217397
_cell_length_c   15.32327220
_cell_angle_alpha   68.76616705
_cell_angle_beta   66.57504476
_cell_angle_gamma   84.34844940
_symmetry_Int_Tables_number   1
_chemical_formula_structural   Np3AlI16
_chemical_formula_sum   'Np3 Al1 I16'
_cell_volume   1092.12455560
_cell_formula_units_Z   1
loop_
 _symmetry_equiv_pos_site_id
 _symmetry_equiv_pos_as_xyz
  1  'x, y, z'
loop_
 _atom_site_type_symbol
 _atom_site_label
 _atom_site_symmetry_multiplicity
 _atom_site_fract_x
 _atom_site_fract_y
 _atom_site_fract_z
 _atom_site_occupancy
  Np  Np0  1  0.043567  0.801178  0.117993  1
  Np  Np1  1  0.828561  0.060768  0.632433  1
  Np  Np2  1  0.926824  0.191342  0.869406  1
  Al  Al3  1  0.250334  0.972365  0.435898  1
  I  I4  1  0.107983  0.835790  0.636491  1
  I  I5  1  0.043875  0.297386  0.636031  1
  I  I6  1  0.707119  0.958893  0.864098  1
  I  I7  1  0.612407  0.820622  0.662470  1
  I  I8  1  0.161594  0.407721  0.846759  1
  I  I9  1  0.895014  0.711098  0.334427  1
  I  I10  1  0.672367  0.405981  0.891901  1
  I  I11  1  0.169539  0.935113  0.883667  1
  I  I12  1  0.455201  0.183620  0.383313  1
  I  I13  1  0.835755  0.581258  0.120692  1
  I  I14  1  0.342492  0.753105  0.369903  1
  I  I15  1  0.616299  0.306276  0.591060  1
  I  I16  1  0.999039  0.113380  0.401310  1
  I  I17  1  0.290786  0.579967  0.114324  1
  I  I18  1  0.793699  0.051163  0.100679  1
  I  I19  1  0.247549  0.032977  0.107146  1
