# generated using pymatgen
data_Eu4DyY3(BO4)4
_symmetry_space_group_name_H-M   'P 1'
_cell_length_a   3.66957600
_cell_length_b   9.72470105
_cell_length_c   10.89874205
_cell_angle_alpha   90.01113101
_cell_angle_beta   90.00000000
_cell_angle_gamma   90.00000000
_symmetry_Int_Tables_number   1
_chemical_formula_structural   Eu4DyY3(BO4)4
_chemical_formula_sum   'Eu4 Dy1 Y3 B4 O16'
_cell_volume   388.92737436
_cell_formula_units_Z   1
loop_
 _symmetry_equiv_pos_site_id
 _symmetry_equiv_pos_as_xyz
  1  'x, y, z'
loop_
 _atom_site_type_symbol
 _atom_site_label
 _atom_site_symmetry_multiplicity
 _atom_site_fract_x
 _atom_site_fract_y
 _atom_site_fract_z
 _atom_site_occupancy
  Eu  Eu0  1  0.250000  0.657778  0.080923  1
  Eu  Eu1  1  0.750000  0.342293  0.919128  1
  Eu  Eu2  1  0.750000  0.157578  0.418952  1
  Eu  Eu3  1  0.250000  0.842396  0.580818  1
  Dy  Dy4  1  0.250000  0.083263  0.111625  1
  Y  Y5  1  0.750000  0.917096  0.888434  1
  Y  Y6  1  0.750000  0.582967  0.388217  1
  Y  Y7  1  0.250000  0.417035  0.611693  1
  B  B8  1  0.250000  0.364308  0.205653  1
  B  B9  1  0.750000  0.635471  0.794285  1
  B  B10  1  0.750000  0.864664  0.294148  1
  B  B11  1  0.250000  0.135455  0.705667  1
  O  O12  1  0.250000  0.492509  0.261637  1
  O  O13  1  0.750000  0.507303  0.738232  1
  O  O14  1  0.750000  0.992623  0.237945  1
  O  O15  1  0.250000  0.007325  0.761801  1
  O  O16  1  0.250000  0.242729  0.273460  1
  O  O17  1  0.750000  0.757066  0.726522  1
  O  O18  1  0.750000  0.742924  0.226481  1
  O  O19  1  0.250000  0.257055  0.773528  1
  O  O20  1  0.250000  0.354527  0.077231  1
  O  O21  1  0.750000  0.645088  0.922734  1
  O  O22  1  0.750000  0.855115  0.422610  1
  O  O23  1  0.250000  0.144994  0.577266  1
  O  O24  1  0.250000  0.614198  0.502516  1
  O  O25  1  0.750000  0.385779  0.497469  1
  O  O26  1  0.750000  0.114049  0.998163  1
  O  O27  1  0.250000  0.886413  0.002861  1
