# generated using pymatgen
data_Sc5Nb(Co2Sn)6
_symmetry_space_group_name_H-M   'P 1'
_cell_length_a   4.38490256
_cell_length_b   6.21757255
_cell_length_c   13.16688642
_cell_angle_alpha   90.22895750
_cell_angle_beta   90.01372243
_cell_angle_gamma   90.09553507
_symmetry_Int_Tables_number   1
_chemical_formula_structural   Sc5Nb(Co2Sn)6
_chemical_formula_sum   'Sc5 Nb1 Co12 Sn6'
_cell_volume   358.97137067
_cell_formula_units_Z   1
loop_
 _symmetry_equiv_pos_site_id
 _symmetry_equiv_pos_as_xyz
  1  'x, y, z'
loop_
 _atom_site_type_symbol
 _atom_site_label
 _atom_site_symmetry_multiplicity
 _atom_site_fract_x
 _atom_site_fract_y
 _atom_site_fract_z
 _atom_site_occupancy
  Sc  Sc0  1  0.500074  0.500068  0.166581  1
  Sc  Sc1  1  0.000030  0.999882  0.334437  1
  Sc  Sc2  1  0.500050  0.499758  0.500007  1
  Sc  Sc3  1  0.999939  0.000231  0.665559  1
  Sc  Sc4  1  0.499950  0.500069  0.833404  1
  Nb  Nb5  1  0.999971  0.999994  0.000013  1
  Co  Co6  1  0.500085  0.235146  0.000013  1
  Co  Co7  1  0.499900  0.764862  0.999949  1
  Co  Co8  1  0.000268  0.244156  0.161797  1
  Co  Co9  1  0.999765  0.755905  0.161795  1
  Co  Co10  1  0.499917  0.251541  0.333417  1
  Co  Co11  1  0.500233  0.748386  0.333340  1
  Co  Co12  1  0.000094  0.250504  0.500011  1
  Co  Co13  1  0.999917  0.749294  0.499996  1
  Co  Co14  1  0.499816  0.251607  0.666649  1
  Co  Co15  1  0.500086  0.748468  0.666570  1
  Co  Co16  1  0.000166  0.244061  0.838286  1
  Co  Co17  1  0.999703  0.755986  0.838107  1
  Sn  Sn18  1  0.000036  0.500119  0.999973  1
  Sn  Sn19  1  0.499985  0.000013  0.169649  1
  Sn  Sn20  1  0.000116  0.499709  0.332165  1
  Sn  Sn21  1  0.500010  0.999753  0.500013  1
  Sn  Sn22  1  0.999984  0.500292  0.667929  1
  Sn  Sn23  1  0.499907  0.000193  0.830344  1
