# generated using pymatgen
data_Na2Yb3(P2O7)2
_symmetry_space_group_name_H-M   'P 1'
_cell_length_a   5.74176567
_cell_length_b   7.09322417
_cell_length_c   8.04119282
_cell_angle_alpha   77.31253665
_cell_angle_beta   82.68773655
_cell_angle_gamma   67.56490627
_symmetry_Int_Tables_number   1
_chemical_formula_structural   Na2Yb3(P2O7)2
_chemical_formula_sum   'Na2 Yb3 P4 O14'
_cell_volume   294.97660891
_cell_formula_units_Z   1
loop_
 _symmetry_equiv_pos_site_id
 _symmetry_equiv_pos_as_xyz
  1  'x, y, z'
loop_
 _atom_site_type_symbol
 _atom_site_label
 _atom_site_symmetry_multiplicity
 _atom_site_fract_x
 _atom_site_fract_y
 _atom_site_fract_z
 _atom_site_occupancy
  Na  Na0  1  0.592615  0.006654  0.682932  1
  Na  Na1  1  0.407385  0.993346  0.317068  1
  Yb  Yb2  1  0.191454  0.537419  0.306245  1
  Yb  Yb3  1  0.000000  0.000000  0.000000  1
  Yb  Yb4  1  0.808546  0.462581  0.693755  1
  P  P5  1  0.198982  0.733389  0.664232  1
  P  P6  1  0.653561  0.674234  0.075306  1
  P  P7  1  0.346439  0.325766  0.924694  1
  P  P8  1  0.801018  0.266611  0.335768  1
  O  O9  1  0.267846  0.571399  0.847796  1
  O  O10  1  0.549284  0.267749  0.428547  1
  O  O11  1  0.692799  0.690807  0.883681  1
  O  O12  1  0.961325  0.063419  0.278914  1
  O  O13  1  0.940994  0.352028  0.433299  1
  O  O14  1  0.059006  0.647972  0.566701  1
  O  O15  1  0.307201  0.309193  0.116319  1
  O  O16  1  0.450716  0.732251  0.571453  1
  O  O17  1  0.626302  0.227897  0.864578  1
  O  O18  1  0.820314  0.757469  0.152017  1
  O  O19  1  0.179686  0.242531  0.847983  1
  O  O20  1  0.373698  0.772103  0.135422  1
  O  O21  1  0.038675  0.936581  0.721086  1
  O  O22  1  0.732154  0.428601  0.152204  1
