# generated using pymatgen
data_Tb3Dy2(MnB3)2
_symmetry_space_group_name_H-M   'P 1'
_cell_length_a   5.42052889
_cell_length_b   5.42052886
_cell_length_c   8.28375495
_cell_angle_alpha   70.90240439
_cell_angle_beta   70.90240565
_cell_angle_gamma   59.99999268
_symmetry_Int_Tables_number   1
_chemical_formula_structural   Tb3Dy2(MnB3)2
_chemical_formula_sum   'Tb3 Dy2 Mn2 B6'
_cell_volume   195.16441120
_cell_formula_units_Z   1
loop_
 _symmetry_equiv_pos_site_id
 _symmetry_equiv_pos_as_xyz
  1  'x, y, z'
loop_
 _atom_site_type_symbol
 _atom_site_label
 _atom_site_symmetry_multiplicity
 _atom_site_fract_x
 _atom_site_fract_y
 _atom_site_fract_z
 _atom_site_occupancy
  Tb  Tb0  1  0.000000  0.000000  0.000000  1
  Tb  Tb1  1  0.251189  0.251189  0.246433  1
  Tb  Tb2  1  0.748811  0.748811  0.753567  1
  Dy  Dy3  1  0.416887  0.416887  0.749340  1
  Dy  Dy4  1  0.583113  0.583113  0.250660  1
  Mn  Mn5  1  0.115130  0.115130  0.654611  1
  Mn  Mn6  1  0.884870  0.884870  0.345389  1
  B  B7  1  0.166436  0.833564  0.500000  1
  B  B8  1  0.833564  0.500000  0.500000  1
  B  B9  1  0.500000  0.166436  0.500000  1
  B  B10  1  0.166436  0.500000  0.500000  1
  B  B11  1  0.500000  0.833564  0.500000  1
  B  B12  1  0.833564  0.166436  0.500000  1
