# generated using pymatgen
data_Y3ErRu7W
_symmetry_space_group_name_H-M   'P 1'
_cell_length_a   5.49825500
_cell_length_b   5.19185895
_cell_length_c   9.04426304
_cell_angle_alpha   90.00903433
_cell_angle_beta   90.00000000
_cell_angle_gamma   121.97216832
_symmetry_Int_Tables_number   1
_chemical_formula_structural   Y3ErRu7W
_chemical_formula_sum   'Y3 Er1 Ru7 W1'
_cell_volume   219.01465472
_cell_formula_units_Z   1
loop_
 _symmetry_equiv_pos_site_id
 _symmetry_equiv_pos_as_xyz
  1  'x, y, z'
loop_
 _atom_site_type_symbol
 _atom_site_label
 _atom_site_symmetry_multiplicity
 _atom_site_fract_x
 _atom_site_fract_y
 _atom_site_fract_z
 _atom_site_occupancy
  Y  Y0  1  0.334834  0.669670  0.431539  1
  Y  Y1  1  0.672955  0.345908  0.563101  1
  Y  Y2  1  0.672808  0.345615  0.937465  1
  Er  Er3  1  0.334343  0.668688  0.068349  1
  Ru  Ru4  1  0.171053  0.819143  0.750727  1
  Ru  Ru5  1  0.332409  0.164585  0.248980  1
  Ru  Ru6  1  0.823272  0.646544  0.249245  1
  Ru  Ru7  1  0.648089  0.819143  0.750727  1
  Ru  Ru8  1  0.010106  0.020212  0.001821  1
  Ru  Ru9  1  0.832176  0.164585  0.248980  1
  Ru  Ru10  1  0.009445  0.018890  0.498512  1
  W  W11  1  0.158510  0.317019  0.750553  1
