# generated using pymatgen
data_Ce3Y5(Si3Ir)4
_symmetry_space_group_name_H-M   'P 1'
_cell_length_a   8.17404061
_cell_length_b   8.17404208
_cell_length_c   8.08956200
_cell_angle_alpha   90.00000000
_cell_angle_beta   90.00000000
_cell_angle_gamma   119.64327009
_symmetry_Int_Tables_number   1
_chemical_formula_structural   Ce3Y5(Si3Ir)4
_chemical_formula_sum   'Ce3 Y5 Si12 Ir4'
_cell_volume   469.76346632
_cell_formula_units_Z   1
loop_
 _symmetry_equiv_pos_site_id
 _symmetry_equiv_pos_as_xyz
  1  'x, y, z'
loop_
 _atom_site_type_symbol
 _atom_site_label
 _atom_site_symmetry_multiplicity
 _atom_site_fract_x
 _atom_site_fract_y
 _atom_site_fract_z
 _atom_site_occupancy
  Ce  Ce0  1  0.000021  0.999979  0.250000  1
  Ce  Ce1  1  0.999959  0.000041  0.750000  1
  Ce  Ce2  1  0.505719  0.494281  0.250000  1
  Y  Y3  1  0.508606  0.015174  0.250000  1
  Y  Y4  1  0.984826  0.491394  0.250000  1
  Y  Y5  1  0.491306  0.508694  0.750000  1
  Y  Y6  1  0.491553  0.984357  0.750000  1
  Y  Y7  1  0.015643  0.508447  0.750000  1
  Si  Si8  1  0.167638  0.832362  0.500376  1
  Si  Si9  1  0.164885  0.331983  0.502015  1
  Si  Si10  1  0.668017  0.835115  0.502015  1
  Si  Si11  1  0.832213  0.167787  0.499079  1
  Si  Si12  1  0.834694  0.666915  0.500947  1
  Si  Si13  1  0.333085  0.165306  0.500947  1
  Si  Si14  1  0.832213  0.167787  0.000921  1
  Si  Si15  1  0.834694  0.666915  0.999053  1
  Si  Si16  1  0.333085  0.165306  0.999053  1
  Si  Si17  1  0.167638  0.832362  0.999624  1
  Si  Si18  1  0.164885  0.331983  0.997985  1
  Si  Si19  1  0.668017  0.835115  0.997985  1
  Ir  Ir20  1  0.334805  0.665195  0.474769  1
  Ir  Ir21  1  0.665848  0.334152  0.527611  1
  Ir  Ir22  1  0.665848  0.334152  0.972389  1
  Ir  Ir23  1  0.334805  0.665195  0.025231  1
