# generated using pymatgen
data_Hf4Mn3V4Tc
_symmetry_space_group_name_H-M   'P 1'
_cell_length_a   5.11657752
_cell_length_b   5.11293302
_cell_length_c   8.25737300
_cell_angle_alpha   90.00000000
_cell_angle_beta   90.00000000
_cell_angle_gamma   120.33681726
_symmetry_Int_Tables_number   1
_chemical_formula_structural   Hf4Mn3V4Tc
_chemical_formula_sum   'Hf4 Mn3 V4 Tc1'
_cell_volume   186.43960538
_cell_formula_units_Z   1
loop_
 _symmetry_equiv_pos_site_id
 _symmetry_equiv_pos_as_xyz
  1  'x, y, z'
loop_
 _atom_site_type_symbol
 _atom_site_label
 _atom_site_symmetry_multiplicity
 _atom_site_fract_x
 _atom_site_fract_y
 _atom_site_fract_z
 _atom_site_occupancy
  Hf  Hf0  1  0.334105  0.667742  0.440281  1
  Hf  Hf1  1  0.666957  0.333993  0.935533  1
  Hf  Hf2  1  0.666957  0.333993  0.564467  1
  Hf  Hf3  1  0.334105  0.667742  0.059719  1
  Mn  Mn4  1  0.661009  0.833715  0.750000  1
  Mn  Mn5  1  0.833349  0.665510  0.250000  1
  Mn  Mn6  1  0.174806  0.832907  0.750000  1
  V  V7  1  0.172433  0.344635  0.750000  1
  V  V8  1  0.337416  0.170075  0.250000  1
  V  V9  1  0.993645  0.987845  0.993177  1
  V  V10  1  0.993645  0.987845  0.506823  1
  Tc  Tc11  1  0.831572  0.173998  0.250000  1
