# generated using pymatgen
data_MnBrF6
_symmetry_space_group_name_H-M   'P 1'
_cell_length_a   5.12152200
_cell_length_b   5.12152200
_cell_length_c   10.63876200
_cell_angle_alpha   90.00000000
_cell_angle_beta   90.00000000
_cell_angle_gamma   90.00024612
_symmetry_Int_Tables_number   1
_chemical_formula_structural   MnBrF6
_chemical_formula_sum   'Mn2 Br2 F12'
_cell_volume   279.05459530
_cell_formula_units_Z   2
loop_
 _symmetry_equiv_pos_site_id
 _symmetry_equiv_pos_as_xyz
  1  'x, y, z'
loop_
 _atom_site_type_symbol
 _atom_site_label
 _atom_site_symmetry_multiplicity
 _atom_site_fract_x
 _atom_site_fract_y
 _atom_site_fract_z
 _atom_site_occupancy
  Mn  Mn0  1  0.500000  0.500000  0.302048  1
  Mn  Mn1  1  0.000000  0.000000  0.198089  1
  Br  Br2  1  0.000000  0.000000  0.904329  1
  Br  Br3  1  0.500000  0.500000  0.595628  1
  F  F4  1  0.822170  0.822170  0.062540  1
  F  F5  1  0.686885  0.313115  0.707860  1
  F  F6  1  0.313115  0.686885  0.707860  1
  F  F7  1  0.186873  0.186873  0.792117  1
  F  F8  1  0.813127  0.813127  0.792117  1
  F  F9  1  0.677855  0.322145  0.437466  1
  F  F10  1  0.322145  0.677855  0.437466  1
  F  F11  1  0.196126  0.196126  0.311444  1
  F  F12  1  0.803874  0.803874  0.311444  1
  F  F13  1  0.696146  0.303854  0.188526  1
  F  F14  1  0.303854  0.696146  0.188526  1
  F  F15  1  0.177830  0.177830  0.062540  1
