# generated using pymatgen
data_Th7ScNb12Si15P
_symmetry_space_group_name_H-M   'P 1'
_cell_length_a   7.01145985
_cell_length_b   7.19839676
_cell_length_c   13.52429559
_cell_angle_alpha   90.18282078
_cell_angle_beta   89.82674300
_cell_angle_gamma   90.16636690
_symmetry_Int_Tables_number   1
_chemical_formula_structural   Th7ScNb12Si15P
_chemical_formula_sum   'Th7 Sc1 Nb12 Si15 P1'
_cell_volume   682.57891836
_cell_formula_units_Z   1
loop_
 _symmetry_equiv_pos_site_id
 _symmetry_equiv_pos_as_xyz
  1  'x, y, z'
loop_
 _atom_site_type_symbol
 _atom_site_label
 _atom_site_symmetry_multiplicity
 _atom_site_fract_x
 _atom_site_fract_y
 _atom_site_fract_z
 _atom_site_occupancy
  Th  Th0  1  0.502531  0.672804  0.593478  1
  Th  Th1  1  0.000211  0.831247  0.904188  1
  Th  Th2  1  0.500933  0.331372  0.095646  1
  Th  Th3  1  0.996636  0.168461  0.407380  1
  Th  Th4  1  0.498772  0.327984  0.407233  1
  Th  Th5  1  0.000656  0.169024  0.095835  1
  Th  Th6  1  0.500150  0.669904  0.901329  1
  Sc  Sc7  1  0.000158  0.824653  0.600582  1
  Nb  Nb8  1  0.662200  0.167691  0.620851  1
  Nb  Nb9  1  0.162349  0.327165  0.872569  1
  Nb  Nb10  1  0.337659  0.828137  0.125652  1
  Nb  Nb11  1  0.835746  0.677097  0.378041  1
  Nb  Nb12  1  0.338646  0.830044  0.377575  1
  Nb  Nb13  1  0.836681  0.672826  0.125753  1
  Nb  Nb14  1  0.666786  0.169431  0.873159  1
  Nb  Nb15  1  0.163385  0.329043  0.623821  1
  Nb  Nb16  1  0.836559  0.492347  0.749198  1
  Nb  Nb17  1  0.337399  0.002386  0.747801  1
  Nb  Nb18  1  0.163204  0.506562  0.251508  1
  Nb  Nb19  1  0.663118  0.994461  0.252241  1
  Si  Si20  1  0.160485  0.543177  0.043290  1
  Si  Si21  1  0.341600  0.044245  0.955023  1
  Si  Si22  1  0.846427  0.467451  0.546406  1
  Si  Si23  1  0.318942  0.036723  0.547681  1
  Si  Si24  1  0.839438  0.455955  0.955422  1
  Si  Si25  1  0.660065  0.956202  0.043623  1
  Si  Si26  1  0.156960  0.549261  0.459743  1
  Si  Si27  1  0.460560  0.367710  0.747890  1
  Si  Si28  1  0.961193  0.125229  0.745187  1
  Si  Si29  1  0.540705  0.630215  0.251367  1
  Si  Si30  1  0.042132  0.868904  0.250950  1
  Si  Si31  1  0.708572  0.881698  0.745061  1
  Si  Si32  1  0.195631  0.621893  0.745521  1
  Si  Si33  1  0.299668  0.116901  0.251188  1
  Si  Si34  1  0.800925  0.385788  0.252129  1
  P  P35  1  0.662917  0.956006  0.455677  1
