# generated using pymatgen
data_Ac4Tc6O19
_symmetry_space_group_name_H-M   'P 1'
_cell_length_a   7.98208509
_cell_length_b   7.98208493
_cell_length_c   7.98208500
_cell_angle_alpha   109.47122081
_cell_angle_beta   109.47122042
_cell_angle_gamma   109.47122125
_symmetry_Int_Tables_number   1
_chemical_formula_structural   Ac4Tc6O19
_chemical_formula_sum   'Ac4 Tc6 O19'
_cell_volume   391.49584008
_cell_formula_units_Z   1
loop_
 _symmetry_equiv_pos_site_id
 _symmetry_equiv_pos_as_xyz
  1  'x, y, z'
loop_
 _atom_site_type_symbol
 _atom_site_label
 _atom_site_symmetry_multiplicity
 _atom_site_fract_x
 _atom_site_fract_y
 _atom_site_fract_z
 _atom_site_occupancy
  Ac  Ac0  1  0.000000  0.000000  0.324654  1
  Ac  Ac1  1  0.000000  0.324654  0.000000  1
  Ac  Ac2  1  0.675346  0.675346  0.675346  1
  Ac  Ac3  1  0.324654  0.000000  0.000000  1
  Tc  Tc4  1  0.367946  0.500000  0.867946  1
  Tc  Tc5  1  0.867946  0.367946  0.500000  1
  Tc  Tc6  1  0.500000  0.132054  0.632054  1
  Tc  Tc7  1  0.132054  0.632054  0.500000  1
  Tc  Tc8  1  0.500000  0.867946  0.367946  1
  Tc  Tc9  1  0.632054  0.500000  0.132054  1
  O  O10  1  0.326667  0.000000  0.326667  1
  O  O11  1  0.326667  0.326667  0.000000  1
  O  O12  1  0.000000  0.673333  0.673333  1
  O  O13  1  0.673333  0.673333  0.000000  1
  O  O14  1  0.000000  0.326667  0.326667  1
  O  O15  1  0.673333  0.000000  0.673333  1
  O  O16  1  0.000000  0.000000  0.000000  1
  O  O17  1  0.366965  0.303684  0.634242  1
  O  O18  1  0.063283  0.330558  0.696316  1
  O  O19  1  0.732723  0.365758  0.669442  1
  O  O20  1  0.365758  0.669442  0.732723  1
  O  O21  1  0.267277  0.936717  0.633035  1
  O  O22  1  0.634242  0.366965  0.303684  1
  O  O23  1  0.303684  0.634242  0.366965  1
  O  O24  1  0.696316  0.063283  0.330558  1
  O  O25  1  0.936717  0.633035  0.267277  1
  O  O26  1  0.669442  0.732723  0.365758  1
  O  O27  1  0.633035  0.267277  0.936717  1
  O  O28  1  0.330558  0.696316  0.063283  1
