# generated using pymatgen
data_VMo2Cl13
_symmetry_space_group_name_H-M   'P 1'
_cell_length_a   11.15322900
_cell_length_b   9.43334742
_cell_length_c   10.00117316
_cell_angle_alpha   83.33108745
_cell_angle_beta   90.00000000
_cell_angle_gamma   90.00000000
_symmetry_Int_Tables_number   1
_chemical_formula_structural   VMo2Cl13
_chemical_formula_sum   'V2 Mo4 Cl26'
_cell_volume   1045.12656893
_cell_formula_units_Z   2
loop_
 _symmetry_equiv_pos_site_id
 _symmetry_equiv_pos_as_xyz
  1  'x, y, z'
loop_
 _atom_site_type_symbol
 _atom_site_label
 _atom_site_symmetry_multiplicity
 _atom_site_fract_x
 _atom_site_fract_y
 _atom_site_fract_z
 _atom_site_occupancy
  V  V0  1  0.250000  0.261888  0.503926  1
  V  V1  1  0.750000  0.738112  0.496074  1
  Mo  Mo2  1  0.250000  0.827031  0.092850  1
  Mo  Mo3  1  0.750000  0.172969  0.907150  1
  Mo  Mo4  1  0.250000  0.685154  0.868869  1
  Mo  Mo5  1  0.750000  0.314846  0.131131  1
  Cl  Cl6  1  0.595015  0.815617  0.587417  1
  Cl  Cl7  1  0.095015  0.184383  0.412583  1
  Cl  Cl8  1  0.750000  0.436160  0.898714  1
  Cl  Cl9  1  0.250000  0.563840  0.101286  1
  Cl  Cl10  1  0.908236  0.146402  0.080207  1
  Cl  Cl11  1  0.408236  0.853598  0.919793  1
  Cl  Cl12  1  0.091764  0.853598  0.919793  1
  Cl  Cl13  1  0.591764  0.146402  0.080207  1
  Cl  Cl14  1  0.750000  0.199203  0.348107  1
  Cl  Cl15  1  0.250000  0.800797  0.651893  1
  Cl  Cl16  1  0.899680  0.468481  0.177639  1
  Cl  Cl17  1  0.399680  0.531519  0.822361  1
  Cl  Cl18  1  0.100320  0.531519  0.822361  1
  Cl  Cl19  1  0.600320  0.468481  0.177639  1
  Cl  Cl20  1  0.750000  0.927453  0.917335  1
  Cl  Cl21  1  0.250000  0.072547  0.082665  1
  Cl  Cl22  1  0.899087  0.197704  0.747408  1
  Cl  Cl23  1  0.399087  0.802296  0.252592  1
  Cl  Cl24  1  0.100913  0.802296  0.252592  1
  Cl  Cl25  1  0.600913  0.197704  0.747408  1
  Cl  Cl26  1  0.750000  0.806212  0.286337  1
  Cl  Cl27  1  0.250000  0.193788  0.713663  1
  Cl  Cl28  1  0.750000  0.511710  0.523218  1
  Cl  Cl29  1  0.250000  0.488290  0.476782  1
  Cl  Cl30  1  0.904985  0.815617  0.587417  1
  Cl  Cl31  1  0.404985  0.184383  0.412583  1
