# generated using pymatgen
data_SbPd3(SeO3)8
_symmetry_space_group_name_H-M   'P 1'
_cell_length_a   8.16345683
_cell_length_b   8.16345717
_cell_length_c   8.16345763
_cell_angle_alpha   90.21907151
_cell_angle_beta   89.78092435
_cell_angle_gamma   90.21908374
_symmetry_Int_Tables_number   1
_chemical_formula_structural   SbPd3(SeO3)8
_chemical_formula_sum   'Sb1 Pd3 Se8 O24'
_cell_volume   544.01748945
_cell_formula_units_Z   1
loop_
 _symmetry_equiv_pos_site_id
 _symmetry_equiv_pos_as_xyz
  1  'x, y, z'
loop_
 _atom_site_type_symbol
 _atom_site_label
 _atom_site_symmetry_multiplicity
 _atom_site_fract_x
 _atom_site_fract_y
 _atom_site_fract_z
 _atom_site_occupancy
  Sb  Sb0  1  0.000000  0.500000  0.500000  1
  Pd  Pd1  1  0.500000  0.500000  0.000000  1
  Pd  Pd2  1  0.500000  0.000000  0.500000  1
  Pd  Pd3  1  0.000000  0.000000  0.000000  1
  Se  Se4  1  0.826949  0.154728  0.675458  1
  Se  Se5  1  0.173051  0.845272  0.324542  1
  Se  Se6  1  0.654728  0.675458  0.673051  1
  Se  Se7  1  0.175458  0.673051  0.845272  1
  Se  Se8  1  0.337044  0.162956  0.837044  1
  Se  Se9  1  0.824542  0.326949  0.154728  1
  Se  Se10  1  0.662956  0.837044  0.162956  1
  Se  Se11  1  0.345272  0.324542  0.326949  1
  O  O12  1  0.241911  0.461006  0.463402  1
  O  O13  1  0.969868  0.248309  0.019875  1
  O  O14  1  0.036598  0.741911  0.461006  1
  O  O15  1  0.471644  0.251264  0.978643  1
  O  O16  1  0.251691  0.980125  0.469868  1
  O  O17  1  0.519875  0.530132  0.751691  1
  O  O18  1  0.972323  0.021115  0.752447  1
  O  O19  1  0.528356  0.748736  0.021357  1
  O  O20  1  0.521357  0.971644  0.251264  1
  O  O21  1  0.478643  0.028356  0.748736  1
  O  O22  1  0.751264  0.978643  0.028356  1
  O  O23  1  0.252447  0.527677  0.978885  1
  O  O24  1  0.038994  0.536598  0.741911  1
  O  O25  1  0.027677  0.978885  0.247553  1
  O  O26  1  0.248736  0.021357  0.971644  1
  O  O27  1  0.480125  0.469868  0.248309  1
  O  O28  1  0.758089  0.538994  0.536598  1
  O  O29  1  0.961006  0.463402  0.258089  1
  O  O30  1  0.030132  0.751691  0.980125  1
  O  O31  1  0.478885  0.247553  0.472323  1
  O  O32  1  0.521115  0.752447  0.527677  1
  O  O33  1  0.963402  0.258089  0.538994  1
  O  O34  1  0.748309  0.019875  0.530132  1
  O  O35  1  0.747553  0.472323  0.021115  1
