# generated using pymatgen
data_La13Pr3Cd4(CoOs)2
_symmetry_space_group_name_H-M   'P 1'
_cell_length_a   10.00774865
_cell_length_b   9.95317333
_cell_length_c   10.00774984
_cell_angle_alpha   60.22187715
_cell_angle_beta   60.51775630
_cell_angle_gamma   60.22187763
_symmetry_Int_Tables_number   1
_chemical_formula_structural   La13Pr3Cd4(CoOs)2
_chemical_formula_sum   'La13 Pr3 Cd4 Co2 Os2'
_cell_volume   709.98600124
_cell_formula_units_Z   1
loop_
 _symmetry_equiv_pos_site_id
 _symmetry_equiv_pos_as_xyz
  1  'x, y, z'
loop_
 _atom_site_type_symbol
 _atom_site_label
 _atom_site_symmetry_multiplicity
 _atom_site_fract_x
 _atom_site_fract_y
 _atom_site_fract_z
 _atom_site_occupancy
  La  La0  1  0.684694  0.694660  0.308645  1
  La  La1  1  0.159105  0.151234  0.538699  1
  La  La2  1  0.308645  0.694660  0.684694  1
  La  La3  1  0.157481  0.149606  0.157481  1
  La  La4  1  0.538699  0.151234  0.159105  1
  La  La5  1  0.308612  0.691939  0.308612  1
  La  La6  1  0.309191  0.310596  0.685841  1
  La  La7  1  0.688740  0.310374  0.688740  1
  La  La8  1  0.937017  0.559846  0.557206  1
  La  La9  1  0.557206  0.559846  0.937017  1
  La  La10  1  0.156937  0.536848  0.156937  1
  La  La11  1  0.685841  0.310596  0.309191  1
  La  La12  1  0.941711  0.557947  0.941711  1
  Pr  Pr13  1  0.934949  0.943801  0.559605  1
  Pr  Pr14  1  0.562030  0.938705  0.562030  1
  Pr  Pr15  1  0.559605  0.943801  0.934949  1
  Cd  Cd16  1  0.238789  0.921371  0.919334  1
  Cd  Cd17  1  0.920858  0.922043  0.920858  1
  Cd  Cd18  1  0.919334  0.921371  0.238789  1
  Cd  Cd19  1  0.921066  0.236263  0.921066  1
  Co  Co20  1  0.364059  0.915056  0.364059  1
  Co  Co21  1  0.363866  0.357129  0.363866  1
  Os  Os22  1  0.917245  0.360536  0.364319  1
  Os  Os23  1  0.364319  0.360536  0.917245  1
