# generated using pymatgen
data_Lu7Co4Tc2Sn23
_symmetry_space_group_name_H-M   'P 1'
_cell_length_a   9.73071623
_cell_length_b   9.73071720
_cell_length_c   9.97270200
_cell_angle_alpha   89.77771645
_cell_angle_beta   90.22228358
_cell_angle_gamma   119.48442101
_symmetry_Int_Tables_number   1
_chemical_formula_structural   Lu7Co4Tc2Sn23
_chemical_formula_sum   'Lu7 Co4 Tc2 Sn23'
_cell_volume   821.98082164
_cell_formula_units_Z   1
loop_
 _symmetry_equiv_pos_site_id
 _symmetry_equiv_pos_as_xyz
  1  'x, y, z'
loop_
 _atom_site_type_symbol
 _atom_site_label
 _atom_site_symmetry_multiplicity
 _atom_site_fract_x
 _atom_site_fract_y
 _atom_site_fract_z
 _atom_site_occupancy
  Lu  Lu0  1  0.482198  0.517802  0.307441  1
  Lu  Lu1  1  0.517802  0.482198  0.692559  1
  Lu  Lu2  1  0.484590  0.963144  0.305364  1
  Lu  Lu3  1  0.515410  0.036856  0.694636  1
  Lu  Lu4  1  0.036856  0.515410  0.305364  1
  Lu  Lu5  1  0.963144  0.484590  0.694636  1
  Lu  Lu6  1  0.000000  0.000000  0.000000  1
  Co  Co7  1  0.829638  0.658194  0.198670  1
  Co  Co8  1  0.170362  0.341806  0.801330  1
  Co  Co9  1  0.341806  0.170362  0.198670  1
  Co  Co10  1  0.658194  0.829638  0.801330  1
  Tc  Tc11  1  0.835747  0.164253  0.203309  1
  Tc  Tc12  1  0.164253  0.835747  0.796691  1
  Sn  Sn13  1  0.118407  0.881593  0.271903  1
  Sn  Sn14  1  0.881593  0.118407  0.728097  1
  Sn  Sn15  1  0.130792  0.240692  0.270115  1
  Sn  Sn16  1  0.869208  0.759308  0.729885  1
  Sn  Sn17  1  0.759308  0.869208  0.270115  1
  Sn  Sn18  1  0.240692  0.130792  0.729885  1
  Sn  Sn19  1  0.779404  0.220596  0.461512  1
  Sn  Sn20  1  0.220596  0.779404  0.538488  1
  Sn  Sn21  1  0.781603  0.562617  0.453943  1
  Sn  Sn22  1  0.218397  0.437383  0.546057  1
  Sn  Sn23  1  0.437383  0.218397  0.453943  1
  Sn  Sn24  1  0.562617  0.781603  0.546057  1
  Sn  Sn25  1  0.347710  0.001284  0.003915  1
  Sn  Sn26  1  0.652290  0.998716  0.996085  1
  Sn  Sn27  1  0.001284  0.347710  0.996085  1
  Sn  Sn28  1  0.998716  0.652290  0.003915  1
  Sn  Sn29  1  0.651675  0.651675  0.000000  1
  Sn  Sn30  1  0.348325  0.348325  0.000000  1
  Sn  Sn31  1  0.333337  0.666663  0.124519  1
  Sn  Sn32  1  0.666663  0.333337  0.875481  1
  Sn  Sn33  1  0.332965  0.667035  0.817694  1
  Sn  Sn34  1  0.667035  0.332965  0.182306  1
  Sn  Sn35  1  0.000000  0.000000  0.500000  1
