# generated using pymatgen
data_NaEu(CdAu)2
_symmetry_space_group_name_H-M   'P 1'
_cell_length_a   4.57108400
_cell_length_b   7.50535700
_cell_length_c   8.80304600
_cell_angle_alpha   90.00000000
_cell_angle_beta   90.00000000
_cell_angle_gamma   90.00000000
_symmetry_Int_Tables_number   1
_chemical_formula_structural   NaEu(CdAu)2
_chemical_formula_sum   'Na2 Eu2 Cd4 Au4'
_cell_volume   302.01153322
_cell_formula_units_Z   2
loop_
 _symmetry_equiv_pos_site_id
 _symmetry_equiv_pos_as_xyz
  1  'x, y, z'
loop_
 _atom_site_type_symbol
 _atom_site_label
 _atom_site_symmetry_multiplicity
 _atom_site_fract_x
 _atom_site_fract_y
 _atom_site_fract_z
 _atom_site_occupancy
  Na  Na0  1  0.750000  0.461016  0.817323  1
  Na  Na1  1  0.250000  0.038984  0.317323  1
  Eu  Eu2  1  0.750000  0.964227  0.681642  1
  Eu  Eu3  1  0.250000  0.535773  0.181642  1
  Cd  Cd4  1  0.250000  0.641959  0.562838  1
  Cd  Cd5  1  0.250000  0.147036  0.939585  1
  Cd  Cd6  1  0.750000  0.352964  0.439585  1
  Cd  Cd7  1  0.750000  0.858041  0.062838  1
  Au  Au8  1  0.250000  0.758481  0.872660  1
  Au  Au9  1  0.250000  0.255674  0.625952  1
  Au  Au10  1  0.750000  0.741519  0.372660  1
  Au  Au11  1  0.750000  0.244326  0.125952  1
