# generated using pymatgen
data_Yb6Hf2MnH27
_symmetry_space_group_name_H-M   'P 1'
_cell_length_a   8.35610200
_cell_length_b   8.35610284
_cell_length_c   4.82156500
_cell_angle_alpha   90.00000000
_cell_angle_beta   90.00000000
_cell_angle_gamma   120.00000460
_symmetry_Int_Tables_number   1
_chemical_formula_structural   Yb6Hf2MnH27
_chemical_formula_sum   'Yb6 Hf2 Mn1 H27'
_cell_volume   291.55879479
_cell_formula_units_Z   1
loop_
 _symmetry_equiv_pos_site_id
 _symmetry_equiv_pos_as_xyz
  1  'x, y, z'
loop_
 _atom_site_type_symbol
 _atom_site_label
 _atom_site_symmetry_multiplicity
 _atom_site_fract_x
 _atom_site_fract_y
 _atom_site_fract_z
 _atom_site_occupancy
  Yb  Yb0  1  0.007185  0.266443  0.500000  1
  Yb  Yb1  1  0.733557  0.740743  0.500000  1
  Yb  Yb2  1  0.259257  0.992815  0.500000  1
  Yb  Yb3  1  0.968000  0.590054  0.000000  1
  Yb  Yb4  1  0.409946  0.377946  0.000000  1
  Yb  Yb5  1  0.622054  0.032000  0.000000  1
  Hf  Hf6  1  0.666667  0.333333  0.500000  1
  Hf  Hf7  1  0.000000  0.000000  0.000000  1
  Mn  Mn8  1  0.333333  0.666667  0.500000  1
  H  H9  1  0.824292  0.319890  0.779386  1
  H  H10  1  0.680110  0.504400  0.779386  1
  H  H11  1  0.495600  0.175708  0.779386  1
  H  H12  1  0.215189  0.531748  0.262192  1
  H  H13  1  0.495600  0.175708  0.220614  1
  H  H14  1  0.824292  0.319890  0.220614  1
  H  H15  1  0.680110  0.504400  0.220614  1
  H  H16  1  0.316558  0.784811  0.737808  1
  H  H17  1  0.468252  0.683442  0.737808  1
  H  H18  1  0.223143  0.973784  0.000000  1
  H  H19  1  0.750642  0.776857  0.000000  1
  H  H20  1  0.026216  0.249358  0.000000  1
  H  H21  1  0.836990  0.010343  0.269987  1
  H  H22  1  0.173353  0.163010  0.730013  1
  H  H23  1  0.989657  0.826647  0.730013  1
  H  H24  1  0.989657  0.826647  0.269987  1
  H  H25  1  0.173353  0.163010  0.269987  1
  H  H26  1  0.836990  0.010343  0.730013  1
  H  H27  1  0.137886  0.640638  0.500000  1
  H  H28  1  0.502751  0.862114  0.500000  1
  H  H29  1  0.359362  0.497249  0.500000  1
  H  H30  1  0.436098  0.335253  0.500000  1
  H  H31  1  0.899156  0.563902  0.500000  1
  H  H32  1  0.664747  0.100844  0.500000  1
  H  H33  1  0.215189  0.531748  0.737808  1
  H  H34  1  0.316558  0.784811  0.262192  1
  H  H35  1  0.468252  0.683442  0.262192  1
