# generated using pymatgen
data_Ho3ErTh4(ReC2)4
_symmetry_space_group_name_H-M   'P 1'
_cell_length_a   5.26698800
_cell_length_b   6.65725221
_cell_length_c   9.85239179
_cell_angle_alpha   89.93091239
_cell_angle_beta   90.00000000
_cell_angle_gamma   90.00000000
_symmetry_Int_Tables_number   1
_chemical_formula_structural   Ho3ErTh4(ReC2)4
_chemical_formula_sum   'Ho3 Er1 Th4 Re4 C8'
_cell_volume   345.46073871
_cell_formula_units_Z   1
loop_
 _symmetry_equiv_pos_site_id
 _symmetry_equiv_pos_as_xyz
  1  'x, y, z'
loop_
 _atom_site_type_symbol
 _atom_site_label
 _atom_site_symmetry_multiplicity
 _atom_site_fract_x
 _atom_site_fract_y
 _atom_site_fract_z
 _atom_site_occupancy
  Ho  Ho0  1  0.750000  0.675344  0.551533  1
  Ho  Ho1  1  0.250000  0.324826  0.448408  1
  Ho  Ho2  1  0.750000  0.175130  0.948306  1
  Er  Er3  1  0.250000  0.825671  0.052164  1
  Th  Th4  1  0.250000  0.470860  0.785632  1
  Th  Th5  1  0.750000  0.029418  0.285452  1
  Th  Th6  1  0.250000  0.970475  0.714800  1
  Th  Th7  1  0.750000  0.529246  0.214356  1
  Re  Re8  1  0.250000  0.272371  0.135825  1
  Re  Re9  1  0.750000  0.227652  0.636204  1
  Re  Re10  1  0.250000  0.772403  0.363575  1
  Re  Re11  1  0.750000  0.727438  0.864244  1
  C  C12  1  0.250000  0.168830  0.947689  1
  C  C13  1  0.750000  0.830520  0.052536  1
  C  C14  1  0.250000  0.669641  0.552436  1
  C  C15  1  0.750000  0.330347  0.447544  1
  C  C16  1  0.250000  0.040514  0.261213  1
  C  C17  1  0.750000  0.459148  0.761493  1
  C  C18  1  0.250000  0.541090  0.238037  1
  C  C19  1  0.750000  0.959077  0.738555  1
