# generated using pymatgen
data_TbTh2Sn3IrRh2
_symmetry_space_group_name_H-M   'P 1'
_cell_length_a   7.58978807
_cell_length_b   7.59076833
_cell_length_c   4.06940600
_cell_angle_alpha   90.00000000
_cell_angle_beta   90.00000000
_cell_angle_gamma   120.40872095
_symmetry_Int_Tables_number   1
_chemical_formula_structural   TbTh2Sn3IrRh2
_chemical_formula_sum   'Tb1 Th2 Sn3 Ir1 Rh2'
_cell_volume   202.19648647
_cell_formula_units_Z   1
loop_
 _symmetry_equiv_pos_site_id
 _symmetry_equiv_pos_as_xyz
  1  'x, y, z'
loop_
 _atom_site_type_symbol
 _atom_site_label
 _atom_site_symmetry_multiplicity
 _atom_site_fract_x
 _atom_site_fract_y
 _atom_site_fract_z
 _atom_site_occupancy
  Tb  Tb0  1  0.589645  0.592554  0.500000  1
  Th  Th1  1  0.413241  0.997833  0.500000  1
  Th  Th2  1  0.002318  0.414814  0.500000  1
  Sn  Sn3  1  0.749316  0.992653  0.000000  1
  Sn  Sn4  1  0.987667  0.746816  0.000000  1
  Sn  Sn5  1  0.262386  0.259923  0.000000  1
  Ir  Ir6  1  0.320852  0.667975  0.000000  1
  Rh  Rh7  1  0.667818  0.321337  0.000000  1
  Rh  Rh8  1  0.006756  0.006094  0.500000  1
