# generated using pymatgen
data_Y3Ho(Tc3Ge4)2
_symmetry_space_group_name_H-M   'P 1'
_cell_length_a   8.32526129
_cell_length_b   5.69378969
_cell_length_c   7.02695936
_cell_angle_alpha   76.25740804
_cell_angle_beta   90.21867835
_cell_angle_gamma   89.97291404
_symmetry_Int_Tables_number   1
_chemical_formula_structural   Y3Ho(Tc3Ge4)2
_chemical_formula_sum   'Y3 Ho1 Tc6 Ge8'
_cell_volume   323.55571111
_cell_formula_units_Z   1
loop_
 _symmetry_equiv_pos_site_id
 _symmetry_equiv_pos_as_xyz
  1  'x, y, z'
loop_
 _atom_site_type_symbol
 _atom_site_label
 _atom_site_symmetry_multiplicity
 _atom_site_fract_x
 _atom_site_fract_y
 _atom_site_fract_z
 _atom_site_occupancy
  Y  Y0  1  0.557327  0.074576  0.245784  1
  Y  Y1  1  0.057189  0.425249  0.753790  1
  Y  Y2  1  0.442362  0.924953  0.754794  1
  Ho  Ho3  1  0.943977  0.576582  0.244245  1
  Tc  Tc4  1  0.205876  0.117785  0.114959  1
  Tc  Tc5  1  0.706032  0.390066  0.884702  1
  Tc  Tc6  1  0.794564  0.882838  0.885403  1
  Tc  Tc7  1  0.293574  0.608596  0.115791  1
  Tc  Tc8  1  0.999524  0.999943  0.499538  1
  Tc  Tc9  1  0.499493  0.499766  0.500128  1
  Ge  Ge10  1  0.902779  0.120488  0.124986  1
  Ge  Ge11  1  0.403467  0.380475  0.873476  1
  Ge  Ge12  1  0.097293  0.880005  0.876081  1
  Ge  Ge13  1  0.597319  0.618853  0.127289  1
  Ge  Ge14  1  0.748448  0.222451  0.580580  1
  Ge  Ge15  1  0.246075  0.278480  0.423135  1
  Ge  Ge16  1  0.251356  0.778376  0.418431  1
  Ge  Ge17  1  0.753344  0.720519  0.576888  1
