# generated using pymatgen
data_Tb7DySc12Si15Ge
_symmetry_space_group_name_H-M   'P 1'
_cell_length_a   7.11969064
_cell_length_b   7.40447209
_cell_length_c   14.03546503
_cell_angle_alpha   89.99739089
_cell_angle_beta   89.90769915
_cell_angle_gamma   90.03469426
_symmetry_Int_Tables_number   1
_chemical_formula_structural   Tb7DySc12Si15Ge
_chemical_formula_sum   'Tb7 Dy1 Sc12 Si15 Ge1'
_cell_volume   739.91424262
_cell_formula_units_Z   1
loop_
 _symmetry_equiv_pos_site_id
 _symmetry_equiv_pos_as_xyz
  1  'x, y, z'
loop_
 _atom_site_type_symbol
 _atom_site_label
 _atom_site_symmetry_multiplicity
 _atom_site_fract_x
 _atom_site_fract_y
 _atom_site_fract_z
 _atom_site_occupancy
  Tb  Tb0  1  0.012195  0.175087  0.096978  1
  Tb  Tb1  1  0.987926  0.824993  0.902978  1
  Tb  Tb2  1  0.488086  0.675186  0.903013  1
  Tb  Tb3  1  0.987266  0.825870  0.597135  1
  Tb  Tb4  1  0.512058  0.324943  0.097042  1
  Tb  Tb5  1  0.011211  0.174420  0.402514  1
  Tb  Tb6  1  0.512630  0.324027  0.402418  1
  Dy  Dy7  1  0.490228  0.676554  0.597424  1
  Sc  Sc8  1  0.160542  0.502173  0.751175  1
  Sc  Sc9  1  0.839323  0.497830  0.250093  1
  Sc  Sc10  1  0.339494  0.002030  0.250040  1
  Sc  Sc11  1  0.660548  0.997715  0.749981  1
  Sc  Sc12  1  0.332515  0.174345  0.625985  1
  Sc  Sc13  1  0.668520  0.823955  0.374569  1
  Sc  Sc14  1  0.168401  0.677285  0.374330  1
  Sc  Sc15  1  0.669049  0.823466  0.125183  1
  Sc  Sc16  1  0.829595  0.323550  0.625336  1
  Sc  Sc17  1  0.330898  0.176357  0.874682  1
  Sc  Sc18  1  0.830876  0.323393  0.874650  1
  Sc  Sc19  1  0.169105  0.676685  0.125223  1
  Si  Si20  1  0.033538  0.118078  0.750011  1
  Si  Si21  1  0.966364  0.882413  0.249773  1
  Si  Si22  1  0.466287  0.617851  0.249925  1
  Si  Si23  1  0.533155  0.382527  0.749967  1
  Si  Si24  1  0.285555  0.873871  0.749996  1
  Si  Si25  1  0.714570  0.125537  0.249843  1
  Si  Si26  1  0.214400  0.374390  0.249998  1
  Si  Si27  1  0.785662  0.625725  0.749859  1
  Si  Si28  1  0.838040  0.536496  0.459731  1
  Si  Si29  1  0.342357  0.964323  0.460576  1
  Si  Si30  1  0.842683  0.535353  0.039416  1
  Si  Si31  1  0.657452  0.035540  0.539517  1
  Si  Si32  1  0.157195  0.464632  0.960605  1
  Si  Si33  1  0.657234  0.035478  0.960542  1
  Si  Si34  1  0.342699  0.964535  0.039436  1
  Ge  Ge35  1  0.162345  0.463391  0.540058  1
