# generated using pymatgen
data_Ca2Tb3Y(Si3Ru)8
_symmetry_space_group_name_H-M   'P 1'
_cell_length_a   10.15649137
_cell_length_b   10.15649115
_cell_length_c   8.16936533
_cell_angle_alpha   90.00451959
_cell_angle_beta   90.00452253
_cell_angle_gamma   132.60645143
_symmetry_Int_Tables_number   1
_chemical_formula_structural   Ca2Tb3Y(Si3Ru)8
_chemical_formula_sum   'Ca2 Tb3 Y1 Si24 Ru8'
_cell_volume   620.24866065
_cell_formula_units_Z   1
loop_
 _symmetry_equiv_pos_site_id
 _symmetry_equiv_pos_as_xyz
  1  'x, y, z'
loop_
 _atom_site_type_symbol
 _atom_site_label
 _atom_site_symmetry_multiplicity
 _atom_site_fract_x
 _atom_site_fract_y
 _atom_site_fract_z
 _atom_site_occupancy
  Ca  Ca0  1  0.501029  0.000906  0.749940  1
  Ca  Ca1  1  0.999094  0.498971  0.250060  1
  Tb  Tb2  1  0.000047  0.999953  0.000000  1
  Tb  Tb3  1  0.496587  0.996677  0.250045  1
  Tb  Tb4  1  0.003323  0.503413  0.749955  1
  Y  Y5  1  0.499973  0.500027  0.500000  1
  Si  Si6  1  0.794656  0.205344  0.500000  1
  Si  Si7  1  0.294133  0.705867  0.000000  1
  Si  Si8  1  0.205755  0.794245  0.500000  1
  Si  Si9  1  0.705478  0.294522  0.000000  1
  Si  Si10  1  0.330344  0.336173  0.833035  1
  Si  Si11  1  0.663827  0.669656  0.166965  1
  Si  Si12  1  0.169719  0.164054  0.333139  1
  Si  Si13  1  0.835946  0.830281  0.666861  1
  Si  Si14  1  0.121627  0.887553  0.727573  1
  Si  Si15  1  0.112447  0.878373  0.272427  1
  Si  Si16  1  0.609164  0.375664  0.227934  1
  Si  Si17  1  0.624336  0.390836  0.772066  1
  Si  Si18  1  0.875735  0.109165  0.272057  1
  Si  Si19  1  0.890835  0.124265  0.727943  1
  Si  Si20  1  0.387704  0.621848  0.772400  1
  Si  Si21  1  0.378152  0.612296  0.227600  1
  Si  Si22  1  0.344341  0.110807  0.503632  1
  Si  Si23  1  0.889193  0.655659  0.496368  1
  Si  Si24  1  0.388799  0.155640  0.006431  1
  Si  Si25  1  0.844360  0.611201  0.993569  1
  Si  Si26  1  0.655415  0.888440  0.493051  1
  Si  Si27  1  0.111560  0.344585  0.506949  1
  Si  Si28  1  0.610513  0.844142  0.997079  1
  Si  Si29  1  0.155858  0.389487  0.002921  1
  Ru  Ru30  1  0.669578  0.330422  0.500000  1
  Ru  Ru31  1  0.168669  0.831331  0.000000  1
  Ru  Ru32  1  0.331350  0.668650  0.500000  1
  Ru  Ru33  1  0.830407  0.169593  0.000000  1
  Ru  Ru34  1  0.126111  0.126576  0.626163  1
  Ru  Ru35  1  0.873424  0.873889  0.373837  1
  Ru  Ru36  1  0.374057  0.373540  0.126258  1
  Ru  Ru37  1  0.626460  0.625943  0.873742  1
