# generated using pymatgen
data_Ho3Er13CdIn3Rh4
_symmetry_space_group_name_H-M   'P 1'
_cell_length_a   9.58306386
_cell_length_b   9.58058085
_cell_length_c   9.58567600
_cell_angle_alpha   59.98241286
_cell_angle_beta   59.99098967
_cell_angle_gamma   60.03425227
_symmetry_Int_Tables_number   1
_chemical_formula_structural   Ho3Er13CdIn3Rh4
_chemical_formula_sum   'Ho3 Er13 Cd1 In3 Rh4'
_cell_volume   622.34168198
_cell_formula_units_Z   1
loop_
 _symmetry_equiv_pos_site_id
 _symmetry_equiv_pos_as_xyz
  1  'x, y, z'
loop_
 _atom_site_type_symbol
 _atom_site_label
 _atom_site_symmetry_multiplicity
 _atom_site_fract_x
 _atom_site_fract_y
 _atom_site_fract_z
 _atom_site_occupancy
  Ho  Ho0  1  0.190302  0.190790  0.809454  1
  Ho  Ho1  1  0.436612  0.060789  0.065413  1
  Ho  Ho2  1  0.436612  0.060789  0.437187  1
  Er  Er3  1  0.063003  0.436125  0.063760  1
  Er  Er4  1  0.648466  0.050566  0.650484  1
  Er  Er5  1  0.189310  0.811293  0.810764  1
  Er  Er6  1  0.061967  0.059553  0.439241  1
  Er  Er7  1  0.810353  0.190788  0.189912  1
  Er  Er8  1  0.811775  0.810480  0.188873  1
  Er  Er9  1  0.651234  0.650096  0.045553  1
  Er  Er10  1  0.651234  0.650096  0.653117  1
  Er  Er11  1  0.063003  0.436125  0.437112  1
  Er  Er12  1  0.048821  0.648352  0.651414  1
  Er  Er13  1  0.810353  0.190788  0.808948  1
  Er  Er14  1  0.436735  0.434789  0.064238  1
  Er  Er15  1  0.189310  0.811293  0.188633  1
  Cd  Cd16  1  0.417789  0.746804  0.417703  1
  In  In17  1  0.417200  0.419661  0.747929  1
  In  In18  1  0.747925  0.420096  0.415990  1
  In  In19  1  0.417200  0.419661  0.415210  1
  Rh  Rh20  1  0.858148  0.425703  0.858074  1
  Rh  Rh21  1  0.858047  0.858227  0.427152  1
  Rh  Rh22  1  0.426558  0.858911  0.857266  1
  Rh  Rh23  1  0.858047  0.858227  0.856575  1
