# generated using pymatgen
data_EuZrNiAs2
_symmetry_space_group_name_H-M   'P 1'
_cell_length_a   4.12594300
_cell_length_b   4.12594272
_cell_length_c   13.87493900
_cell_angle_alpha   90.00000000
_cell_angle_beta   90.00000000
_cell_angle_gamma   119.99997816
_symmetry_Int_Tables_number   1
_chemical_formula_structural   EuZrNiAs2
_chemical_formula_sum   'Eu2 Zr2 Ni2 As4'
_cell_volume   204.55411871
_cell_formula_units_Z   2
loop_
 _symmetry_equiv_pos_site_id
 _symmetry_equiv_pos_as_xyz
  1  'x, y, z'
loop_
 _atom_site_type_symbol
 _atom_site_label
 _atom_site_symmetry_multiplicity
 _atom_site_fract_x
 _atom_site_fract_y
 _atom_site_fract_z
 _atom_site_occupancy
  Eu  Eu0  1  0.666667  0.333333  0.389688  1
  Eu  Eu1  1  0.333333  0.666667  0.889688  1
  Zr  Zr2  1  0.333333  0.666667  0.623119  1
  Zr  Zr3  1  0.666667  0.333333  0.123119  1
  Ni  Ni4  1  0.000000  0.000000  0.708816  1
  Ni  Ni5  1  0.000000  0.000000  0.208816  1
  As  As6  1  0.333333  0.666667  0.253356  1
  As  As7  1  0.000000  0.000000  0.025022  1
  As  As8  1  0.000000  0.000000  0.525022  1
  As  As9  1  0.666667  0.333333  0.753356  1
