# generated using pymatgen
data_Cs6K10ZrSn3Se16
_symmetry_space_group_name_H-M   'P 1'
_cell_length_a   8.39915819
_cell_length_b   10.75778800
_cell_length_c   16.08698746
_cell_angle_alpha   90.00000000
_cell_angle_beta   90.18714070
_cell_angle_gamma   90.00000000
_symmetry_Int_Tables_number   1
_chemical_formula_structural   Cs6K10ZrSn3Se16
_chemical_formula_sum   'Cs6 K10 Zr1 Sn3 Se16'
_cell_volume   1453.55392920
_cell_formula_units_Z   1
loop_
 _symmetry_equiv_pos_site_id
 _symmetry_equiv_pos_as_xyz
  1  'x, y, z'
loop_
 _atom_site_type_symbol
 _atom_site_label
 _atom_site_symmetry_multiplicity
 _atom_site_fract_x
 _atom_site_fract_y
 _atom_site_fract_z
 _atom_site_occupancy
  Cs  Cs0  1  0.000490  0.997385  0.998664  1
  Cs  Cs1  1  0.501242  0.003528  0.500548  1
  Cs  Cs2  1  0.000490  0.502615  0.998664  1
  Cs  Cs3  1  0.501242  0.496472  0.500548  1
  Cs  Cs4  1  0.995755  0.750000  0.427124  1
  Cs  Cs5  1  0.494791  0.250000  0.072707  1
  K  K6  1  0.026753  0.250000  0.569070  1
  K  K7  1  0.530567  0.750000  0.929700  1
  K  K8  1  0.833333  0.049721  0.264575  1
  K  K9  1  0.333282  0.950684  0.235074  1
  K  K10  1  0.167286  0.551972  0.735199  1
  K  K11  1  0.664259  0.444433  0.764920  1
  K  K12  1  0.167286  0.948028  0.735199  1
  K  K13  1  0.664259  0.055567  0.764920  1
  K  K14  1  0.833333  0.450279  0.264575  1
  K  K15  1  0.333282  0.549316  0.235074  1
  Zr  Zr16  1  0.770882  0.750000  0.675343  1
  Sn  Sn17  1  0.226309  0.250000  0.327835  1
  Sn  Sn18  1  0.725579  0.750000  0.171584  1
  Sn  Sn19  1  0.271525  0.250000  0.826142  1
  Se  Se20  1  0.965903  0.250000  0.822046  1
  Se  Se21  1  0.532612  0.250000  0.321822  1
  Se  Se22  1  0.466927  0.750000  0.678501  1
  Se  Se23  1  0.031581  0.750000  0.178357  1
  Se  Se24  1  0.622629  0.559292  0.094889  1
  Se  Se25  1  0.124263  0.440770  0.404063  1
  Se  Se26  1  0.374074  0.054619  0.899479  1
  Se  Se27  1  0.870443  0.945384  0.602963  1
  Se  Se28  1  0.374074  0.445381  0.899479  1
  Se  Se29  1  0.870443  0.554616  0.602963  1
  Se  Se30  1  0.622629  0.940708  0.094889  1
  Se  Se31  1  0.124263  0.059230  0.404063  1
  Se  Se32  1  0.608006  0.750000  0.320569  1
  Se  Se33  1  0.107506  0.250000  0.178770  1
  Se  Se34  1  0.381268  0.250000  0.675386  1
  Se  Se35  1  0.881431  0.750000  0.824297  1
