# generated using pymatgen
data_HoNp(P2O7)2
_symmetry_space_group_name_H-M   'P 1'
_cell_length_a   8.88017781
_cell_length_b   5.28897996
_cell_length_c   7.36515200
_cell_angle_alpha   73.05364287
_cell_angle_beta   89.40749971
_cell_angle_gamma   89.67617781
_symmetry_Int_Tables_number   1
_chemical_formula_structural   HoNp(P2O7)2
_chemical_formula_sum   'Ho1 Np1 P4 O14'
_cell_volume   330.88024924
_cell_formula_units_Z   1
loop_
 _symmetry_equiv_pos_site_id
 _symmetry_equiv_pos_as_xyz
  1  'x, y, z'
loop_
 _atom_site_type_symbol
 _atom_site_label
 _atom_site_symmetry_multiplicity
 _atom_site_fract_x
 _atom_site_fract_y
 _atom_site_fract_z
 _atom_site_occupancy
  Ho  Ho0  1  0.548724  0.206789  0.270347  1
  Np  Np1  1  0.049866  0.794107  0.724662  1
  P  P2  1  0.369747  0.605250  0.513202  1
  P  P3  1  0.286241  0.247892  0.888598  1
  P  P4  1  0.859491  0.392311  0.484913  1
  P  P5  1  0.785551  0.750263  0.113415  1
  O  O6  1  0.154574  0.437362  0.904116  1
  O  O7  1  0.220506  0.021053  0.820827  1
  O  O8  1  0.737418  0.991927  0.168357  1
  O  O9  1  0.377657  0.154237  0.065439  1
  O  O10  1  0.978177  0.165990  0.525607  1
  O  O11  1  0.700351  0.294841  0.490478  1
  O  O12  1  0.372245  0.437923  0.379211  1
  O  O13  1  0.660959  0.572674  0.085577  1
  O  O14  1  0.482194  0.826222  0.478250  1
  O  O15  1  0.399387  0.414153  0.726705  1
  O  O16  1  0.901558  0.576815  0.274648  1
  O  O17  1  0.887367  0.561016  0.622056  1
  O  O18  1  0.204991  0.718811  0.528500  1
  O  O19  1  0.895085  0.830366  0.935093  1
