# generated using pymatgen
data_Tb10Pr6Cd4CoPd3
_symmetry_space_group_name_H-M   'P 1'
_cell_length_a   9.80087459
_cell_length_b   9.80087544
_cell_length_c   9.80087513
_cell_angle_alpha   60.26576382
_cell_angle_beta   60.26576489
_cell_angle_gamma   60.26576865
_symmetry_Int_Tables_number   1
_chemical_formula_structural   Tb10Pr6Cd4CoPd3
_chemical_formula_sum   'Tb10 Pr6 Cd4 Co1 Pd3'
_cell_volume   669.70599621
_cell_formula_units_Z   1
loop_
 _symmetry_equiv_pos_site_id
 _symmetry_equiv_pos_as_xyz
  1  'x, y, z'
loop_
 _atom_site_type_symbol
 _atom_site_label
 _atom_site_symmetry_multiplicity
 _atom_site_fract_x
 _atom_site_fract_y
 _atom_site_fract_z
 _atom_site_occupancy
  Tb  Tb0  1  0.352064  0.352064  0.352064  1
  Tb  Tb1  1  0.344222  0.344222  0.953237  1
  Tb  Tb2  1  0.344222  0.953237  0.344222  1
  Tb  Tb3  1  0.953237  0.344222  0.344222  1
  Tb  Tb4  1  0.822646  0.187045  0.187045  1
  Tb  Tb5  1  0.186633  0.811566  0.811566  1
  Tb  Tb6  1  0.187045  0.822646  0.187045  1
  Tb  Tb7  1  0.811566  0.186633  0.811566  1
  Tb  Tb8  1  0.187045  0.187045  0.822646  1
  Tb  Tb9  1  0.811566  0.811566  0.186633  1
  Pr  Pr10  1  0.938884  0.561093  0.561093  1
  Pr  Pr11  1  0.560416  0.937471  0.937471  1
  Pr  Pr12  1  0.561093  0.938884  0.561093  1
  Pr  Pr13  1  0.937471  0.560416  0.937471  1
  Pr  Pr14  1  0.561093  0.561093  0.938884  1
  Pr  Pr15  1  0.937471  0.937471  0.560416  1
  Cd  Cd16  1  0.579241  0.579241  0.579241  1
  Cd  Cd17  1  0.580502  0.580502  0.260881  1
  Cd  Cd18  1  0.580502  0.260881  0.580502  1
  Cd  Cd19  1  0.260881  0.580502  0.580502  1
  Co  Co20  1  0.142390  0.142390  0.142390  1
  Pd  Pd21  1  0.144902  0.144902  0.570008  1
  Pd  Pd22  1  0.144902  0.570008  0.144902  1
  Pd  Pd23  1  0.570008  0.144902  0.144902  1
