# generated using pymatgen
data_Er3U(TcB4)4
_symmetry_space_group_name_H-M   'P 1'
_cell_length_a   3.58952800
_cell_length_b   5.93673118
_cell_length_c   11.48280609
_cell_angle_alpha   89.99312455
_cell_angle_beta   90.00000000
_cell_angle_gamma   90.00000000
_symmetry_Int_Tables_number   1
_chemical_formula_structural   Er3U(TcB4)4
_chemical_formula_sum   'Er3 U1 Tc4 B16'
_cell_volume   244.69931713
_cell_formula_units_Z   1
loop_
 _symmetry_equiv_pos_site_id
 _symmetry_equiv_pos_as_xyz
  1  'x, y, z'
loop_
 _atom_site_type_symbol
 _atom_site_label
 _atom_site_symmetry_multiplicity
 _atom_site_fract_x
 _atom_site_fract_y
 _atom_site_fract_z
 _atom_site_occupancy
  Er  Er0  1  0.500000  0.629221  0.849639  1
  Er  Er1  1  0.500000  0.127590  0.649908  1
  Er  Er2  1  0.500000  0.872748  0.351357  1
  U  U3  1  0.500000  0.372509  0.150081  1
  Tc  Tc4  1  0.500000  0.365746  0.408458  1
  Tc  Tc5  1  0.500000  0.635652  0.588159  1
  Tc  Tc6  1  0.500000  0.138760  0.912179  1
  Tc  Tc7  1  0.500000  0.861247  0.093292  1
  B  B8  1  0.000000  0.113376  0.047131  1
  B  B9  1  0.000000  0.886220  0.952328  1
  B  B10  1  0.000000  0.386690  0.547051  1
  B  B11  1  0.000000  0.614236  0.453080  1
  B  B12  1  0.000000  0.135924  0.468466  1
  B  B13  1  0.000000  0.865172  0.530981  1
  B  B14  1  0.000000  0.364572  0.969403  1
  B  B15  1  0.000000  0.633328  0.032287  1
  B  B16  1  0.000000  0.027474  0.192027  1
  B  B17  1  0.000000  0.975421  0.807731  1
  B  B18  1  0.000000  0.476046  0.692375  1
  B  B19  1  0.000000  0.521702  0.306754  1
  B  B20  1  0.000000  0.212827  0.312844  1
  B  B21  1  0.000000  0.787884  0.685302  1
  B  B22  1  0.000000  0.286672  0.813594  1
  B  B23  1  0.000000  0.708983  0.185573  1
