# generated using pymatgen
data_Hf5Zr5Sn7Sb
_symmetry_space_group_name_H-M   'P 1'
_cell_length_a   8.82711322
_cell_length_b   8.83363985
_cell_length_c   5.93101500
_cell_angle_alpha   90.00000000
_cell_angle_beta   90.00000000
_cell_angle_gamma   120.19344398
_symmetry_Int_Tables_number   1
_chemical_formula_structural   Hf5Zr5Sn7Sb
_chemical_formula_sum   'Hf5 Zr5 Sn7 Sb1'
_cell_volume   399.73132060
_cell_formula_units_Z   1
loop_
 _symmetry_equiv_pos_site_id
 _symmetry_equiv_pos_as_xyz
  1  'x, y, z'
loop_
 _atom_site_type_symbol
 _atom_site_label
 _atom_site_symmetry_multiplicity
 _atom_site_fract_x
 _atom_site_fract_y
 _atom_site_fract_z
 _atom_site_occupancy
  Hf  Hf0  1  0.282600  0.282752  0.750000  1
  Hf  Hf1  1  0.332558  0.665786  0.500621  1
  Hf  Hf2  1  0.666431  0.333401  0.500621  1
  Hf  Hf3  1  0.332558  0.665786  0.999379  1
  Hf  Hf4  1  0.666431  0.333401  0.999379  1
  Zr  Zr5  1  0.721418  0.720719  0.250000  1
  Zr  Zr6  1  0.716803  0.998974  0.750000  1
  Zr  Zr7  1  0.001240  0.282310  0.250000  1
  Zr  Zr8  1  0.998866  0.716937  0.750000  1
  Zr  Zr9  1  0.280728  0.000188  0.250000  1
  Sn  Sn10  1  0.000848  0.001600  0.501892  1
  Sn  Sn11  1  0.611580  0.612312  0.750000  1
  Sn  Sn12  1  0.386325  0.000485  0.750000  1
  Sn  Sn13  1  0.000848  0.001600  0.998108  1
  Sn  Sn14  1  0.612933  0.000056  0.250000  1
  Sn  Sn15  1  0.387602  0.387755  0.250000  1
  Sn  Sn16  1  0.000108  0.384560  0.750000  1
  Sb  Sb17  1  0.000122  0.611377  0.250000  1
