# generated using pymatgen
data_Th6Pd4RuAu3
_symmetry_space_group_name_H-M   'P 1'
_cell_length_a   8.26388342
_cell_length_b   8.23525465
_cell_length_c   8.22112278
_cell_angle_alpha   114.30033007
_cell_angle_beta   114.44326580
_cell_angle_gamma   114.52449646
_symmetry_Int_Tables_number   1
_chemical_formula_structural   Th6Pd4RuAu3
_chemical_formula_sum   'Th6 Pd4 Ru1 Au3'
_cell_volume   328.99306752
_cell_formula_units_Z   1
loop_
 _symmetry_equiv_pos_site_id
 _symmetry_equiv_pos_as_xyz
  1  'x, y, z'
loop_
 _atom_site_type_symbol
 _atom_site_label
 _atom_site_symmetry_multiplicity
 _atom_site_fract_x
 _atom_site_fract_y
 _atom_site_fract_z
 _atom_site_occupancy
  Th  Th0  1  0.037758  0.397677  0.281020  1
  Th  Th1  1  0.391457  0.277656  0.024518  1
  Th  Th2  1  0.716757  0.963711  0.607450  1
  Th  Th3  1  0.262695  0.014938  0.383035  1
  Th  Th4  1  0.616564  0.733740  0.973726  1
  Th  Th5  1  0.982646  0.619875  0.731530  1
  Pd  Pd6  1  0.502943  0.497408  0.498904  1
  Pd  Pd7  1  0.421290  0.929039  0.764881  1
  Pd  Pd8  1  0.928464  0.764514  0.425225  1
  Pd  Pd9  1  0.232324  0.574699  0.069676  1
  Ru  Ru10  1  0.001981  0.001534  0.001936  1
  Au  Au11  1  0.763913  0.422466  0.928156  1
  Au  Au12  1  0.071276  0.233084  0.577489  1
  Au  Au13  1  0.569932  0.069660  0.232455  1
