# generated using pymatgen
data_TmBeRe2C
_symmetry_space_group_name_H-M   'P 1'
_cell_length_a   5.65536710
_cell_length_b   5.65536598
_cell_length_c   7.26434600
_cell_angle_alpha   90.00000000
_cell_angle_beta   90.00000000
_cell_angle_gamma   141.64343043
_symmetry_Int_Tables_number   1
_chemical_formula_structural   TmBeRe2C
_chemical_formula_sum   'Tm2 Be2 Re4 C2'
_cell_volume   144.17743948
_cell_formula_units_Z   2
loop_
 _symmetry_equiv_pos_site_id
 _symmetry_equiv_pos_as_xyz
  1  'x, y, z'
loop_
 _atom_site_type_symbol
 _atom_site_label
 _atom_site_symmetry_multiplicity
 _atom_site_fract_x
 _atom_site_fract_y
 _atom_site_fract_z
 _atom_site_occupancy
  Tm  Tm0  1  0.535101  0.464899  0.250000  1
  Tm  Tm1  1  0.464899  0.535101  0.750000  1
  Be  Be2  1  0.255668  0.744332  0.250000  1
  Be  Be3  1  0.744332  0.255668  0.750000  1
  Re  Re4  1  0.821486  0.178514  0.062726  1
  Re  Re5  1  0.178514  0.821486  0.937274  1
  Re  Re6  1  0.178514  0.821486  0.562726  1
  Re  Re7  1  0.821486  0.178514  0.437274  1
  C  C8  1  0.000000  0.000000  0.000000  1
  C  C9  1  0.000000  0.000000  0.500000  1
