# generated using pymatgen
data_TbHo3(Al8Pd3)3
_symmetry_space_group_name_H-M   'P 1'
_cell_length_a   7.54536662
_cell_length_b   7.57626557
_cell_length_c   13.19594620
_cell_angle_alpha   84.58694943
_cell_angle_beta   79.13212331
_cell_angle_gamma   60.02322170
_symmetry_Int_Tables_number   1
_chemical_formula_structural   TbHo3(Al8Pd3)3
_chemical_formula_sum   'Tb1 Ho3 Al24 Pd9'
_cell_volume   641.72405789
_cell_formula_units_Z   1
loop_
 _symmetry_equiv_pos_site_id
 _symmetry_equiv_pos_as_xyz
  1  'x, y, z'
loop_
 _atom_site_type_symbol
 _atom_site_label
 _atom_site_symmetry_multiplicity
 _atom_site_fract_x
 _atom_site_fract_y
 _atom_site_fract_z
 _atom_site_occupancy
  Tb  Tb0  1  0.393184  0.168968  0.808728  1
  Ho  Ho1  1  0.606787  0.830891  0.191546  1
  Ho  Ho2  1  0.733778  0.498143  0.808435  1
  Ho  Ho3  1  0.266120  0.501969  0.191585  1
  Al  Al4  1  0.684885  0.833357  0.944947  1
  Al  Al5  1  0.315325  0.166292  0.055445  1
  Al  Al6  1  0.146124  0.833174  0.561066  1
  Al  Al7  1  0.853925  0.166817  0.438871  1
  Al  Al8  1  0.478865  0.166688  0.558778  1
  Al  Al9  1  0.521150  0.833288  0.441099  1
  Al  Al10  1  0.216969  0.165239  0.329531  1
  Al  Al11  1  0.783317  0.834530  0.670300  1
  Al  Al12  1  0.437037  0.506817  0.670336  1
  Al  Al13  1  0.563028  0.493439  0.329484  1
  Al  Al14  1  0.108917  0.159690  0.669256  1
  Al  Al15  1  0.890900  0.840306  0.330536  1
  Al  Al16  1  0.352753  0.500108  0.945151  1
  Al  Al17  1  0.647217  0.500225  0.055020  1
  Al  Al18  1  0.015131  0.167490  0.953927  1
  Al  Al19  1  0.984486  0.832547  0.046286  1
  Al  Al20  1  0.187159  0.499341  0.440838  1
  Al  Al21  1  0.812841  0.500672  0.559114  1
  Al  Al22  1  0.733206  0.163897  0.183550  1
  Al  Al23  1  0.266787  0.835713  0.816454  1
  Al  Al24  1  0.061425  0.631131  0.815161  1
  Al  Al25  1  0.938204  0.369245  0.184847  1
  Al  Al26  1  0.855454  0.041725  0.816008  1
  Al  Al27  1  0.144914  0.958228  0.184014  1
  Pd  Pd28  1  0.119155  0.492771  0.638309  1
  Pd  Pd29  1  0.880655  0.507554  0.361459  1
  Pd  Pd30  1  0.657102  0.171317  0.999806  1
  Pd  Pd31  1  0.342914  0.828629  0.000401  1
  Pd  Pd32  1  0.538192  0.166884  0.361358  1
  Pd  Pd33  1  0.461833  0.832846  0.638449  1
  Pd  Pd34  1  0.778000  0.174957  0.637731  1
  Pd  Pd35  1  0.222335  0.825017  0.362062  1
  Pd  Pd36  1  0.999927  0.500093  0.000109  1
