# generated using pymatgen
data_Dy4Al24Pd5Pt4
_symmetry_space_group_name_H-M   'P 1'
_cell_length_a   7.53926198
_cell_length_b   7.56547924
_cell_length_c   13.20200600
_cell_angle_alpha   84.59426036
_cell_angle_beta   79.12526833
_cell_angle_gamma   59.97527412
_symmetry_Int_Tables_number   1
_chemical_formula_structural   Dy4Al24Pd5Pt4
_chemical_formula_sum   'Dy4 Al24 Pd5 Pt4'
_cell_volume   640.26185975
_cell_formula_units_Z   1
loop_
 _symmetry_equiv_pos_site_id
 _symmetry_equiv_pos_as_xyz
  1  'x, y, z'
loop_
 _atom_site_type_symbol
 _atom_site_label
 _atom_site_symmetry_multiplicity
 _atom_site_fract_x
 _atom_site_fract_y
 _atom_site_fract_z
 _atom_site_occupancy
  Dy  Dy0  1  0.393555  0.168511  0.807981  1
  Dy  Dy1  1  0.606445  0.831489  0.192019  1
  Dy  Dy2  1  0.733605  0.498608  0.807989  1
  Dy  Dy3  1  0.266395  0.501392  0.192011  1
  Al  Al4  1  0.684678  0.833791  0.944756  1
  Al  Al5  1  0.315322  0.166209  0.055244  1
  Al  Al6  1  0.146488  0.832789  0.561530  1
  Al  Al7  1  0.853512  0.167211  0.438470  1
  Al  Al8  1  0.479922  0.166534  0.558720  1
  Al  Al9  1  0.520078  0.833466  0.441280  1
  Al  Al10  1  0.216633  0.165520  0.330592  1
  Al  Al11  1  0.783367  0.834480  0.669408  1
  Al  Al12  1  0.437262  0.506482  0.669518  1
  Al  Al13  1  0.562738  0.493518  0.330482  1
  Al  Al14  1  0.109681  0.160055  0.668539  1
  Al  Al15  1  0.890319  0.839945  0.331461  1
  Al  Al16  1  0.352348  0.499821  0.944792  1
  Al  Al17  1  0.647652  0.500179  0.055208  1
  Al  Al18  1  0.015538  0.167212  0.953491  1
  Al  Al19  1  0.984462  0.832788  0.046509  1
  Al  Al20  1  0.187018  0.499259  0.441386  1
  Al  Al21  1  0.812982  0.500741  0.558614  1
  Al  Al22  1  0.734361  0.164232  0.183649  1
  Al  Al23  1  0.265639  0.835768  0.816351  1
  Al  Al24  1  0.061451  0.630907  0.815029  1
  Al  Al25  1  0.938549  0.369093  0.184971  1
  Al  Al26  1  0.855653  0.041363  0.815965  1
  Al  Al27  1  0.144347  0.958637  0.184035  1
  Pd  Pd28  1  0.119884  0.492289  0.638475  1
  Pd  Pd29  1  0.880116  0.507711  0.361525  1
  Pd  Pd30  1  0.657334  0.171374  0.999920  1
  Pd  Pd31  1  0.342666  0.828626  0.000080  1
  Pd  Pd32  1  0.000000  0.500000  0.000000  1
  Pt  Pt33  1  0.537899  0.166745  0.361751  1
  Pt  Pt34  1  0.462101  0.833255  0.638249  1
  Pt  Pt35  1  0.778688  0.174893  0.636940  1
  Pt  Pt36  1  0.221312  0.825107  0.363060  1
