# generated using pymatgen
data_Yb3IrRh3PbO14
_symmetry_space_group_name_H-M   'P 1'
_cell_length_a   7.18970367
_cell_length_b   7.24585559
_cell_length_c   7.24585600
_cell_angle_alpha   59.99999811
_cell_angle_beta   59.74130580
_cell_angle_gamma   59.74130627
_symmetry_Int_Tables_number   1
_chemical_formula_structural   Yb3IrRh3PbO14
_chemical_formula_sum   'Yb3 Ir1 Rh3 Pb1 O14'
_cell_volume   265.86801105
_cell_formula_units_Z   1
loop_
 _symmetry_equiv_pos_site_id
 _symmetry_equiv_pos_as_xyz
  1  'x, y, z'
loop_
 _atom_site_type_symbol
 _atom_site_label
 _atom_site_symmetry_multiplicity
 _atom_site_fract_x
 _atom_site_fract_y
 _atom_site_fract_z
 _atom_site_occupancy
  Yb  Yb0  1  0.125000  0.625000  0.125000  1
  Yb  Yb1  1  0.125000  0.125000  0.625000  1
  Yb  Yb2  1  0.125000  0.125000  0.125000  1
  Ir  Ir3  1  0.125000  0.625000  0.625000  1
  Rh  Rh4  1  0.625000  0.125000  0.625000  1
  Rh  Rh5  1  0.625000  0.625000  0.125000  1
  Rh  Rh6  1  0.625000  0.625000  0.625000  1
  Pb  Pb7  1  0.625000  0.125000  0.125000  1
  O  O8  1  0.698433  0.710943  0.295312  1
  O  O9  1  0.293182  0.298381  0.704219  1
  O  O10  1  0.698433  0.295312  0.710943  1
  O  O11  1  0.293182  0.704219  0.298381  1
  O  O12  1  0.293182  0.704219  0.704219  1
  O  O13  1  0.698433  0.295312  0.295312  1
  O  O14  1  0.551567  0.539057  0.954688  1
  O  O15  1  0.956818  0.951619  0.545781  1
  O  O16  1  0.551567  0.954688  0.539057  1
  O  O17  1  0.956818  0.545781  0.951619  1
  O  O18  1  0.956818  0.545781  0.545781  1
  O  O19  1  0.551567  0.954688  0.954688  1
  O  O20  1  0.264804  0.245066  0.245066  1
  O  O21  1  0.985196  0.004934  0.004934  1
