# generated using pymatgen
data_TbEr7(OsI4)2
_symmetry_space_group_name_H-M   'P 1'
_cell_length_a   11.00431214
_cell_length_b   11.02493372
_cell_length_c   6.15669023
_cell_angle_alpha   89.43585442
_cell_angle_beta   89.48759816
_cell_angle_gamma   88.81469811
_symmetry_Int_Tables_number   1
_chemical_formula_structural   TbEr7(OsI4)2
_chemical_formula_sum   'Tb1 Er7 Os2 I8'
_cell_volume   746.71625477
_cell_formula_units_Z   1
loop_
 _symmetry_equiv_pos_site_id
 _symmetry_equiv_pos_as_xyz
  1  'x, y, z'
loop_
 _atom_site_type_symbol
 _atom_site_label
 _atom_site_symmetry_multiplicity
 _atom_site_fract_x
 _atom_site_fract_y
 _atom_site_fract_z
 _atom_site_occupancy
  Tb  Tb0  1  0.207044  0.914063  0.997891  1
  Er  Er1  1  0.797831  0.083986  0.002132  1
  Er  Er2  1  0.083423  0.797945  0.502485  1
  Er  Er3  1  0.915573  0.201772  0.497412  1
  Er  Er4  1  0.799212  0.920423  0.505476  1
  Er  Er5  1  0.199994  0.080156  0.494333  1
  Er  Er6  1  0.079787  0.200137  0.994337  1
  Er  Er7  1  0.920104  0.799757  0.005513  1
  Os  Os8  1  0.000127  0.000074  0.250408  1
  Os  Os9  1  0.000212  0.000131  0.749890  1
  I  I10  1  0.364468  0.842338  0.500856  1
  I  I11  1  0.635182  0.157803  0.498586  1
  I  I12  1  0.155891  0.633374  0.998262  1
  I  I13  1  0.842134  0.364256  0.001667  1
  I  I14  1  0.361255  0.153839  0.004632  1
  I  I15  1  0.638762  0.849556  0.995958  1
  I  I16  1  0.848829  0.639797  0.496003  1
  I  I17  1  0.150172  0.360593  0.504160  1
