# generated using pymatgen
data_LiYb2YCd2Pb3
_symmetry_space_group_name_H-M   'P 1'
_cell_length_a   7.66549083
_cell_length_b   7.66549071
_cell_length_c   4.73512800
_cell_angle_alpha   90.00000000
_cell_angle_beta   90.00000000
_cell_angle_gamma   120.56314615
_symmetry_Int_Tables_number   1
_chemical_formula_structural   LiYb2YCd2Pb3
_chemical_formula_sum   'Li1 Yb2 Y1 Cd2 Pb3'
_cell_volume   239.57955071
_cell_formula_units_Z   1
loop_
 _symmetry_equiv_pos_site_id
 _symmetry_equiv_pos_as_xyz
  1  'x, y, z'
loop_
 _atom_site_type_symbol
 _atom_site_label
 _atom_site_symmetry_multiplicity
 _atom_site_fract_x
 _atom_site_fract_y
 _atom_site_fract_z
 _atom_site_occupancy
  Li  Li0  1  0.764588  0.764588  0.000000  1
  Yb  Yb1  1  0.565084  0.004554  0.500000  1
  Yb  Yb2  1  0.004554  0.565084  0.500000  1
  Y  Y3  1  0.423745  0.423745  0.500000  1
  Cd  Cd4  1  0.244080  0.999017  0.000000  1
  Cd  Cd5  1  0.999017  0.244080  0.000000  1
  Pb  Pb6  1  0.667726  0.352058  0.000000  1
  Pb  Pb7  1  0.352058  0.667726  0.000000  1
  Pb  Pb8  1  0.979148  0.979148  0.500000  1
