# generated using pymatgen
data_Ce5Y15Si15Ag
_symmetry_space_group_name_H-M   'P 1'
_cell_length_a   7.46830902
_cell_length_b   7.69680101
_cell_length_c   14.67982500
_cell_angle_alpha   90.22167105
_cell_angle_beta   90.67223098
_cell_angle_gamma   90.16107661
_symmetry_Int_Tables_number   1
_chemical_formula_structural   Ce5Y15Si15Ag
_chemical_formula_sum   'Ce5 Y15 Si15 Ag1'
_cell_volume   843.75916273
_cell_formula_units_Z   1
loop_
 _symmetry_equiv_pos_site_id
 _symmetry_equiv_pos_as_xyz
  1  'x, y, z'
loop_
 _atom_site_type_symbol
 _atom_site_label
 _atom_site_symmetry_multiplicity
 _atom_site_fract_x
 _atom_site_fract_y
 _atom_site_fract_z
 _atom_site_occupancy
  Ce  Ce0  1  0.675645  0.176284  0.623756  1
  Ce  Ce1  1  0.183208  0.320282  0.878983  1
  Ce  Ce2  1  0.318306  0.820799  0.119913  1
  Ce  Ce3  1  0.825477  0.676678  0.376752  1
  Ce  Ce4  1  0.321252  0.825359  0.379411  1
  Y  Y5  1  0.815574  0.677868  0.120878  1
  Y  Y6  1  0.683720  0.177529  0.877828  1
  Y  Y7  1  0.177926  0.321798  0.623505  1
  Y  Y8  1  0.519551  0.675246  0.601149  1
  Y  Y9  1  0.027900  0.816041  0.902205  1
  Y  Y10  1  0.470614  0.318335  0.096976  1
  Y  Y11  1  0.982392  0.183987  0.399438  1
  Y  Y12  1  0.472807  0.324755  0.399945  1
  Y  Y13  1  0.969948  0.185042  0.096905  1
  Y  Y14  1  0.530570  0.682474  0.901172  1
  Y  Y15  1  0.023563  0.814623  0.599875  1
  Y  Y16  1  0.853296  0.506185  0.750752  1
  Y  Y17  1  0.351677  0.990424  0.750158  1
  Y  Y18  1  0.147150  0.496597  0.251894  1
  Y  Y19  1  0.646766  0.010552  0.245731  1
  Si  Si20  1  0.137666  0.526979  0.041966  1
  Si  Si21  1  0.362356  0.027670  0.958130  1
  Si  Si22  1  0.853346  0.469858  0.541337  1
  Si  Si23  1  0.337701  0.027426  0.544070  1
  Si  Si24  1  0.851283  0.473106  0.959025  1
  Si  Si25  1  0.649270  0.972982  0.038987  1
  Si  Si26  1  0.152647  0.528235  0.461382  1
  Si  Si27  1  0.477333  0.398691  0.750612  1
  Si  Si28  1  0.976439  0.098575  0.751744  1
  Si  Si29  1  0.524357  0.601382  0.247736  1
  Si  Si30  1  0.021976  0.900698  0.247756  1
  Si  Si31  1  0.734367  0.868855  0.751978  1
  Si  Si32  1  0.234175  0.628017  0.750990  1
  Si  Si33  1  0.265162  0.130614  0.247530  1
  Si  Si34  1  0.765039  0.372924  0.247062  1
  Ag  Ag35  1  0.659539  0.973131  0.462468  1
