# generated using pymatgen
data_KNd10(C2Br9)2
_symmetry_space_group_name_H-M   'P 1'
_cell_length_a   11.01946954
_cell_length_b   11.11029398
_cell_length_c   11.27147800
_cell_angle_alpha   112.98144230
_cell_angle_beta   87.71883760
_cell_angle_gamma   118.58278944
_symmetry_Int_Tables_number   1
_chemical_formula_structural   KNd10(C2Br9)2
_chemical_formula_sum   'K1 Nd10 C4 Br18'
_cell_volume   1097.00844760
_cell_formula_units_Z   1
loop_
 _symmetry_equiv_pos_site_id
 _symmetry_equiv_pos_as_xyz
  1  'x, y, z'
loop_
 _atom_site_type_symbol
 _atom_site_label
 _atom_site_symmetry_multiplicity
 _atom_site_fract_x
 _atom_site_fract_y
 _atom_site_fract_z
 _atom_site_occupancy
  K  K0  1  0.500000  0.000000  0.500000  1
  Nd  Nd1  1  0.655611  0.714328  0.698036  1
  Nd  Nd2  1  0.282144  0.368554  0.014111  1
  Nd  Nd3  1  0.092932  0.413260  0.305324  1
  Nd  Nd4  1  0.961954  0.037969  0.334835  1
  Nd  Nd5  1  0.907068  0.586740  0.694676  1
  Nd  Nd6  1  0.115176  0.941637  0.001164  1
  Nd  Nd7  1  0.038046  0.962031  0.665165  1
  Nd  Nd8  1  0.344389  0.285672  0.301964  1
  Nd  Nd9  1  0.717856  0.631446  0.985889  1
  Nd  Nd10  1  0.884824  0.058363  0.998836  1
  C  C11  1  0.156541  0.230054  0.128250  1
  C  C12  1  0.843459  0.769946  0.871750  1
  C  C13  1  0.917869  0.846244  0.794971  1
  C  C14  1  0.082131  0.153756  0.205029  1
  Br  Br15  1  0.451693  0.531003  0.831545  1
  Br  Br16  1  0.384359  0.036812  0.162335  1
  Br  Br17  1  0.772326  0.858721  0.502742  1
  Br  Br18  1  0.836045  0.312715  0.155219  1
  Br  Br19  1  0.548307  0.468997  0.168455  1
  Br  Br20  1  0.227674  0.141279  0.497258  1
  Br  Br21  1  0.312387  0.099140  0.832068  1
  Br  Br22  1  0.687613  0.900860  0.167932  1
  Br  Br23  1  0.977930  0.763681  0.171847  1
  Br  Br24  1  0.929322  0.300016  0.500518  1
  Br  Br25  1  0.022070  0.236319  0.828153  1
  Br  Br26  1  0.070678  0.699984  0.499482  1
  Br  Br27  1  0.266392  0.630867  0.194606  1
  Br  Br28  1  0.733608  0.369133  0.805394  1
  Br  Br29  1  0.636468  0.429112  0.497960  1
  Br  Br30  1  0.163955  0.687285  0.844781  1
  Br  Br31  1  0.615641  0.963188  0.837665  1
  Br  Br32  1  0.363532  0.570888  0.502040  1
