# generated using pymatgen
data_Y8Ti11Si16Au
_symmetry_space_group_name_H-M   'P 1'
_cell_length_a   7.07741675
_cell_length_b   7.07741793
_cell_length_c   12.90694304
_cell_angle_alpha   90.13828413
_cell_angle_beta   89.86171552
_cell_angle_gamma   89.59551266
_symmetry_Int_Tables_number   1
_chemical_formula_structural   Y8Ti11Si16Au
_chemical_formula_sum   'Y8 Ti11 Si16 Au1'
_cell_volume   646.48675984
_cell_formula_units_Z   1
loop_
 _symmetry_equiv_pos_site_id
 _symmetry_equiv_pos_as_xyz
  1  'x, y, z'
loop_
 _atom_site_type_symbol
 _atom_site_label
 _atom_site_symmetry_multiplicity
 _atom_site_fract_x
 _atom_site_fract_y
 _atom_site_fract_z
 _atom_site_occupancy
  Y  Y0  1  0.340919  0.002186  0.466698  1
  Y  Y1  1  0.497294  0.841137  0.716831  1
  Y  Y2  1  0.501404  0.157304  0.214349  1
  Y  Y3  1  0.841137  0.497294  0.283169  1
  Y  Y4  1  0.157304  0.501404  0.785651  1
  Y  Y5  1  0.656346  0.000987  0.968653  1
  Y  Y6  1  0.002186  0.340919  0.533302  1
  Y  Y7  1  0.000987  0.656346  0.031347  1
  Ti  Ti8  1  0.175021  0.825945  0.249531  1
  Ti  Ti9  1  0.825945  0.175021  0.750469  1
  Ti  Ti10  1  0.672755  0.672755  0.500000  1
  Ti  Ti11  1  0.147671  0.007797  0.877097  1
  Ti  Ti12  1  0.494698  0.650917  0.123087  1
  Ti  Ti13  1  0.507581  0.350774  0.625598  1
  Ti  Ti14  1  0.650917  0.494698  0.876913  1
  Ti  Ti15  1  0.350774  0.507581  0.374402  1
  Ti  Ti16  1  0.850093  0.991427  0.374443  1
  Ti  Ti17  1  0.007797  0.147671  0.122903  1
  Ti  Ti18  1  0.991427  0.850093  0.625557  1
  Si  Si19  1  0.201493  0.132368  0.684827  1
  Si  Si20  1  0.374130  0.719792  0.929079  1
  Si  Si21  1  0.631069  0.293963  0.432780  1
  Si  Si22  1  0.719792  0.374130  0.070921  1
  Si  Si23  1  0.293963  0.631069  0.567220  1
  Si  Si24  1  0.798036  0.867203  0.183016  1
  Si  Si25  1  0.132368  0.201493  0.315173  1
  Si  Si26  1  0.867203  0.798036  0.816984  1
  Si  Si27  1  0.285893  0.937550  0.065895  1
  Si  Si28  1  0.547237  0.790491  0.314390  1
  Si  Si29  1  0.454300  0.208564  0.809703  1
  Si  Si30  1  0.790491  0.547237  0.685610  1
  Si  Si31  1  0.208564  0.454300  0.190297  1
  Si  Si32  1  0.709022  0.048027  0.564456  1
  Si  Si33  1  0.937550  0.285893  0.934105  1
  Si  Si34  1  0.048027  0.709022  0.435544  1
  Au  Au35  1  0.328603  0.328603  0.000000  1
