# generated using pymatgen
data_BaH11Ru2
_symmetry_space_group_name_H-M   'P 1'
_cell_length_a   5.05016679
_cell_length_b   5.05900230
_cell_length_c   6.70317557
_cell_angle_alpha   112.15961437
_cell_angle_beta   93.24317727
_cell_angle_gamma   119.75426974
_symmetry_Int_Tables_number   1
_chemical_formula_structural   BaH11Ru2
_chemical_formula_sum   'Ba1 H11 Ru2'
_cell_volume   131.21694783
_cell_formula_units_Z   1
loop_
 _symmetry_equiv_pos_site_id
 _symmetry_equiv_pos_as_xyz
  1  'x, y, z'
loop_
 _atom_site_type_symbol
 _atom_site_label
 _atom_site_symmetry_multiplicity
 _atom_site_fract_x
 _atom_site_fract_y
 _atom_site_fract_z
 _atom_site_occupancy
  Ba  Ba0  1  0.578831  0.105216  0.799773  1
  H  H1  1  0.394244  0.484019  0.343221  1
  H  H2  1  0.633063  0.753656  0.022139  1
  H  H3  1  0.376957  0.065388  0.309965  1
  H  H4  1  0.057757  0.567046  0.281420  1
  H  H5  1  0.747208  0.701215  0.248875  1
  H  H6  1  0.963017  0.525575  0.619793  1
  H  H7  1  0.527955  0.472062  0.588509  1
  H  H8  1  0.196184  0.699848  0.989937  1
  H  H9  1  0.201540  0.308909  0.992343  1
  H  H10  1  0.953959  0.897948  0.591841  1
  H  H11  1  0.772608  0.134851  0.311717  1
  Ru  Ru12  1  0.410125  0.710931  0.188493  1
  Ru  Ru13  1  0.737658  0.486995  0.412217  1
