# generated using pymatgen
data_BaFeNi(Sb6Os)2
_symmetry_space_group_name_H-M   'P 1'
_cell_length_a   8.08832316
_cell_length_b   8.13666313
_cell_length_c   8.12986412
_cell_angle_alpha   109.64211926
_cell_angle_beta   109.51304417
_cell_angle_gamma   109.47684656
_symmetry_Int_Tables_number   1
_chemical_formula_structural   BaFeNi(Sb6Os)2
_chemical_formula_sum   'Ba1 Fe1 Ni1 Sb12 Os2'
_cell_volume   410.76141259
_cell_formula_units_Z   1
loop_
 _symmetry_equiv_pos_site_id
 _symmetry_equiv_pos_as_xyz
  1  'x, y, z'
loop_
 _atom_site_type_symbol
 _atom_site_label
 _atom_site_symmetry_multiplicity
 _atom_site_fract_x
 _atom_site_fract_y
 _atom_site_fract_z
 _atom_site_occupancy
  Ba  Ba0  1  0.000000  0.000000  0.000000  1
  Fe  Fe1  1  0.000000  0.500000  0.000000  1
  Ni  Ni2  1  0.000000  0.000000  0.500000  1
  Sb  Sb3  1  0.341434  0.184845  0.840085  1
  Sb  Sb4  1  0.658566  0.815155  0.159915  1
  Sb  Sb5  1  0.667130  0.499862  0.843301  1
  Sb  Sb6  1  0.332870  0.500138  0.156699  1
  Sb  Sb7  1  0.178664  0.833934  0.334609  1
  Sb  Sb8  1  0.821336  0.166066  0.665391  1
  Sb  Sb9  1  0.499093  0.841517  0.658072  1
  Sb  Sb10  1  0.500907  0.158483  0.341928  1
  Sb  Sb11  1  0.844442  0.344646  0.176514  1
  Sb  Sb12  1  0.155558  0.655354  0.823486  1
  Sb  Sb13  1  0.843920  0.658578  0.498435  1
  Sb  Sb14  1  0.156080  0.341422  0.501565  1
  Os  Os15  1  0.500000  0.000000  0.000000  1
  Os  Os16  1  0.500000  0.500000  0.500000  1
