# generated using pymatgen
data_Li4Zn8Ru3Pt
_symmetry_space_group_name_H-M   'P 1'
_cell_length_a   6.01714937
_cell_length_b   6.02117839
_cell_length_c   6.10931003
_cell_angle_alpha   90.00879943
_cell_angle_beta   89.99343754
_cell_angle_gamma   90.16662851
_symmetry_Int_Tables_number   1
_chemical_formula_structural   Li4Zn8Ru3Pt
_chemical_formula_sum   'Li4 Zn8 Ru3 Pt1'
_cell_volume   221.34137662
_cell_formula_units_Z   1
loop_
 _symmetry_equiv_pos_site_id
 _symmetry_equiv_pos_as_xyz
  1  'x, y, z'
loop_
 _atom_site_type_symbol
 _atom_site_label
 _atom_site_symmetry_multiplicity
 _atom_site_fract_x
 _atom_site_fract_y
 _atom_site_fract_z
 _atom_site_occupancy
  Li  Li0  1  0.251076  0.250010  0.000012  1
  Li  Li1  1  0.748892  0.750001  0.999988  1
  Li  Li2  1  0.751144  0.750014  0.500009  1
  Li  Li3  1  0.248579  0.249979  0.499991  1
  Zn  Zn4  1  0.498042  0.998146  0.248389  1
  Zn  Zn5  1  0.497962  0.501956  0.248378  1
  Zn  Zn6  1  0.001975  0.997917  0.246240  1
  Zn  Zn7  1  0.001826  0.501957  0.246370  1
  Zn  Zn8  1  0.001915  0.997978  0.753674  1
  Zn  Zn9  1  0.001850  0.501931  0.753637  1
  Zn  Zn10  1  0.498065  0.998122  0.751611  1
  Zn  Zn11  1  0.497912  0.502009  0.751708  1
  Ru  Ru12  1  0.749582  0.250022  0.999979  1
  Ru  Ru13  1  0.250841  0.749970  0.000027  1
  Ru  Ru14  1  0.249528  0.750019  0.499973  1
  Pt  Pt15  1  0.750814  0.249970  0.500015  1
