# generated using pymatgen
data_Li2Ho3AgGe2Pb
_symmetry_space_group_name_H-M   'P 1'
_cell_length_a   7.19493800
_cell_length_b   7.14725056
_cell_length_c   4.35399400
_cell_angle_alpha   90.00000000
_cell_angle_beta   90.00000000
_cell_angle_gamma   120.22095909
_symmetry_Int_Tables_number   1
_chemical_formula_structural   Li2Ho3AgGe2Pb
_chemical_formula_sum   'Li2 Ho3 Ag1 Ge2 Pb1'
_cell_volume   193.46982497
_cell_formula_units_Z   1
loop_
 _symmetry_equiv_pos_site_id
 _symmetry_equiv_pos_as_xyz
  1  'x, y, z'
loop_
 _atom_site_type_symbol
 _atom_site_label
 _atom_site_symmetry_multiplicity
 _atom_site_fract_x
 _atom_site_fract_y
 _atom_site_fract_z
 _atom_site_occupancy
  Li  Li0  1  0.756971  0.754421  0.500000  1
  Li  Li1  1  0.002549  0.245579  0.500000  1
  Ho  Ho2  1  0.001669  0.559963  0.000000  1
  Ho  Ho3  1  0.552082  0.000000  0.000000  1
  Ho  Ho4  1  0.441706  0.440037  0.000000  1
  Ag  Ag5  1  0.252705  0.000000  0.500000  1
  Ge  Ge6  1  0.332829  0.660600  0.500000  1
  Ge  Ge7  1  0.672230  0.339400  0.500000  1
  Pb  Pb8  1  0.987259  0.000000  0.000000  1
