# generated using pymatgen
data_Ce3Er2(SiB4)2
_symmetry_space_group_name_H-M   'P 1'
_cell_length_a   7.27745126
_cell_length_b   7.27745096
_cell_length_c   8.20013700
_cell_angle_alpha   90.00000000
_cell_angle_beta   90.00000000
_cell_angle_gamma   90.11478133
_symmetry_Int_Tables_number   1
_chemical_formula_structural   Ce3Er2(SiB4)2
_chemical_formula_sum   'Ce6 Er4 Si4 B16'
_cell_volume   434.28900074
_cell_formula_units_Z   2
loop_
 _symmetry_equiv_pos_site_id
 _symmetry_equiv_pos_as_xyz
  1  'x, y, z'
loop_
 _atom_site_type_symbol
 _atom_site_label
 _atom_site_symmetry_multiplicity
 _atom_site_fract_x
 _atom_site_fract_y
 _atom_site_fract_z
 _atom_site_occupancy
  Ce  Ce0  1  0.682255  0.182628  0.228281  1
  Ce  Ce1  1  0.317372  0.817745  0.771719  1
  Ce  Ce2  1  0.317372  0.817745  0.228281  1
  Ce  Ce3  1  0.818477  0.681523  0.228237  1
  Ce  Ce4  1  0.818477  0.681523  0.771763  1
  Ce  Ce5  1  0.682255  0.182628  0.771719  1
  Er  Er6  1  0.181250  0.318750  0.781721  1
  Er  Er7  1  0.181250  0.318750  0.218279  1
  Er  Er8  1  0.002092  0.001247  0.500000  1
  Er  Er9  1  0.498753  0.497908  0.500000  1
  Si  Si10  1  0.117313  0.613117  0.500000  1
  Si  Si11  1  0.886883  0.382687  0.500000  1
  Si  Si12  1  0.381352  0.118648  0.500000  1
  Si  Si13  1  0.613956  0.886044  0.500000  1
  B  B14  1  0.173635  0.039900  0.000000  1
  B  B15  1  0.828149  0.962283  0.000000  1
  B  B16  1  0.961396  0.173371  0.000000  1
  B  B17  1  0.326629  0.538604  0.000000  1
  B  B18  1  0.039895  0.828133  0.000000  1
  B  B19  1  0.671867  0.460105  0.000000  1
  B  B20  1  0.537717  0.671851  0.000000  1
  B  B21  1  0.460100  0.326365  0.000000  1
  B  B22  1  0.091551  0.590493  0.000000  1
  B  B23  1  0.909507  0.408449  0.000000  1
  B  B24  1  0.409375  0.090625  0.000000  1
  B  B25  1  0.590834  0.909166  0.000000  1
  B  B26  1  0.001008  0.000865  0.160386  1
  B  B27  1  0.001008  0.000865  0.839614  1
  B  B28  1  0.499135  0.498992  0.839614  1
  B  B29  1  0.499135  0.498992  0.160386  1
