# generated using pymatgen
data_Zr3Re2SiGe2Rh
_symmetry_space_group_name_H-M   'P 1'
_cell_length_a   6.94493600
_cell_length_b   7.00276020
_cell_length_c   3.56038800
_cell_angle_alpha   90.00000000
_cell_angle_beta   90.00000000
_cell_angle_gamma   119.72722312
_symmetry_Int_Tables_number   1
_chemical_formula_structural   Zr3Re2SiGe2Rh
_chemical_formula_sum   'Zr3 Re2 Si1 Ge2 Rh1'
_cell_volume   150.36703959
_cell_formula_units_Z   1
loop_
 _symmetry_equiv_pos_site_id
 _symmetry_equiv_pos_as_xyz
  1  'x, y, z'
loop_
 _atom_site_type_symbol
 _atom_site_label
 _atom_site_symmetry_multiplicity
 _atom_site_fract_x
 _atom_site_fract_y
 _atom_site_fract_z
 _atom_site_occupancy
  Zr  Zr0  1  0.395363  0.000000  0.500000  1
  Zr  Zr1  1  0.009164  0.412754  0.500000  1
  Zr  Zr2  1  0.596410  0.587246  0.500000  1
  Re  Re3  1  0.000018  0.754564  0.000000  1
  Re  Re4  1  0.245455  0.245436  0.000000  1
  Si  Si5  1  0.987239  0.000000  0.500000  1
  Ge  Ge6  1  0.340373  0.671120  0.000000  1
  Ge  Ge7  1  0.669254  0.328880  0.000000  1
  Rh  Rh8  1  0.756723  0.000000  0.000000  1
