# generated using pymatgen
data_LaNdCr3O12
_symmetry_space_group_name_H-M   'P 1'
_cell_length_a   10.18594085
_cell_length_b   10.18594201
_cell_length_c   10.18594300
_cell_angle_alpha   57.95430740
_cell_angle_beta   57.95430331
_cell_angle_gamma   57.95431088
_symmetry_Int_Tables_number   1
_chemical_formula_structural   LaNdCr3O12
_chemical_formula_sum   'La2 Nd2 Cr6 O24'
_cell_volume   712.21321205
_cell_formula_units_Z   2
loop_
 _symmetry_equiv_pos_site_id
 _symmetry_equiv_pos_as_xyz
  1  'x, y, z'
loop_
 _atom_site_type_symbol
 _atom_site_label
 _atom_site_symmetry_multiplicity
 _atom_site_fract_x
 _atom_site_fract_y
 _atom_site_fract_z
 _atom_site_occupancy
  La  La0  1  0.637943  0.637943  0.637943  1
  La  La1  1  0.362057  0.362057  0.362057  1
  Nd  Nd2  1  0.138796  0.138796  0.138796  1
  Nd  Nd3  1  0.861204  0.861204  0.861204  1
  Cr  Cr4  1  0.753100  0.032756  0.465234  1
  Cr  Cr5  1  0.967243  0.534767  0.246900  1
  Cr  Cr6  1  0.534767  0.246900  0.967244  1
  Cr  Cr7  1  0.465233  0.753100  0.032757  1
  Cr  Cr8  1  0.032757  0.465233  0.753100  1
  Cr  Cr9  1  0.246900  0.967243  0.534767  1
  O  O10  1  0.898344  0.075568  0.282031  1
  O  O11  1  0.813665  0.987206  0.611325  1
  O  O12  1  0.012794  0.388675  0.186335  1
  O  O13  1  0.717969  0.101656  0.924432  1
  O  O14  1  0.580904  0.196956  0.468358  1
  O  O15  1  0.874888  0.496061  0.718748  1
  O  O16  1  0.503939  0.281252  0.125112  1
  O  O17  1  0.803044  0.531642  0.419096  1
  O  O18  1  0.924432  0.717969  0.101656  1
  O  O19  1  0.531642  0.419096  0.803044  1
  O  O20  1  0.388675  0.186335  0.012794  1
  O  O21  1  0.281252  0.125112  0.503939  1
  O  O22  1  0.718748  0.874888  0.496061  1
  O  O23  1  0.611325  0.813665  0.987206  1
  O  O24  1  0.468358  0.580904  0.196956  1
  O  O25  1  0.075568  0.282031  0.898344  1
  O  O26  1  0.196956  0.468358  0.580904  1
  O  O27  1  0.496061  0.718748  0.874888  1
  O  O28  1  0.125112  0.503939  0.281252  1
  O  O29  1  0.419096  0.803044  0.531642  1
  O  O30  1  0.282031  0.898344  0.075568  1
  O  O31  1  0.987206  0.611325  0.813665  1
  O  O32  1  0.186335  0.012794  0.388675  1
  O  O33  1  0.101656  0.924432  0.717969  1
