# generated using pymatgen
data_NaY6IrCl12
_symmetry_space_group_name_H-M   'P 1'
_cell_length_a   8.94922851
_cell_length_b   8.91967880
_cell_length_c   8.96750054
_cell_angle_alpha   107.05439324
_cell_angle_beta   107.20199408
_cell_angle_gamma   106.85759999
_symmetry_Int_Tables_number   1
_chemical_formula_structural   NaY6IrCl12
_chemical_formula_sum   'Na1 Y6 Ir1 Cl12'
_cell_volume   595.52187527
_cell_formula_units_Z   1
loop_
 _symmetry_equiv_pos_site_id
 _symmetry_equiv_pos_as_xyz
  1  'x, y, z'
loop_
 _atom_site_type_symbol
 _atom_site_label
 _atom_site_symmetry_multiplicity
 _atom_site_fract_x
 _atom_site_fract_y
 _atom_site_fract_z
 _atom_site_occupancy
  Na  Na0  1  0.500000  0.500000  0.500000  1
  Y  Y1  1  0.115699  0.325266  0.027007  1
  Y  Y2  1  0.326728  0.028186  0.115269  1
  Y  Y3  1  0.027262  0.117151  0.327590  1
  Y  Y4  1  0.972739  0.882849  0.672411  1
  Y  Y5  1  0.673272  0.971815  0.884731  1
  Y  Y6  1  0.884301  0.674734  0.972993  1
  Ir  Ir7  1  0.000000  0.000000  0.000000  1
  Cl  Cl8  1  0.210762  0.680670  0.071906  1
  Cl  Cl9  1  0.447547  0.363863  0.154512  1
  Cl  Cl10  1  0.679670  0.072109  0.210709  1
  Cl  Cl11  1  0.928976  0.790105  0.320125  1
  Cl  Cl12  1  0.153439  0.447270  0.362257  1
  Cl  Cl13  1  0.362164  0.152870  0.445908  1
  Cl  Cl14  1  0.637836  0.847130  0.554093  1
  Cl  Cl15  1  0.846562  0.552730  0.637743  1
  Cl  Cl16  1  0.071025  0.209895  0.679876  1
  Cl  Cl17  1  0.320331  0.927892  0.789291  1
  Cl  Cl18  1  0.552453  0.636137  0.845489  1
  Cl  Cl19  1  0.789238  0.319330  0.928094  1
