# generated using pymatgen
data_Fe5W7Cl24
_symmetry_space_group_name_H-M   'P 1'
_cell_length_a   9.61584346
_cell_length_b   9.61584278
_cell_length_c   11.37514047
_cell_angle_alpha   90.35886804
_cell_angle_beta   90.35886737
_cell_angle_gamma   107.39654692
_symmetry_Int_Tables_number   1
_chemical_formula_structural   Fe5W7Cl24
_chemical_formula_sum   'Fe5 W7 Cl24'
_cell_volume   1003.62892721
_cell_formula_units_Z   1
loop_
 _symmetry_equiv_pos_site_id
 _symmetry_equiv_pos_as_xyz
  1  'x, y, z'
loop_
 _atom_site_type_symbol
 _atom_site_label
 _atom_site_symmetry_multiplicity
 _atom_site_fract_x
 _atom_site_fract_y
 _atom_site_fract_z
 _atom_site_occupancy
  Fe  Fe0  1  0.067374  0.067374  0.858153  1
  Fe  Fe1  1  0.429176  0.429176  0.362808  1
  Fe  Fe2  1  0.572485  0.572485  0.640589  1
  Fe  Fe3  1  0.924688  0.924688  0.137070  1
  Fe  Fe4  1  0.853076  0.853076  0.923011  1
  W  W5  1  0.643902  0.643902  0.428704  1
  W  W6  1  0.357430  0.357430  0.573807  1
  W  W7  1  0.140169  0.140169  0.072194  1
  W  W8  1  0.381714  0.619589  0.501159  1
  W  W9  1  0.112998  0.878261  0.997730  1
  W  W10  1  0.619589  0.381714  0.501159  1
  W  W11  1  0.878261  0.112998  0.997730  1
  Cl  Cl12  1  0.663498  0.663498  0.831970  1
  Cl  Cl13  1  0.840825  0.840825  0.337560  1
  Cl  Cl14  1  0.159459  0.159459  0.662376  1
  Cl  Cl15  1  0.337949  0.337949  0.162965  1
  Cl  Cl16  1  0.228003  0.772021  0.499452  1
  Cl  Cl17  1  0.274375  0.736411  0.003632  1
  Cl  Cl18  1  0.772021  0.228003  0.499452  1
  Cl  Cl19  1  0.736411  0.274375  0.003632  1
  Cl  Cl20  1  0.319533  0.090952  0.935632  1
  Cl  Cl21  1  0.177496  0.406587  0.436257  1
  Cl  Cl22  1  0.593694  0.824959  0.564098  1
  Cl  Cl23  1  0.911240  0.678423  0.065407  1
  Cl  Cl24  1  0.956374  0.184791  0.205370  1
  Cl  Cl25  1  0.543432  0.311515  0.705978  1
  Cl  Cl26  1  0.686873  0.457209  0.295515  1
  Cl  Cl27  1  0.814651  0.048871  0.794167  1
  Cl  Cl28  1  0.048871  0.814651  0.794167  1
  Cl  Cl29  1  0.457209  0.686873  0.295515  1
  Cl  Cl30  1  0.311515  0.543432  0.705978  1
  Cl  Cl31  1  0.184791  0.956374  0.205370  1
  Cl  Cl32  1  0.090952  0.319533  0.935632  1
  Cl  Cl33  1  0.406587  0.177496  0.436257  1
  Cl  Cl34  1  0.824959  0.593694  0.564098  1
  Cl  Cl35  1  0.678423  0.911240  0.065407  1
