# generated using pymatgen
data_ErTmCo12AsP6
_symmetry_space_group_name_H-M   'P 1'
_cell_length_a   9.08220500
_cell_length_b   9.08220540
_cell_length_c   3.57491500
_cell_angle_alpha   90.00000000
_cell_angle_beta   90.00000000
_cell_angle_gamma   119.99999491
_symmetry_Int_Tables_number   1
_chemical_formula_structural   ErTmCo12AsP6
_chemical_formula_sum   'Er1 Tm1 Co12 As1 P6'
_cell_volume   255.37536121
_cell_formula_units_Z   1
loop_
 _symmetry_equiv_pos_site_id
 _symmetry_equiv_pos_as_xyz
  1  'x, y, z'
loop_
 _atom_site_type_symbol
 _atom_site_label
 _atom_site_symmetry_multiplicity
 _atom_site_fract_x
 _atom_site_fract_y
 _atom_site_fract_z
 _atom_site_occupancy
  Er  Er0  1  0.666667  0.333333  0.500000  1
  Tm  Tm1  1  0.333333  0.666667  0.000000  1
  Co  Co2  1  0.123982  0.840597  0.000000  1
  Co  Co3  1  0.384881  0.439107  0.500000  1
  Co  Co4  1  0.716615  0.876018  0.000000  1
  Co  Co5  1  0.560893  0.945774  0.500000  1
  Co  Co6  1  0.251027  0.110549  0.500000  1
  Co  Co7  1  0.859522  0.748973  0.500000  1
  Co  Co8  1  0.889451  0.140478  0.500000  1
  Co  Co9  1  0.938964  0.375742  0.000000  1
  Co  Co10  1  0.624258  0.563222  0.000000  1
  Co  Co11  1  0.436778  0.061036  0.000000  1
  Co  Co12  1  0.054226  0.615119  0.500000  1
  Co  Co13  1  0.159403  0.283385  0.000000  1
  As  As14  1  0.000000  0.000000  0.000000  1
  P  P15  1  0.594735  0.708080  0.500000  1
  P  P16  1  0.705893  0.113517  0.000000  1
  P  P17  1  0.886483  0.592375  0.000000  1
  P  P18  1  0.407625  0.294107  0.000000  1
  P  P19  1  0.291920  0.886656  0.500000  1
  P  P20  1  0.113344  0.405265  0.500000  1
