# generated using pymatgen
data_LiTiCo20B6Mo
_symmetry_space_group_name_H-M   'P 1'
_cell_length_a   7.39562327
_cell_length_b   7.39562381
_cell_length_c   7.39562400
_cell_angle_alpha   60.00000809
_cell_angle_beta   60.00000570
_cell_angle_gamma   60.00000361
_symmetry_Int_Tables_number   1
_chemical_formula_structural   LiTiCo20B6Mo
_chemical_formula_sum   'Li1 Ti1 Co20 B6 Mo1'
_cell_volume   286.02860945
_cell_formula_units_Z   1
loop_
 _symmetry_equiv_pos_site_id
 _symmetry_equiv_pos_as_xyz
  1  'x, y, z'
loop_
 _atom_site_type_symbol
 _atom_site_label
 _atom_site_symmetry_multiplicity
 _atom_site_fract_x
 _atom_site_fract_y
 _atom_site_fract_z
 _atom_site_occupancy
  Li  Li0  1  0.000000  0.000000  0.000000  1
  Ti  Ti1  1  0.750000  0.750000  0.750000  1
  Co  Co2  1  0.854401  0.381866  0.381866  1
  Co  Co3  1  0.381866  0.854401  0.381866  1
  Co  Co4  1  0.381866  0.381866  0.854401  1
  Co  Co5  1  0.381866  0.381866  0.381866  1
  Co  Co6  1  0.147877  0.617374  0.617374  1
  Co  Co7  1  0.617374  0.147877  0.617374  1
  Co  Co8  1  0.617374  0.617374  0.147877  1
  Co  Co9  1  0.617374  0.617374  0.617374  1
  Co  Co10  1  0.658712  0.000110  0.000110  1
  Co  Co11  1  0.658712  0.000110  0.341068  1
  Co  Co12  1  0.658712  0.341068  0.000110  1
  Co  Co13  1  0.000110  0.658712  0.341068  1
  Co  Co14  1  0.000110  0.658712  0.000110  1
  Co  Co15  1  0.341068  0.658712  0.000110  1
  Co  Co16  1  0.000110  0.341068  0.658712  1
  Co  Co17  1  0.341068  0.000110  0.658712  1
  Co  Co18  1  0.000110  0.000110  0.658712  1
  Co  Co19  1  0.341068  0.000110  0.000110  1
  Co  Co20  1  0.000110  0.341068  0.000110  1
  Co  Co21  1  0.000110  0.000110  0.341068  1
  B  B22  1  0.727653  0.272347  0.272347  1
  B  B23  1  0.727653  0.272347  0.727653  1
  B  B24  1  0.727653  0.727653  0.272347  1
  B  B25  1  0.272347  0.727653  0.727653  1
  B  B26  1  0.272347  0.727653  0.272347  1
  B  B27  1  0.272347  0.272347  0.727653  1
  Mo  Mo28  1  0.250000  0.250000  0.250000  1
