# generated using pymatgen
data_HoZr(TaSe2)8
_symmetry_space_group_name_H-M   'P 1'
_cell_length_a   7.00618900
_cell_length_b   7.00618781
_cell_length_c   14.04107700
_cell_angle_alpha   90.00000000
_cell_angle_beta   90.00000000
_cell_angle_gamma   120.00001032
_symmetry_Int_Tables_number   1
_chemical_formula_structural   HoZr(TaSe2)8
_chemical_formula_sum   'Ho1 Zr1 Ta8 Se16'
_cell_volume   596.89045148
_cell_formula_units_Z   1
loop_
 _symmetry_equiv_pos_site_id
 _symmetry_equiv_pos_as_xyz
  1  'x, y, z'
loop_
 _atom_site_type_symbol
 _atom_site_label
 _atom_site_symmetry_multiplicity
 _atom_site_fract_x
 _atom_site_fract_y
 _atom_site_fract_z
 _atom_site_occupancy
  Ho  Ho0  1  0.000000  0.000000  0.000000  1
  Zr  Zr1  1  0.000000  0.000000  0.500000  1
  Ta  Ta2  1  0.506717  0.493283  0.741904  1
  Ta  Ta3  1  0.013433  0.506717  0.258096  1
  Ta  Ta4  1  0.493283  0.986567  0.258096  1
  Ta  Ta5  1  0.506717  0.013433  0.741904  1
  Ta  Ta6  1  0.986567  0.493283  0.741904  1
  Ta  Ta7  1  0.493283  0.506717  0.258096  1
  Ta  Ta8  1  0.000000  0.000000  0.741723  1
  Ta  Ta9  1  0.000000  0.000000  0.258277  1
  Se  Se10  1  0.830136  0.169864  0.376631  1
  Se  Se11  1  0.830136  0.660272  0.376631  1
  Se  Se12  1  0.339728  0.169864  0.376631  1
  Se  Se13  1  0.661354  0.830676  0.860566  1
  Se  Se14  1  0.169864  0.339728  0.623369  1
  Se  Se15  1  0.169324  0.830676  0.860566  1
  Se  Se16  1  0.169324  0.338646  0.860566  1
  Se  Se17  1  0.830676  0.169324  0.139434  1
  Se  Se18  1  0.338646  0.169324  0.139434  1
  Se  Se19  1  0.660272  0.830136  0.623369  1
  Se  Se20  1  0.333333  0.666667  0.135432  1
  Se  Se21  1  0.666667  0.333333  0.619619  1
  Se  Se22  1  0.666667  0.333333  0.864568  1
  Se  Se23  1  0.333333  0.666667  0.380381  1
  Se  Se24  1  0.830676  0.661354  0.139434  1
  Se  Se25  1  0.169864  0.830136  0.623369  1
