# generated using pymatgen
data_Ce2Ta3Co9As7
_symmetry_space_group_name_H-M   'P 1'
_cell_length_a   3.85242000
_cell_length_b   9.56703310
_cell_length_c   9.56703200
_cell_angle_alpha   119.99999646
_cell_angle_beta   90.00000000
_cell_angle_gamma   90.00000000
_symmetry_Int_Tables_number   1
_chemical_formula_structural   Ce2Ta3Co9As7
_chemical_formula_sum   'Ce2 Ta3 Co9 As7'
_cell_volume   305.36466333
_cell_formula_units_Z   1
loop_
 _symmetry_equiv_pos_site_id
 _symmetry_equiv_pos_as_xyz
  1  'x, y, z'
loop_
 _atom_site_type_symbol
 _atom_site_label
 _atom_site_symmetry_multiplicity
 _atom_site_fract_x
 _atom_site_fract_y
 _atom_site_fract_z
 _atom_site_occupancy
  Ce  Ce0  1  0.000000  0.666667  0.333333  1
  Ce  Ce1  1  0.500000  0.333333  0.666667  1
  Ta  Ta2  1  0.500000  0.777685  0.895594  1
  Ta  Ta3  1  0.500000  0.117909  0.222315  1
  Ta  Ta4  1  0.500000  0.104406  0.882091  1
  Co  Co5  1  0.000000  0.571378  0.933575  1
  Co  Co6  1  0.000000  0.362197  0.428622  1
  Co  Co7  1  0.000000  0.066425  0.637803  1
  Co  Co8  1  0.000000  0.874363  0.155251  1
  Co  Co9  1  0.000000  0.280889  0.125637  1
  Co  Co10  1  0.000000  0.844749  0.719111  1
  Co  Co11  1  0.500000  0.947220  0.380799  1
  Co  Co12  1  0.500000  0.433577  0.052780  1
  Co  Co13  1  0.500000  0.619201  0.566423  1
  As  As14  1  0.000000  0.000000  0.000000  1
  As  As15  1  0.500000  0.705425  0.117824  1
  As  As16  1  0.500000  0.412399  0.294575  1
  As  As17  1  0.500000  0.882176  0.587601  1
  As  As18  1  0.000000  0.584424  0.689978  1
  As  As19  1  0.000000  0.105554  0.415576  1
  As  As20  1  0.000000  0.310022  0.894446  1
