# generated using pymatgen
data_Sc8In3Ru
_symmetry_space_group_name_H-M   'P 1'
_cell_length_a   9.82351500
_cell_length_b   9.82590794
_cell_length_c   6.47275200
_cell_angle_alpha   90.00000000
_cell_angle_beta   90.00000000
_cell_angle_gamma   119.99315223
_symmetry_Int_Tables_number   1
_chemical_formula_structural   Sc8In3Ru
_chemical_formula_sum   'Sc16 In6 Ru2'
_cell_volume   541.11449345
_cell_formula_units_Z   2
loop_
 _symmetry_equiv_pos_site_id
 _symmetry_equiv_pos_as_xyz
  1  'x, y, z'
loop_
 _atom_site_type_symbol
 _atom_site_label
 _atom_site_symmetry_multiplicity
 _atom_site_fract_x
 _atom_site_fract_y
 _atom_site_fract_z
 _atom_site_occupancy
  Sc  Sc0  1  0.526124  0.052247  0.520981  1
  Sc  Sc1  1  0.947787  0.473900  0.521022  1
  Sc  Sc2  1  0.526103  0.473901  0.521016  1
  Sc  Sc3  1  0.473876  0.947753  0.020981  1
  Sc  Sc4  1  0.052213  0.526100  0.021022  1
  Sc  Sc5  1  0.473897  0.526099  0.021016  1
  Sc  Sc6  1  0.178987  0.357994  0.737340  1
  Sc  Sc7  1  0.642006  0.820974  0.737246  1
  Sc  Sc8  1  0.178960  0.820947  0.737267  1
  Sc  Sc9  1  0.821013  0.642006  0.237340  1
  Sc  Sc10  1  0.357994  0.179026  0.237246  1
  Sc  Sc11  1  0.821040  0.179053  0.237267  1
  Sc  Sc12  1  0.666638  0.333277  0.894489  1
  Sc  Sc13  1  0.333362  0.666723  0.394489  1
  Sc  Sc14  1  0.999991  0.999985  0.509056  1
  Sc  Sc15  1  0.000009  0.000015  0.009056  1
  In  In16  1  0.837236  0.674471  0.763431  1
  In  In17  1  0.325537  0.162784  0.763423  1
  In  In18  1  0.837244  0.162790  0.763437  1
  In  In19  1  0.162764  0.325529  0.263431  1
  In  In20  1  0.674463  0.837216  0.263423  1
  In  In21  1  0.162756  0.837210  0.263437  1
  Ru  Ru22  1  0.666652  0.333308  0.309131  1
  Ru  Ru23  1  0.333348  0.666692  0.809131  1
