# generated using pymatgen
data_TbDy5Al24(Ru3Pt)2
_symmetry_space_group_name_H-M   'P 1'
_cell_length_a   8.81950790
_cell_length_b   8.79682290
_cell_length_c   9.55724565
_cell_angle_alpha   90.04221587
_cell_angle_beta   90.06005135
_cell_angle_gamma   119.61902127
_symmetry_Int_Tables_number   1
_chemical_formula_structural   TbDy5Al24(Ru3Pt)2
_chemical_formula_sum   'Tb1 Dy5 Al24 Ru6 Pt2'
_cell_volume   644.59565965
_cell_formula_units_Z   1
loop_
 _symmetry_equiv_pos_site_id
 _symmetry_equiv_pos_as_xyz
  1  'x, y, z'
loop_
 _atom_site_type_symbol
 _atom_site_label
 _atom_site_symmetry_multiplicity
 _atom_site_fract_x
 _atom_site_fract_y
 _atom_site_fract_z
 _atom_site_occupancy
  Tb  Tb0  1  0.190833  0.385355  0.751766  1
  Dy  Dy1  1  0.384503  0.191870  0.248927  1
  Dy  Dy2  1  0.808534  0.194488  0.248414  1
  Dy  Dy3  1  0.808971  0.614181  0.248146  1
  Dy  Dy4  1  0.615549  0.808180  0.751078  1
  Dy  Dy5  1  0.191490  0.805627  0.751593  1
  Al  Al6  1  0.438022  0.875225  0.247408  1
  Al  Al7  1  0.122156  0.560817  0.250891  1
  Al  Al8  1  0.437687  0.562783  0.247177  1
  Al  Al9  1  0.561973  0.124746  0.752619  1
  Al  Al10  1  0.877644  0.439252  0.749100  1
  Al  Al11  1  0.562560  0.437277  0.752847  1
  Al  Al12  1  0.157947  0.833038  0.421172  1
  Al  Al13  1  0.157696  0.324432  0.420999  1
  Al  Al14  1  0.677406  0.838588  0.420884  1
  Al  Al15  1  0.841886  0.166883  0.578701  1
  Al  Al16  1  0.842289  0.675565  0.578801  1
  Al  Al17  1  0.322656  0.161330  0.578990  1
  Al  Al18  1  0.836313  0.162914  0.923229  1
  Al  Al19  1  0.836417  0.673075  0.923323  1
  Al  Al20  1  0.326305  0.162910  0.924433  1
  Al  Al21  1  0.163524  0.837001  0.076896  1
  Al  Al22  1  0.163596  0.326935  0.076890  1
  Al  Al23  1  0.673786  0.837009  0.075699  1
  Al  Al24  1  0.327243  0.664150  0.523364  1
  Al  Al25  1  0.672830  0.336037  0.476456  1
  Al  Al26  1  0.666950  0.333307  0.022498  1
  Al  Al27  1  0.333156  0.666866  0.977674  1
  Al  Al28  1  0.002168  0.000919  0.249612  1
  Al  Al29  1  0.997681  0.998780  0.750387  1
  Ru  Ru30  1  0.999986  0.999985  0.499989  1
  Ru  Ru31  1  0.999994  0.999983  0.000009  1
  Ru  Ru32  1  0.999934  0.500103  0.499877  1
  Ru  Ru33  1  0.500024  0.000077  0.000040  1
  Ru  Ru34  1  0.999935  0.500090  0.000117  1
  Ru  Ru35  1  0.500148  0.500052  0.000114  1
  Pt  Pt36  1  0.500053  0.000087  0.499984  1
  Pt  Pt37  1  0.500153  0.500081  0.499895  1
