# generated using pymatgen
data_DyY11Co5Hg
_symmetry_space_group_name_H-M   'P 1'
_cell_length_a   8.31603711
_cell_length_b   8.31759964
_cell_length_c   8.31759987
_cell_angle_alpha   110.52824044
_cell_angle_beta   110.12867321
_cell_angle_gamma   107.77763704
_symmetry_Int_Tables_number   1
_chemical_formula_structural   DyY11Co5Hg
_chemical_formula_sum   'Dy1 Y11 Co5 Hg1'
_cell_volume   442.54840165
_cell_formula_units_Z   1
loop_
 _symmetry_equiv_pos_site_id
 _symmetry_equiv_pos_as_xyz
  1  'x, y, z'
loop_
 _atom_site_type_symbol
 _atom_site_label
 _atom_site_symmetry_multiplicity
 _atom_site_fract_x
 _atom_site_fract_y
 _atom_site_fract_z
 _atom_site_occupancy
  Dy  Dy0  1  0.016499  0.209603  0.806896  1
  Y  Y1  1  0.816401  0.709869  0.525946  1
  Y  Y2  1  0.183637  0.290512  0.474742  1
  Y  Y3  1  0.183637  0.708895  0.893123  1
  Y  Y4  1  0.816401  0.290455  0.106534  1
  Y  Y5  1  0.683534  0.380129  0.696611  1
  Y  Y6  1  0.316193  0.619513  0.302875  1
  Y  Y7  1  0.683534  0.986922  0.303405  1
  Y  Y8  1  0.316193  0.013320  0.696680  1
  Y  Y9  1  0.595811  0.788834  0.806977  1
  Y  Y10  1  0.403589  0.210955  0.192634  1
  Y  Y11  1  0.981980  0.789300  0.192680  1
  Co  Co12  1  0.622150  0.000644  0.621506  1
  Co  Co13  1  0.380485  0.000004  0.380481  1
  Co  Co14  1  0.112509  0.612509  0.499999  1
  Co  Co15  1  0.887622  0.387784  0.499839  1
  Co  Co16  1  0.999736  0.000681  0.999055  1
  Hg  Hg17  1  0.500087  0.500071  0.000016  1
