# generated using pymatgen
data_Nd8SiPBr12
_symmetry_space_group_name_H-M   'P 1'
_cell_length_a   4.20258000
_cell_length_b   13.62436998
_cell_length_c   14.45307620
_cell_angle_alpha   90.00583249
_cell_angle_beta   90.00000000
_cell_angle_gamma   90.00000000
_symmetry_Int_Tables_number   1
_chemical_formula_structural   Nd8SiPBr12
_chemical_formula_sum   'Nd8 Si1 P1 Br12'
_cell_volume   827.54707547
_cell_formula_units_Z   1
loop_
 _symmetry_equiv_pos_site_id
 _symmetry_equiv_pos_as_xyz
  1  'x, y, z'
loop_
 _atom_site_type_symbol
 _atom_site_label
 _atom_site_symmetry_multiplicity
 _atom_site_fract_x
 _atom_site_fract_y
 _atom_site_fract_z
 _atom_site_occupancy
  Nd  Nd0  1  0.500000  0.116913  0.343098  1
  Nd  Nd1  1  0.500000  0.883087  0.656902  1
  Nd  Nd2  1  0.500000  0.619597  0.160357  1
  Nd  Nd3  1  0.500000  0.380403  0.839643  1
  Nd  Nd4  1  0.000000  0.114383  0.575913  1
  Nd  Nd5  1  0.000000  0.885617  0.424087  1
  Nd  Nd6  1  0.000000  0.620476  0.920061  1
  Nd  Nd7  1  0.000000  0.379524  0.079939  1
  Si  Si8  1  0.500000  0.500000  0.000000  1
  P  P9  1  0.500000  0.000000  0.500000  1
  Br  Br10  1  0.500000  0.242233  0.163710  1
  Br  Br11  1  0.500000  0.757767  0.836290  1
  Br  Br12  1  0.500000  0.746091  0.339319  1
  Br  Br13  1  0.500000  0.253909  0.660681  1
  Br  Br14  1  0.000000  0.254524  0.411899  1
  Br  Br15  1  0.000000  0.745476  0.588101  1
  Br  Br16  1  0.000000  0.755714  0.088498  1
  Br  Br17  1  0.000000  0.244286  0.911502  1
  Br  Br18  1  0.000000  0.001297  0.244295  1
  Br  Br19  1  0.000000  0.998703  0.755705  1
  Br  Br20  1  0.000000  0.501497  0.256921  1
  Br  Br21  1  0.000000  0.498503  0.743079  1
