# generated using pymatgen
data_Na8MgNi3P4(O4F)4
_symmetry_space_group_name_H-M   'P 1'
_cell_length_a   5.26264800
_cell_length_b   13.60447666
_cell_length_c   13.86526000
_cell_angle_alpha   59.46988510
_cell_angle_beta   90.00000000
_cell_angle_gamma   90.00000000
_symmetry_Int_Tables_number   1
_chemical_formula_structural   Na8MgNi3P4(O4F)4
_chemical_formula_sum   'Na16 Mg2 Ni6 P8 O32 F8'
_cell_volume   855.06676929
_cell_formula_units_Z   2
loop_
 _symmetry_equiv_pos_site_id
 _symmetry_equiv_pos_as_xyz
  1  'x, y, z'
loop_
 _atom_site_type_symbol
 _atom_site_label
 _atom_site_symmetry_multiplicity
 _atom_site_fract_x
 _atom_site_fract_y
 _atom_site_fract_z
 _atom_site_occupancy
  Na  Na0  1  0.271010  0.919071  0.912936  1
  Na  Na1  1  0.771010  0.080929  0.587064  1
  Na  Na2  1  0.728329  0.081051  0.087981  1
  Na  Na3  1  0.228329  0.918949  0.412019  1
  Na  Na4  1  0.237848  0.170314  0.418476  1
  Na  Na5  1  0.737848  0.829686  0.081524  1
  Na  Na6  1  0.762384  0.829517  0.580766  1
  Na  Na7  1  0.262384  0.170483  0.919234  1
  Na  Na8  1  0.760641  0.580897  0.082105  1
  Na  Na9  1  0.260641  0.419103  0.417895  1
  Na  Na10  1  0.239931  0.418602  0.918140  1
  Na  Na11  1  0.739931  0.581398  0.581860  1
  Na  Na12  1  0.761058  0.329051  0.338875  1
  Na  Na13  1  0.261058  0.670949  0.161125  1
  Na  Na14  1  0.238351  0.670586  0.661761  1
  Na  Na15  1  0.738351  0.329414  0.838239  1
  Mg  Mg16  1  0.783042  0.823201  0.851398  1
  Mg  Mg17  1  0.283042  0.176799  0.648602  1
  Ni  Ni18  1  0.214415  0.176770  0.149019  1
  Ni  Ni19  1  0.714415  0.823230  0.350981  1
  Ni  Ni20  1  0.221473  0.676518  0.924887  1
  Ni  Ni21  1  0.721473  0.323482  0.575113  1
  Ni  Ni22  1  0.778390  0.323346  0.075073  1
  Ni  Ni23  1  0.278390  0.676654  0.424927  1
  P  P24  1  0.700918  0.087913  0.323187  1
  P  P25  1  0.200918  0.912087  0.176813  1
  P  P26  1  0.298969  0.911731  0.676703  1
  P  P27  1  0.798969  0.088269  0.823297  1
  P  P28  1  0.792713  0.588023  0.338608  1
  P  P29  1  0.292713  0.411977  0.161392  1
  P  P30  1  0.208019  0.412570  0.660872  1
  P  P31  1  0.708019  0.587430  0.839128  1
  O  O32  1  0.085424  0.606179  0.345219  1
  O  O33  1  0.585424  0.393821  0.154781  1
  O  O34  1  0.914900  0.394098  0.654330  1
  O  O35  1  0.414900  0.605902  0.845670  1
  O  O36  1  0.091059  0.107750  0.798520  1
  O  O37  1  0.591059  0.892250  0.701480  1
  O  O38  1  0.908154  0.892838  0.200633  1
  O  O39  1  0.408154  0.107162  0.299367  1
  O  O40  1  0.851735  0.653284  0.887813  1
  O  O41  1  0.351735  0.346716  0.612187  1
  O  O42  1  0.148270  0.345899  0.112671  1
  O  O43  1  0.648270  0.654101  0.387329  1
  O  O44  1  0.270528  0.542105  0.588463  1
  O  O45  1  0.770529  0.457895  0.911537  1
  O  O46  1  0.728717  0.458706  0.411343  1
  O  O47  1  0.228717  0.541294  0.088657  1
  O  O48  1  0.214550  0.868871  0.598409  1
  O  O49  1  0.714550  0.131129  0.901591  1
  O  O50  1  0.785662  0.130657  0.401557  1
  O  O51  1  0.285662  0.869343  0.098443  1
  O  O52  1  0.712665  0.631905  0.216785  1
  O  O53  1  0.212665  0.368095  0.283215  1
  O  O54  1  0.287485  0.368554  0.782764  1
  O  O55  1  0.787485  0.631446  0.717236  1
  O  O56  1  0.263464  0.041469  0.122066  1
  O  O57  1  0.763464  0.958531  0.377934  1
  O  O58  1  0.739069  0.958851  0.877262  1
  O  O59  1  0.239069  0.041149  0.622738  1
  O  O60  1  0.843430  0.153995  0.208116  1
  O  O61  1  0.343430  0.846005  0.291884  1
  O  O62  1  0.153688  0.846206  0.791193  1
  O  O63  1  0.653688  0.153794  0.708807  1
  F  F64  1  0.504605  0.246978  0.502063  1
  F  F65  1  0.004605  0.753022  0.997937  1
  F  F66  1  0.495988  0.752569  0.498993  1
  F  F67  1  0.995988  0.247431  0.001007  1
  F  F68  1  0.508332  0.747971  0.967948  1
  F  F69  1  0.008332  0.252029  0.532052  1
  F  F70  1  0.494786  0.252181  0.030633  1
  F  F71  1  0.994786  0.747819  0.469367  1
