# generated using pymatgen
data_Ho3Er5Re2(B12Rh)2
_symmetry_space_group_name_H-M   'P 1'
_cell_length_a   3.66017300
_cell_length_b   9.11207172
_cell_length_c   11.50140300
_cell_angle_alpha   90.42709094
_cell_angle_beta   90.00000000
_cell_angle_gamma   90.00000000
_symmetry_Int_Tables_number   1
_chemical_formula_structural   Ho3Er5Re2(B12Rh)2
_chemical_formula_sum   'Ho3 Er5 Re2 B24 Rh2'
_cell_volume   383.58136278
_cell_formula_units_Z   1
loop_
 _symmetry_equiv_pos_site_id
 _symmetry_equiv_pos_as_xyz
  1  'x, y, z'
loop_
 _atom_site_type_symbol
 _atom_site_label
 _atom_site_symmetry_multiplicity
 _atom_site_fract_x
 _atom_site_fract_y
 _atom_site_fract_z
 _atom_site_occupancy
  Ho  Ho0  1  0.000000  0.318043  0.410831  1
  Ho  Ho1  1  0.000000  0.681955  0.589171  1
  Ho  Ho2  1  0.000000  0.825919  0.082665  1
  Er  Er3  1  0.000000  0.174019  0.917441  1
  Er  Er4  1  0.000000  0.945266  0.371824  1
  Er  Er5  1  0.000000  0.054768  0.628192  1
  Er  Er6  1  0.000000  0.442438  0.126703  1
  Er  Er7  1  0.000000  0.557485  0.873257  1
  Re  Re8  1  0.000000  0.138940  0.179780  1
  Re  Re9  1  0.000000  0.861234  0.820146  1
  B  B10  1  0.500000  0.554375  0.434225  1
  B  B11  1  0.500000  0.445621  0.565779  1
  B  B12  1  0.500000  0.053121  0.067172  1
  B  B13  1  0.500000  0.947077  0.932730  1
  B  B14  1  0.500000  0.749291  0.421299  1
  B  B15  1  0.500000  0.250719  0.578708  1
  B  B16  1  0.500000  0.248629  0.080938  1
  B  B17  1  0.500000  0.751356  0.918891  1
  B  B18  1  0.500000  0.791229  0.265183  1
  B  B19  1  0.500000  0.208720  0.734942  1
  B  B20  1  0.500000  0.292938  0.234806  1
  B  B21  1  0.500000  0.707063  0.765173  1
  B  B22  1  0.500000  0.632190  0.183367  1
  B  B23  1  0.500000  0.367653  0.816719  1
  B  B24  1  0.500000  0.131649  0.315000  1
  B  B25  1  0.500000  0.868372  0.685014  1
  B  B26  1  0.500000  0.982735  0.212976  1
  B  B27  1  0.500000  0.017452  0.787080  1
  B  B28  1  0.500000  0.483246  0.287737  1
  B  B29  1  0.500000  0.516732  0.712254  1
  B  B30  1  0.500000  0.605652  0.029357  1
  B  B31  1  0.500000  0.394142  0.970581  1
  B  B32  1  0.500000  0.106899  0.471139  1
  B  B33  1  0.500000  0.893108  0.528870  1
  Rh  Rh34  1  0.000000  0.637890  0.321408  1
  Rh  Rh35  1  0.000000  0.362075  0.678639  1
