# generated using pymatgen
data_MnCu(PtO3)2
_symmetry_space_group_name_H-M   'P 1'
_cell_length_a   3.20916700
_cell_length_b   6.16851811
_cell_length_c   6.16851819
_cell_angle_alpha   109.30703445
_cell_angle_beta   90.00000000
_cell_angle_gamma   90.00000000
_symmetry_Int_Tables_number   1
_chemical_formula_structural   MnCu(PtO3)2
_chemical_formula_sum   'Mn1 Cu1 Pt2 O6'
_cell_volume   115.24331604
_cell_formula_units_Z   1
loop_
 _symmetry_equiv_pos_site_id
 _symmetry_equiv_pos_as_xyz
  1  'x, y, z'
loop_
 _atom_site_type_symbol
 _atom_site_label
 _atom_site_symmetry_multiplicity
 _atom_site_fract_x
 _atom_site_fract_y
 _atom_site_fract_z
 _atom_site_occupancy
  Mn  Mn0  1  0.000000  0.500000  0.500000  1
  Cu  Cu1  1  0.000000  0.000000  0.000000  1
  Pt  Pt2  1  0.499999  0.500000  0.000000  1
  Pt  Pt3  1  0.499999  0.000001  0.500000  1
  O  O4  1  0.000000  0.923643  0.669369  1
  O  O5  1  0.000000  0.076358  0.330631  1
  O  O6  1  0.000000  0.669369  0.923643  1
  O  O7  1  0.000000  0.330632  0.076358  1
  O  O8  1  0.499999  0.349987  0.650015  1
  O  O9  1  0.499999  0.650014  0.349986  1
