# generated using pymatgen
data_Pr3Y(SnRh2)8
_symmetry_space_group_name_H-M   'P 1'
_cell_length_a   4.43798100
_cell_length_b   9.80499380
_cell_length_c   11.94508723
_cell_angle_alpha   90.53165681
_cell_angle_beta   90.00000000
_cell_angle_gamma   90.00000000
_symmetry_Int_Tables_number   1
_chemical_formula_structural   Pr3Y(SnRh2)8
_chemical_formula_sum   'Pr3 Y1 Sn8 Rh16'
_cell_volume   519.76064228
_cell_formula_units_Z   1
loop_
 _symmetry_equiv_pos_site_id
 _symmetry_equiv_pos_as_xyz
  1  'x, y, z'
loop_
 _atom_site_type_symbol
 _atom_site_label
 _atom_site_symmetry_multiplicity
 _atom_site_fract_x
 _atom_site_fract_y
 _atom_site_fract_z
 _atom_site_occupancy
  Pr  Pr0  1  0.250000  0.151242  0.825506  1
  Pr  Pr1  1  0.250000  0.348801  0.327386  1
  Pr  Pr2  1  0.750000  0.847119  0.173584  1
  Y  Y3  1  0.750000  0.651233  0.672482  1
  Sn  Sn4  1  0.250000  0.417152  0.637661  1
  Sn  Sn5  1  0.250000  0.085708  0.135418  1
  Sn  Sn6  1  0.750000  0.587565  0.365733  1
  Sn  Sn7  1  0.750000  0.909579  0.860045  1
  Sn  Sn8  1  0.250000  0.615851  0.063400  1
  Sn  Sn9  1  0.250000  0.887677  0.564432  1
  Sn  Sn10  1  0.750000  0.383718  0.938018  1
  Sn  Sn11  1  0.750000  0.116316  0.436465  1
  Rh  Rh12  1  0.250000  0.624188  0.501999  1
  Rh  Rh13  1  0.250000  0.880415  0.991247  1
  Rh  Rh14  1  0.750000  0.384108  0.505939  1
  Rh  Rh15  1  0.750000  0.116493  0.002946  1
  Rh  Rh16  1  0.250000  0.702447  0.278899  1
  Rh  Rh17  1  0.250000  0.784606  0.771557  1
  Rh  Rh18  1  0.750000  0.297242  0.723626  1
  Rh  Rh19  1  0.750000  0.205173  0.223133  1
  Rh  Rh20  1  0.250000  0.169758  0.562473  1
  Rh  Rh21  1  0.250000  0.332178  0.062503  1
  Rh  Rh22  1  0.750000  0.834132  0.439574  1
  Rh  Rh23  1  0.750000  0.665337  0.935480  1
  Rh  Rh24  1  0.250000  0.994231  0.344598  1
  Rh  Rh25  1  0.250000  0.504559  0.845753  1
  Rh  Rh26  1  0.750000  0.007725  0.654727  1
  Rh  Rh27  1  0.750000  0.495446  0.155414  1
