# generated using pymatgen
data_Ce4SiB4Rh9
_symmetry_space_group_name_H-M   'P 1'
_cell_length_a   10.66785170
_cell_length_b   10.66785137
_cell_length_c   10.66785201
_cell_angle_alpha   30.01552130
_cell_angle_beta   30.01552723
_cell_angle_gamma   30.01553039
_symmetry_Int_Tables_number   1
_chemical_formula_structural   Ce4SiB4Rh9
_chemical_formula_sum   'Ce4 Si1 B4 Rh9'
_cell_volume   269.10099450
_cell_formula_units_Z   1
loop_
 _symmetry_equiv_pos_site_id
 _symmetry_equiv_pos_as_xyz
  1  'x, y, z'
loop_
 _atom_site_type_symbol
 _atom_site_label
 _atom_site_symmetry_multiplicity
 _atom_site_fract_x
 _atom_site_fract_y
 _atom_site_fract_z
 _atom_site_occupancy
  Ce  Ce0  1  0.149108  0.149108  0.149108  1
  Ce  Ce1  1  0.947301  0.947301  0.947301  1
  Ce  Ce2  1  0.850892  0.850892  0.850892  1
  Ce  Ce3  1  0.052699  0.052699  0.052699  1
  Si  Si4  1  0.500000  0.500000  0.500000  1
  B  B5  1  0.616165  0.616165  0.616165  1
  B  B6  1  0.718183  0.718183  0.718183  1
  B  B7  1  0.383835  0.383835  0.383835  1
  B  B8  1  0.281817  0.281817  0.281817  1
  Rh  Rh9  1  0.401960  0.899007  0.401960  1
  Rh  Rh10  1  0.899007  0.401960  0.401960  1
  Rh  Rh11  1  0.500000  0.500000  0.000000  1
  Rh  Rh12  1  0.500000  0.000000  0.500000  1
  Rh  Rh13  1  0.000000  0.500000  0.500000  1
  Rh  Rh14  1  0.598040  0.100993  0.598040  1
  Rh  Rh15  1  0.598040  0.598040  0.100993  1
  Rh  Rh16  1  0.100993  0.598040  0.598040  1
  Rh  Rh17  1  0.401960  0.401960  0.899007  1
