# generated using pymatgen
data_La11NdTc2(NiBr6)2
_symmetry_space_group_name_H-M   'P 1'
_cell_length_a   10.57099716
_cell_length_b   10.57099723
_cell_length_c   10.60392879
_cell_angle_alpha   110.42771937
_cell_angle_beta   110.42772566
_cell_angle_gamma   107.60415774
_symmetry_Int_Tables_number   1
_chemical_formula_structural   La11NdTc2(NiBr6)2
_chemical_formula_sum   'La11 Nd1 Tc2 Ni2 Br12'
_cell_volume   911.10551348
_cell_formula_units_Z   1
loop_
 _symmetry_equiv_pos_site_id
 _symmetry_equiv_pos_as_xyz
  1  'x, y, z'
loop_
 _atom_site_type_symbol
 _atom_site_label
 _atom_site_symmetry_multiplicity
 _atom_site_fract_x
 _atom_site_fract_y
 _atom_site_fract_z
 _atom_site_occupancy
  La  La0  1  0.609052  0.390948  0.000000  1
  La  La1  1  0.642031  0.144833  0.289836  1
  La  La2  1  0.855167  0.357969  0.710164  1
  La  La3  1  0.409466  0.391213  0.267788  1
  La  La4  1  0.124894  0.142509  0.734371  1
  La  La5  1  0.131542  0.362235  0.515866  1
  La  La6  1  0.841440  0.618225  0.476085  1
  La  La7  1  0.608787  0.590534  0.732212  1
  La  La8  1  0.857491  0.875106  0.265629  1
  La  La9  1  0.637765  0.868458  0.484134  1
  La  La10  1  0.381775  0.158560  0.523915  1
  Nd  Nd11  1  0.391736  0.608264  0.000000  1
  Tc  Tc12  1  0.644415  0.634344  0.274562  1
  Tc  Tc13  1  0.365656  0.355585  0.725438  1
  Ni  Ni14  1  0.872373  0.127627  0.500000  1
  Ni  Ni15  1  0.626589  0.373411  0.500000  1
  Br  Br16  1  0.367410  0.632590  0.500000  1
  Br  Br17  1  0.132003  0.867997  0.500000  1
  Br  Br18  1  0.116473  0.118544  0.235354  1
  Br  Br19  1  0.881456  0.883527  0.764646  1
  Br  Br20  1  0.885201  0.625809  0.005208  1
  Br  Br21  1  0.612214  0.873731  0.993976  1
  Br  Br22  1  0.632646  0.126382  0.759265  1
  Br  Br23  1  0.367717  0.869378  0.241816  1
  Br  Br24  1  0.374191  0.114799  0.994792  1
  Br  Br25  1  0.126269  0.387786  0.006024  1
  Br  Br26  1  0.873618  0.367354  0.240735  1
  Br  Br27  1  0.130622  0.632283  0.758184  1
