# generated using pymatgen
data_Np3Sc5(MnB6)4
_symmetry_space_group_name_H-M   'P 1'
_cell_length_a   3.43029300
_cell_length_b   8.88925628
_cell_length_c   11.23604332
_cell_angle_alpha   90.12687118
_cell_angle_beta   90.00000000
_cell_angle_gamma   90.00000000
_symmetry_Int_Tables_number   1
_chemical_formula_structural   Np3Sc5(MnB6)4
_chemical_formula_sum   'Np3 Sc5 Mn4 B24'
_cell_volume   342.61706030
_cell_formula_units_Z   1
loop_
 _symmetry_equiv_pos_site_id
 _symmetry_equiv_pos_as_xyz
  1  'x, y, z'
loop_
 _atom_site_type_symbol
 _atom_site_label
 _atom_site_symmetry_multiplicity
 _atom_site_fract_x
 _atom_site_fract_y
 _atom_site_fract_z
 _atom_site_occupancy
  Np  Np0  1  0.500000  0.323903  0.414184  1
  Np  Np1  1  0.500000  0.676624  0.584805  1
  Np  Np2  1  0.500000  0.174689  0.916704  1
  Sc  Sc3  1  0.500000  0.820716  0.085225  1
  Sc  Sc4  1  0.500000  0.445577  0.128979  1
  Sc  Sc5  1  0.500000  0.557585  0.872449  1
  Sc  Sc6  1  0.500000  0.055386  0.629252  1
  Sc  Sc7  1  0.500000  0.943833  0.369112  1
  Mn  Mn8  1  0.500000  0.140499  0.179714  1
  Mn  Mn9  1  0.500000  0.860290  0.819554  1
  Mn  Mn10  1  0.500000  0.360398  0.680104  1
  Mn  Mn11  1  0.500000  0.640014  0.319748  1
  B  B12  1  0.000000  0.100431  0.471732  1
  B  B13  1  0.000000  0.899514  0.526519  1
  B  B14  1  0.000000  0.401121  0.973188  1
  B  B15  1  0.000000  0.602651  0.028137  1
  B  B16  1  0.000000  0.130598  0.314706  1
  B  B17  1  0.000000  0.868330  0.684325  1
  B  B18  1  0.000000  0.369033  0.816906  1
  B  B19  1  0.000000  0.632512  0.182584  1
  B  B20  1  0.000000  0.051949  0.068386  1
  B  B21  1  0.000000  0.943781  0.934003  1
  B  B22  1  0.000000  0.445547  0.568781  1
  B  B23  1  0.000000  0.555005  0.430818  1
  B  B24  1  0.000000  0.484645  0.285375  1
  B  B25  1  0.000000  0.516984  0.714445  1
  B  B26  1  0.000000  0.015949  0.787672  1
  B  B27  1  0.000000  0.981404  0.211836  1
  B  B28  1  0.000000  0.250665  0.082011  1
  B  B29  1  0.000000  0.749061  0.920545  1
  B  B30  1  0.000000  0.248773  0.582247  1
  B  B31  1  0.000000  0.751634  0.416486  1
  B  B32  1  0.000000  0.293704  0.234145  1
  B  B33  1  0.000000  0.706762  0.767249  1
  B  B34  1  0.000000  0.206272  0.735140  1
  B  B35  1  0.000000  0.794160  0.262934  1
