# generated using pymatgen
data_TbEr9(SiHg)4
_symmetry_space_group_name_H-M   'P 1'
_cell_length_a   8.71477119
_cell_length_b   8.70184926
_cell_length_c   7.50647065
_cell_angle_alpha   89.93806329
_cell_angle_beta   90.00498464
_cell_angle_gamma   129.08344295
_symmetry_Int_Tables_number   1
_chemical_formula_structural   TbEr9(SiHg)4
_chemical_formula_sum   'Tb1 Er9 Si4 Hg4'
_cell_volume   441.86805800
_cell_formula_units_Z   1
loop_
 _symmetry_equiv_pos_site_id
 _symmetry_equiv_pos_as_xyz
  1  'x, y, z'
loop_
 _atom_site_type_symbol
 _atom_site_label
 _atom_site_symmetry_multiplicity
 _atom_site_fract_x
 _atom_site_fract_y
 _atom_site_fract_z
 _atom_site_occupancy
  Tb  Tb0  1  0.053301  0.309610  0.324139  1
  Er  Er1  1  0.947175  0.691979  0.675071  1
  Er  Er2  1  0.446856  0.192096  0.825184  1
  Er  Er3  1  0.807632  0.552690  0.174751  1
  Er  Er4  1  0.552722  0.807340  0.174546  1
  Er  Er5  1  0.193030  0.447594  0.825307  1
  Er  Er6  1  0.692398  0.946775  0.675283  1
  Er  Er7  1  0.307164  0.052576  0.324896  1
  Er  Er8  1  0.000201  0.999612  0.999775  1
  Er  Er9  1  0.500086  0.499882  0.500050  1
  Si  Si10  1  0.380384  0.379259  0.122892  1
  Si  Si11  1  0.621160  0.620744  0.876233  1
  Si  Si12  1  0.120997  0.120558  0.624432  1
  Si  Si13  1  0.878607  0.878076  0.376347  1
  Hg  Hg14  1  0.782025  0.216456  0.998260  1
  Hg  Hg15  1  0.216678  0.782672  0.000221  1
  Hg  Hg16  1  0.714692  0.282598  0.501212  1
  Hg  Hg17  1  0.284893  0.719483  0.501400  1
