# generated using pymatgen
data_Na2MoO3
_symmetry_space_group_name_H-M   'P 1'
_cell_length_a   5.56169764
_cell_length_b   5.56207209
_cell_length_c   5.80776498
_cell_angle_alpha   99.92054552
_cell_angle_beta   99.91220221
_cell_angle_gamma   118.75531828
_symmetry_Int_Tables_number   1
_chemical_formula_structural   Na2MoO3
_chemical_formula_sum   'Na4 Mo2 O6'
_cell_volume   148.23092219
_cell_formula_units_Z   2
loop_
 _symmetry_equiv_pos_site_id
 _symmetry_equiv_pos_as_xyz
  1  'x, y, z'
loop_
 _atom_site_type_symbol
 _atom_site_label
 _atom_site_symmetry_multiplicity
 _atom_site_fract_x
 _atom_site_fract_y
 _atom_site_fract_z
 _atom_site_occupancy
  Na  Na0  1  0.840486  0.159509  0.499999  1
  Na  Na1  1  0.500001  0.500001  0.500000  1
  Na  Na2  1  0.159515  0.840492  0.500001  1
  Na  Na3  1  0.000000  0.000000  0.000000  1
  Mo  Mo4  1  0.670305  0.329697  0.999990  1
  Mo  Mo5  1  0.329696  0.670304  0.000010  1
  O  O6  1  0.434679  0.059118  0.208989  1
  O  O7  1  0.059120  0.434678  0.208992  1
  O  O8  1  0.701915  0.701929  0.209755  1
  O  O9  1  0.298084  0.298070  0.790244  1
  O  O10  1  0.940879  0.565321  0.791006  1
  O  O11  1  0.565320  0.940881  0.791009  1
