# generated using pymatgen
data_K2VGaF7
_symmetry_space_group_name_H-M   'P 1'
_cell_length_a   7.77217495
_cell_length_b   7.77217575
_cell_length_c   7.77217581
_cell_angle_alpha   120.33493525
_cell_angle_beta   117.14094363
_cell_angle_gamma   92.22162965
_symmetry_Int_Tables_number   1
_chemical_formula_structural   K2VGaF7
_chemical_formula_sum   'K4 V2 Ga2 F14'
_cell_volume   337.72538767
_cell_formula_units_Z   2
loop_
 _symmetry_equiv_pos_site_id
 _symmetry_equiv_pos_as_xyz
  1  'x, y, z'
loop_
 _atom_site_type_symbol
 _atom_site_label
 _atom_site_symmetry_multiplicity
 _atom_site_fract_x
 _atom_site_fract_y
 _atom_site_fract_z
 _atom_site_occupancy
  K  K0  1  0.000000  0.000000  0.000000  1
  K  K1  1  0.500000  0.500000  0.000000  1
  K  K2  1  0.500000  0.000000  0.000000  1
  K  K3  1  0.500000  0.500000  0.500000  1
  V  V4  1  0.000000  0.000000  0.500000  1
  V  V5  1  0.000000  0.500000  0.000000  1
  Ga  Ga6  1  0.500000  0.000000  0.500000  1
  Ga  Ga7  1  0.000000  0.500000  0.500000  1
  F  F8  1  0.379059  0.085076  0.293984  1
  F  F9  1  0.708908  0.414924  0.293984  1
  F  F10  1  0.683772  0.294602  0.754388  1
  F  F11  1  0.959785  0.205398  0.389170  1
  F  F12  1  0.959785  0.570615  0.754388  1
  F  F13  1  0.683772  0.929385  0.389170  1
  F  F14  1  0.316228  0.070615  0.610830  1
  F  F15  1  0.040215  0.429385  0.245612  1
  F  F16  1  0.040215  0.794602  0.610830  1
  F  F17  1  0.316228  0.705398  0.245612  1
  F  F18  1  0.889134  0.750000  0.139134  1
  F  F19  1  0.620941  0.914924  0.706016  1
  F  F20  1  0.291092  0.585076  0.706016  1
  F  F21  1  0.110866  0.250000  0.860866  1
