# generated using pymatgen
data_Tb16Al4Ni3Os
_symmetry_space_group_name_H-M   'P 1'
_cell_length_a   9.51834028
_cell_length_b   9.51833963
_cell_length_c   9.51833948
_cell_angle_alpha   59.96728507
_cell_angle_beta   59.96729042
_cell_angle_gamma   59.96728439
_symmetry_Int_Tables_number   1
_chemical_formula_structural   Tb16Al4Ni3Os
_chemical_formula_sum   'Tb16 Al4 Ni3 Os1'
_cell_volume   609.32123906
_cell_formula_units_Z   1
loop_
 _symmetry_equiv_pos_site_id
 _symmetry_equiv_pos_as_xyz
  1  'x, y, z'
loop_
 _atom_site_type_symbol
 _atom_site_label
 _atom_site_symmetry_multiplicity
 _atom_site_fract_x
 _atom_site_fract_y
 _atom_site_fract_z
 _atom_site_occupancy
  Tb  Tb0  1  0.348666  0.348666  0.348666  1
  Tb  Tb1  1  0.352517  0.352517  0.948029  1
  Tb  Tb2  1  0.352517  0.948029  0.352517  1
  Tb  Tb3  1  0.948029  0.352517  0.352517  1
  Tb  Tb4  1  0.807324  0.191578  0.191578  1
  Tb  Tb5  1  0.191106  0.807400  0.807400  1
  Tb  Tb6  1  0.191578  0.807324  0.191578  1
  Tb  Tb7  1  0.807400  0.191106  0.807400  1
  Tb  Tb8  1  0.191578  0.191578  0.807324  1
  Tb  Tb9  1  0.807400  0.807400  0.191106  1
  Tb  Tb10  1  0.936703  0.564451  0.564451  1
  Tb  Tb11  1  0.556223  0.939374  0.939374  1
  Tb  Tb12  1  0.564451  0.936703  0.564451  1
  Tb  Tb13  1  0.939374  0.556223  0.939374  1
  Tb  Tb14  1  0.564451  0.564451  0.936703  1
  Tb  Tb15  1  0.939374  0.939374  0.556223  1
  Al  Al16  1  0.576845  0.576845  0.576845  1
  Al  Al17  1  0.576185  0.576185  0.270814  1
  Al  Al18  1  0.576185  0.270814  0.576185  1
  Al  Al19  1  0.270814  0.576185  0.576185  1
  Ni  Ni20  1  0.142245  0.142245  0.574138  1
  Ni  Ni21  1  0.142245  0.574138  0.142245  1
  Ni  Ni22  1  0.574138  0.142245  0.142245  1
  Os  Os23  1  0.142652  0.142652  0.142652  1
