# generated using pymatgen
data_LiCe2Si4Ag
_symmetry_space_group_name_H-M   'P 1'
_cell_length_a   9.10838220
_cell_length_b   9.10838311
_cell_length_c   4.14614800
_cell_angle_alpha   90.00000000
_cell_angle_beta   90.00000000
_cell_angle_gamma   153.73408708
_symmetry_Int_Tables_number   1
_chemical_formula_structural   LiCe2Si4Ag
_chemical_formula_sum   'Li1 Ce2 Si4 Ag1'
_cell_volume   152.22208736
_cell_formula_units_Z   1
loop_
 _symmetry_equiv_pos_site_id
 _symmetry_equiv_pos_as_xyz
  1  'x, y, z'
loop_
 _atom_site_type_symbol
 _atom_site_label
 _atom_site_symmetry_multiplicity
 _atom_site_fract_x
 _atom_site_fract_y
 _atom_site_fract_z
 _atom_site_occupancy
  Li  Li0  1  0.250918  0.749082  0.250000  1
  Ce  Ce1  1  0.595647  0.404353  0.250000  1
  Ce  Ce2  1  0.404170  0.595830  0.750000  1
  Si  Si3  1  0.968407  0.031593  0.250000  1
  Si  Si4  1  0.031994  0.968006  0.750000  1
  Si  Si5  1  0.837663  0.162337  0.250000  1
  Si  Si6  1  0.162255  0.837745  0.750000  1
  Ag  Ag7  1  0.748945  0.251055  0.750000  1
