# generated using pymatgen
data_Lu6Sc4InSn5
_symmetry_space_group_name_H-M   'P 1'
_cell_length_a   8.67347691
_cell_length_b   8.67347764
_cell_length_c   6.21776400
_cell_angle_alpha   90.00000000
_cell_angle_beta   90.00000000
_cell_angle_gamma   120.05253224
_symmetry_Int_Tables_number   1
_chemical_formula_structural   Lu6Sc4InSn5
_chemical_formula_sum   'Lu6 Sc4 In1 Sn5'
_cell_volume   404.87524003
_cell_formula_units_Z   1
loop_
 _symmetry_equiv_pos_site_id
 _symmetry_equiv_pos_as_xyz
  1  'x, y, z'
loop_
 _atom_site_type_symbol
 _atom_site_label
 _atom_site_symmetry_multiplicity
 _atom_site_fract_x
 _atom_site_fract_y
 _atom_site_fract_z
 _atom_site_occupancy
  Lu  Lu0  1  0.762308  0.762308  0.750000  1
  Lu  Lu1  1  0.237653  0.000955  0.750000  1
  Lu  Lu2  1  0.000955  0.237653  0.750000  1
  Lu  Lu3  1  0.237130  0.237130  0.250000  1
  Lu  Lu4  1  0.762430  0.999856  0.250000  1
  Lu  Lu5  1  0.999856  0.762430  0.250000  1
  Sc  Sc6  1  0.666495  0.333519  0.999165  1
  Sc  Sc7  1  0.333519  0.666495  0.999165  1
  Sc  Sc8  1  0.333519  0.666495  0.500835  1
  Sc  Sc9  1  0.666495  0.333519  0.500835  1
  In  In10  1  0.399924  0.399924  0.750000  1
  Sn  Sn11  1  0.601104  0.999849  0.750000  1
  Sn  Sn12  1  0.999849  0.601104  0.750000  1
  Sn  Sn13  1  0.600462  0.600462  0.250000  1
  Sn  Sn14  1  0.398779  0.999524  0.250000  1
  Sn  Sn15  1  0.999524  0.398779  0.250000  1
