# generated using pymatgen
data_Er4Al2FeRu5
_symmetry_space_group_name_H-M   'P 1'
_cell_length_a   5.24066717
_cell_length_b   5.32456817
_cell_length_c   8.79785100
_cell_angle_alpha   90.00000000
_cell_angle_beta   90.00000000
_cell_angle_gamma   120.40280642
_symmetry_Int_Tables_number   1
_chemical_formula_structural   Er4Al2FeRu5
_chemical_formula_sum   'Er4 Al2 Fe1 Ru5'
_cell_volume   211.73910792
_cell_formula_units_Z   1
loop_
 _symmetry_equiv_pos_site_id
 _symmetry_equiv_pos_as_xyz
  1  'x, y, z'
loop_
 _atom_site_type_symbol
 _atom_site_label
 _atom_site_symmetry_multiplicity
 _atom_site_fract_x
 _atom_site_fract_y
 _atom_site_fract_z
 _atom_site_occupancy
  Er  Er0  1  0.339040  0.667812  0.437789  1
  Er  Er1  1  0.663449  0.331466  0.562514  1
  Er  Er2  1  0.663449  0.331466  0.937486  1
  Er  Er3  1  0.339040  0.667812  0.062211  1
  Al  Al4  1  0.169183  0.832127  0.750000  1
  Al  Al5  1  0.330990  0.164644  0.250000  1
  Fe  Fe6  1  0.167824  0.334033  0.750000  1
  Ru  Ru7  1  0.832736  0.655146  0.250000  1
  Ru  Ru8  1  0.658003  0.825004  0.750000  1
  Ru  Ru9  1  0.001586  0.007222  0.996520  1
  Ru  Ru10  1  0.833113  0.176047  0.250000  1
  Ru  Ru11  1  0.001586  0.007222  0.503480  1
