# generated using pymatgen
data_YbGa2Ni2Ir
_symmetry_space_group_name_H-M   'P 1'
_cell_length_a   9.16922699
_cell_length_b   9.02383307
_cell_length_c   3.89818800
_cell_angle_alpha   90.00000000
_cell_angle_beta   90.00000000
_cell_angle_gamma   118.57785889
_symmetry_Int_Tables_number   1
_chemical_formula_structural   YbGa2Ni2Ir
_chemical_formula_sum   'Yb3 Ga6 Ni6 Ir3'
_cell_volume   283.24621304
_cell_formula_units_Z   3
loop_
 _symmetry_equiv_pos_site_id
 _symmetry_equiv_pos_as_xyz
  1  'x, y, z'
loop_
 _atom_site_type_symbol
 _atom_site_label
 _atom_site_symmetry_multiplicity
 _atom_site_fract_x
 _atom_site_fract_y
 _atom_site_fract_z
 _atom_site_occupancy
  Yb  Yb0  1  0.001466  0.998771  0.000000  1
  Yb  Yb1  1  0.658870  0.328585  0.500000  1
  Yb  Yb2  1  0.342502  0.671205  0.500000  1
  Ga  Ga3  1  0.686681  0.678907  0.500000  1
  Ga  Ga4  1  0.307671  0.994221  0.500000  1
  Ga  Ga5  1  0.010458  0.337521  0.500000  1
  Ga  Ga6  1  0.315250  0.317940  0.500000  1
  Ga  Ga7  1  0.681201  0.993994  0.500000  1
  Ga  Ga8  1  0.000250  0.675722  0.500000  1
  Ni  Ni9  1  0.005452  0.507794  0.000000  1
  Ni  Ni10  1  0.830144  0.649945  0.000000  1
  Ni  Ni11  1  0.343415  0.171411  0.000000  1
  Ni  Ni12  1  0.169818  0.818422  0.000000  1
  Ni  Ni13  1  0.649995  0.820601  0.000000  1
  Ni  Ni14  1  0.177541  0.356988  0.000000  1
  Ir  Ir15  1  0.501316  0.498171  0.000000  1
  Ir  Ir16  1  0.492368  0.993859  0.000000  1
  Ir  Ir17  1  0.825601  0.185943  0.000000  1
