# generated using pymatgen
data_LaLuZn5Si
_symmetry_space_group_name_H-M   'P 1'
_cell_length_a   8.23685794
_cell_length_b   8.23685870
_cell_length_c   8.79191800
_cell_angle_alpha   90.00000000
_cell_angle_beta   90.00000000
_cell_angle_gamma   149.43076877
_symmetry_Int_Tables_number   1
_chemical_formula_structural   LaLuZn5Si
_chemical_formula_sum   'La2 Lu2 Zn10 Si2'
_cell_volume   303.36490521
_cell_formula_units_Z   2
loop_
 _symmetry_equiv_pos_site_id
 _symmetry_equiv_pos_as_xyz
  1  'x, y, z'
loop_
 _atom_site_type_symbol
 _atom_site_label
 _atom_site_symmetry_multiplicity
 _atom_site_fract_x
 _atom_site_fract_y
 _atom_site_fract_z
 _atom_site_occupancy
  La  La0  1  0.000000  0.000000  0.500000  1
  La  La1  1  0.000000  0.000000  0.000000  1
  Lu  Lu2  1  0.200843  0.799157  0.250000  1
  Lu  Lu3  1  0.799157  0.200843  0.750000  1
  Zn  Zn4  1  0.811810  0.188190  0.390866  1
  Zn  Zn5  1  0.188190  0.811810  0.609134  1
  Zn  Zn6  1  0.811810  0.188190  0.109134  1
  Zn  Zn7  1  0.188190  0.811810  0.890866  1
  Zn  Zn8  1  0.654398  0.345602  0.473835  1
  Zn  Zn9  1  0.345602  0.654398  0.526165  1
  Zn  Zn10  1  0.654398  0.345602  0.026165  1
  Zn  Zn11  1  0.345602  0.654398  0.973835  1
  Zn  Zn12  1  0.401105  0.598895  0.250000  1
  Zn  Zn13  1  0.598895  0.401105  0.750000  1
  Si  Si14  1  0.559891  0.440109  0.250000  1
  Si  Si15  1  0.440109  0.559891  0.750000  1
