# generated using pymatgen
data_YbHo(Sn2Ru)2
_symmetry_space_group_name_H-M   'P 1'
_cell_length_a   5.77402158
_cell_length_b   5.77402201
_cell_length_c   7.76866500
_cell_angle_alpha   90.00000000
_cell_angle_beta   90.00000000
_cell_angle_gamma   136.95953140
_symmetry_Int_Tables_number   1
_chemical_formula_structural   YbHo(Sn2Ru)2
_chemical_formula_sum   'Yb1 Ho1 Sn4 Ru2'
_cell_volume   176.77273246
_cell_formula_units_Z   1
loop_
 _symmetry_equiv_pos_site_id
 _symmetry_equiv_pos_as_xyz
  1  'x, y, z'
loop_
 _atom_site_type_symbol
 _atom_site_label
 _atom_site_symmetry_multiplicity
 _atom_site_fract_x
 _atom_site_fract_y
 _atom_site_fract_z
 _atom_site_occupancy
  Yb  Yb0  1  0.067121  0.932878  0.250000  1
  Ho  Ho1  1  0.931122  0.068877  0.750000  1
  Sn  Sn2  1  0.356787  0.643211  0.043262  1
  Sn  Sn3  1  0.356787  0.643211  0.456738  1
  Sn  Sn4  1  0.642952  0.357046  0.544126  1
  Sn  Sn5  1  0.642952  0.357046  0.955874  1
  Ru  Ru6  1  0.787615  0.212383  0.250000  1
  Ru  Ru7  1  0.214659  0.785339  0.750000  1
