# generated using pymatgen
data_Er4Sc2Al17Si7Os8
_symmetry_space_group_name_H-M   'P 1'
_cell_length_a   8.63424705
_cell_length_b   8.65017861
_cell_length_c   9.43264300
_cell_angle_alpha   90.00000000
_cell_angle_beta   90.00000000
_cell_angle_gamma   120.00429567
_symmetry_Int_Tables_number   1
_chemical_formula_structural   Er4Sc2Al17Si7Os8
_chemical_formula_sum   'Er4 Sc2 Al17 Si7 Os8'
_cell_volume   610.09121956
_cell_formula_units_Z   1
loop_
 _symmetry_equiv_pos_site_id
 _symmetry_equiv_pos_as_xyz
  1  'x, y, z'
loop_
 _atom_site_type_symbol
 _atom_site_label
 _atom_site_symmetry_multiplicity
 _atom_site_fract_x
 _atom_site_fract_y
 _atom_site_fract_z
 _atom_site_occupancy
  Er  Er0  1  0.613376  0.809195  0.250000  1
  Er  Er1  1  0.385548  0.189542  0.750000  1
  Er  Er2  1  0.195481  0.807083  0.250000  1
  Er  Er3  1  0.802734  0.189510  0.750000  1
  Sc  Sc4  1  0.196857  0.398193  0.250000  1
  Sc  Sc5  1  0.802104  0.605443  0.750000  1
  Al  Al6  1  0.164305  0.329555  0.576334  1
  Al  Al7  1  0.834195  0.670862  0.422881  1
  Al  Al8  1  0.671335  0.833329  0.579022  1
  Al  Al9  1  0.834195  0.670862  0.077119  1
  Al  Al10  1  0.329931  0.167759  0.421179  1
  Al  Al11  1  0.164305  0.329555  0.923666  1
  Al  Al12  1  0.161844  0.832371  0.577822  1
  Al  Al13  1  0.329931  0.167759  0.078821  1
  Al  Al14  1  0.837287  0.165835  0.420329  1
  Al  Al15  1  0.671335  0.833329  0.920978  1
  Al  Al16  1  0.837287  0.165835  0.079671  1
  Al  Al17  1  0.161844  0.832371  0.922178  1
  Al  Al18  1  0.122202  0.563478  0.750000  1
  Al  Al19  1  0.563155  0.436660  0.250000  1
  Al  Al20  1  0.439419  0.564695  0.750000  1
  Al  Al21  1  0.006537  0.012554  0.250000  1
  Al  Al22  1  0.993463  0.987802  0.750000  1
  Si  Si23  1  0.332950  0.663330  0.042550  1
  Si  Si24  1  0.667563  0.337371  0.956468  1
  Si  Si25  1  0.667563  0.337371  0.543532  1
  Si  Si26  1  0.332950  0.663330  0.457450  1
  Si  Si27  1  0.565564  0.126078  0.250000  1
  Si  Si28  1  0.435404  0.871694  0.750000  1
  Si  Si29  1  0.876798  0.435668  0.250000  1
  Os  Os30  1  0.501071  0.001113  0.000895  1
  Os  Os31  1  0.998918  0.499393  0.006980  1
  Os  Os32  1  0.501071  0.001113  0.499105  1
  Os  Os33  1  0.500741  0.500325  0.000334  1
  Os  Os34  1  0.998918  0.499393  0.493020  1
  Os  Os35  1  0.500741  0.500325  0.499666  1
  Os  Os36  1  0.000538  0.999962  0.000096  1
  Os  Os37  1  0.000538  0.999962  0.499904  1
