# generated using pymatgen
data_Rb4Si2BiAu6
_symmetry_space_group_name_H-M   'P 1'
_cell_length_a   10.43702166
_cell_length_b   10.43702175
_cell_length_c   10.43702263
_cell_angle_alpha   37.38473444
_cell_angle_beta   37.38473033
_cell_angle_gamma   37.38473368
_symmetry_Int_Tables_number   1
_chemical_formula_structural   Rb4Si2BiAu6
_chemical_formula_sum   'Rb4 Si2 Bi1 Au6'
_cell_volume   375.80184340
_cell_formula_units_Z   1
loop_
 _symmetry_equiv_pos_site_id
 _symmetry_equiv_pos_as_xyz
  1  'x, y, z'
loop_
 _atom_site_type_symbol
 _atom_site_label
 _atom_site_symmetry_multiplicity
 _atom_site_fract_x
 _atom_site_fract_y
 _atom_site_fract_z
 _atom_site_occupancy
  Rb  Rb0  1  0.682680  0.682680  0.682680  1
  Rb  Rb1  1  0.317320  0.317320  0.317320  1
  Rb  Rb2  1  0.809466  0.809466  0.809466  1
  Rb  Rb3  1  0.190534  0.190534  0.190534  1
  Si  Si4  1  0.542457  0.542457  0.542457  1
  Si  Si5  1  0.457543  0.457543  0.457543  1
  Bi  Bi6  1  0.000000  0.000000  0.000000  1
  Au  Au7  1  0.234508  0.234508  0.788917  1
  Au  Au8  1  0.788917  0.234508  0.234508  1
  Au  Au9  1  0.234508  0.788917  0.234508  1
  Au  Au10  1  0.765492  0.211083  0.765492  1
  Au  Au11  1  0.765492  0.765492  0.211083  1
  Au  Au12  1  0.211083  0.765492  0.765492  1
