# generated using pymatgen
data_YbDy3Ho3PtI12
_symmetry_space_group_name_H-M   'P 1'
_cell_length_a   9.77672559
_cell_length_b   9.77672673
_cell_length_c   9.77672556
_cell_angle_alpha   106.98672602
_cell_angle_beta   106.98672974
_cell_angle_gamma   106.98673008
_symmetry_Int_Tables_number   1
_chemical_formula_structural   YbDy3Ho3PtI12
_chemical_formula_sum   'Yb1 Dy3 Ho3 Pt1 I12'
_cell_volume   778.54395481
_cell_formula_units_Z   1
loop_
 _symmetry_equiv_pos_site_id
 _symmetry_equiv_pos_as_xyz
  1  'x, y, z'
loop_
 _atom_site_type_symbol
 _atom_site_label
 _atom_site_symmetry_multiplicity
 _atom_site_fract_x
 _atom_site_fract_y
 _atom_site_fract_z
 _atom_site_occupancy
  Yb  Yb0  1  0.000036  0.000036  0.000036  1
  Dy  Dy1  1  0.401390  0.472803  0.197896  1
  Dy  Dy2  1  0.197896  0.401390  0.472803  1
  Dy  Dy3  1  0.472803  0.197896  0.401390  1
  Ho  Ho4  1  0.598659  0.527607  0.801362  1
  Ho  Ho5  1  0.801362  0.598659  0.527607  1
  Ho  Ho6  1  0.527607  0.801362  0.598659  1
  Pt  Pt7  1  0.500033  0.500033  0.500033  1
  I  I8  1  0.039489  0.347512  0.117236  1
  I  I9  1  0.117236  0.039489  0.347512  1
  I  I10  1  0.347512  0.117236  0.039489  1
  I  I11  1  0.960084  0.652342  0.882461  1
  I  I12  1  0.882461  0.960084  0.652342  1
  I  I13  1  0.652342  0.882461  0.960084  1
  I  I14  1  0.724020  0.573793  0.178145  1
  I  I15  1  0.178145  0.724020  0.573793  1
  I  I16  1  0.573793  0.178145  0.724020  1
  I  I17  1  0.276742  0.426441  0.821948  1
  I  I18  1  0.821948  0.276742  0.426441  1
  I  I19  1  0.426441  0.821948  0.276742  1
