# generated using pymatgen
data_Ho3Mg2AlGe2Pt
_symmetry_space_group_name_H-M   'P 1'
_cell_length_a   7.17422946
_cell_length_b   7.09280175
_cell_length_c   4.27249100
_cell_angle_alpha   90.00000000
_cell_angle_beta   90.00000000
_cell_angle_gamma   119.62523853
_symmetry_Int_Tables_number   1
_chemical_formula_structural   Ho3Mg2AlGe2Pt
_chemical_formula_sum   'Ho3 Mg2 Al1 Ge2 Pt1'
_cell_volume   188.98727459
_cell_formula_units_Z   1
loop_
 _symmetry_equiv_pos_site_id
 _symmetry_equiv_pos_as_xyz
  1  'x, y, z'
loop_
 _atom_site_type_symbol
 _atom_site_label
 _atom_site_symmetry_multiplicity
 _atom_site_fract_x
 _atom_site_fract_y
 _atom_site_fract_z
 _atom_site_occupancy
  Ho  Ho0  1  0.411780  0.999111  0.000000  1
  Ho  Ho1  1  0.000000  0.416090  0.000000  1
  Ho  Ho2  1  0.588220  0.587330  0.000000  1
  Mg  Mg3  1  0.762611  0.999637  0.500001  1
  Mg  Mg4  1  0.237389  0.237026  0.500001  1
  Al  Al5  1  0.000000  0.764004  0.500001  1
  Ge  Ge6  1  0.672763  0.341556  0.500001  1
  Ge  Ge7  1  0.327236  0.668792  0.500001  1
  Pt  Pt8  1  0.000000  0.986452  0.000000  1
