# generated using pymatgen
data_Tc6MoIrO24
_symmetry_space_group_name_H-M   'P 1'
_cell_length_a   10.40085828
_cell_length_b   10.40085783
_cell_length_c   10.40085800
_cell_angle_alpha   49.08357137
_cell_angle_beta   49.08358084
_cell_angle_gamma   49.08357401
_symmetry_Int_Tables_number   1
_chemical_formula_structural   Tc6MoIrO24
_chemical_formula_sum   'Tc6 Mo1 Ir1 O24'
_cell_volume   590.03549391
_cell_formula_units_Z   1
loop_
 _symmetry_equiv_pos_site_id
 _symmetry_equiv_pos_as_xyz
  1  'x, y, z'
loop_
 _atom_site_type_symbol
 _atom_site_label
 _atom_site_symmetry_multiplicity
 _atom_site_fract_x
 _atom_site_fract_y
 _atom_site_fract_z
 _atom_site_occupancy
  Tc  Tc0  1  0.584689  0.906919  0.255617  1
  Tc  Tc1  1  0.255617  0.584689  0.906919  1
  Tc  Tc2  1  0.906919  0.255617  0.584689  1
  Tc  Tc3  1  0.744383  0.415311  0.093081  1
  Tc  Tc4  1  0.093081  0.744383  0.415311  1
  Tc  Tc5  1  0.415311  0.093081  0.744383  1
  Mo  Mo6  1  0.000000  0.000000  0.000000  1
  Ir  Ir7  1  0.500000  0.500000  0.500000  1
  O  O8  1  0.806623  0.881984  0.183096  1
  O  O9  1  0.183096  0.806623  0.881984  1
  O  O10  1  0.881984  0.183096  0.806623  1
  O  O11  1  0.673610  0.387653  0.316902  1
  O  O12  1  0.316902  0.673610  0.387653  1
  O  O13  1  0.387653  0.316902  0.673610  1
  O  O14  1  0.193377  0.118016  0.816904  1
  O  O15  1  0.816904  0.193377  0.118016  1
  O  O16  1  0.118016  0.816904  0.193377  1
  O  O17  1  0.326390  0.612347  0.683098  1
  O  O18  1  0.683098  0.326390  0.612347  1
  O  O19  1  0.612347  0.683098  0.326390  1
  O  O20  1  0.427253  0.980263  0.432848  1
  O  O21  1  0.432848  0.427253  0.980263  1
  O  O22  1  0.980263  0.432848  0.427253  1
  O  O23  1  0.924382  0.485111  0.935538  1
  O  O24  1  0.935538  0.924382  0.485111  1
  O  O25  1  0.485111  0.935538  0.924382  1
  O  O26  1  0.572747  0.019737  0.567152  1
  O  O27  1  0.567152  0.572747  0.019737  1
  O  O28  1  0.019737  0.567152  0.572747  1
  O  O29  1  0.075618  0.514889  0.064462  1
  O  O30  1  0.064462  0.075618  0.514889  1
  O  O31  1  0.514889  0.064462  0.075618  1
