# generated using pymatgen
data_Lu4TiAl3Ir4
_symmetry_space_group_name_H-M   'P 1'
_cell_length_a   4.25596300
_cell_length_b   6.75219946
_cell_length_c   7.85593981
_cell_angle_alpha   89.92383840
_cell_angle_beta   90.00000000
_cell_angle_gamma   90.00000000
_symmetry_Int_Tables_number   1
_chemical_formula_structural   Lu4TiAl3Ir4
_chemical_formula_sum   'Lu4 Ti1 Al3 Ir4'
_cell_volume   225.75681547
_cell_formula_units_Z   1
loop_
 _symmetry_equiv_pos_site_id
 _symmetry_equiv_pos_as_xyz
  1  'x, y, z'
loop_
 _atom_site_type_symbol
 _atom_site_label
 _atom_site_symmetry_multiplicity
 _atom_site_fract_x
 _atom_site_fract_y
 _atom_site_fract_z
 _atom_site_occupancy
  Lu  Lu0  1  0.250000  0.964612  0.319959  1
  Lu  Lu1  1  0.250000  0.474262  0.173542  1
  Lu  Lu2  1  0.750000  0.024197  0.682659  1
  Lu  Lu3  1  0.750000  0.533175  0.825985  1
  Ti  Ti4  1  0.250000  0.368074  0.563784  1
  Al  Al5  1  0.250000  0.858317  0.935833  1
  Al  Al6  1  0.750000  0.640055  0.439035  1
  Al  Al7  1  0.750000  0.143400  0.060015  1
  Ir  Ir8  1  0.250000  0.234643  0.874232  1
  Ir  Ir9  1  0.250000  0.730800  0.620075  1
  Ir  Ir10  1  0.750000  0.769020  0.121592  1
  Ir  Ir11  1  0.750000  0.259445  0.383289  1
