# generated using pymatgen
data_Er5Si8P4Ir19
_symmetry_space_group_name_H-M   'P 1'
_cell_length_a   12.81691826
_cell_length_b   12.77670065
_cell_length_c   3.94145500
_cell_angle_alpha   90.00000000
_cell_angle_beta   90.00000000
_cell_angle_gamma   119.96616474
_symmetry_Int_Tables_number   1
_chemical_formula_structural   Er5Si8P4Ir19
_chemical_formula_sum   'Er5 Si8 P4 Ir19'
_cell_volume   559.16181887
_cell_formula_units_Z   1
loop_
 _symmetry_equiv_pos_site_id
 _symmetry_equiv_pos_as_xyz
  1  'x, y, z'
loop_
 _atom_site_type_symbol
 _atom_site_label
 _atom_site_symmetry_multiplicity
 _atom_site_fract_x
 _atom_site_fract_y
 _atom_site_fract_z
 _atom_site_occupancy
  Er  Er0  1  0.666908  0.333442  0.000000  1
  Er  Er1  1  0.332687  0.667590  0.000000  1
  Er  Er2  1  0.814152  0.813959  0.500000  1
  Er  Er3  1  0.185623  0.001062  0.500000  1
  Er  Er4  1  0.999235  0.183354  0.500000  1
  Si  Si5  1  0.685216  0.165775  0.500000  1
  Si  Si6  1  0.834065  0.518980  0.500000  1
  Si  Si7  1  0.481760  0.315259  0.500000  1
  Si  Si8  1  0.168075  0.687808  0.500000  1
  Si  Si9  1  0.517710  0.829726  0.500000  1
  Si  Si10  1  0.635213  0.634500  0.000000  1
  Si  Si11  1  0.365497  0.999654  0.000000  1
  Si  Si12  1  0.999419  0.364704  0.000000  1
  P  P13  1  0.308005  0.484398  0.500000  1
  P  P14  1  0.178656  0.179714  0.000000  1
  P  P15  1  0.820524  0.997151  0.000000  1
  P  P16  1  0.000346  0.823068  0.000000  1
  Ir  Ir17  1  0.808219  0.177968  0.000000  1
  Ir  Ir18  1  0.821476  0.629235  0.000000  1
  Ir  Ir19  1  0.369525  0.191133  0.000000  1
  Ir  Ir20  1  0.179432  0.807156  0.000000  1
  Ir  Ir21  1  0.624729  0.817390  0.000000  1
  Ir  Ir22  1  0.198954  0.379207  0.000000  1
  Ir  Ir23  1  0.455900  0.443970  0.000000  1
  Ir  Ir24  1  0.553087  0.002327  0.000000  1
  Ir  Ir25  1  0.998998  0.551209  0.000000  1
  Ir  Ir26  1  0.279866  0.283998  0.500000  1
  Ir  Ir27  1  0.720831  0.997622  0.500000  1
  Ir  Ir28  1  0.000384  0.722700  0.500000  1
  Ir  Ir29  1  0.871359  0.357823  0.500000  1
  Ir  Ir30  1  0.643504  0.513982  0.500000  1
  Ir  Ir31  1  0.486995  0.129151  0.500000  1
  Ir  Ir32  1  0.360641  0.872565  0.500000  1
  Ir  Ir33  1  0.505554  0.633042  0.500000  1
  Ir  Ir34  1  0.126468  0.487473  0.500000  1
  Ir  Ir35  1  0.000986  0.001905  0.000000  1
