# generated using pymatgen
data_Ac5GaTe4
_symmetry_space_group_name_H-M   'P 1'
_cell_length_a   8.25319371
_cell_length_b   8.25319243
_cell_length_c   11.59675943
_cell_angle_alpha   61.78355116
_cell_angle_beta   61.78354867
_cell_angle_gamma   33.24268737
_symmetry_Int_Tables_number   1
_chemical_formula_structural   Ac5GaTe4
_chemical_formula_sum   'Ac5 Ga1 Te4'
_cell_volume   376.63766808
_cell_formula_units_Z   1
loop_
 _symmetry_equiv_pos_site_id
 _symmetry_equiv_pos_as_xyz
  1  'x, y, z'
loop_
 _atom_site_type_symbol
 _atom_site_label
 _atom_site_symmetry_multiplicity
 _atom_site_fract_x
 _atom_site_fract_y
 _atom_site_fract_z
 _atom_site_occupancy
  Ac  Ac0  1  0.000000  0.000000  0.500000  1
  Ac  Ac1  1  0.589071  0.589071  0.092718  1
  Ac  Ac2  1  0.189393  0.189393  0.718436  1
  Ac  Ac3  1  0.810607  0.810607  0.281564  1
  Ac  Ac4  1  0.410929  0.410929  0.907282  1
  Ga  Ga5  1  0.000000  0.000000  0.000000  1
  Te  Te6  1  0.605977  0.605977  0.591116  1
  Te  Te7  1  0.196116  0.196116  0.197837  1
  Te  Te8  1  0.803884  0.803884  0.802163  1
  Te  Te9  1  0.394023  0.394023  0.408884  1
