# generated using pymatgen
data_Nd5Hg2Ru
_symmetry_space_group_name_H-M   'P 1'
_cell_length_a   7.97137400
_cell_length_b   9.56399400
_cell_length_c   12.29233900
_cell_angle_alpha   90.00000000
_cell_angle_beta   90.00000000
_cell_angle_gamma   90.00000000
_symmetry_Int_Tables_number   1
_chemical_formula_structural   Nd5Hg2Ru
_chemical_formula_sum   'Nd20 Hg8 Ru4'
_cell_volume   937.14546858
_cell_formula_units_Z   4
loop_
 _symmetry_equiv_pos_site_id
 _symmetry_equiv_pos_as_xyz
  1  'x, y, z'
loop_
 _atom_site_type_symbol
 _atom_site_label
 _atom_site_symmetry_multiplicity
 _atom_site_fract_x
 _atom_site_fract_y
 _atom_site_fract_z
 _atom_site_occupancy
  Nd  Nd0  1  0.660090  0.750000  0.716365  1
  Nd  Nd1  1  0.339910  0.250000  0.283635  1
  Nd  Nd2  1  0.160090  0.250000  0.783635  1
  Nd  Nd3  1  0.839910  0.750000  0.216365  1
  Nd  Nd4  1  0.115620  0.750000  0.809485  1
  Nd  Nd5  1  0.884380  0.250000  0.190515  1
  Nd  Nd6  1  0.615620  0.250000  0.690515  1
  Nd  Nd7  1  0.384380  0.750000  0.309485  1
  Nd  Nd8  1  0.550482  0.750000  0.998463  1
  Nd  Nd9  1  0.449518  0.250000  0.001537  1
  Nd  Nd10  1  0.050482  0.250000  0.501537  1
  Nd  Nd11  1  0.949518  0.750000  0.498463  1
  Nd  Nd12  1  0.820299  0.461866  0.922869  1
  Nd  Nd13  1  0.179701  0.538134  0.077131  1
  Nd  Nd14  1  0.320299  0.538134  0.577131  1
  Nd  Nd15  1  0.179701  0.961866  0.077131  1
  Nd  Nd16  1  0.679701  0.461866  0.422869  1
  Nd  Nd17  1  0.820299  0.038134  0.922869  1
  Nd  Nd18  1  0.679701  0.038134  0.422869  1
  Nd  Nd19  1  0.320299  0.961866  0.577131  1
  Hg  Hg20  1  0.920613  0.011604  0.664276  1
  Hg  Hg21  1  0.079387  0.988396  0.335724  1
  Hg  Hg22  1  0.420613  0.988396  0.835724  1
  Hg  Hg23  1  0.079387  0.511604  0.335724  1
  Hg  Hg24  1  0.579387  0.011604  0.164276  1
  Hg  Hg25  1  0.920613  0.488396  0.664276  1
  Hg  Hg26  1  0.579387  0.488396  0.164276  1
  Hg  Hg27  1  0.420613  0.511604  0.835724  1
  Ru  Ru28  1  0.922592  0.750000  0.993589  1
  Ru  Ru29  1  0.077408  0.250000  0.006411  1
  Ru  Ru30  1  0.422592  0.250000  0.506411  1
  Ru  Ru31  1  0.577408  0.750000  0.493589  1
