# generated using pymatgen
data_Ta6Be15(FeCu3)2
_symmetry_space_group_name_H-M   'P 1'
_cell_length_a   7.60608287
_cell_length_b   7.62425384
_cell_length_c   7.62049023
_cell_angle_alpha   60.13388499
_cell_angle_beta   60.05932111
_cell_angle_gamma   60.07564946
_symmetry_Int_Tables_number   1
_chemical_formula_structural   Ta6Be15(FeCu3)2
_chemical_formula_sum   'Ta6 Be15 Fe2 Cu6'
_cell_volume   313.11721490
_cell_formula_units_Z   1
loop_
 _symmetry_equiv_pos_site_id
 _symmetry_equiv_pos_as_xyz
  1  'x, y, z'
loop_
 _atom_site_type_symbol
 _atom_site_label
 _atom_site_symmetry_multiplicity
 _atom_site_fract_x
 _atom_site_fract_y
 _atom_site_fract_z
 _atom_site_occupancy
  Ta  Ta0  1  0.214948  0.193845  0.806191  1
  Ta  Ta1  1  0.201205  0.787516  0.810057  1
  Ta  Ta2  1  0.798709  0.190039  0.212557  1
  Ta  Ta3  1  0.190561  0.807226  0.192768  1
  Ta  Ta4  1  0.784980  0.193883  0.806199  1
  Ta  Ta5  1  0.809453  0.807212  0.192753  1
  Be  Be6  1  0.500238  0.496936  0.502622  1
  Be  Be7  1  0.500439  0.499211  0.997431  1
  Be  Be8  1  0.999995  0.500001  0.499997  1
  Be  Be9  1  0.499974  0.003599  0.996450  1
  Be  Be10  1  0.997095  0.002646  0.500802  1
  Be  Be11  1  0.002941  0.499202  0.997412  1
  Be  Be12  1  0.499455  0.002651  0.500794  1
  Be  Be13  1  0.828448  0.515331  0.827772  1
  Be  Be14  1  0.171556  0.172137  0.484735  1
  Be  Be15  1  0.478703  0.176883  0.167723  1
  Be  Be16  1  0.176674  0.176875  0.167732  1
  Be  Be17  1  0.521246  0.832674  0.822893  1
  Be  Be18  1  0.823216  0.832662  0.822886  1
  Be  Be19  1  0.823477  0.829558  0.523502  1
  Be  Be20  1  0.176569  0.476407  0.170442  1
  Fe  Fe21  1  0.622155  0.134073  0.621657  1
  Fe  Fe22  1  0.377994  0.378137  0.865855  1
  Cu  Cu23  1  0.868267  0.378976  0.376825  1
  Cu  Cu24  1  0.375961  0.378992  0.376816  1
  Cu  Cu25  1  0.131834  0.622887  0.621328  1
  Cu  Cu26  1  0.623850  0.622923  0.621433  1
  Cu  Cu27  1  0.623006  0.620861  0.133132  1
  Cu  Cu28  1  0.377051  0.866656  0.379236  1
