# generated using pymatgen
data_Tm4Al18Ni3IrRh2
_symmetry_space_group_name_H-M   'P 1'
_cell_length_a   7.48824768
_cell_length_b   7.48824236
_cell_length_c   9.28633702
_cell_angle_alpha   89.89860718
_cell_angle_beta   89.89864671
_cell_angle_gamma   119.88383591
_symmetry_Int_Tables_number   1
_chemical_formula_structural   Tm4Al18Ni3IrRh2
_chemical_formula_sum   'Tm4 Al18 Ni3 Ir1 Rh2'
_cell_volume   451.48115610
_cell_formula_units_Z   1
loop_
 _symmetry_equiv_pos_site_id
 _symmetry_equiv_pos_as_xyz
  1  'x, y, z'
loop_
 _atom_site_type_symbol
 _atom_site_label
 _atom_site_symmetry_multiplicity
 _atom_site_fract_x
 _atom_site_fract_y
 _atom_site_fract_z
 _atom_site_occupancy
  Tm  Tm0  1  0.995436  0.669274  0.249544  1
  Tm  Tm1  1  0.008019  0.333968  0.750448  1
  Tm  Tm2  1  0.666031  0.991981  0.249552  1
  Tm  Tm3  1  0.330726  0.004563  0.750456  1
  Al  Al4  1  0.119669  0.119464  0.249749  1
  Al  Al5  1  0.880536  0.880331  0.750251  1
  Al  Al6  1  0.993477  0.330903  0.074529  1
  Al  Al7  1  0.997613  0.666990  0.925693  1
  Al  Al8  1  0.000288  0.667825  0.574381  1
  Al  Al9  1  0.332175  0.999712  0.425619  1
  Al  Al10  1  0.997997  0.330887  0.425254  1
  Al  Al11  1  0.669113  0.002003  0.574746  1
  Al  Al12  1  0.669097  0.006523  0.925471  1
  Al  Al13  1  0.333010  0.002387  0.074307  1
  Al  Al14  1  0.329679  0.329072  0.551314  1
  Al  Al15  1  0.670928  0.670321  0.448686  1
  Al  Al16  1  0.670142  0.669171  0.051125  1
  Al  Al17  1  0.330829  0.329858  0.948875  1
  Al  Al18  1  0.338962  0.544705  0.250615  1
  Al  Al19  1  0.662058  0.448755  0.752747  1
  Al  Al20  1  0.551245  0.337942  0.247253  1
  Al  Al21  1  0.455295  0.661038  0.749385  1
  Ni  Ni22  1  0.671240  0.328759  0.000000  1
  Ni  Ni23  1  0.999481  0.000519  0.000000  1
  Ni  Ni24  1  0.000083  0.999919  0.500000  1
  Ir  Ir25  1  0.326850  0.673150  0.000000  1
  Rh  Rh26  1  0.328068  0.671933  0.500000  1
  Rh  Rh27  1  0.671953  0.328048  0.500000  1
