# generated using pymatgen
data_Tm10Zn3Ru
_symmetry_space_group_name_H-M   'P 1'
_cell_length_a   9.27201300
_cell_length_b   9.27201342
_cell_length_c   9.51424700
_cell_angle_alpha   90.00000000
_cell_angle_beta   90.00000000
_cell_angle_gamma   120.00000206
_symmetry_Int_Tables_number   1
_chemical_formula_structural   Tm10Zn3Ru
_chemical_formula_sum   'Tm20 Zn6 Ru2'
_cell_volume   708.35853015
_cell_formula_units_Z   2
loop_
 _symmetry_equiv_pos_site_id
 _symmetry_equiv_pos_as_xyz
  1  'x, y, z'
loop_
 _atom_site_type_symbol
 _atom_site_label
 _atom_site_symmetry_multiplicity
 _atom_site_fract_x
 _atom_site_fract_y
 _atom_site_fract_z
 _atom_site_occupancy
  Tm  Tm0  1  0.000000  0.000000  0.500000  1
  Tm  Tm1  1  0.000000  0.000000  0.000000  1
  Tm  Tm2  1  0.207721  0.792279  0.442728  1
  Tm  Tm3  1  0.207721  0.415442  0.442728  1
  Tm  Tm4  1  0.584558  0.792279  0.442728  1
  Tm  Tm5  1  0.792279  0.207721  0.557272  1
  Tm  Tm6  1  0.792279  0.584558  0.557272  1
  Tm  Tm7  1  0.415442  0.207721  0.557272  1
  Tm  Tm8  1  0.792279  0.207721  0.942728  1
  Tm  Tm9  1  0.792279  0.584558  0.942728  1
  Tm  Tm10  1  0.415442  0.207721  0.942728  1
  Tm  Tm11  1  0.207721  0.792279  0.057272  1
  Tm  Tm12  1  0.207721  0.415442  0.057272  1
  Tm  Tm13  1  0.584558  0.792279  0.057272  1
  Tm  Tm14  1  0.541078  0.458922  0.250000  1
  Tm  Tm15  1  0.541078  0.082156  0.250000  1
  Tm  Tm16  1  0.917844  0.458922  0.250000  1
  Tm  Tm17  1  0.458922  0.541078  0.750000  1
  Tm  Tm18  1  0.458922  0.917844  0.750000  1
  Tm  Tm19  1  0.082156  0.541078  0.750000  1
  Zn  Zn20  1  0.885963  0.114037  0.250000  1
  Zn  Zn21  1  0.885963  0.771927  0.250000  1
  Zn  Zn22  1  0.228073  0.114037  0.250000  1
  Zn  Zn23  1  0.114037  0.885963  0.750000  1
  Zn  Zn24  1  0.114037  0.228073  0.750000  1
  Zn  Zn25  1  0.771927  0.885963  0.750000  1
  Ru  Ru26  1  0.333333  0.666667  0.250000  1
  Ru  Ru27  1  0.666667  0.333333  0.750000  1
