# generated using pymatgen
data_Li8La4Er4Sn7Bi
_symmetry_space_group_name_H-M   'P 1'
_cell_length_a   9.52606703
_cell_length_b   9.52469067
_cell_length_c   7.59920904
_cell_angle_alpha   89.99574269
_cell_angle_beta   89.99299312
_cell_angle_gamma   119.99474333
_symmetry_Int_Tables_number   1
_chemical_formula_structural   Li8La4Er4Sn7Bi
_chemical_formula_sum   'Li8 La4 Er4 Sn7 Bi1'
_cell_volume   597.15425310
_cell_formula_units_Z   1
loop_
 _symmetry_equiv_pos_site_id
 _symmetry_equiv_pos_as_xyz
  1  'x, y, z'
loop_
 _atom_site_type_symbol
 _atom_site_label
 _atom_site_symmetry_multiplicity
 _atom_site_fract_x
 _atom_site_fract_y
 _atom_site_fract_z
 _atom_site_occupancy
  Li  Li0  1  0.164407  0.328937  0.290058  1
  Li  Li1  1  0.164460  0.835581  0.289527  1
  Li  Li2  1  0.671082  0.835631  0.290259  1
  Li  Li3  1  0.666631  0.333461  0.324606  1
  Li  Li4  1  0.833288  0.666425  0.692212  1
  Li  Li5  1  0.333617  0.166747  0.692424  1
  Li  Li6  1  0.833320  0.166706  0.692297  1
  Li  Li7  1  0.333411  0.666570  0.753088  1
  La  La8  1  0.999794  0.000019  0.000231  1
  La  La9  1  0.506772  0.013574  0.999956  1
  La  La10  1  0.506712  0.493133  0.999934  1
  La  La11  1  0.986091  0.493094  0.999996  1
  Er  Er12  1  0.000217  0.999982  0.501505  1
  Er  Er13  1  0.496630  0.993287  0.505273  1
  Er  Er14  1  0.006793  0.503421  0.505300  1
  Er  Er15  1  0.496680  0.503314  0.505247  1
  Sn  Sn16  1  0.832433  0.664970  0.273965  1
  Sn  Sn17  1  0.335219  0.167707  0.273758  1
  Sn  Sn18  1  0.832492  0.167652  0.274289  1
  Sn  Sn19  1  0.666647  0.333264  0.726175  1
  Sn  Sn20  1  0.166764  0.333521  0.738223  1
  Sn  Sn21  1  0.166802  0.833176  0.738519  1
  Sn  Sn22  1  0.666447  0.833173  0.738228  1
  Bi  Bi23  1  0.333292  0.666654  0.252914  1
