# generated using pymatgen
data_Sm4In(FeB3)2
_symmetry_space_group_name_H-M   'P 1'
_cell_length_a   5.39431037
_cell_length_b   5.39431150
_cell_length_c   8.34275595
_cell_angle_alpha   71.13781297
_cell_angle_beta   71.13780811
_cell_angle_gamma   60.00000231
_symmetry_Int_Tables_number   1
_chemical_formula_structural   Sm4In(FeB3)2
_chemical_formula_sum   'Sm4 In1 Fe2 B6'
_cell_volume   195.03989040
_cell_formula_units_Z   1
loop_
 _symmetry_equiv_pos_site_id
 _symmetry_equiv_pos_as_xyz
  1  'x, y, z'
loop_
 _atom_site_type_symbol
 _atom_site_label
 _atom_site_symmetry_multiplicity
 _atom_site_fract_x
 _atom_site_fract_y
 _atom_site_fract_z
 _atom_site_occupancy
  Sm  Sm0  1  0.747465  0.747465  0.757606  1
  Sm  Sm1  1  0.252535  0.252535  0.242394  1
  Sm  Sm2  1  0.585564  0.585564  0.243309  1
  Sm  Sm3  1  0.414436  0.414436  0.756691  1
  In  In4  1  0.000000  0.000000  0.000000  1
  Fe  Fe5  1  0.882344  0.882344  0.352970  1
  Fe  Fe6  1  0.117656  0.117656  0.647030  1
  B  B7  1  0.500000  0.167291  0.500000  1
  B  B8  1  0.832709  0.500000  0.500000  1
  B  B9  1  0.167291  0.832710  0.500000  1
  B  B10  1  0.167291  0.500000  0.500000  1
  B  B11  1  0.832709  0.167291  0.500000  1
  B  B12  1  0.500000  0.832709  0.500000  1
