# generated using pymatgen
data_Nd2Sc2ReB12Os
_symmetry_space_group_name_H-M   'P 1'
_cell_length_a   3.63394300
_cell_length_b   9.08437550
_cell_length_c   11.54084892
_cell_angle_alpha   90.05995426
_cell_angle_beta   90.00000000
_cell_angle_gamma   90.00000000
_symmetry_Int_Tables_number   1
_chemical_formula_structural   Nd2Sc2ReB12Os
_chemical_formula_sum   'Nd4 Sc4 Re2 B24 Os2'
_cell_volume   380.98748189
_cell_formula_units_Z   2
loop_
 _symmetry_equiv_pos_site_id
 _symmetry_equiv_pos_as_xyz
  1  'x, y, z'
loop_
 _atom_site_type_symbol
 _atom_site_label
 _atom_site_symmetry_multiplicity
 _atom_site_fract_x
 _atom_site_fract_y
 _atom_site_fract_z
 _atom_site_occupancy
  Nd  Nd0  1  0.000000  0.320251  0.413970  1
  Nd  Nd1  1  0.000000  0.679749  0.586030  1
  Nd  Nd2  1  0.000000  0.821994  0.084971  1
  Nd  Nd3  1  0.000000  0.178006  0.915029  1
  Sc  Sc4  1  0.000000  0.945231  0.370991  1
  Sc  Sc5  1  0.000000  0.054769  0.629009  1
  Sc  Sc6  1  0.000000  0.442653  0.128125  1
  Sc  Sc7  1  0.000000  0.557347  0.871875  1
  Re  Re8  1  0.000000  0.141265  0.182892  1
  Re  Re9  1  0.000000  0.858735  0.817108  1
  B  B10  1  0.500000  0.556486  0.430000  1
  B  B11  1  0.500000  0.443514  0.570000  1
  B  B12  1  0.500000  0.055667  0.069743  1
  B  B13  1  0.500000  0.944333  0.930257  1
  B  B14  1  0.500000  0.754131  0.415805  1
  B  B15  1  0.500000  0.245869  0.584195  1
  B  B16  1  0.500000  0.254400  0.083854  1
  B  B17  1  0.500000  0.745600  0.916146  1
  B  B18  1  0.500000  0.793180  0.265976  1
  B  B19  1  0.500000  0.206820  0.734024  1
  B  B20  1  0.500000  0.294152  0.234379  1
  B  B21  1  0.500000  0.705848  0.765621  1
  B  B22  1  0.500000  0.627884  0.184187  1
  B  B23  1  0.500000  0.372116  0.815813  1
  B  B24  1  0.500000  0.128392  0.316656  1
  B  B25  1  0.500000  0.871608  0.683344  1
  B  B26  1  0.500000  0.982867  0.215789  1
  B  B27  1  0.500000  0.017133  0.784211  1
  B  B28  1  0.500000  0.483288  0.285131  1
  B  B29  1  0.500000  0.516712  0.714869  1
  B  B30  1  0.500000  0.595042  0.025812  1
  B  B31  1  0.500000  0.404958  0.974188  1
  B  B32  1  0.500000  0.095626  0.474568  1
  B  B33  1  0.500000  0.904374  0.525432  1
  Os  Os34  1  0.000000  0.640653  0.317747  1
  Os  Os35  1  0.000000  0.359347  0.682253  1
