# generated using pymatgen
data_EuIn3(Pd2Au)4
_symmetry_space_group_name_H-M   'P 1'
_cell_length_a   5.96105400
_cell_length_b   5.96067800
_cell_length_c   7.79205800
_cell_angle_alpha   89.99971163
_cell_angle_beta   90.00036524
_cell_angle_gamma   89.99984621
_symmetry_Int_Tables_number   1
_chemical_formula_structural   EuIn3(Pd2Au)4
_chemical_formula_sum   'Eu1 In3 Pd8 Au4'
_cell_volume   276.86680825
_cell_formula_units_Z   1
loop_
 _symmetry_equiv_pos_site_id
 _symmetry_equiv_pos_as_xyz
  1  'x, y, z'
loop_
 _atom_site_type_symbol
 _atom_site_label
 _atom_site_symmetry_multiplicity
 _atom_site_fract_x
 _atom_site_fract_y
 _atom_site_fract_z
 _atom_site_occupancy
  Eu  Eu0  1  0.249724  0.250129  0.999843  1
  In  In1  1  0.749621  0.750136  0.999806  1
  In  In2  1  0.250273  0.249708  0.500231  1
  In  In3  1  0.750179  0.750001  0.500068  1
  Pd  Pd4  1  0.994051  0.994409  0.256064  1
  Pd  Pd5  1  0.994264  0.505389  0.256186  1
  Pd  Pd6  1  0.505673  0.994405  0.256339  1
  Pd  Pd7  1  0.505953  0.505740  0.256311  1
  Pd  Pd8  1  0.505976  0.994633  0.743648  1
  Pd  Pd9  1  0.505776  0.505550  0.743800  1
  Pd  Pd10  1  0.994170  0.994072  0.743918  1
  Pd  Pd11  1  0.994230  0.505627  0.743746  1
  Au  Au12  1  0.750043  0.250010  0.000009  1
  Au  Au13  1  0.250285  0.750128  0.999966  1
  Au  Au14  1  0.749893  0.249977  0.500080  1
  Au  Au15  1  0.249889  0.750092  0.499985  1
