# generated using pymatgen
data_Y4MgSc2AlPt4
_symmetry_space_group_name_H-M   'P 1'
_cell_length_a   4.47058100
_cell_length_b   7.10477678
_cell_length_c   8.24960664
_cell_angle_alpha   88.99432606
_cell_angle_beta   90.00000000
_cell_angle_gamma   90.00000000
_symmetry_Int_Tables_number   1
_chemical_formula_structural   Y4MgSc2AlPt4
_chemical_formula_sum   'Y4 Mg1 Sc2 Al1 Pt4'
_cell_volume   261.98760441
_cell_formula_units_Z   1
loop_
 _symmetry_equiv_pos_site_id
 _symmetry_equiv_pos_as_xyz
  1  'x, y, z'
loop_
 _atom_site_type_symbol
 _atom_site_label
 _atom_site_symmetry_multiplicity
 _atom_site_fract_x
 _atom_site_fract_y
 _atom_site_fract_z
 _atom_site_occupancy
  Y  Y0  1  0.250000  0.046205  0.676460  1
  Y  Y1  1  0.250000  0.516333  0.817642  1
  Y  Y2  1  0.750000  0.988664  0.337002  1
  Y  Y3  1  0.750000  0.459887  0.178165  1
  Mg  Mg4  1  0.250000  0.139509  0.069797  1
  Sc  Sc5  1  0.250000  0.638547  0.436100  1
  Sc  Sc6  1  0.750000  0.864825  0.933990  1
  Al  Al7  1  0.750000  0.363690  0.563338  1
  Pt  Pt8  1  0.250000  0.266437  0.389540  1
  Pt  Pt9  1  0.250000  0.742983  0.107366  1
  Pt  Pt10  1  0.750000  0.731876  0.616716  1
  Pt  Pt11  1  0.750000  0.241044  0.873887  1
