# generated using pymatgen
data_Sc6Al16Fe6Cu
_symmetry_space_group_name_H-M   'P 1'
_cell_length_a   8.57077216
_cell_length_b   8.57165375
_cell_length_c   8.57750500
_cell_angle_alpha   59.97742014
_cell_angle_beta   59.97401440
_cell_angle_gamma   60.00396347
_symmetry_Int_Tables_number   1
_chemical_formula_structural   Sc6Al16Fe6Cu
_chemical_formula_sum   'Sc6 Al16 Fe6 Cu1'
_cell_volume   445.43470446
_cell_formula_units_Z   1
loop_
 _symmetry_equiv_pos_site_id
 _symmetry_equiv_pos_as_xyz
  1  'x, y, z'
loop_
 _atom_site_type_symbol
 _atom_site_label
 _atom_site_symmetry_multiplicity
 _atom_site_fract_x
 _atom_site_fract_y
 _atom_site_fract_z
 _atom_site_occupancy
  Sc  Sc0  1  0.708122  0.291541  0.291550  1
  Sc  Sc1  1  0.708122  0.291541  0.708787  1
  Sc  Sc2  1  0.708330  0.709018  0.291326  1
  Sc  Sc3  1  0.291878  0.708459  0.708450  1
  Sc  Sc4  1  0.291878  0.708459  0.291213  1
  Sc  Sc5  1  0.291670  0.290982  0.708674  1
  Al  Al6  1  0.630260  0.122972  0.123385  1
  Al  Al7  1  0.122446  0.630419  0.123567  1
  Al  Al8  1  0.123002  0.123758  0.630527  1
  Al  Al9  1  0.123002  0.123758  0.122713  1
  Al  Al10  1  0.369740  0.877028  0.876615  1
  Al  Al11  1  0.877554  0.369581  0.876433  1
  Al  Al12  1  0.876998  0.876242  0.369473  1
  Al  Al13  1  0.876998  0.876242  0.877287  1
  Al  Al14  1  0.990784  0.336486  0.336365  1
  Al  Al15  1  0.335697  0.991796  0.336254  1
  Al  Al16  1  0.335874  0.336538  0.991492  1
  Al  Al17  1  0.335874  0.336538  0.336096  1
  Al  Al18  1  0.009216  0.663514  0.663635  1
  Al  Al19  1  0.664303  0.008204  0.663746  1
  Al  Al20  1  0.664126  0.663462  0.008508  1
  Al  Al21  1  0.664126  0.663462  0.663904  1
  Fe  Fe22  1  0.500000  0.000000  0.000000  1
  Fe  Fe23  1  0.500000  0.000000  0.500000  1
  Fe  Fe24  1  0.500000  0.500000  0.000000  1
  Fe  Fe25  1  0.000000  0.500000  0.500000  1
  Fe  Fe26  1  0.000000  0.500000  0.000000  1
  Fe  Fe27  1  0.000000  0.000000  0.500000  1
  Cu  Cu28  1  0.000000  0.000000  0.000000  1
