# generated using pymatgen
data_Y3LuRe3PN12
_symmetry_space_group_name_H-M   'P 1'
_cell_length_a   7.27742793
_cell_length_b   7.23767172
_cell_length_c   6.06679464
_cell_angle_alpha   74.19113195
_cell_angle_beta   74.35202549
_cell_angle_gamma   83.20075290
_symmetry_Int_Tables_number   1
_chemical_formula_structural   Y3LuRe3PN12
_chemical_formula_sum   'Y3 Lu1 Re3 P1 N12'
_cell_volume   295.71792509
_cell_formula_units_Z   1
loop_
 _symmetry_equiv_pos_site_id
 _symmetry_equiv_pos_as_xyz
  1  'x, y, z'
loop_
 _atom_site_type_symbol
 _atom_site_label
 _atom_site_symmetry_multiplicity
 _atom_site_fract_x
 _atom_site_fract_y
 _atom_site_fract_z
 _atom_site_occupancy
  Y  Y0  1  0.102382  0.906358  0.248829  1
  Y  Y1  1  0.699316  0.280386  0.258522  1
  Y  Y2  1  0.304378  0.705200  0.736693  1
  Lu  Lu3  1  0.901184  0.086232  0.761687  1
  Re  Re4  1  0.198359  0.380813  0.230743  1
  Re  Re5  1  0.381827  0.198042  0.729479  1
  Re  Re6  1  0.785600  0.627998  0.780767  1
  P  P7  1  0.617062  0.810298  0.272484  1
  N  N8  1  0.664041  0.650378  0.088596  1
  N  N9  1  0.392128  0.865770  0.330556  1
  N  N10  1  0.360918  0.350221  0.434617  1
  N  N11  1  0.122534  0.628179  0.145667  1
  N  N12  1  0.001704  0.216826  0.346078  1
  N  N13  1  0.771825  0.977164  0.156296  1
  N  N14  1  0.214150  0.005181  0.834187  1
  N  N15  1  0.632529  0.116316  0.659992  1
  N  N16  1  0.352706  0.358084  0.933605  1
  N  N17  1  0.862791  0.379804  0.837913  1
  N  N18  1  0.644958  0.678364  0.547568  1
  N  N19  1  0.989605  0.778387  0.665723  1
