# generated using pymatgen
data_Tb5Fe7Co8(P3Ru)4
_symmetry_space_group_name_H-M   'P 1'
_cell_length_a   12.07161683
_cell_length_b   12.10623318
_cell_length_c   3.72469400
_cell_angle_alpha   90.00000000
_cell_angle_beta   90.00000000
_cell_angle_gamma   120.14511686
_symmetry_Int_Tables_number   1
_chemical_formula_structural   Tb5Fe7Co8(P3Ru)4
_chemical_formula_sum   'Tb5 Fe7 Co8 P12 Ru4'
_cell_volume   470.71580679
_cell_formula_units_Z   1
loop_
 _symmetry_equiv_pos_site_id
 _symmetry_equiv_pos_as_xyz
  1  'x, y, z'
loop_
 _atom_site_type_symbol
 _atom_site_label
 _atom_site_symmetry_multiplicity
 _atom_site_fract_x
 _atom_site_fract_y
 _atom_site_fract_z
 _atom_site_occupancy
  Tb  Tb0  1  0.329580  0.666697  0.000000  1
  Tb  Tb1  1  0.666568  0.333345  0.000000  1
  Tb  Tb2  1  0.185128  0.998971  0.500000  1
  Tb  Tb3  1  0.000782  0.186846  0.500000  1
  Tb  Tb4  1  0.816346  0.816955  0.500000  1
  Fe  Fe5  1  0.198943  0.374682  0.000000  1
  Fe  Fe6  1  0.625617  0.827134  0.000000  1
  Fe  Fe7  1  0.178568  0.801430  0.000000  1
  Fe  Fe8  1  0.820878  0.623163  0.000000  1
  Fe  Fe9  1  0.803748  0.182477  0.000000  1
  Fe  Fe10  1  0.376308  0.194168  0.000000  1
  Fe  Fe11  1  0.121705  0.481692  0.500000  1
  Co  Co12  1  0.358569  0.876028  0.500000  1
  Co  Co13  1  0.641631  0.512172  0.500000  1
  Co  Co14  1  0.875512  0.361667  0.500000  1
  Co  Co15  1  0.485517  0.125152  0.500000  1
  Co  Co16  1  0.718182  0.004408  0.500000  1
  Co  Co17  1  0.999944  0.717061  0.500000  1
  Co  Co18  1  0.282779  0.280634  0.500000  1
  Co  Co19  1  0.999102  0.999669  0.000000  1
  P  P20  1  0.361580  0.998605  0.000000  1
  P  P21  1  0.003556  0.366112  0.000000  1
  P  P22  1  0.638163  0.635107  0.000000  1
  P  P23  1  0.303667  0.472970  0.500000  1
  P  P24  1  0.523176  0.838025  0.500000  1
  P  P25  1  0.165433  0.687760  0.500000  1
  P  P26  1  0.833394  0.523184  0.500000  1
  P  P27  1  0.691451  0.169818  0.500000  1
  P  P28  1  0.476477  0.307893  0.500000  1
  P  P29  1  0.818453  0.002957  0.000000  1
  P  P30  1  0.999931  0.817724  0.000000  1
  P  P31  1  0.182345  0.180725  0.000000  1
  Ru  Ru32  1  0.553626  0.001842  0.000000  1
  Ru  Ru33  1  0.998640  0.553557  0.000000  1
  Ru  Ru34  1  0.448792  0.439044  0.000000  1
  Ru  Ru35  1  0.515906  0.640325  0.500000  1
