# generated using pymatgen
data_Dy3Tl2Cd3Ir
_symmetry_space_group_name_H-M   'P 1'
_cell_length_a   8.24564600
_cell_length_b   8.24564521
_cell_length_c   3.67562000
_cell_angle_alpha   90.00000000
_cell_angle_beta   90.00000000
_cell_angle_gamma   120.00000315
_symmetry_Int_Tables_number   1
_chemical_formula_structural   Dy3Tl2Cd3Ir
_chemical_formula_sum   'Dy3 Tl2 Cd3 Ir1'
_cell_volume   216.42655882
_cell_formula_units_Z   1
loop_
 _symmetry_equiv_pos_site_id
 _symmetry_equiv_pos_as_xyz
  1  'x, y, z'
loop_
 _atom_site_type_symbol
 _atom_site_label
 _atom_site_symmetry_multiplicity
 _atom_site_fract_x
 _atom_site_fract_y
 _atom_site_fract_z
 _atom_site_occupancy
  Dy  Dy0  1  0.579998  0.955686  0.000000  1
  Dy  Dy1  1  0.044314  0.624311  0.000000  1
  Dy  Dy2  1  0.375689  0.420002  0.000000  1
  Tl  Tl3  1  0.666667  0.333333  0.500000  1
  Tl  Tl4  1  0.000000  0.000000  0.000000  1
  Cd  Cd5  1  0.288039  0.002342  0.500000  1
  Cd  Cd6  1  0.997658  0.285698  0.500000  1
  Cd  Cd7  1  0.714302  0.711961  0.500000  1
  Ir  Ir8  1  0.333333  0.666667  0.500000  1
