# generated using pymatgen
data_Zr3AlSi2Ir3
_symmetry_space_group_name_H-M   'P 1'
_cell_length_a   6.50364500
_cell_length_b   6.50364543
_cell_length_c   4.06673200
_cell_angle_alpha   90.00000000
_cell_angle_beta   90.00000000
_cell_angle_gamma   120.00000288
_symmetry_Int_Tables_number   1
_chemical_formula_structural   Zr3AlSi2Ir3
_chemical_formula_sum   'Zr3 Al1 Si2 Ir3'
_cell_volume   148.96692598
_cell_formula_units_Z   1
loop_
 _symmetry_equiv_pos_site_id
 _symmetry_equiv_pos_as_xyz
  1  'x, y, z'
loop_
 _atom_site_type_symbol
 _atom_site_label
 _atom_site_symmetry_multiplicity
 _atom_site_fract_x
 _atom_site_fract_y
 _atom_site_fract_z
 _atom_site_occupancy
  Zr  Zr0  1  0.562128  0.000000  0.500000  1
  Zr  Zr1  1  0.437873  0.437873  0.500000  1
  Zr  Zr2  1  0.000000  0.562127  0.500000  1
  Al  Al3  1  0.000000  0.000000  0.500000  1
  Si  Si4  1  0.666667  0.333334  0.000000  1
  Si  Si5  1  0.333333  0.666666  0.000000  1
  Ir  Ir6  1  0.248897  0.000000  0.000000  1
  Ir  Ir7  1  0.000000  0.248895  0.000000  1
  Ir  Ir8  1  0.751104  0.751105  0.000000  1
