# generated using pymatgen
data_YbDy2Y5(B6Os)4
_symmetry_space_group_name_H-M   'P 1'
_cell_length_a   3.65451400
_cell_length_b   9.16669222
_cell_length_c   11.54979466
_cell_angle_alpha   90.10685330
_cell_angle_beta   90.00000000
_cell_angle_gamma   90.00000000
_symmetry_Int_Tables_number   1
_chemical_formula_structural   YbDy2Y5(B6Os)4
_chemical_formula_sum   'Yb1 Dy2 Y5 B24 Os4'
_cell_volume   386.91519665
_cell_formula_units_Z   1
loop_
 _symmetry_equiv_pos_site_id
 _symmetry_equiv_pos_as_xyz
  1  'x, y, z'
loop_
 _atom_site_type_symbol
 _atom_site_label
 _atom_site_symmetry_multiplicity
 _atom_site_fract_x
 _atom_site_fract_y
 _atom_site_fract_z
 _atom_site_occupancy
  Yb  Yb0  1  0.000000  0.823078  0.086363  1
  Dy  Dy1  1  0.000000  0.322434  0.413506  1
  Dy  Dy2  1  0.000000  0.678042  0.585502  1
  Y  Y3  1  0.000000  0.176444  0.914950  1
  Y  Y4  1  0.000000  0.942833  0.371154  1
  Y  Y5  1  0.000000  0.056244  0.627136  1
  Y  Y6  1  0.000000  0.443861  0.128035  1
  Y  Y7  1  0.000000  0.558146  0.872923  1
  B  B8  1  0.500000  0.553068  0.433233  1
  B  B9  1  0.500000  0.446266  0.567502  1
  B  B10  1  0.500000  0.053256  0.067551  1
  B  B11  1  0.500000  0.945972  0.932871  1
  B  B12  1  0.500000  0.746866  0.419100  1
  B  B13  1  0.500000  0.252463  0.580572  1
  B  B14  1  0.500000  0.247507  0.081156  1
  B  B15  1  0.500000  0.752939  0.919146  1
  B  B16  1  0.500000  0.789368  0.266126  1
  B  B17  1  0.500000  0.210016  0.733558  1
  B  B18  1  0.500000  0.290646  0.233831  1
  B  B19  1  0.500000  0.710360  0.766023  1
  B  B20  1  0.500000  0.631310  0.186236  1
  B  B21  1  0.500000  0.368898  0.814360  1
  B  B22  1  0.500000  0.131647  0.313620  1
  B  B23  1  0.500000  0.868546  0.685308  1
  B  B24  1  0.500000  0.983280  0.211918  1
  B  B25  1  0.500000  0.016388  0.787445  1
  B  B26  1  0.500000  0.483293  0.288306  1
  B  B27  1  0.500000  0.516878  0.712534  1
  B  B28  1  0.500000  0.604950  0.029330  1
  B  B29  1  0.500000  0.394424  0.970738  1
  B  B30  1  0.500000  0.108260  0.469647  1
  B  B31  1  0.500000  0.891788  0.529600  1
  Os  Os32  1  0.000000  0.636055  0.322818  1
  Os  Os33  1  0.000000  0.363127  0.678343  1
  Os  Os34  1  0.000000  0.138661  0.179118  1
  Os  Os35  1  0.000000  0.862684  0.820440  1
