# generated using pymatgen
data_Sm2YLuNi13C4
_symmetry_space_group_name_H-M   'P 1'
_cell_length_a   8.39851401
_cell_length_b   8.39851302
_cell_length_c   3.87322200
_cell_angle_alpha   90.00000000
_cell_angle_beta   90.00000000
_cell_angle_gamma   90.95106914
_symmetry_Int_Tables_number   1
_chemical_formula_structural   Sm2YLuNi13C4
_chemical_formula_sum   'Sm2 Y1 Lu1 Ni13 C4'
_cell_volume   273.16019007
_cell_formula_units_Z   1
loop_
 _symmetry_equiv_pos_site_id
 _symmetry_equiv_pos_as_xyz
  1  'x, y, z'
loop_
 _atom_site_type_symbol
 _atom_site_label
 _atom_site_symmetry_multiplicity
 _atom_site_fract_x
 _atom_site_fract_y
 _atom_site_fract_z
 _atom_site_occupancy
  Sm  Sm0  1  0.845961  0.848703  0.000000  1
  Sm  Sm1  1  0.151297  0.154039  0.000000  1
  Y  Y2  1  0.313194  0.686806  0.000000  1
  Lu  Lu3  1  0.688174  0.311826  0.000000  1
  Ni  Ni4  1  0.503564  0.496436  0.500000  1
  Ni  Ni5  1  0.713507  0.073190  0.500000  1
  Ni  Ni6  1  0.284323  0.930741  0.500000  1
  Ni  Ni7  1  0.926810  0.286493  0.500000  1
  Ni  Ni8  1  0.069259  0.715677  0.500000  1
  Ni  Ni9  1  0.498606  0.007741  0.000000  1
  Ni  Ni10  1  0.992259  0.501394  0.000000  1
  Ni  Ni11  1  0.571887  0.788272  0.500000  1
  Ni  Ni12  1  0.431981  0.209292  0.500000  1
  Ni  Ni13  1  0.211728  0.428113  0.500000  1
  Ni  Ni14  1  0.790708  0.568019  0.500000  1
  Ni  Ni15  1  0.624211  0.617856  0.000000  1
  Ni  Ni16  1  0.382144  0.375789  0.000000  1
  C  C17  1  0.500300  0.997178  0.500000  1
  C  C18  1  0.002822  0.499700  0.500000  1
  C  C19  1  0.941593  0.058407  0.500000  1
  C  C20  1  0.055670  0.944330  0.500000  1
