# generated using pymatgen
data_Hf4Sc3Co8Si14Mo
_symmetry_space_group_name_H-M   'P 1'
_cell_length_a   9.39931716
_cell_length_b   9.40018365
_cell_length_c   9.39108090
_cell_angle_alpha   94.10699052
_cell_angle_beta   94.11110304
_cell_angle_gamma   148.96039186
_symmetry_Int_Tables_number   1
_chemical_formula_structural   Hf4Sc3Co8Si14Mo
_chemical_formula_sum   'Hf4 Sc3 Co8 Si14 Mo1'
_cell_volume   412.21841421
_cell_formula_units_Z   1
loop_
 _symmetry_equiv_pos_site_id
 _symmetry_equiv_pos_as_xyz
  1  'x, y, z'
loop_
 _atom_site_type_symbol
 _atom_site_label
 _atom_site_symmetry_multiplicity
 _atom_site_fract_x
 _atom_site_fract_y
 _atom_site_fract_z
 _atom_site_occupancy
  Hf  Hf0  1  0.304660  0.500880  0.805562  1
  Hf  Hf1  1  0.695208  0.502517  0.197665  1
  Hf  Hf2  1  0.502486  0.695225  0.197678  1
  Hf  Hf3  1  0.500884  0.304667  0.805590  1
  Sc  Sc4  1  0.863123  0.863136  0.726332  1
  Sc  Sc5  1  0.138040  0.861028  0.999094  1
  Sc  Sc6  1  0.861072  0.138057  0.999092  1
  Co  Co7  1  0.102955  0.602955  0.206007  1
  Co  Co8  1  0.397957  0.897929  0.795771  1
  Co  Co9  1  0.898407  0.102422  0.498042  1
  Co  Co10  1  0.599547  0.395530  0.498009  1
  Co  Co11  1  0.603013  0.103010  0.206001  1
  Co  Co12  1  0.897847  0.397859  0.795752  1
  Co  Co13  1  0.102575  0.898559  0.498047  1
  Co  Co14  1  0.395599  0.599616  0.498039  1
  Si  Si15  1  0.286274  0.286264  0.572569  1
  Si  Si16  1  0.710847  0.710833  0.421574  1
  Si  Si17  1  0.290800  0.709953  0.000773  1
  Si  Si18  1  0.709969  0.290786  0.000744  1
  Si  Si19  1  0.091777  0.500660  0.592447  1
  Si  Si20  1  0.908373  0.500024  0.408412  1
  Si  Si21  1  0.500007  0.908372  0.408418  1
  Si  Si22  1  0.500673  0.091801  0.592437  1
  Si  Si23  1  0.251327  0.251354  0.006283  1
  Si  Si24  1  0.754948  0.754951  0.006300  1
  Si  Si25  1  0.297137  0.002165  0.299278  1
  Si  Si26  1  0.698786  0.999535  0.698272  1
  Si  Si27  1  0.999518  0.698758  0.698240  1
  Si  Si28  1  0.002121  0.297098  0.299248  1
  Mo  Mo29  1  0.134069  0.134056  0.268322  1
