# generated using pymatgen
data_LiLa15PrCd3Co4
_symmetry_space_group_name_H-M   'P 1'
_cell_length_a   9.99110742
_cell_length_b   9.96655385
_cell_length_c   9.96193200
_cell_angle_alpha   60.01534573
_cell_angle_beta   60.09655709
_cell_angle_gamma   60.05364697
_symmetry_Int_Tables_number   1
_chemical_formula_structural   LiLa15PrCd3Co4
_chemical_formula_sum   'Li1 La15 Pr1 Cd3 Co4'
_cell_volume   702.31124244
_cell_formula_units_Z   1
loop_
 _symmetry_equiv_pos_site_id
 _symmetry_equiv_pos_as_xyz
  1  'x, y, z'
loop_
 _atom_site_type_symbol
 _atom_site_label
 _atom_site_symmetry_multiplicity
 _atom_site_fract_x
 _atom_site_fract_y
 _atom_site_fract_z
 _atom_site_occupancy
  Li  Li0  1  0.211564  0.929494  0.929471  1
  La  La1  1  0.559989  0.939688  0.561615  1
  La  La2  1  0.559989  0.939688  0.938708  1
  La  La3  1  0.692142  0.690207  0.308826  1
  La  La4  1  0.155616  0.154832  0.533668  1
  La  La5  1  0.313440  0.687255  0.686345  1
  La  La6  1  0.155616  0.154832  0.155883  1
  La  La7  1  0.537546  0.154278  0.154087  1
  La  La8  1  0.313440  0.687255  0.312961  1
  La  La9  1  0.313625  0.313548  0.686414  1
  La  La10  1  0.691862  0.308609  0.689957  1
  La  La11  1  0.941191  0.559467  0.559403  1
  La  La12  1  0.559343  0.560562  0.940047  1
  La  La13  1  0.155434  0.534710  0.154928  1
  La  La14  1  0.691862  0.308609  0.309573  1
  La  La15  1  0.941191  0.559467  0.939938  1
  Pr  Pr16  1  0.940010  0.939405  0.560292  1
  Cd  Cd17  1  0.922093  0.920618  0.919491  1
  Cd  Cd18  1  0.922093  0.920618  0.237797  1
  Cd  Cd19  1  0.921317  0.237845  0.920418  1
  Co  Co20  1  0.922814  0.359022  0.359081  1
  Co  Co21  1  0.359155  0.360204  0.919403  1
  Co  Co22  1  0.359515  0.919579  0.360453  1
  Co  Co23  1  0.359155  0.360204  0.361239  1
