# generated using pymatgen
data_LaGd5Co2
_symmetry_space_group_name_H-M   'P 1'
_cell_length_a   6.38563600
_cell_length_b   6.98802512
_cell_length_c   9.58402900
_cell_angle_alpha   90.00000000
_cell_angle_beta   90.00000000
_cell_angle_gamma   91.39533597
_symmetry_Int_Tables_number   1
_chemical_formula_structural   LaGd5Co2
_chemical_formula_sum   'La2 Gd10 Co4'
_cell_volume   427.54116616
_cell_formula_units_Z   2
loop_
 _symmetry_equiv_pos_site_id
 _symmetry_equiv_pos_as_xyz
  1  'x, y, z'
loop_
 _atom_site_type_symbol
 _atom_site_label
 _atom_site_symmetry_multiplicity
 _atom_site_fract_x
 _atom_site_fract_y
 _atom_site_fract_z
 _atom_site_occupancy
  La  La0  1  0.357870  0.554439  0.250000  1
  La  La1  1  0.642130  0.445561  0.750000  1
  Gd  Gd2  1  0.825456  0.673664  0.067705  1
  Gd  Gd3  1  0.675749  0.168472  0.071602  1
  Gd  Gd4  1  0.174544  0.326336  0.932295  1
  Gd  Gd5  1  0.324251  0.831528  0.571602  1
  Gd  Gd6  1  0.859118  0.953494  0.750000  1
  Gd  Gd7  1  0.140882  0.046506  0.250000  1
  Gd  Gd8  1  0.174544  0.326336  0.567705  1
  Gd  Gd9  1  0.675749  0.168472  0.428398  1
  Gd  Gd10  1  0.324251  0.831528  0.928398  1
  Gd  Gd11  1  0.825456  0.673664  0.432295  1
  Co  Co12  1  0.547213  0.880173  0.250000  1
  Co  Co13  1  0.452787  0.119827  0.750000  1
  Co  Co14  1  0.046462  0.612718  0.750000  1
  Co  Co15  1  0.953538  0.387282  0.250000  1
