# generated using pymatgen
data_LiHoB6Os
_symmetry_space_group_name_H-M   'P 1'
_cell_length_a   3.50773700
_cell_length_b   8.85831000
_cell_length_c   11.20268600
_cell_angle_alpha   90.00000000
_cell_angle_beta   90.00000000
_cell_angle_gamma   90.00000000
_symmetry_Int_Tables_number   1
_chemical_formula_structural   LiHoB6Os
_chemical_formula_sum   'Li4 Ho4 B24 Os4'
_cell_volume   348.09682460
_cell_formula_units_Z   4
loop_
 _symmetry_equiv_pos_site_id
 _symmetry_equiv_pos_as_xyz
  1  'x, y, z'
loop_
 _atom_site_type_symbol
 _atom_site_label
 _atom_site_symmetry_multiplicity
 _atom_site_fract_x
 _atom_site_fract_y
 _atom_site_fract_z
 _atom_site_occupancy
  Li  Li0  1  0.000000  0.944150  0.372055  1
  Li  Li1  1  0.000000  0.055850  0.627945  1
  Li  Li2  1  0.000000  0.444150  0.127945  1
  Li  Li3  1  0.000000  0.555850  0.872055  1
  Ho  Ho4  1  0.000000  0.321412  0.412981  1
  Ho  Ho5  1  0.000000  0.678588  0.587019  1
  Ho  Ho6  1  0.000000  0.821412  0.087019  1
  Ho  Ho7  1  0.000000  0.178588  0.912981  1
  B  B8  1  0.500000  0.554209  0.432838  1
  B  B9  1  0.500000  0.445791  0.567162  1
  B  B10  1  0.500000  0.054209  0.067162  1
  B  B11  1  0.500000  0.945791  0.932838  1
  B  B12  1  0.500000  0.758823  0.417964  1
  B  B13  1  0.500000  0.241177  0.582036  1
  B  B14  1  0.500000  0.258823  0.082036  1
  B  B15  1  0.500000  0.741177  0.917964  1
  B  B16  1  0.500000  0.794980  0.264060  1
  B  B17  1  0.500000  0.205020  0.735939  1
  B  B18  1  0.500000  0.294980  0.235940  1
  B  B19  1  0.500000  0.705020  0.764061  1
  B  B20  1  0.500000  0.625427  0.181515  1
  B  B21  1  0.500000  0.374573  0.818485  1
  B  B22  1  0.500000  0.125427  0.318485  1
  B  B23  1  0.500000  0.874573  0.681515  1
  B  B24  1  0.500000  0.978828  0.214283  1
  B  B25  1  0.500000  0.021172  0.785717  1
  B  B26  1  0.500000  0.478828  0.285717  1
  B  B27  1  0.500000  0.521172  0.714283  1
  B  B28  1  0.500000  0.592498  0.025655  1
  B  B29  1  0.500000  0.407502  0.974345  1
  B  B30  1  0.500000  0.092498  0.474345  1
  B  B31  1  0.500000  0.907502  0.525655  1
  Os  Os32  1  0.000000  0.641100  0.318788  1
  Os  Os33  1  0.000000  0.358900  0.681212  1
  Os  Os34  1  0.000000  0.141100  0.181212  1
  Os  Os35  1  0.000000  0.858900  0.818788  1
