# generated using pymatgen
data_Cs2CoH7
_symmetry_space_group_name_H-M   'P 1'
_cell_length_a   6.10869888
_cell_length_b   6.28004040
_cell_length_c   6.24789506
_cell_angle_alpha   97.18256800
_cell_angle_beta   115.43856757
_cell_angle_gamma   117.12090393
_symmetry_Int_Tables_number   1
_chemical_formula_structural   Cs2CoH7
_chemical_formula_sum   'Cs2 Co1 H7'
_cell_volume   176.63444403
_cell_formula_units_Z   1
loop_
 _symmetry_equiv_pos_site_id
 _symmetry_equiv_pos_as_xyz
  1  'x, y, z'
loop_
 _atom_site_type_symbol
 _atom_site_label
 _atom_site_symmetry_multiplicity
 _atom_site_fract_x
 _atom_site_fract_y
 _atom_site_fract_z
 _atom_site_occupancy
  Cs  Cs0  1  0.109794  0.085820  0.986171  1
  Cs  Cs1  1  0.113792  0.588397  0.480158  1
  Co  Co2  1  0.613938  0.345167  0.742167  1
  H  H3  1  0.627058  0.171828  0.567890  1
  H  H4  1  0.951474  0.500424  0.894349  1
  H  H5  1  0.493284  0.466242  0.848250  1
  H  H6  1  0.279937  0.151126  0.551117  1
  H  H7  1  0.607217  0.168590  0.895471  1
  H  H8  1  0.621731  0.504664  0.571684  1
  H  H9  1  0.700534  0.559547  0.973080  1
