# generated using pymatgen
data_Cs2RbTi3F12
_symmetry_space_group_name_H-M   'P 1'
_cell_length_a   7.69382715
_cell_length_b   7.69382577
_cell_length_c   13.46077800
_cell_angle_alpha   74.11502514
_cell_angle_beta   74.11502808
_cell_angle_gamma   60.07756253
_symmetry_Int_Tables_number   1
_chemical_formula_structural   Cs2RbTi3F12
_chemical_formula_sum   'Cs4 Rb2 Ti6 F24'
_cell_volume   655.17006256
_cell_formula_units_Z   2
loop_
 _symmetry_equiv_pos_site_id
 _symmetry_equiv_pos_as_xyz
  1  'x, y, z'
loop_
 _atom_site_type_symbol
 _atom_site_label
 _atom_site_symmetry_multiplicity
 _atom_site_fract_x
 _atom_site_fract_y
 _atom_site_fract_z
 _atom_site_occupancy
  Cs  Cs0  1  0.903076  0.472833  0.678359  1
  Cs  Cs1  1  0.096924  0.527167  0.321641  1
  Cs  Cs2  1  0.527167  0.096924  0.821641  1
  Cs  Cs3  1  0.472833  0.903076  0.178359  1
  Rb  Rb4  1  0.223863  0.776137  0.750000  1
  Rb  Rb5  1  0.776137  0.223863  0.250000  1
  Ti  Ti6  1  0.500000  0.000000  0.500000  1
  Ti  Ti7  1  0.000000  0.500000  0.000000  1
  Ti  Ti8  1  0.000000  0.000000  0.500000  1
  Ti  Ti9  1  0.000000  0.000000  0.000000  1
  Ti  Ti10  1  0.500000  0.500000  0.500000  1
  Ti  Ti11  1  0.500000  0.500000  0.000000  1
  F  F12  1  0.887439  0.976499  0.644753  1
  F  F13  1  0.523673  0.894350  0.644388  1
  F  F14  1  0.284256  0.404195  0.027781  1
  F  F15  1  0.696768  0.195044  0.028341  1
  F  F16  1  0.894350  0.523673  0.144388  1
  F  F17  1  0.105650  0.476327  0.855612  1
  F  F18  1  0.476327  0.105650  0.355612  1
  F  F19  1  0.804956  0.303232  0.471659  1
  F  F20  1  0.112561  0.023501  0.355247  1
  F  F21  1  0.595805  0.715744  0.472219  1
  F  F22  1  0.452846  0.513679  0.144384  1
  F  F23  1  0.404195  0.284256  0.527781  1
  F  F24  1  0.513679  0.452846  0.644384  1
  F  F25  1  0.804002  0.927617  0.463658  1
  F  F26  1  0.195998  0.072383  0.536342  1
  F  F27  1  0.547154  0.486321  0.855616  1
  F  F28  1  0.927617  0.804002  0.963658  1
  F  F29  1  0.486321  0.547154  0.355616  1
  F  F30  1  0.715744  0.595805  0.972219  1
  F  F31  1  0.976499  0.887439  0.144753  1
  F  F32  1  0.072383  0.195998  0.036342  1
  F  F33  1  0.303232  0.804956  0.971659  1
  F  F34  1  0.023501  0.112561  0.855247  1
  F  F35  1  0.195044  0.696768  0.528341  1
