# generated using pymatgen
data_Ho6Co17P12Os
_symmetry_space_group_name_H-M   'P 1'
_cell_length_a   3.69660200
_cell_length_b   10.49873100
_cell_length_c   12.19870600
_cell_angle_alpha   90.00000000
_cell_angle_beta   90.00000000
_cell_angle_gamma   90.00000000
_symmetry_Int_Tables_number   1
_chemical_formula_structural   Ho6Co17P12Os
_chemical_formula_sum   'Ho6 Co17 P12 Os1'
_cell_volume   473.42726649
_cell_formula_units_Z   1
loop_
 _symmetry_equiv_pos_site_id
 _symmetry_equiv_pos_as_xyz
  1  'x, y, z'
loop_
 _atom_site_type_symbol
 _atom_site_label
 _atom_site_symmetry_multiplicity
 _atom_site_fract_x
 _atom_site_fract_y
 _atom_site_fract_z
 _atom_site_occupancy
  Ho  Ho0  1  0.000000  0.500000  0.524027  1
  Ho  Ho1  1  0.500000  0.000000  0.478352  1
  Ho  Ho2  1  0.500000  0.817692  0.207215  1
  Ho  Ho3  1  0.500000  0.182308  0.207215  1
  Ho  Ho4  1  0.000000  0.682789  0.793969  1
  Ho  Ho5  1  0.000000  0.317211  0.793969  1
  Co  Co6  1  0.000000  0.500000  0.987934  1
  Co  Co7  1  0.500000  0.000000  0.014461  1
  Co  Co8  1  0.500000  0.297481  0.430127  1
  Co  Co9  1  0.500000  0.702519  0.430127  1
  Co  Co10  1  0.000000  0.202979  0.568768  1
  Co  Co11  1  0.000000  0.797021  0.568768  1
  Co  Co12  1  0.500000  0.878887  0.709407  1
  Co  Co13  1  0.500000  0.121113  0.709407  1
  Co  Co14  1  0.000000  0.620540  0.290762  1
  Co  Co15  1  0.000000  0.379460  0.290762  1
  Co  Co16  1  0.500000  0.332760  0.991262  1
  Co  Co17  1  0.500000  0.667240  0.991262  1
  Co  Co18  1  0.000000  0.166956  0.006045  1
  Co  Co19  1  0.000000  0.833044  0.006045  1
  Co  Co20  1  0.000000  0.000000  0.840193  1
  Co  Co21  1  0.500000  0.500000  0.703446  1
  Co  Co22  1  0.000000  0.000000  0.295745  1
  P  P23  1  0.500000  0.311412  0.616351  1
  P  P24  1  0.500000  0.688588  0.616351  1
  P  P25  1  0.000000  0.187934  0.384088  1
  P  P26  1  0.000000  0.812066  0.384088  1
  P  P27  1  0.500000  0.500000  0.880781  1
  P  P28  1  0.000000  0.000000  0.117351  1
  P  P29  1  0.500000  0.848911  0.892083  1
  P  P30  1  0.500000  0.151089  0.892083  1
  P  P31  1  0.000000  0.655757  0.106299  1
  P  P32  1  0.000000  0.344243  0.106299  1
  P  P33  1  0.500000  0.500000  0.350664  1
  P  P34  1  0.000000  0.000000  0.655602  1
  Os  Os35  1  0.500000  0.500000  0.158692  1
