# generated using pymatgen
data_Y16In6NiRh
_symmetry_space_group_name_H-M   'P 1'
_cell_length_a   10.46813800
_cell_length_b   10.46813899
_cell_length_c   7.10298000
_cell_angle_alpha   90.00000000
_cell_angle_beta   90.00000000
_cell_angle_gamma   120.00000320
_symmetry_Int_Tables_number   1
_chemical_formula_structural   Y16In6NiRh
_chemical_formula_sum   'Y16 In6 Ni1 Rh1'
_cell_volume   674.07796228
_cell_formula_units_Z   1
loop_
 _symmetry_equiv_pos_site_id
 _symmetry_equiv_pos_as_xyz
  1  'x, y, z'
loop_
 _atom_site_type_symbol
 _atom_site_label
 _atom_site_symmetry_multiplicity
 _atom_site_fract_x
 _atom_site_fract_y
 _atom_site_fract_z
 _atom_site_occupancy
  Y  Y0  1  0.466708  0.533292  0.480258  1
  Y  Y1  1  0.066583  0.533292  0.480258  1
  Y  Y2  1  0.466708  0.933417  0.480258  1
  Y  Y3  1  0.534015  0.465985  0.979568  1
  Y  Y4  1  0.931971  0.465985  0.979568  1
  Y  Y5  1  0.534015  0.068029  0.979568  1
  Y  Y6  1  0.823190  0.176810  0.274969  1
  Y  Y7  1  0.353622  0.176810  0.274969  1
  Y  Y8  1  0.823190  0.646378  0.274969  1
  Y  Y9  1  0.176106  0.823894  0.776041  1
  Y  Y10  1  0.647786  0.823894  0.776041  1
  Y  Y11  1  0.176106  0.352214  0.776041  1
  Y  Y12  1  0.333333  0.666667  0.100507  1
  Y  Y13  1  0.666667  0.333333  0.596030  1
  Y  Y14  1  0.000000  0.000000  0.496300  1
  Y  Y15  1  0.000000  0.000000  0.999016  1
  In  In16  1  0.162529  0.837471  0.234348  1
  In  In17  1  0.674941  0.837471  0.234348  1
  In  In18  1  0.162529  0.325059  0.234348  1
  In  In19  1  0.836742  0.163258  0.733313  1
  In  In20  1  0.326518  0.163258  0.733313  1
  In  In21  1  0.836742  0.673482  0.733313  1
  Ni  Ni22  1  0.666667  0.333333  0.209504  1
  Rh  Rh23  1  0.333333  0.666667  0.707702  1
