# generated using pymatgen
data_LaPrNd2(ZnSn)4
_symmetry_space_group_name_H-M   'P 1'
_cell_length_a   4.59479200
_cell_length_b   4.59479335
_cell_length_c   16.73980800
_cell_angle_alpha   90.00000000
_cell_angle_beta   90.00000000
_cell_angle_gamma   120.00001909
_symmetry_Int_Tables_number   1
_chemical_formula_structural   LaPrNd2(ZnSn)4
_chemical_formula_sum   'La1 Pr1 Nd2 Zn4 Sn4'
_cell_volume   306.06443046
_cell_formula_units_Z   1
loop_
 _symmetry_equiv_pos_site_id
 _symmetry_equiv_pos_as_xyz
  1  'x, y, z'
loop_
 _atom_site_type_symbol
 _atom_site_label
 _atom_site_symmetry_multiplicity
 _atom_site_fract_x
 _atom_site_fract_y
 _atom_site_fract_z
 _atom_site_occupancy
  La  La0  1  0.000000  0.000000  0.000000  1
  Pr  Pr1  1  0.000000  0.000000  0.500000  1
  Nd  Nd2  1  0.000000  0.000000  0.251095  1
  Nd  Nd3  1  0.000000  0.000000  0.748905  1
  Zn  Zn4  1  0.333333  0.666667  0.341809  1
  Zn  Zn5  1  0.666667  0.333333  0.658191  1
  Zn  Zn6  1  0.666667  0.333333  0.841355  1
  Zn  Zn7  1  0.333333  0.666667  0.158645  1
  Sn  Sn8  1  0.333333  0.666667  0.882483  1
  Sn  Sn9  1  0.666667  0.333333  0.117517  1
  Sn  Sn10  1  0.666667  0.333333  0.384041  1
  Sn  Sn11  1  0.333333  0.666667  0.615959  1
