# generated using pymatgen
data_Ba8DyY3(WO6)4
_symmetry_space_group_name_H-M   'P 1'
_cell_length_a   8.54064983
_cell_length_b   8.54064983
_cell_length_c   8.54064983
_cell_angle_alpha   90.14034495
_cell_angle_beta   90.14034495
_cell_angle_gamma   90.14034495
_symmetry_Int_Tables_number   1
_chemical_formula_structural   Ba8DyY3(WO6)4
_chemical_formula_sum   'Ba8 Dy1 Y3 W4 O24'
_cell_volume   622.97243765
_cell_formula_units_Z   1
loop_
 _symmetry_equiv_pos_site_id
 _symmetry_equiv_pos_as_xyz
  1  'x, y, z'
loop_
 _atom_site_type_symbol
 _atom_site_label
 _atom_site_symmetry_multiplicity
 _atom_site_fract_x
 _atom_site_fract_y
 _atom_site_fract_z
 _atom_site_occupancy
  Ba  Ba0  1  0.498222  0.498222  0.498222  1
  Ba  Ba1  1  0.001778  0.001778  0.001778  1
  Ba  Ba2  1  0.002023  0.002300  0.498604  1
  Ba  Ba3  1  0.002300  0.498604  0.002023  1
  Ba  Ba4  1  0.498604  0.002023  0.002300  1
  Ba  Ba5  1  0.497977  0.497700  0.001396  1
  Ba  Ba6  1  0.497700  0.001396  0.497977  1
  Ba  Ba7  1  0.001396  0.497977  0.497700  1
  Dy  Dy8  1  0.250000  0.250000  0.250000  1
  Y  Y9  1  0.250000  0.750000  0.750000  1
  Y  Y10  1  0.750000  0.250000  0.750000  1
  Y  Y11  1  0.750000  0.750000  0.250000  1
  W  W12  1  0.750000  0.750000  0.750000  1
  W  W13  1  0.750000  0.250000  0.250000  1
  W  W14  1  0.250000  0.750000  0.250000  1
  W  W15  1  0.250000  0.250000  0.750000  1
  O  O16  1  0.242757  0.259472  0.511922  1
  O  O17  1  0.243362  0.742776  0.481111  1
  O  O18  1  0.758701  0.258972  0.489269  1
  O  O19  1  0.761008  0.744814  0.513475  1
  O  O20  1  0.259472  0.511922  0.242757  1
  O  O21  1  0.742776  0.481111  0.243362  1
  O  O22  1  0.258972  0.489269  0.758701  1
  O  O23  1  0.744814  0.513475  0.761008  1
  O  O24  1  0.511922  0.242757  0.259472  1
  O  O25  1  0.481111  0.243362  0.742776  1
  O  O26  1  0.489269  0.758701  0.258972  1
  O  O27  1  0.513475  0.761008  0.744814  1
  O  O28  1  0.257243  0.240528  0.988078  1
  O  O29  1  0.256638  0.757224  0.018889  1
  O  O30  1  0.741299  0.241028  0.010731  1
  O  O31  1  0.738992  0.755186  0.986525  1
  O  O32  1  0.240528  0.988078  0.257243  1
  O  O33  1  0.757224  0.018889  0.256638  1
  O  O34  1  0.241028  0.010731  0.741299  1
  O  O35  1  0.755186  0.986525  0.738992  1
  O  O36  1  0.988078  0.257243  0.240528  1
  O  O37  1  0.018889  0.256638  0.757224  1
  O  O38  1  0.010731  0.741299  0.241028  1
  O  O39  1  0.986525  0.738992  0.755186  1
