# generated using pymatgen
data_Y2BeCoSi4
_symmetry_space_group_name_H-M   'P 1'
_cell_length_a   8.44333051
_cell_length_b   8.44333068
_cell_length_c   3.92394100
_cell_angle_alpha   90.00000000
_cell_angle_beta   90.00000000
_cell_angle_gamma   152.40248674
_symmetry_Int_Tables_number   1
_chemical_formula_structural   Y2BeCoSi4
_chemical_formula_sum   'Y2 Be1 Co1 Si4'
_cell_volume   129.59032645
_cell_formula_units_Z   1
loop_
 _symmetry_equiv_pos_site_id
 _symmetry_equiv_pos_as_xyz
  1  'x, y, z'
loop_
 _atom_site_type_symbol
 _atom_site_label
 _atom_site_symmetry_multiplicity
 _atom_site_fract_x
 _atom_site_fract_y
 _atom_site_fract_z
 _atom_site_occupancy
  Y  Y0  1  0.898820  0.101180  0.750000  1
  Y  Y1  1  0.113490  0.886510  0.250000  1
  Be  Be2  1  0.671326  0.328674  0.750000  1
  Co  Co3  1  0.318072  0.681928  0.250000  1
  Si  Si4  1  0.537810  0.462190  0.750000  1
  Si  Si5  1  0.455152  0.544848  0.250000  1
  Si  Si6  1  0.251485  0.748515  0.750000  1
  Si  Si7  1  0.753845  0.246155  0.250000  1
