# generated using pymatgen
data_K6Cr(SiO4)2
_symmetry_space_group_name_H-M   'P 1'
_cell_length_a   6.32850887
_cell_length_b   6.85531868
_cell_length_c   7.67666121
_cell_angle_alpha   82.68758030
_cell_angle_beta   87.01636148
_cell_angle_gamma   69.63769645
_symmetry_Int_Tables_number   1
_chemical_formula_structural   K6Cr(SiO4)2
_chemical_formula_sum   'K6 Cr1 Si2 O8'
_cell_volume   309.68209485
_cell_formula_units_Z   1
loop_
 _symmetry_equiv_pos_site_id
 _symmetry_equiv_pos_as_xyz
  1  'x, y, z'
loop_
 _atom_site_type_symbol
 _atom_site_label
 _atom_site_symmetry_multiplicity
 _atom_site_fract_x
 _atom_site_fract_y
 _atom_site_fract_z
 _atom_site_occupancy
  K  K0  1  0.649761  0.827759  0.165838  1
  K  K1  1  0.799859  0.307564  0.978312  1
  K  K2  1  0.281444  0.825636  0.562870  1
  K  K3  1  0.718556  0.174364  0.437130  1
  K  K4  1  0.200141  0.692436  0.021688  1
  K  K5  1  0.350239  0.172241  0.834162  1
  Cr  Cr6  1  0.000000  0.500000  0.500000  1
  Si  Si7  1  0.779048  0.763169  0.734884  1
  Si  Si8  1  0.220952  0.236831  0.265116  1
  O  O9  1  0.563198  0.729675  0.845925  1
  O  O10  1  0.828381  0.968873  0.785463  1
  O  O11  1  0.171619  0.031127  0.214537  1
  O  O12  1  0.013093  0.546570  0.757087  1
  O  O13  1  0.436802  0.270325  0.154075  1
  O  O14  1  0.986907  0.453430  0.242913  1
  O  O15  1  0.740129  0.774934  0.516542  1
  O  O16  1  0.259871  0.225066  0.483458  1
