# generated using pymatgen
data_Sm2Sc2ReB12Ru
_symmetry_space_group_name_H-M   'P 1'
_cell_length_a   3.61143000
_cell_length_b   9.03938814
_cell_length_c   11.46586071
_cell_angle_alpha   90.07879912
_cell_angle_beta   90.00000000
_cell_angle_gamma   90.00000000
_symmetry_Int_Tables_number   1
_chemical_formula_structural   Sm2Sc2ReB12Ru
_chemical_formula_sum   'Sm4 Sc4 Re2 B24 Ru2'
_cell_volume   374.30401616
_cell_formula_units_Z   2
loop_
 _symmetry_equiv_pos_site_id
 _symmetry_equiv_pos_as_xyz
  1  'x, y, z'
loop_
 _atom_site_type_symbol
 _atom_site_label
 _atom_site_symmetry_multiplicity
 _atom_site_fract_x
 _atom_site_fract_y
 _atom_site_fract_z
 _atom_site_occupancy
  Sm  Sm0  1  0.000000  0.320430  0.413975  1
  Sm  Sm1  1  0.000000  0.679570  0.586025  1
  Sm  Sm2  1  0.000000  0.822111  0.084862  1
  Sm  Sm3  1  0.000000  0.177889  0.915138  1
  Sc  Sc4  1  0.000000  0.945343  0.370907  1
  Sc  Sc5  1  0.000000  0.054657  0.629093  1
  Sc  Sc6  1  0.000000  0.443276  0.128607  1
  Sc  Sc7  1  0.000000  0.556724  0.871393  1
  Re  Re8  1  0.000000  0.141540  0.182797  1
  Re  Re9  1  0.000000  0.858460  0.817203  1
  B  B10  1  0.500000  0.556182  0.430774  1
  B  B11  1  0.500000  0.443818  0.569226  1
  B  B12  1  0.500000  0.055240  0.068657  1
  B  B13  1  0.500000  0.944760  0.931343  1
  B  B14  1  0.500000  0.754067  0.416453  1
  B  B15  1  0.500000  0.245933  0.583547  1
  B  B16  1  0.500000  0.254547  0.083058  1
  B  B17  1  0.500000  0.745453  0.916942  1
  B  B18  1  0.500000  0.793500  0.265621  1
  B  B19  1  0.500000  0.206500  0.734379  1
  B  B20  1  0.500000  0.294593  0.234905  1
  B  B21  1  0.500000  0.705407  0.765095  1
  B  B22  1  0.500000  0.628412  0.183776  1
  B  B23  1  0.500000  0.371588  0.816224  1
  B  B24  1  0.500000  0.128855  0.316994  1
  B  B25  1  0.500000  0.871145  0.683006  1
  B  B26  1  0.500000  0.982344  0.214998  1
  B  B27  1  0.500000  0.017656  0.785002  1
  B  B28  1  0.500000  0.483356  0.285642  1
  B  B29  1  0.500000  0.516644  0.714358  1
  B  B30  1  0.500000  0.595920  0.025913  1
  B  B31  1  0.500000  0.404080  0.974087  1
  B  B32  1  0.500000  0.096273  0.474313  1
  B  B33  1  0.500000  0.903727  0.525687  1
  Ru  Ru34  1  0.000000  0.640874  0.317841  1
  Ru  Ru35  1  0.000000  0.359126  0.682159  1
