# generated using pymatgen
data_HoTh2Al2GaNi3
_symmetry_space_group_name_H-M   'P 1'
_cell_length_a   7.07544279
_cell_length_b   7.02801351
_cell_length_c   3.99257300
_cell_angle_alpha   90.00000000
_cell_angle_beta   90.00000000
_cell_angle_gamma   120.86684034
_symmetry_Int_Tables_number   1
_chemical_formula_structural   HoTh2Al2GaNi3
_chemical_formula_sum   'Ho1 Th2 Al2 Ga1 Ni3'
_cell_volume   170.41567755
_cell_formula_units_Z   1
loop_
 _symmetry_equiv_pos_site_id
 _symmetry_equiv_pos_as_xyz
  1  'x, y, z'
loop_
 _atom_site_type_symbol
 _atom_site_label
 _atom_site_symmetry_multiplicity
 _atom_site_fract_x
 _atom_site_fract_y
 _atom_site_fract_z
 _atom_site_occupancy
  Ho  Ho0  1  0.414959  0.414239  0.500000  1
  Th  Th1  1  0.000467  0.581349  0.500000  1
  Th  Th2  1  0.576103  0.998880  0.500000  1
  Al  Al3  1  0.761625  0.762665  0.000000  1
  Al  Al4  1  0.006124  0.231085  0.000000  1
  Ga  Ga5  1  0.235379  0.009030  0.000000  1
  Ni  Ni6  1  0.335631  0.668240  0.000000  1
  Ni  Ni7  1  0.678721  0.336561  0.000000  1
  Ni  Ni8  1  0.990990  0.997951  0.500000  1
