# generated using pymatgen
data_Hf3Re2SiGe2Os
_symmetry_space_group_name_H-M   'P 1'
_cell_length_a   7.00868320
_cell_length_b   7.00868361
_cell_length_c   3.44753600
_cell_angle_alpha   90.00000000
_cell_angle_beta   90.00000000
_cell_angle_gamma   120.26528989
_symmetry_Int_Tables_number   1
_chemical_formula_structural   Hf3Re2SiGe2Os
_chemical_formula_sum   'Hf3 Re2 Si1 Ge2 Os1'
_cell_volume   146.26658980
_cell_formula_units_Z   1
loop_
 _symmetry_equiv_pos_site_id
 _symmetry_equiv_pos_as_xyz
  1  'x, y, z'
loop_
 _atom_site_type_symbol
 _atom_site_label
 _atom_site_symmetry_multiplicity
 _atom_site_fract_x
 _atom_site_fract_y
 _atom_site_fract_z
 _atom_site_occupancy
  Hf  Hf0  1  0.397805  0.397805  0.500000  1
  Hf  Hf1  1  0.599146  0.003545  0.500000  1
  Hf  Hf2  1  0.003545  0.599146  0.500000  1
  Re  Re3  1  0.249198  0.999904  0.000000  1
  Re  Re4  1  0.999904  0.249198  0.000000  1
  Si  Si5  1  0.995447  0.995447  0.500000  1
  Ge  Ge6  1  0.667581  0.335990  0.000000  1
  Ge  Ge7  1  0.335990  0.667581  0.000000  1
  Os  Os8  1  0.751383  0.751383  0.000000  1
