# generated using pymatgen
data_Hf4ZrCo16(P4W)3
_symmetry_space_group_name_H-M   'P 1'
_cell_length_a   11.87712900
_cell_length_b   11.87712910
_cell_length_c   3.64567700
_cell_angle_alpha   90.00000000
_cell_angle_beta   90.00000000
_cell_angle_gamma   119.99999544
_symmetry_Int_Tables_number   1
_chemical_formula_structural   Hf4ZrCo16(P4W)3
_chemical_formula_sum   'Hf4 Zr1 Co16 P12 W3'
_cell_volume   445.38110734
_cell_formula_units_Z   1
loop_
 _symmetry_equiv_pos_site_id
 _symmetry_equiv_pos_as_xyz
  1  'x, y, z'
loop_
 _atom_site_type_symbol
 _atom_site_label
 _atom_site_symmetry_multiplicity
 _atom_site_fract_x
 _atom_site_fract_y
 _atom_site_fract_z
 _atom_site_occupancy
  Hf  Hf0  1  0.666667  0.333333  0.000000  1
  Hf  Hf1  1  0.821137  0.821380  0.500000  1
  Hf  Hf2  1  0.178620  0.999757  0.500000  1
  Hf  Hf3  1  0.000243  0.178863  0.500000  1
  Zr  Zr4  1  0.333333  0.666667  0.000000  1
  Co  Co5  1  0.194267  0.372444  0.000000  1
  Co  Co6  1  0.178177  0.805733  0.000000  1
  Co  Co7  1  0.820727  0.627101  0.000000  1
  Co  Co8  1  0.806374  0.179273  0.000000  1
  Co  Co9  1  0.372899  0.193626  0.000000  1
  Co  Co10  1  0.127972  0.483566  0.500000  1
  Co  Co11  1  0.355594  0.872028  0.500000  1
  Co  Co12  1  0.516434  0.644406  0.500000  1
  Co  Co13  1  0.644251  0.514085  0.500000  1
  Co  Co14  1  0.869834  0.355749  0.500000  1
  Co  Co15  1  0.485915  0.130166  0.500000  1
  Co  Co16  1  0.000000  0.000000  0.000000  1
  Co  Co17  1  0.720765  0.000665  0.500000  1
  Co  Co18  1  0.999335  0.720100  0.500000  1
  Co  Co19  1  0.627556  0.821823  0.000000  1
  Co  Co20  1  0.279900  0.279235  0.500000  1
  P  P21  1  0.645088  0.645523  0.000000  1
  P  P22  1  0.354477  0.999565  0.000000  1
  P  P23  1  0.000435  0.354912  0.000000  1
  P  P24  1  0.481448  0.313130  0.500000  1
  P  P25  1  0.686870  0.168318  0.500000  1
  P  P26  1  0.831682  0.518552  0.500000  1
  P  P27  1  0.519302  0.832795  0.500000  1
  P  P28  1  0.167205  0.686507  0.500000  1
  P  P29  1  0.824974  0.000381  0.000000  1
  P  P30  1  0.999619  0.824593  0.000000  1
  P  P31  1  0.313493  0.480698  0.500000  1
  P  P32  1  0.175407  0.175026  0.000000  1
  W  W33  1  0.448780  0.448148  0.000000  1
  W  W34  1  0.551852  0.000632  0.000000  1
  W  W35  1  0.999368  0.551220  0.000000  1
