# generated using pymatgen
data_Tb3Zn3Pd2Rh
_symmetry_space_group_name_H-M   'P 1'
_cell_length_a   7.30821300
_cell_length_b   7.30821352
_cell_length_c   3.84925800
_cell_angle_alpha   90.00000000
_cell_angle_beta   90.00000000
_cell_angle_gamma   119.99999313
_symmetry_Int_Tables_number   1
_chemical_formula_structural   Tb3Zn3Pd2Rh
_chemical_formula_sum   'Tb3 Zn3 Pd2 Rh1'
_cell_volume   178.04513305
_cell_formula_units_Z   1
loop_
 _symmetry_equiv_pos_site_id
 _symmetry_equiv_pos_as_xyz
  1  'x, y, z'
loop_
 _atom_site_type_symbol
 _atom_site_label
 _atom_site_symmetry_multiplicity
 _atom_site_fract_x
 _atom_site_fract_y
 _atom_site_fract_z
 _atom_site_occupancy
  Tb  Tb0  1  0.009256  0.411636  0.000000  1
  Tb  Tb1  1  0.588364  0.597620  0.000000  1
  Tb  Tb2  1  0.402380  0.990744  0.000000  1
  Zn  Zn3  1  0.001664  0.747613  0.500000  1
  Zn  Zn4  1  0.252387  0.254051  0.500000  1
  Zn  Zn5  1  0.745949  0.998336  0.500000  1
  Pd  Pd6  1  0.000000  0.000000  0.000000  1
  Pd  Pd7  1  0.666667  0.333333  0.500000  1
  Rh  Rh8  1  0.333333  0.666667  0.500000  1
