# generated using pymatgen
data_Ba5SiSb2
_symmetry_space_group_name_H-M   'P 1'
_cell_length_a   9.03257700
_cell_length_b   10.44778200
_cell_length_c   14.19597600
_cell_angle_alpha   90.00000000
_cell_angle_beta   90.00000000
_cell_angle_gamma   90.00000000
_symmetry_Int_Tables_number   1
_chemical_formula_structural   Ba5SiSb2
_chemical_formula_sum   'Ba20 Si4 Sb8'
_cell_volume   1339.67986813
_cell_formula_units_Z   4
loop_
 _symmetry_equiv_pos_site_id
 _symmetry_equiv_pos_as_xyz
  1  'x, y, z'
loop_
 _atom_site_type_symbol
 _atom_site_label
 _atom_site_symmetry_multiplicity
 _atom_site_fract_x
 _atom_site_fract_y
 _atom_site_fract_z
 _atom_site_occupancy
  Ba  Ba0  1  0.056823  0.750000  0.500472  1
  Ba  Ba1  1  0.943177  0.250000  0.499528  1
  Ba  Ba2  1  0.556823  0.250000  0.999528  1
  Ba  Ba3  1  0.443177  0.750000  0.000472  1
  Ba  Ba4  1  0.851326  0.750000  0.800063  1
  Ba  Ba5  1  0.148674  0.250000  0.199937  1
  Ba  Ba6  1  0.351326  0.250000  0.699937  1
  Ba  Ba7  1  0.648674  0.750000  0.300063  1
  Ba  Ba8  1  0.681305  0.528039  0.576355  1
  Ba  Ba9  1  0.318695  0.471961  0.423645  1
  Ba  Ba10  1  0.181305  0.471961  0.923645  1
  Ba  Ba11  1  0.318695  0.028039  0.423645  1
  Ba  Ba12  1  0.818695  0.528039  0.076355  1
  Ba  Ba13  1  0.681305  0.971961  0.576355  1
  Ba  Ba14  1  0.818695  0.971961  0.076355  1
  Ba  Ba15  1  0.181305  0.028039  0.923645  1
  Ba  Ba16  1  0.329577  0.750000  0.715102  1
  Ba  Ba17  1  0.670423  0.250000  0.284898  1
  Ba  Ba18  1  0.829577  0.250000  0.784898  1
  Ba  Ba19  1  0.170423  0.750000  0.215102  1
  Si  Si20  1  0.060447  0.750000  0.988101  1
  Si  Si21  1  0.939553  0.250000  0.011899  1
  Si  Si22  1  0.560447  0.250000  0.511899  1
  Si  Si23  1  0.439553  0.750000  0.488101  1
  Sb  Sb24  1  0.560536  0.505648  0.831054  1
  Sb  Sb25  1  0.439464  0.494352  0.168946  1
  Sb  Sb26  1  0.060536  0.494352  0.668946  1
  Sb  Sb27  1  0.439464  0.005648  0.168946  1
  Sb  Sb28  1  0.939464  0.505648  0.331054  1
  Sb  Sb29  1  0.560536  0.994352  0.831054  1
  Sb  Sb30  1  0.939464  0.994352  0.331054  1
  Sb  Sb31  1  0.060536  0.005648  0.668946  1
