# generated using pymatgen
data_LuNb8GeSe16
_symmetry_space_group_name_H-M   'P 1'
_cell_length_a   7.03573200
_cell_length_b   7.03573367
_cell_length_c   14.16373600
_cell_angle_alpha   90.00000000
_cell_angle_beta   90.00000000
_cell_angle_gamma   120.00000154
_symmetry_Int_Tables_number   1
_chemical_formula_structural   LuNb8GeSe16
_chemical_formula_sum   'Lu1 Nb8 Ge1 Se16'
_cell_volume   607.19351987
_cell_formula_units_Z   1
loop_
 _symmetry_equiv_pos_site_id
 _symmetry_equiv_pos_as_xyz
  1  'x, y, z'
loop_
 _atom_site_type_symbol
 _atom_site_label
 _atom_site_symmetry_multiplicity
 _atom_site_fract_x
 _atom_site_fract_y
 _atom_site_fract_z
 _atom_site_occupancy
  Lu  Lu0  1  0.000000  0.000000  0.500000  1
  Nb  Nb1  1  0.000000  0.000000  0.255545  1
  Nb  Nb2  1  0.000000  0.000000  0.744455  1
  Nb  Nb3  1  0.506264  0.012527  0.253716  1
  Nb  Nb4  1  0.493736  0.987473  0.746284  1
  Nb  Nb5  1  0.987473  0.493736  0.253716  1
  Nb  Nb6  1  0.012527  0.506264  0.746284  1
  Nb  Nb7  1  0.506264  0.493736  0.253716  1
  Nb  Nb8  1  0.493736  0.506264  0.746284  1
  Ge  Ge9  1  0.000000  0.000000  0.000000  1
  Se  Se10  1  0.333333  0.666667  0.625281  1
  Se  Se11  1  0.666667  0.333333  0.374719  1
  Se  Se12  1  0.666667  0.333333  0.133552  1
  Se  Se13  1  0.333333  0.666667  0.866448  1
  Se  Se14  1  0.167354  0.334707  0.137639  1
  Se  Se15  1  0.832646  0.665293  0.862361  1
  Se  Se16  1  0.665293  0.832646  0.137639  1
  Se  Se17  1  0.829859  0.659718  0.628877  1
  Se  Se18  1  0.334707  0.167354  0.862361  1
  Se  Se19  1  0.170141  0.340282  0.371123  1
  Se  Se20  1  0.167354  0.832646  0.137639  1
  Se  Se21  1  0.340282  0.170141  0.628877  1
  Se  Se22  1  0.832646  0.167354  0.862361  1
  Se  Se23  1  0.659718  0.829859  0.371123  1
  Se  Se24  1  0.829859  0.170141  0.628877  1
  Se  Se25  1  0.170141  0.829859  0.371123  1
