# generated using pymatgen
data_Bi3Sb9O26
_symmetry_space_group_name_H-M   'P 1'
_cell_length_a   7.46002000
_cell_length_b   7.41553936
_cell_length_c   10.37389810
_cell_angle_alpha   88.99957239
_cell_angle_beta   90.00000000
_cell_angle_gamma   90.00000000
_symmetry_Int_Tables_number   1
_chemical_formula_structural   Bi3Sb9O26
_chemical_formula_sum   'Bi3 Sb9 O26'
_cell_volume   573.79730933
_cell_formula_units_Z   1
loop_
 _symmetry_equiv_pos_site_id
 _symmetry_equiv_pos_as_xyz
  1  'x, y, z'
loop_
 _atom_site_type_symbol
 _atom_site_label
 _atom_site_symmetry_multiplicity
 _atom_site_fract_x
 _atom_site_fract_y
 _atom_site_fract_z
 _atom_site_occupancy
  Bi  Bi0  1  0.250000  0.757082  0.739887  1
  Bi  Bi1  1  0.500342  0.494183  0.003687  1
  Bi  Bi2  1  0.999658  0.494183  0.003687  1
  Sb  Sb3  1  0.750000  0.265573  0.286360  1
  Sb  Sb4  1  0.501274  0.998981  0.998394  1
  Sb  Sb5  1  0.750000  0.759835  0.742813  1
  Sb  Sb6  1  0.250000  0.750582  0.254226  1
  Sb  Sb7  1  0.496243  0.502287  0.500961  1
  Sb  Sb8  1  0.003757  0.502287  0.500961  1
  Sb  Sb9  1  0.750000  0.252780  0.744283  1
  Sb  Sb10  1  0.250000  0.239086  0.253658  1
  Sb  Sb11  1  0.998726  0.998981  0.998394  1
  O  O12  1  0.449890  0.688697  0.369899  1
  O  O13  1  0.750000  0.445380  0.145517  1
  O  O14  1  0.250000  0.492320  0.167808  1
  O  O15  1  0.455064  0.308735  0.366554  1
  O  O16  1  0.558026  0.211291  0.882140  1
  O  O17  1  0.941974  0.211291  0.882140  1
  O  O18  1  0.443051  0.198615  0.120881  1
  O  O19  1  0.750000  0.990495  0.067677  1
  O  O20  1  0.250000  0.991464  0.921038  1
  O  O21  1  0.750000  0.006492  0.680266  1
  O  O22  1  0.547074  0.801495  0.869587  1
  O  O23  1  0.952926  0.801495  0.869587  1
  O  O24  1  0.440678  0.791006  0.116338  1
  O  O25  1  0.050110  0.688697  0.369899  1
  O  O26  1  0.547727  0.696865  0.628069  1
  O  O27  1  0.952273  0.696865  0.628069  1
  O  O28  1  0.250000  0.517915  0.576774  1
  O  O29  1  0.750000  0.508370  0.830604  1
  O  O30  1  0.750000  0.477497  0.424173  1
  O  O31  1  0.044936  0.308735  0.366554  1
  O  O32  1  0.550449  0.311730  0.627311  1
  O  O33  1  0.949551  0.311730  0.627311  1
  O  O34  1  0.056949  0.198615  0.120881  1
  O  O35  1  0.250000  0.995728  0.321549  1
  O  O36  1  0.059322  0.791006  0.116338  1
  O  O37  1  0.250000  0.541628  0.875731  1
