# generated using pymatgen
data_Th4Sn2OsAu3
_symmetry_space_group_name_H-M   'P 1'
_cell_length_a   8.03873484
_cell_length_b   8.03873484
_cell_length_c   3.92840400
_cell_angle_alpha   90.00000000
_cell_angle_beta   90.00000000
_cell_angle_gamma   89.44630806
_symmetry_Int_Tables_number   1
_chemical_formula_structural   Th4Sn2OsAu3
_chemical_formula_sum   'Th4 Sn2 Os1 Au3'
_cell_volume   253.84655416
_cell_formula_units_Z   1
loop_
 _symmetry_equiv_pos_site_id
 _symmetry_equiv_pos_as_xyz
  1  'x, y, z'
loop_
 _atom_site_type_symbol
 _atom_site_label
 _atom_site_symmetry_multiplicity
 _atom_site_fract_x
 _atom_site_fract_y
 _atom_site_fract_z
 _atom_site_occupancy
  Th  Th0  1  0.672934  0.172934  0.500000  1
  Th  Th1  1  0.310560  0.810560  0.500000  1
  Th  Th2  1  0.177190  0.346946  0.500000  1
  Th  Th3  1  0.846946  0.677190  0.500000  1
  Sn  Sn4  1  0.494260  0.503506  0.000000  1
  Sn  Sn5  1  0.003506  0.994260  0.000000  1
  Os  Os6  1  0.127344  0.627344  0.000000  1
  Au  Au7  1  0.870864  0.370864  0.000000  1
  Au  Au8  1  0.624780  0.871618  0.000000  1
  Au  Au9  1  0.371618  0.124780  0.000000  1
