# generated using pymatgen
data_Cs3Nb2Cl10O
_symmetry_space_group_name_H-M   'P 1'
_cell_length_a   7.73064523
_cell_length_b   7.73064566
_cell_length_c   10.64613800
_cell_angle_alpha   111.28902623
_cell_angle_beta   111.28902746
_cell_angle_gamma   89.99999764
_symmetry_Int_Tables_number   1
_chemical_formula_structural   Cs3Nb2Cl10O
_chemical_formula_sum   'Cs3 Nb2 Cl10 O1'
_cell_volume   545.96852872
_cell_formula_units_Z   1
loop_
 _symmetry_equiv_pos_site_id
 _symmetry_equiv_pos_as_xyz
  1  'x, y, z'
loop_
 _atom_site_type_symbol
 _atom_site_label
 _atom_site_symmetry_multiplicity
 _atom_site_fract_x
 _atom_site_fract_y
 _atom_site_fract_z
 _atom_site_occupancy
  Cs  Cs0  1  0.499999  0.499999  0.000000  1
  Cs  Cs1  1  0.749999  0.250000  0.500000  1
  Cs  Cs2  1  0.250000  0.749999  0.500000  1
  Nb  Nb3  1  0.104953  0.104953  0.209907  1
  Nb  Nb4  1  0.895047  0.895047  0.790094  1
  Cl  Cl5  1  0.332514  0.332514  0.220524  1
  Cl  Cl6  1  0.888010  0.332514  0.220524  1
  Cl  Cl7  1  0.332514  0.888010  0.220524  1
  Cl  Cl8  1  0.888010  0.888010  0.220524  1
  Cl  Cl9  1  0.241595  0.241595  0.483191  1
  Cl  Cl10  1  0.758404  0.758404  0.516810  1
  Cl  Cl11  1  0.111990  0.111990  0.779474  1
  Cl  Cl12  1  0.667485  0.111990  0.779474  1
  Cl  Cl13  1  0.111990  0.667485  0.779474  1
  Cl  Cl14  1  0.667485  0.667485  0.779474  1
  O  O15  1  0.000000  0.000000  0.000000  1
