# generated using pymatgen
data_Y20CoNiAg6
_symmetry_space_group_name_H-M   'P 1'
_cell_length_a   9.52164400
_cell_length_b   9.52164386
_cell_length_c   9.65170800
_cell_angle_alpha   90.00000000
_cell_angle_beta   90.00000000
_cell_angle_gamma   119.99999355
_symmetry_Int_Tables_number   1
_chemical_formula_structural   Y20CoNiAg6
_chemical_formula_sum   'Y20 Co1 Ni1 Ag6'
_cell_volume   757.80716532
_cell_formula_units_Z   1
loop_
 _symmetry_equiv_pos_site_id
 _symmetry_equiv_pos_as_xyz
  1  'x, y, z'
loop_
 _atom_site_type_symbol
 _atom_site_label
 _atom_site_symmetry_multiplicity
 _atom_site_fract_x
 _atom_site_fract_y
 _atom_site_fract_z
 _atom_site_occupancy
  Y  Y0  1  0.000000  0.000000  0.499589  1
  Y  Y1  1  0.000000  0.000000  0.000411  1
  Y  Y2  1  0.543343  0.456657  0.250000  1
  Y  Y3  1  0.543343  0.086686  0.250000  1
  Y  Y4  1  0.913314  0.456657  0.250000  1
  Y  Y5  1  0.456119  0.543881  0.750000  1
  Y  Y6  1  0.456119  0.912239  0.750000  1
  Y  Y7  1  0.087761  0.543881  0.750000  1
  Y  Y8  1  0.210803  0.789197  0.437482  1
  Y  Y9  1  0.210803  0.421608  0.437482  1
  Y  Y10  1  0.578392  0.789197  0.437482  1
  Y  Y11  1  0.790256  0.209744  0.560592  1
  Y  Y12  1  0.790256  0.580510  0.560592  1
  Y  Y13  1  0.419490  0.209744  0.560592  1
  Y  Y14  1  0.790256  0.209744  0.939408  1
  Y  Y15  1  0.790256  0.580510  0.939408  1
  Y  Y16  1  0.419490  0.209744  0.939408  1
  Y  Y17  1  0.210803  0.789197  0.062518  1
  Y  Y18  1  0.210803  0.421608  0.062518  1
  Y  Y19  1  0.578392  0.789197  0.062518  1
  Co  Co20  1  0.333333  0.666667  0.250000  1
  Ni  Ni21  1  0.666667  0.333333  0.750000  1
  Ag  Ag22  1  0.883933  0.116067  0.250000  1
  Ag  Ag23  1  0.883933  0.767867  0.250000  1
  Ag  Ag24  1  0.232133  0.116067  0.250000  1
  Ag  Ag25  1  0.115820  0.884180  0.750000  1
  Ag  Ag26  1  0.115820  0.231641  0.750000  1
  Ag  Ag27  1  0.768359  0.884180  0.750000  1
