# generated using pymatgen
data_Nd16In4Ni3Ru
_symmetry_space_group_name_H-M   'P 1'
_cell_length_a   9.92663035
_cell_length_b   9.92662991
_cell_length_c   9.92662894
_cell_angle_alpha   60.19463221
_cell_angle_beta   60.19463447
_cell_angle_gamma   60.19463147
_symmetry_Int_Tables_number   1
_chemical_formula_structural   Nd16In4Ni3Ru
_chemical_formula_sum   'Nd16 In4 Ni3 Ru1'
_cell_volume   694.70489448
_cell_formula_units_Z   1
loop_
 _symmetry_equiv_pos_site_id
 _symmetry_equiv_pos_as_xyz
  1  'x, y, z'
loop_
 _atom_site_type_symbol
 _atom_site_label
 _atom_site_symmetry_multiplicity
 _atom_site_fract_x
 _atom_site_fract_y
 _atom_site_fract_z
 _atom_site_occupancy
  Nd  Nd0  1  0.597066  0.597066  0.597066  1
  Nd  Nd1  1  0.598538  0.598538  0.207203  1
  Nd  Nd2  1  0.598538  0.207203  0.598538  1
  Nd  Nd3  1  0.207203  0.598538  0.598538  1
  Nd  Nd4  1  0.060305  0.439758  0.439758  1
  Nd  Nd5  1  0.439541  0.057953  0.057953  1
  Nd  Nd6  1  0.439758  0.060305  0.439758  1
  Nd  Nd7  1  0.057953  0.439541  0.057953  1
  Nd  Nd8  1  0.439758  0.439758  0.060305  1
  Nd  Nd9  1  0.057953  0.057953  0.439541  1
  Nd  Nd10  1  0.188620  0.813619  0.813619  1
  Nd  Nd11  1  0.804708  0.190047  0.190047  1
  Nd  Nd12  1  0.813619  0.188620  0.813619  1
  Nd  Nd13  1  0.190047  0.804708  0.190047  1
  Nd  Nd14  1  0.813619  0.813619  0.188620  1
  Nd  Nd15  1  0.190047  0.190047  0.804708  1
  In  In16  1  0.830722  0.830722  0.830722  1
  In  In17  1  0.830235  0.830235  0.508609  1
  In  In18  1  0.830235  0.508609  0.830235  1
  In  In19  1  0.508609  0.830235  0.830235  1
  Ni  Ni20  1  0.393006  0.393006  0.825537  1
  Ni  Ni21  1  0.393006  0.825537  0.393006  1
  Ni  Ni22  1  0.825537  0.393006  0.393006  1
  Ru  Ru23  1  0.391376  0.391376  0.391376  1
