# generated using pymatgen
data_U2Si7Ni12
_symmetry_space_group_name_H-M   'P 1'
_cell_length_a   9.30240700
_cell_length_b   9.33449359
_cell_length_c   3.71447600
_cell_angle_alpha   90.00000000
_cell_angle_beta   90.00000000
_cell_angle_gamma   119.55180893
_symmetry_Int_Tables_number   1
_chemical_formula_structural   U2Si7Ni12
_chemical_formula_sum   'U2 Si7 Ni12'
_cell_volume   280.58084256
_cell_formula_units_Z   1
loop_
 _symmetry_equiv_pos_site_id
 _symmetry_equiv_pos_as_xyz
  1  'x, y, z'
loop_
 _atom_site_type_symbol
 _atom_site_label
 _atom_site_symmetry_multiplicity
 _atom_site_fract_x
 _atom_site_fract_y
 _atom_site_fract_z
 _atom_site_occupancy
  U  U0  1  0.995568  0.996181  0.000000  1
  U  U1  1  0.338011  0.672421  0.500000  1
  Si  Si2  1  0.760112  0.725732  0.500000  1
  Si  Si3  1  0.267861  0.036161  0.500000  1
  Si  Si4  1  0.667211  0.332234  0.000000  1
  Si  Si5  1  0.059196  0.617705  0.000000  1
  Si  Si6  1  0.382495  0.442094  0.000000  1
  Si  Si7  1  0.560676  0.947728  0.000000  1
  Si  Si8  1  0.965340  0.231601  0.500000  1
  Ni  Ni9  1  0.111140  0.397416  0.000000  1
  Ni  Ni10  1  0.595086  0.715924  0.000000  1
  Ni  Ni11  1  0.285630  0.885762  0.000000  1
  Ni  Ni12  1  0.039169  0.769589  0.500000  1
  Ni  Ni13  1  0.227617  0.273083  0.500000  1
  Ni  Ni14  1  0.733039  0.963310  0.500000  1
  Ni  Ni15  1  0.810560  0.609888  0.000000  1
  Ni  Ni16  1  0.385677  0.200051  0.000000  1
  Ni  Ni17  1  0.804855  0.188668  0.000000  1
  Ni  Ni18  1  0.896221  0.436979  0.500000  1
  Ni  Ni19  1  0.561429  0.438914  0.500000  1
  Ni  Ni20  1  0.553108  0.118556  0.500000  1
