# generated using pymatgen
data_Ac11Sm(Si7Br3)2
_symmetry_space_group_name_H-M   'P 1'
_cell_length_a   4.26494600
_cell_length_b   12.29097000
_cell_length_c   17.48943400
_cell_angle_alpha   90.00000000
_cell_angle_beta   90.00000000
_cell_angle_gamma   90.00000000
_symmetry_Int_Tables_number   1
_chemical_formula_structural   Ac11Sm(Si7Br3)2
_chemical_formula_sum   'Ac11 Sm1 Si14 Br6'
_cell_volume   916.80178527
_cell_formula_units_Z   1
loop_
 _symmetry_equiv_pos_site_id
 _symmetry_equiv_pos_as_xyz
  1  'x, y, z'
loop_
 _atom_site_type_symbol
 _atom_site_label
 _atom_site_symmetry_multiplicity
 _atom_site_fract_x
 _atom_site_fract_y
 _atom_site_fract_z
 _atom_site_occupancy
  Ac  Ac0  1  0.500000  0.345095  0.500000  1
  Ac  Ac1  1  0.000000  0.655016  0.000000  1
  Ac  Ac2  1  0.500000  0.360525  0.753204  1
  Ac  Ac3  1  0.000000  0.640694  0.741968  1
  Ac  Ac4  1  0.500000  0.360525  0.246796  1
  Ac  Ac5  1  0.000000  0.640694  0.258032  1
  Ac  Ac6  1  0.500000  0.066330  0.880051  1
  Ac  Ac7  1  0.000000  0.931365  0.618915  1
  Ac  Ac8  1  0.500000  0.066330  0.119949  1
  Ac  Ac9  1  0.000000  0.931365  0.381085  1
  Ac  Ac10  1  0.500000  0.359421  0.000000  1
  Sm  Sm11  1  0.000000  0.642648  0.500000  1
  Si  Si12  1  0.000000  0.156356  0.000000  1
  Si  Si13  1  0.500000  0.839145  0.500000  1
  Si  Si14  1  0.500000  0.561654  0.876578  1
  Si  Si15  1  0.000000  0.443717  0.618462  1
  Si  Si16  1  0.500000  0.561654  0.123422  1
  Si  Si17  1  0.000000  0.443717  0.381538  1
  Si  Si18  1  0.000000  0.257950  0.876819  1
  Si  Si19  1  0.500000  0.739093  0.618621  1
  Si  Si20  1  0.000000  0.257950  0.123181  1
  Si  Si21  1  0.500000  0.739093  0.381379  1
  Si  Si22  1  0.000000  0.457650  0.874675  1
  Si  Si23  1  0.500000  0.544309  0.618998  1
  Si  Si24  1  0.500000  0.544309  0.381002  1
  Si  Si25  1  0.000000  0.457650  0.125325  1
  Br  Br26  1  0.500000  0.106361  0.692062  1
  Br  Br27  1  0.000000  0.892177  0.806448  1
  Br  Br28  1  0.000000  0.136074  0.500000  1
  Br  Br29  1  0.500000  0.862594  0.000000  1
  Br  Br30  1  0.500000  0.106361  0.307938  1
  Br  Br31  1  0.000000  0.892177  0.193552  1
