# generated using pymatgen
data_La3Dy(Si5Pt3)2
_symmetry_space_group_name_H-M   'P 1'
_cell_length_a   8.29394176
_cell_length_b   8.28898841
_cell_length_c   8.28898830
_cell_angle_alpha   136.49332391
_cell_angle_beta   105.48491337
_cell_angle_gamma   90.43300097
_symmetry_Int_Tables_number   1
_chemical_formula_structural   La3Dy(Si5Pt3)2
_chemical_formula_sum   'La3 Dy1 Si10 Pt6'
_cell_volume   360.26514650
_cell_formula_units_Z   1
loop_
 _symmetry_equiv_pos_site_id
 _symmetry_equiv_pos_as_xyz
  1  'x, y, z'
loop_
 _atom_site_type_symbol
 _atom_site_label
 _atom_site_symmetry_multiplicity
 _atom_site_fract_x
 _atom_site_fract_y
 _atom_site_fract_z
 _atom_site_occupancy
  La  La0  1  0.638436  0.370806  0.267629  1
  La  La1  1  0.361377  0.629278  0.732098  1
  La  La2  1  0.102451  0.870524  0.231928  1
  Dy  Dy3  1  0.899375  0.129046  0.770329  1
  Si  Si4  1  0.269561  0.520678  0.248996  1
  Si  Si5  1  0.728727  0.477375  0.749652  1
  Si  Si6  1  0.728727  0.979076  0.251352  1
  Si  Si7  1  0.269561  0.020564  0.748882  1
  Si  Si8  1  0.463579  0.112923  0.350655  1
  Si  Si9  1  0.540176  0.890296  0.649881  1
  Si  Si10  1  0.761772  0.613065  0.148707  1
  Si  Si11  1  0.236703  0.385271  0.851432  1
  Si  Si12  1  0.999853  0.251112  0.249864  1
  Si  Si13  1  0.999853  0.749989  0.748741  1
  Pt  Pt14  1  0.244389  0.136359  0.108030  1
  Pt  Pt15  1  0.755502  0.865244  0.890258  1
  Pt  Pt16  1  0.024704  0.636319  0.388386  1
  Pt  Pt17  1  0.971850  0.360837  0.611013  1
  Pt  Pt18  1  0.501703  0.250150  0.750612  1
  Pt  Pt19  1  0.501703  0.751091  0.251553  1
