# generated using pymatgen
data_Tb3Dy(Co5As3)4
_symmetry_space_group_name_H-M   'P 1'
_cell_length_a   3.79356600
_cell_length_b   12.17071251
_cell_length_c   10.68178001
_cell_angle_alpha   89.98602652
_cell_angle_beta   90.00000000
_cell_angle_gamma   90.00000000
_symmetry_Int_Tables_number   1
_chemical_formula_structural   Tb3Dy(Co5As3)4
_chemical_formula_sum   'Tb3 Dy1 Co20 As12'
_cell_volume   493.18205357
_cell_formula_units_Z   1
loop_
 _symmetry_equiv_pos_site_id
 _symmetry_equiv_pos_as_xyz
  1  'x, y, z'
loop_
 _atom_site_type_symbol
 _atom_site_label
 _atom_site_symmetry_multiplicity
 _atom_site_fract_x
 _atom_site_fract_y
 _atom_site_fract_z
 _atom_site_occupancy
  Tb  Tb0  1  0.250000  0.298629  0.918221  1
  Tb  Tb1  1  0.250000  0.798561  0.581850  1
  Tb  Tb2  1  0.750000  0.201424  0.418265  1
  Dy  Dy3  1  0.750000  0.701212  0.081581  1
  Co  Co4  1  0.750000  0.696912  0.383554  1
  Co  Co5  1  0.250000  0.303166  0.616289  1
  Co  Co6  1  0.250000  0.802936  0.883957  1
  Co  Co7  1  0.750000  0.196889  0.116226  1
  Co  Co8  1  0.750000  0.991027  0.211452  1
  Co  Co9  1  0.250000  0.008881  0.788509  1
  Co  Co10  1  0.250000  0.509075  0.711703  1
  Co  Co11  1  0.750000  0.491115  0.288413  1
  Co  Co12  1  0.750000  0.677381  0.784050  1
  Co  Co13  1  0.250000  0.322726  0.215983  1
  Co  Co14  1  0.250000  0.822556  0.283877  1
  Co  Co15  1  0.750000  0.177385  0.716056  1
  Co  Co16  1  0.750000  0.931895  0.969572  1
  Co  Co17  1  0.250000  0.067525  0.030555  1
  Co  Co18  1  0.250000  0.567827  0.469300  1
  Co  Co19  1  0.750000  0.432271  0.530486  1
  Co  Co20  1  0.750000  0.988332  0.593056  1
  Co  Co21  1  0.250000  0.011668  0.407034  1
  Co  Co22  1  0.250000  0.512083  0.093041  1
  Co  Co23  1  0.750000  0.488483  0.907028  1
  As  As24  1  0.750000  0.613971  0.584508  1
  As  As25  1  0.250000  0.386097  0.415436  1
  As  As26  1  0.250000  0.885579  0.084513  1
  As  As27  1  0.750000  0.113854  0.915493  1
  As  As28  1  0.750000  0.890892  0.398864  1
  As  As29  1  0.250000  0.109120  0.601284  1
  As  As30  1  0.250000  0.609292  0.899019  1
  As  As31  1  0.750000  0.390963  0.101207  1
  As  As32  1  0.750000  0.870268  0.769714  1
  As  As33  1  0.250000  0.129740  0.230350  1
  As  As34  1  0.250000  0.629913  0.269258  1
  As  As35  1  0.750000  0.370351  0.730298  1
