# generated using pymatgen
data_Ca3HoAs6Rh7
_symmetry_space_group_name_H-M   'P 1'
_cell_length_a   7.27695339
_cell_length_b   7.27695290
_cell_length_c   7.32170000
_cell_angle_alpha   109.59582720
_cell_angle_beta   109.59582581
_cell_angle_gamma   109.34632206
_symmetry_Int_Tables_number   1
_chemical_formula_structural   Ca3HoAs6Rh7
_chemical_formula_sum   'Ca3 Ho1 As6 Rh7'
_cell_volume   298.00191578
_cell_formula_units_Z   1
loop_
 _symmetry_equiv_pos_site_id
 _symmetry_equiv_pos_as_xyz
  1  'x, y, z'
loop_
 _atom_site_type_symbol
 _atom_site_label
 _atom_site_symmetry_multiplicity
 _atom_site_fract_x
 _atom_site_fract_y
 _atom_site_fract_z
 _atom_site_occupancy
  Ca  Ca0  1  0.500000  0.500000  0.500000  1
  Ca  Ca1  1  0.000000  0.500000  0.000000  1
  Ca  Ca2  1  0.500000  0.000000  0.000000  1
  Ho  Ho3  1  0.000000  0.000000  0.500000  1
  As  As4  1  0.676894  0.000000  0.679112  1
  As  As5  1  0.676894  0.676894  0.997782  1
  As  As6  1  0.323106  0.323106  0.002218  1
  As  As7  1  0.000000  0.676894  0.679112  1
  As  As8  1  0.000000  0.323106  0.320888  1
  As  As9  1  0.323106  0.000000  0.320888  1
  Rh  Rh10  1  0.503971  0.751986  0.251986  1
  Rh  Rh11  1  0.751986  0.248014  0.500000  1
  Rh  Rh12  1  0.248014  0.751986  0.500000  1
  Rh  Rh13  1  0.248014  0.496029  0.748014  1
  Rh  Rh14  1  0.000000  0.000000  0.000000  1
  Rh  Rh15  1  0.496029  0.248014  0.748014  1
  Rh  Rh16  1  0.751986  0.503971  0.251986  1
