# generated using pymatgen
data_Zr5Nb5Si4Ge2C
_symmetry_space_group_name_H-M   'P 1'
_cell_length_a   7.85836448
_cell_length_b   7.84125555
_cell_length_c   5.42057801
_cell_angle_alpha   89.76972287
_cell_angle_beta   90.45905466
_cell_angle_gamma   120.05910643
_symmetry_Int_Tables_number   1
_chemical_formula_structural   Zr5Nb5Si4Ge2C
_chemical_formula_sum   'Zr5 Nb5 Si4 Ge2 C1'
_cell_volume   289.08202993
_cell_formula_units_Z   1
loop_
 _symmetry_equiv_pos_site_id
 _symmetry_equiv_pos_as_xyz
  1  'x, y, z'
loop_
 _atom_site_type_symbol
 _atom_site_label
 _atom_site_symmetry_multiplicity
 _atom_site_fract_x
 _atom_site_fract_y
 _atom_site_fract_z
 _atom_site_occupancy
  Zr  Zr0  1  0.000738  0.757629  0.252418  1
  Zr  Zr1  1  0.241535  0.240770  0.252236  1
  Zr  Zr2  1  0.757063  0.000192  0.261658  1
  Zr  Zr3  1  0.000194  0.244796  0.747481  1
  Zr  Zr4  1  0.759583  0.756524  0.748084  1
  Nb  Nb5  1  0.240583  0.996178  0.736069  1
  Nb  Nb6  1  0.330354  0.665479  0.002065  1
  Nb  Nb7  1  0.669413  0.336064  0.002066  1
  Nb  Nb8  1  0.668556  0.334780  0.497526  1
  Nb  Nb9  1  0.330584  0.667046  0.497595  1
  Si  Si10  1  0.999749  0.400459  0.245052  1
  Si  Si11  1  0.599308  0.600355  0.245635  1
  Si  Si12  1  0.401151  0.000663  0.240388  1
  Si  Si13  1  0.002035  0.602416  0.754923  1
  Ge  Ge14  1  0.398954  0.396733  0.753896  1
  Ge  Ge15  1  0.594973  0.999688  0.757377  1
  C  C16  1  0.005224  0.000229  0.505533  1
