# generated using pymatgen
data_Lu4Zn4PdRh3
_symmetry_space_group_name_H-M   'P 1'
_cell_length_a   3.96493800
_cell_length_b   6.89188325
_cell_length_c   8.07736630
_cell_angle_alpha   90.03088734
_cell_angle_beta   90.00000000
_cell_angle_gamma   90.00000000
_symmetry_Int_Tables_number   1
_chemical_formula_structural   Lu4Zn4PdRh3
_chemical_formula_sum   'Lu4 Zn4 Pd1 Rh3'
_cell_volume   220.72118906
_cell_formula_units_Z   1
loop_
 _symmetry_equiv_pos_site_id
 _symmetry_equiv_pos_as_xyz
  1  'x, y, z'
loop_
 _atom_site_type_symbol
 _atom_site_label
 _atom_site_symmetry_multiplicity
 _atom_site_fract_x
 _atom_site_fract_y
 _atom_site_fract_z
 _atom_site_occupancy
  Lu  Lu0  1  0.250000  0.539294  0.187330  1
  Lu  Lu1  1  0.750000  0.449411  0.816553  1
  Lu  Lu2  1  0.750000  0.962904  0.676624  1
  Lu  Lu3  1  0.250000  0.042203  0.316884  1
  Zn  Zn4  1  0.250000  0.633370  0.562518  1
  Zn  Zn5  1  0.750000  0.365341  0.436101  1
  Zn  Zn6  1  0.750000  0.867989  0.066113  1
  Zn  Zn7  1  0.250000  0.137987  0.936006  1
  Pd  Pd8  1  0.250000  0.751400  0.877751  1
  Rh  Rh9  1  0.750000  0.249777  0.123714  1
  Rh  Rh10  1  0.750000  0.750770  0.376662  1
  Rh  Rh11  1  0.250000  0.249552  0.623744  1
