# generated using pymatgen
data_Tm2Nb3Fe3(Co4P3)4
_symmetry_space_group_name_H-M   'P 1'
_cell_length_a   11.79206600
_cell_length_b   11.79206624
_cell_length_c   3.59992800
_cell_angle_alpha   90.00000000
_cell_angle_beta   90.00000000
_cell_angle_gamma   119.99999932
_symmetry_Int_Tables_number   1
_chemical_formula_structural   Tm2Nb3Fe3(Co4P3)4
_chemical_formula_sum   'Tm2 Nb3 Fe3 Co16 P12'
_cell_volume   433.51513167
_cell_formula_units_Z   1
loop_
 _symmetry_equiv_pos_site_id
 _symmetry_equiv_pos_as_xyz
  1  'x, y, z'
loop_
 _atom_site_type_symbol
 _atom_site_label
 _atom_site_symmetry_multiplicity
 _atom_site_fract_x
 _atom_site_fract_y
 _atom_site_fract_z
 _atom_site_occupancy
  Tm  Tm0  1  0.333333  0.666667  0.000000  1
  Tm  Tm1  1  0.666667  0.333333  0.000000  1
  Nb  Nb2  1  0.817353  0.000000  0.500000  1
  Nb  Nb3  1  0.000000  0.817353  0.500000  1
  Nb  Nb4  1  0.182647  0.182647  0.500000  1
  Fe  Fe5  1  0.449261  0.000000  0.000000  1
  Fe  Fe6  1  0.000000  0.449261  0.000000  1
  Fe  Fe7  1  0.550739  0.550739  0.000000  1
  Co  Co8  1  0.278905  0.000000  0.500000  1
  Co  Co9  1  0.000000  0.278905  0.500000  1
  Co  Co10  1  0.721095  0.721095  0.500000  1
  Co  Co11  1  0.630032  0.806709  0.000000  1
  Co  Co12  1  0.193291  0.823324  0.000000  1
  Co  Co13  1  0.176676  0.369968  0.000000  1
  Co  Co14  1  0.369968  0.176676  0.000000  1
  Co  Co15  1  0.806709  0.630032  0.000000  1
  Co  Co16  1  0.823324  0.193291  0.000000  1
  Co  Co17  1  0.520138  0.873808  0.500000  1
  Co  Co18  1  0.126192  0.646330  0.500000  1
  Co  Co19  1  0.353670  0.479862  0.500000  1
  Co  Co20  1  0.479862  0.353670  0.500000  1
  Co  Co21  1  0.873808  0.520138  0.500000  1
  Co  Co22  1  0.646330  0.126192  0.500000  1
  Co  Co23  1  0.000000  0.000000  0.000000  1
  P  P24  1  0.174153  0.000000  0.000000  1
  P  P25  1  0.000000  0.174153  0.000000  1
  P  P26  1  0.825847  0.825847  0.000000  1
  P  P27  1  0.520516  0.682973  0.500000  1
  P  P28  1  0.317027  0.837542  0.500000  1
  P  P29  1  0.162458  0.479484  0.500000  1
  P  P30  1  0.479484  0.162458  0.500000  1
  P  P31  1  0.682973  0.520516  0.500000  1
  P  P32  1  0.837542  0.317027  0.500000  1
  P  P33  1  0.638856  0.000000  0.000000  1
  P  P34  1  0.000000  0.638856  0.000000  1
  P  P35  1  0.361144  0.361144  0.000000  1
