# generated using pymatgen
data_ThNiI18
_symmetry_space_group_name_H-M   'P 1'
_cell_length_a   10.39536523
_cell_length_b   10.41928392
_cell_length_c   10.38475170
_cell_angle_alpha   89.29543619
_cell_angle_beta   89.38579210
_cell_angle_gamma   89.14532917
_symmetry_Int_Tables_number   1
_chemical_formula_structural   ThNiI18
_chemical_formula_sum   'Th1 Ni1 I18'
_cell_volume   1124.52332751
_cell_formula_units_Z   1
loop_
 _symmetry_equiv_pos_site_id
 _symmetry_equiv_pos_as_xyz
  1  'x, y, z'
loop_
 _atom_site_type_symbol
 _atom_site_label
 _atom_site_symmetry_multiplicity
 _atom_site_fract_x
 _atom_site_fract_y
 _atom_site_fract_z
 _atom_site_occupancy
  Th  Th0  1  0.000000  0.000000  0.000000  1
  Ni  Ni1  1  0.500000  0.500000  0.500000  1
  I  I2  1  0.758680  0.461179  0.507286  1
  I  I3  1  0.506788  0.757896  0.461344  1
  I  I4  1  0.461443  0.507086  0.758650  1
  I  I5  1  0.241320  0.538821  0.492714  1
  I  I6  1  0.493212  0.242104  0.538656  1
  I  I7  1  0.538557  0.492914  0.241350  1
  I  I8  1  0.876655  0.382225  0.741255  1
  I  I9  1  0.740474  0.875282  0.382318  1
  I  I10  1  0.382542  0.740510  0.876784  1
  I  I11  1  0.123345  0.617775  0.258745  1
  I  I12  1  0.259526  0.124718  0.617682  1
  I  I13  1  0.617458  0.259490  0.123216  1
  I  I14  1  0.022018  0.966350  0.704700  1
  I  I15  1  0.704845  0.021848  0.964645  1
  I  I16  1  0.965110  0.705482  0.020371  1
  I  I17  1  0.977982  0.033650  0.295300  1
  I  I18  1  0.295155  0.978152  0.035355  1
  I  I19  1  0.034890  0.294518  0.979629  1
