# generated using pymatgen
data_TaNb9(CoB)10
_symmetry_space_group_name_H-M   'P 1'
_cell_length_a   3.28365900
_cell_length_b   5.92154935
_cell_length_c   17.02152900
_cell_angle_alpha   90.03924046
_cell_angle_beta   90.00000000
_cell_angle_gamma   90.00000000
_symmetry_Int_Tables_number   1
_chemical_formula_structural   TaNb9(CoB)10
_chemical_formula_sum   'Ta1 Nb9 Co10 B10'
_cell_volume   330.97246946
_cell_formula_units_Z   1
loop_
 _symmetry_equiv_pos_site_id
 _symmetry_equiv_pos_as_xyz
  1  'x, y, z'
loop_
 _atom_site_type_symbol
 _atom_site_label
 _atom_site_symmetry_multiplicity
 _atom_site_fract_x
 _atom_site_fract_y
 _atom_site_fract_z
 _atom_site_occupancy
  Ta  Ta0  1  0.500000  0.022137  0.875275  1
  Nb  Nb1  1  0.000000  0.473337  0.320808  1
  Nb  Nb2  1  0.000000  0.473323  0.679394  1
  Nb  Nb3  1  0.500000  0.526784  0.179060  1
  Nb  Nb4  1  0.500000  0.527203  0.820829  1
  Nb  Nb5  1  0.000000  0.978138  0.375371  1
  Nb  Nb6  1  0.000000  0.978165  0.624891  1
  Nb  Nb7  1  0.500000  0.021718  0.124538  1
  Nb  Nb8  1  0.000000  0.354255  0.500132  1
  Nb  Nb9  1  0.500000  0.645126  0.999787  1
  Co  Co10  1  0.000000  0.856715  0.226351  1
  Co  Co11  1  0.000000  0.857566  0.774199  1
  Co  Co12  1  0.500000  0.143256  0.273534  1
  Co  Co13  1  0.500000  0.143751  0.726705  1
  Co  Co14  1  0.000000  0.348997  0.071005  1
  Co  Co15  1  0.000000  0.348161  0.928207  1
  Co  Co16  1  0.500000  0.650569  0.428725  1
  Co  Co17  1  0.500000  0.650721  0.571433  1
  Co  Co18  1  0.000000  0.994325  0.999516  1
  Co  Co19  1  0.500000  0.005338  0.500137  1
  B  B20  1  0.000000  0.228948  0.202919  1
  B  B21  1  0.000000  0.228536  0.797565  1
  B  B22  1  0.500000  0.771083  0.296946  1
  B  B23  1  0.500000  0.771376  0.703037  1
  B  B24  1  0.000000  0.729280  0.100904  1
  B  B25  1  0.000000  0.731167  0.898796  1
  B  B26  1  0.500000  0.270647  0.398901  1
  B  B27  1  0.500000  0.270542  0.601321  1
  B  B28  1  0.000000  0.765752  0.500049  1
  B  B29  1  0.500000  0.233084  0.999665  1
