# generated using pymatgen
data_Sc4Be4Si2Ir9Rh
_symmetry_space_group_name_H-M   'P 1'
_cell_length_a   9.44885063
_cell_length_b   9.45341163
_cell_length_c   3.06918600
_cell_angle_alpha   90.00000000
_cell_angle_beta   90.00000000
_cell_angle_gamma   90.04181182
_symmetry_Int_Tables_number   1
_chemical_formula_structural   Sc4Be4Si2Ir9Rh
_chemical_formula_sum   'Sc4 Be4 Si2 Ir9 Rh1'
_cell_volume   274.15151184
_cell_formula_units_Z   1
loop_
 _symmetry_equiv_pos_site_id
 _symmetry_equiv_pos_as_xyz
  1  'x, y, z'
loop_
 _atom_site_type_symbol
 _atom_site_label
 _atom_site_symmetry_multiplicity
 _atom_site_fract_x
 _atom_site_fract_y
 _atom_site_fract_z
 _atom_site_occupancy
  Sc  Sc0  1  0.174005  0.675463  0.000000  1
  Sc  Sc1  1  0.674534  0.825337  0.000000  1
  Sc  Sc2  1  0.325041  0.174130  0.000000  1
  Sc  Sc3  1  0.825199  0.325350  0.000000  1
  Be  Be4  1  0.375507  0.875354  0.000000  1
  Be  Be5  1  0.875653  0.624582  0.000000  1
  Be  Be6  1  0.125040  0.375578  0.000000  1
  Be  Be7  1  0.624707  0.124680  0.000000  1
  Si  Si8  1  0.000164  0.000141  0.000000  1
  Si  Si9  1  0.500083  0.499912  0.000000  1
  Ir  Ir10  1  0.000432  0.499820  0.500000  1
  Ir  Ir11  1  0.499700  0.000414  0.500000  1
  Ir  Ir12  1  0.705149  0.567738  0.500000  1
  Ir  Ir13  1  0.567236  0.295182  0.500000  1
  Ir  Ir14  1  0.431917  0.704653  0.500000  1
  Ir  Ir15  1  0.932424  0.794553  0.500000  1
  Ir  Ir16  1  0.794675  0.067287  0.500000  1
  Ir  Ir17  1  0.205366  0.932311  0.500000  1
  Ir  Ir18  1  0.068009  0.205474  0.500000  1
  Rh  Rh19  1  0.295160  0.432043  0.500000  1
