# generated using pymatgen
data_Pr4Mn4CuAg3O20
_symmetry_space_group_name_H-M   'P 1'
_cell_length_a   5.82430800
_cell_length_b   7.95024147
_cell_length_c   8.85840294
_cell_angle_alpha   89.95346241
_cell_angle_beta   90.00000000
_cell_angle_gamma   90.00000000
_symmetry_Int_Tables_number   1
_chemical_formula_structural   Pr4Mn4CuAg3O20
_chemical_formula_sum   'Pr4 Mn4 Cu1 Ag3 O20'
_cell_volume   410.18515668
_cell_formula_units_Z   1
loop_
 _symmetry_equiv_pos_site_id
 _symmetry_equiv_pos_as_xyz
  1  'x, y, z'
loop_
 _atom_site_type_symbol
 _atom_site_label
 _atom_site_symmetry_multiplicity
 _atom_site_fract_x
 _atom_site_fract_y
 _atom_site_fract_z
 _atom_site_occupancy
  Pr  Pr0  1  0.000000  0.349099  0.674121  1
  Pr  Pr1  1  0.000000  0.650456  0.325314  1
  Pr  Pr2  1  0.000000  0.846954  0.825272  1
  Pr  Pr3  1  0.000000  0.155578  0.177638  1
  Mn  Mn4  1  0.259974  0.499701  0.002585  1
  Mn  Mn5  1  0.741270  0.002358  0.499684  1
  Mn  Mn6  1  0.740026  0.499701  0.002585  1
  Mn  Mn7  1  0.258730  0.002358  0.499684  1
  Cu  Cu8  1  0.500000  0.430491  0.343632  1
  Ag  Ag9  1  0.500000  0.068235  0.844352  1
  Ag  Ag10  1  0.500000  0.934375  0.156362  1
  Ag  Ag11  1  0.500000  0.562533  0.652248  1
  O  O12  1  0.232948  0.909653  0.298220  1
  O  O13  1  0.233440  0.094332  0.702188  1
  O  O14  1  0.747829  0.409832  0.209537  1
  O  O15  1  0.767037  0.588527  0.796880  1
  O  O16  1  0.766560  0.094332  0.702188  1
  O  O17  1  0.767052  0.909653  0.298220  1
  O  O18  1  0.232963  0.588527  0.796880  1
  O  O19  1  0.252171  0.409832  0.209537  1
  O  O20  1  0.500000  0.357865  0.943121  1
  O  O21  1  0.500000  0.644903  0.055267  1
  O  O22  1  0.500000  0.860392  0.558775  1
  O  O23  1  0.500000  0.145602  0.439660  1
  O  O24  1  0.254028  0.000608  0.000271  1
  O  O25  1  0.729031  0.491732  0.488295  1
  O  O26  1  0.745972  0.000608  0.000271  1
  O  O27  1  0.270969  0.491732  0.488295  1
  O  O28  1  0.000000  0.156497  0.451418  1
  O  O29  1  0.000000  0.845218  0.549582  1
  O  O30  1  0.000000  0.653323  0.052691  1
  O  O31  1  0.000000  0.344995  0.955226  1
