# generated using pymatgen
data_Lu6Sc8Al8Os7
_symmetry_space_group_name_H-M   'P 1'
_cell_length_a   9.21315451
_cell_length_b   9.21315436
_cell_length_c   9.21315500
_cell_angle_alpha   60.00000131
_cell_angle_beta   60.00000183
_cell_angle_gamma   59.99999863
_symmetry_Int_Tables_number   1
_chemical_formula_structural   Lu6Sc8Al8Os7
_chemical_formula_sum   'Lu6 Sc8 Al8 Os7'
_cell_volume   552.98084513
_cell_formula_units_Z   1
loop_
 _symmetry_equiv_pos_site_id
 _symmetry_equiv_pos_as_xyz
  1  'x, y, z'
loop_
 _atom_site_type_symbol
 _atom_site_label
 _atom_site_symmetry_multiplicity
 _atom_site_fract_x
 _atom_site_fract_y
 _atom_site_fract_z
 _atom_site_occupancy
  Lu  Lu0  1  0.696073  0.696073  0.303927  1
  Lu  Lu1  1  0.303927  0.696073  0.303927  1
  Lu  Lu2  1  0.696073  0.303927  0.303927  1
  Lu  Lu3  1  0.303927  0.303927  0.696073  1
  Lu  Lu4  1  0.696073  0.303927  0.696073  1
  Lu  Lu5  1  0.303927  0.696073  0.696073  1
  Sc  Sc6  1  0.877391  0.877391  0.367826  1
  Sc  Sc7  1  0.877391  0.367826  0.877391  1
  Sc  Sc8  1  0.367826  0.877391  0.877391  1
  Sc  Sc9  1  0.877391  0.877391  0.877391  1
  Sc  Sc10  1  0.122609  0.122609  0.632174  1
  Sc  Sc11  1  0.122609  0.632174  0.122609  1
  Sc  Sc12  1  0.632174  0.122609  0.122609  1
  Sc  Sc13  1  0.122609  0.122609  0.122609  1
  Al  Al14  1  0.668124  0.668124  0.995631  1
  Al  Al15  1  0.668124  0.995631  0.668124  1
  Al  Al16  1  0.995631  0.668124  0.668124  1
  Al  Al17  1  0.668124  0.668124  0.668124  1
  Al  Al18  1  0.331876  0.331876  0.004369  1
  Al  Al19  1  0.331876  0.004369  0.331876  1
  Al  Al20  1  0.004369  0.331876  0.331876  1
  Al  Al21  1  0.331876  0.331876  0.331876  1
  Os  Os22  1  0.000000  0.000000  0.000000  1
  Os  Os23  1  0.000000  0.000000  0.500000  1
  Os  Os24  1  0.500000  0.000000  0.500000  1
  Os  Os25  1  0.000000  0.500000  0.500000  1
  Os  Os26  1  0.500000  0.500000  0.000000  1
  Os  Os27  1  0.000000  0.500000  0.000000  1
  Os  Os28  1  0.500000  0.000000  0.000000  1
