# generated using pymatgen
data_PrNdFeCoSi2
_symmetry_space_group_name_H-M   'P 1'
_cell_length_a   4.01034400
_cell_length_b   4.00978500
_cell_length_c   7.14575800
_cell_angle_alpha   90.00000000
_cell_angle_beta   90.00000000
_cell_angle_gamma   90.00000000
_symmetry_Int_Tables_number   1
_chemical_formula_structural   PrNdFeCoSi2
_chemical_formula_sum   'Pr1 Nd1 Fe1 Co1 Si2'
_cell_volume   114.90819912
_cell_formula_units_Z   1
loop_
 _symmetry_equiv_pos_site_id
 _symmetry_equiv_pos_as_xyz
  1  'x, y, z'
loop_
 _atom_site_type_symbol
 _atom_site_label
 _atom_site_symmetry_multiplicity
 _atom_site_fract_x
 _atom_site_fract_y
 _atom_site_fract_z
 _atom_site_occupancy
  Pr  Pr0  1  0.500000  0.000000  0.682737  1
  Nd  Nd1  1  0.000000  0.500000  0.313614  1
  Fe  Fe2  1  0.000000  0.000000  0.000959  1
  Co  Co3  1  0.500000  0.500000  0.000882  1
  Si  Si4  1  0.000000  0.500000  0.836765  1
  Si  Si5  1  0.500000  0.000000  0.165042  1
