# generated using pymatgen
data_LiY16Cd3Ni4
_symmetry_space_group_name_H-M   'P 1'
_cell_length_a   9.63944745
_cell_length_b   9.63944780
_cell_length_c   9.63944784
_cell_angle_alpha   59.59568978
_cell_angle_beta   59.59568861
_cell_angle_gamma   59.59568993
_symmetry_Int_Tables_number   1
_chemical_formula_structural   LiY16Cd3Ni4
_chemical_formula_sum   'Li1 Y16 Cd3 Ni4'
_cell_volume   627.52632036
_cell_formula_units_Z   1
loop_
 _symmetry_equiv_pos_site_id
 _symmetry_equiv_pos_as_xyz
  1  'x, y, z'
loop_
 _atom_site_type_symbol
 _atom_site_label
 _atom_site_symmetry_multiplicity
 _atom_site_fract_x
 _atom_site_fract_y
 _atom_site_fract_z
 _atom_site_occupancy
  Li  Li0  1  0.429085  0.429085  0.429085  1
  Y  Y1  1  0.436121  0.063074  0.436121  1
  Y  Y2  1  0.063074  0.436121  0.436121  1
  Y  Y3  1  0.436121  0.436121  0.063074  1
  Y  Y4  1  0.063594  0.436721  0.063594  1
  Y  Y5  1  0.436721  0.063594  0.063594  1
  Y  Y6  1  0.063594  0.063594  0.436721  1
  Y  Y7  1  0.808744  0.188511  0.808744  1
  Y  Y8  1  0.188511  0.808744  0.808744  1
  Y  Y9  1  0.808744  0.808744  0.188511  1
  Y  Y10  1  0.186212  0.813029  0.186212  1
  Y  Y11  1  0.813029  0.186212  0.186212  1
  Y  Y12  1  0.186212  0.186212  0.813029  1
  Y  Y13  1  0.652292  0.652292  0.652292  1
  Y  Y14  1  0.651648  0.651648  0.045683  1
  Y  Y15  1  0.045683  0.651648  0.651648  1
  Y  Y16  1  0.651648  0.045683  0.651648  1
  Cd  Cd17  1  0.418444  0.418444  0.743736  1
  Cd  Cd18  1  0.743736  0.418444  0.418444  1
  Cd  Cd19  1  0.418444  0.743736  0.418444  1
  Ni  Ni20  1  0.856479  0.856479  0.856479  1
  Ni  Ni21  1  0.857615  0.857615  0.426634  1
  Ni  Ni22  1  0.426634  0.857615  0.857615  1
  Ni  Ni23  1  0.857615  0.426634  0.857615  1
