# generated using pymatgen
data_Tb2YbSi3(Ni3Sn)3
_symmetry_space_group_name_H-M   'P 1'
_cell_length_a   3.88433700
_cell_length_b   9.22566765
_cell_length_c   9.22417104
_cell_angle_alpha   59.99650829
_cell_angle_beta   90.00000000
_cell_angle_gamma   90.00000000
_symmetry_Int_Tables_number   1
_chemical_formula_structural   Tb2YbSi3(Ni3Sn)3
_chemical_formula_sum   'Tb2 Yb1 Si3 Ni9 Sn3'
_cell_volume   286.25784939
_cell_formula_units_Z   1
loop_
 _symmetry_equiv_pos_site_id
 _symmetry_equiv_pos_as_xyz
  1  'x, y, z'
loop_
 _atom_site_type_symbol
 _atom_site_label
 _atom_site_symmetry_multiplicity
 _atom_site_fract_x
 _atom_site_fract_y
 _atom_site_fract_z
 _atom_site_occupancy
  Tb  Tb0  1  0.500000  0.666662  0.666695  1
  Tb  Tb1  1  0.000000  0.000018  0.999970  1
  Yb  Yb2  1  0.500000  0.333310  0.333343  1
  Si  Si3  1  0.500000  0.751291  0.248667  1
  Si  Si4  1  0.500000  0.248683  0.999978  1
  Si  Si5  1  0.500000  0.999913  0.751349  1
  Ni  Ni6  1  0.000000  0.215685  0.153549  1
  Ni  Ni7  1  0.000000  0.153565  0.630717  1
  Ni  Ni8  1  0.000000  0.630700  0.215773  1
  Ni  Ni9  1  0.000000  0.847011  0.783272  1
  Ni  Ni10  1  0.000000  0.369695  0.847046  1
  Ni  Ni11  1  0.000000  0.783294  0.369711  1
  Ni  Ni12  1  0.500000  0.261660  0.738306  1
  Ni  Ni13  1  0.500000  0.738319  0.000012  1
  Ni  Ni14  1  0.500000  0.000052  0.261686  1
  Sn  Sn15  1  0.000000  0.460364  0.540220  1
  Sn  Sn16  1  0.000000  0.540236  0.999444  1
  Sn  Sn17  1  0.000000  0.999437  0.460364  1
