# generated using pymatgen
data_Ho4AsRh3F28
_symmetry_space_group_name_H-M   'P 1'
_cell_length_a   5.54861099
_cell_length_b   8.79106654
_cell_length_c   11.87026091
_cell_angle_alpha   62.66313106
_cell_angle_beta   90.28728539
_cell_angle_gamma   89.65697913
_symmetry_Int_Tables_number   1
_chemical_formula_structural   Ho4AsRh3F28
_chemical_formula_sum   'Ho4 As1 Rh3 F28'
_cell_volume   514.31846517
_cell_formula_units_Z   1
loop_
 _symmetry_equiv_pos_site_id
 _symmetry_equiv_pos_as_xyz
  1  'x, y, z'
loop_
 _atom_site_type_symbol
 _atom_site_label
 _atom_site_symmetry_multiplicity
 _atom_site_fract_x
 _atom_site_fract_y
 _atom_site_fract_z
 _atom_site_occupancy
  Ho  Ho0  1  0.756613  0.818427  0.762835  1
  Ho  Ho1  1  0.255595  0.184484  0.729364  1
  Ho  Ho2  1  0.231977  0.184341  0.248264  1
  Ho  Ho3  1  0.737410  0.804326  0.273913  1
  As  As4  1  0.765807  0.276619  0.952662  1
  Rh  Rh5  1  0.252834  0.721076  0.548979  1
  Rh  Rh6  1  0.241743  0.729219  0.041442  1
  Rh  Rh7  1  0.736813  0.269726  0.459525  1
  F  F8  1  0.457010  0.706692  0.919023  1
  F  F9  1  0.929317  0.292220  0.591095  1
  F  F10  1  0.593525  0.301763  0.066788  1
  F  F11  1  0.048490  0.700931  0.421365  1
  F  F12  1  0.431535  0.275088  0.542636  1
  F  F13  1  0.954996  0.714630  0.949111  1
  F  F14  1  0.544994  0.715253  0.457758  1
  F  F15  1  0.040323  0.279399  0.031545  1
  F  F16  1  0.781773  0.501207  0.862958  1
  F  F17  1  0.269485  0.470969  0.650634  1
  F  F18  1  0.235744  0.474101  0.138553  1
  F  F19  1  0.722558  0.517555  0.359672  1
  F  F20  1  0.757921  0.052076  0.034813  1
  F  F21  1  0.249441  0.970647  0.453636  1
  F  F22  1  0.235804  0.982004  0.941871  1
  F  F23  1  0.737421  0.021383  0.552653  1
  F  F24  1  0.968110  0.720921  0.646091  1
  F  F25  1  0.499915  0.279047  0.867578  1
  F  F26  1  0.032652  0.271104  0.368855  1
  F  F27  1  0.521414  0.740600  0.138921  1
  F  F28  1  0.030729  0.751870  0.166395  1
  F  F29  1  0.554529  0.248543  0.324179  1
  F  F30  1  0.940939  0.261779  0.832030  1
  F  F31  1  0.455427  0.738349  0.679289  1
  F  F32  1  0.431377  0.985344  0.229779  1
  F  F33  1  0.920365  0.030043  0.261914  1
  F  F34  1  0.589704  0.038071  0.767716  1
  F  F35  1  0.085711  0.970195  0.726155  1
