# generated using pymatgen
data_Be3Fe2Si3Rh4
_symmetry_space_group_name_H-M   'P 1'
_cell_length_a   3.96398700
_cell_length_b   5.65260200
_cell_length_c   11.96281700
_cell_angle_alpha   90.00000000
_cell_angle_beta   90.00307443
_cell_angle_gamma   90.00000000
_symmetry_Int_Tables_number   1
_chemical_formula_structural   Be3Fe2Si3Rh4
_chemical_formula_sum   'Be6 Fe4 Si6 Rh8'
_cell_volume   268.04893637
_cell_formula_units_Z   2
loop_
 _symmetry_equiv_pos_site_id
 _symmetry_equiv_pos_as_xyz
  1  'x, y, z'
loop_
 _atom_site_type_symbol
 _atom_site_label
 _atom_site_symmetry_multiplicity
 _atom_site_fract_x
 _atom_site_fract_y
 _atom_site_fract_z
 _atom_site_occupancy
  Be  Be0  1  0.000140  0.000000  0.009721  1
  Be  Be1  1  0.499624  0.500000  0.157222  1
  Be  Be2  1  0.999766  0.000000  0.317085  1
  Be  Be3  1  0.499972  0.500000  0.497096  1
  Be  Be4  1  0.000237  0.000000  0.669518  1
  Be  Be5  1  0.500282  0.500000  0.849201  1
  Fe  Fe6  1  0.500195  0.253867  0.003068  1
  Fe  Fe7  1  0.500195  0.746133  0.003068  1
  Fe  Fe8  1  0.999661  0.246205  0.163697  1
  Fe  Fe9  1  0.999661  0.753796  0.163697  1
  Si  Si10  1  0.000150  0.500000  0.012521  1
  Si  Si11  1  0.499649  0.000000  0.154319  1
  Si  Si12  1  0.999764  0.500000  0.315472  1
  Si  Si13  1  0.499980  0.000000  0.498068  1
  Si  Si14  1  0.000175  0.500000  0.668557  1
  Si  Si15  1  0.500255  0.000000  0.851094  1
  Rh  Rh16  1  0.499847  0.248457  0.328461  1
  Rh  Rh17  1  0.499847  0.751543  0.328461  1
  Rh  Rh18  1  0.999940  0.251527  0.497587  1
  Rh  Rh19  1  0.999940  0.748473  0.497587  1
  Rh  Rh20  1  0.500190  0.248465  0.669033  1
  Rh  Rh21  1  0.500190  0.751535  0.669033  1
  Rh  Rh22  1  0.000170  0.251602  0.838218  1
  Rh  Rh23  1  0.000170  0.748399  0.838218  1
