# generated using pymatgen
data_LiNd3Zn2PdPt2
_symmetry_space_group_name_H-M   'P 1'
_cell_length_a   7.46478269
_cell_length_b   7.46478281
_cell_length_c   3.97518200
_cell_angle_alpha   90.00000000
_cell_angle_beta   90.00000000
_cell_angle_gamma   119.67700298
_symmetry_Int_Tables_number   1
_chemical_formula_structural   LiNd3Zn2PdPt2
_chemical_formula_sum   'Li1 Nd3 Zn2 Pd1 Pt2'
_cell_volume   192.45372664
_cell_formula_units_Z   1
loop_
 _symmetry_equiv_pos_site_id
 _symmetry_equiv_pos_as_xyz
  1  'x, y, z'
loop_
 _atom_site_type_symbol
 _atom_site_label
 _atom_site_symmetry_multiplicity
 _atom_site_fract_x
 _atom_site_fract_y
 _atom_site_fract_z
 _atom_site_occupancy
  Li  Li0  1  0.768407  0.768407  0.500000  1
  Nd  Nd1  1  0.399979  0.399979  0.000000  1
  Nd  Nd2  1  0.588836  0.003406  0.000000  1
  Nd  Nd3  1  0.003406  0.588836  0.000000  1
  Zn  Zn4  1  0.241720  0.996121  0.500000  1
  Zn  Zn5  1  0.996121  0.241720  0.500000  1
  Pd  Pd6  1  0.006996  0.006996  0.000000  1
  Pt  Pt7  1  0.663148  0.331387  0.500000  1
  Pt  Pt8  1  0.331387  0.663148  0.500000  1
