# generated using pymatgen
data_La20GaSi10P
_symmetry_space_group_name_H-M   'P 1'
_cell_length_a   7.89725500
_cell_length_b   7.89725500
_cell_length_c   14.54449500
_cell_angle_alpha   90.00000000
_cell_angle_beta   90.00000000
_cell_angle_gamma   90.00000000
_symmetry_Int_Tables_number   1
_chemical_formula_structural   La20GaSi10P
_chemical_formula_sum   'La20 Ga1 Si10 P1'
_cell_volume   907.09123325
_cell_formula_units_Z   1
loop_
 _symmetry_equiv_pos_site_id
 _symmetry_equiv_pos_as_xyz
  1  'x, y, z'
loop_
 _atom_site_type_symbol
 _atom_site_label
 _atom_site_symmetry_multiplicity
 _atom_site_fract_x
 _atom_site_fract_y
 _atom_site_fract_z
 _atom_site_occupancy
  La  La0  1  0.500000  0.000000  0.777139  1
  La  La1  1  0.327548  0.316764  0.104426  1
  La  La2  1  0.831017  0.813213  0.895475  1
  La  La3  1  0.000000  0.500000  0.226466  1
  La  La4  1  0.826426  0.181809  0.392202  1
  La  La5  1  0.168983  0.186787  0.895475  1
  La  La6  1  0.672452  0.683236  0.104426  1
  La  La7  1  0.000000  0.500000  0.718197  1
  La  La8  1  0.811659  0.833873  0.608104  1
  La  La9  1  0.318191  0.326426  0.392202  1
  La  La10  1  0.183236  0.827548  0.104426  1
  La  La11  1  0.188341  0.166127  0.608104  1
  La  La12  1  0.816764  0.172452  0.104426  1
  La  La13  1  0.333873  0.688341  0.608104  1
  La  La14  1  0.500000  0.000000  0.276047  1
  La  La15  1  0.686787  0.331017  0.895475  1
  La  La16  1  0.666127  0.311659  0.608104  1
  La  La17  1  0.313213  0.668983  0.895475  1
  La  La18  1  0.173574  0.818191  0.392202  1
  La  La19  1  0.681809  0.673574  0.392202  1
  Ga  Ga20  1  0.000000  0.500000  0.500412  1
  Si  Si21  1  0.613014  0.387121  0.247968  1
  Si  Si22  1  0.887085  0.114071  0.752206  1
  Si  Si23  1  0.500000  0.000000  0.494914  1
  Si  Si24  1  0.887121  0.886986  0.247968  1
  Si  Si25  1  0.112915  0.885929  0.752206  1
  Si  Si26  1  0.385929  0.387085  0.752206  1
  Si  Si27  1  0.112879  0.113014  0.247968  1
  Si  Si28  1  0.386986  0.612879  0.247968  1
  Si  Si29  1  0.614071  0.612915  0.752206  1
  Si  Si30  1  0.500000  0.000000  0.995430  1
  P  P31  1  0.000000  0.500000  0.009868  1
