# generated using pymatgen
data_Sr4CaY(MoO6)2
_symmetry_space_group_name_H-M   'P 1'
_cell_length_a   5.83587401
_cell_length_b   5.96961930
_cell_length_c   8.23996250
_cell_angle_alpha   89.96299202
_cell_angle_beta   90.08520656
_cell_angle_gamma   90.00585512
_symmetry_Int_Tables_number   1
_chemical_formula_structural   Sr4CaY(MoO6)2
_chemical_formula_sum   'Sr4 Ca1 Y1 Mo2 O12'
_cell_volume   287.06299082
_cell_formula_units_Z   1
loop_
 _symmetry_equiv_pos_site_id
 _symmetry_equiv_pos_as_xyz
  1  'x, y, z'
loop_
 _atom_site_type_symbol
 _atom_site_label
 _atom_site_symmetry_multiplicity
 _atom_site_fract_x
 _atom_site_fract_y
 _atom_site_fract_z
 _atom_site_occupancy
  Sr  Sr0  1  0.989309  0.042196  0.246384  1
  Sr  Sr1  1  0.511160  0.545723  0.248378  1
  Sr  Sr2  1  0.488839  0.454277  0.751622  1
  Sr  Sr3  1  0.010691  0.957805  0.753617  1
  Ca  Ca4  1  0.500001  0.000000  0.500001  1
  Y  Y5  1  0.000000  0.500000  0.000000  1
  Mo  Mo6  1  0.499999  0.000000  0.999999  1
  Mo  Mo7  1  0.000001  0.500000  0.500000  1
  O  O8  1  0.781891  0.803193  0.042933  1
  O  O9  1  0.693875  0.280959  0.049414  1
  O  O10  1  0.415816  0.973357  0.227033  1
  O  O11  1  0.084488  0.473524  0.269316  1
  O  O12  1  0.818357  0.767705  0.452924  1
  O  O13  1  0.731552  0.314549  0.459531  1
  O  O14  1  0.268447  0.685452  0.540469  1
  O  O15  1  0.181643  0.232294  0.547076  1
  O  O16  1  0.915513  0.526475  0.730684  1
  O  O17  1  0.584184  0.026643  0.772967  1
  O  O18  1  0.306125  0.719042  0.950586  1
  O  O19  1  0.218108  0.196807  0.957068  1
