# generated using pymatgen
data_Ti12CoRe5Ir6
_symmetry_space_group_name_H-M   'P 1'
_cell_length_a   4.38909800
_cell_length_b   6.21304800
_cell_length_c   13.18337700
_cell_angle_alpha   90.00000000
_cell_angle_beta   89.99909112
_cell_angle_gamma   90.00000000
_symmetry_Int_Tables_number   1
_chemical_formula_structural   Ti12CoRe5Ir6
_chemical_formula_sum   'Ti12 Co1 Re5 Ir6'
_cell_volume   359.50642661
_cell_formula_units_Z   1
loop_
 _symmetry_equiv_pos_site_id
 _symmetry_equiv_pos_as_xyz
  1  'x, y, z'
loop_
 _atom_site_type_symbol
 _atom_site_label
 _atom_site_symmetry_multiplicity
 _atom_site_fract_x
 _atom_site_fract_y
 _atom_site_fract_z
 _atom_site_occupancy
  Ti  Ti0  1  0.500000  0.247248  0.000000  1
  Ti  Ti1  1  0.500000  0.752754  0.000000  1
  Ti  Ti2  1  0.000167  0.248569  0.165504  1
  Ti  Ti3  1  0.000167  0.751431  0.165504  1
  Ti  Ti4  1  0.500126  0.250253  0.333047  1
  Ti  Ti5  1  0.500126  0.749745  0.333047  1
  Ti  Ti6  1  0.000000  0.249774  0.500000  1
  Ti  Ti7  1  0.000000  0.750226  0.500000  1
  Ti  Ti8  1  0.499873  0.250253  0.666953  1
  Ti  Ti9  1  0.499873  0.749745  0.666953  1
  Ti  Ti10  1  0.999833  0.248569  0.834496  1
  Ti  Ti11  1  0.999833  0.751431  0.834496  1
  Co  Co12  1  0.000000  0.000000  0.000000  1
  Re  Re13  1  0.500272  0.499999  0.165573  1
  Re  Re14  1  0.000248  0.000000  0.332650  1
  Re  Re15  1  0.500000  0.499999  0.500000  1
  Re  Re16  1  0.999752  0.000000  0.667350  1
  Re  Re17  1  0.499727  0.499999  0.834427  1
  Ir  Ir18  1  0.000000  0.499999  0.000000  1
  Ir  Ir19  1  0.500087  0.000000  0.165005  1
  Ir  Ir20  1  0.000076  0.499999  0.332379  1
  Ir  Ir21  1  0.500000  0.000000  0.500000  1
  Ir  Ir22  1  0.999924  0.499999  0.667621  1
  Ir  Ir23  1  0.499912  0.000000  0.834994  1
