# generated using pymatgen
data_Er2PaTi(Co4P3)2
_symmetry_space_group_name_H-M   'P 1'
_cell_length_a   3.70724900
_cell_length_b   10.61879800
_cell_length_c   12.20596600
_cell_angle_alpha   90.00000000
_cell_angle_beta   90.00000000
_cell_angle_gamma   90.00000000
_symmetry_Int_Tables_number   1
_chemical_formula_structural   Er2PaTi(Co4P3)2
_chemical_formula_sum   'Er4 Pa2 Ti2 Co16 P12'
_cell_volume   480.50650556
_cell_formula_units_Z   2
loop_
 _symmetry_equiv_pos_site_id
 _symmetry_equiv_pos_as_xyz
  1  'x, y, z'
loop_
 _atom_site_type_symbol
 _atom_site_label
 _atom_site_symmetry_multiplicity
 _atom_site_fract_x
 _atom_site_fract_y
 _atom_site_fract_z
 _atom_site_occupancy
  Er  Er0  1  0.250000  0.931211  0.796758  1
  Er  Er1  1  0.250000  0.568789  0.796758  1
  Er  Er2  1  0.750000  0.068789  0.203242  1
  Er  Er3  1  0.750000  0.431211  0.203242  1
  Pa  Pa4  1  0.750000  0.250000  0.467067  1
  Pa  Pa5  1  0.250000  0.750000  0.532933  1
  Ti  Ti6  1  0.250000  0.250000  0.847386  1
  Ti  Ti7  1  0.750000  0.750000  0.152614  1
  Co  Co8  1  0.250000  0.250000  0.303693  1
  Co  Co9  1  0.750000  0.750000  0.696307  1
  Co  Co10  1  0.750000  0.250000  0.012626  1
  Co  Co11  1  0.250000  0.750000  0.987374  1
  Co  Co12  1  0.250000  0.416936  0.006708  1
  Co  Co13  1  0.250000  0.083064  0.006708  1
  Co  Co14  1  0.750000  0.583064  0.993292  1
  Co  Co15  1  0.750000  0.916936  0.993292  1
  Co  Co16  1  0.250000  0.451252  0.566104  1
  Co  Co17  1  0.250000  0.048748  0.566104  1
  Co  Co18  1  0.750000  0.548748  0.433896  1
  Co  Co19  1  0.750000  0.951252  0.433896  1
  Co  Co20  1  0.250000  0.870665  0.293946  1
  Co  Co21  1  0.250000  0.629335  0.293946  1
  Co  Co22  1  0.750000  0.129335  0.706054  1
  Co  Co23  1  0.750000  0.370665  0.706054  1
  P  P24  1  0.250000  0.250000  0.120629  1
  P  P25  1  0.750000  0.750000  0.879371  1
  P  P26  1  0.250000  0.250000  0.646073  1
  P  P27  1  0.750000  0.750000  0.353927  1
  P  P28  1  0.250000  0.442500  0.381705  1
  P  P29  1  0.250000  0.057500  0.381705  1
  P  P30  1  0.750000  0.557500  0.618295  1
  P  P31  1  0.750000  0.942500  0.618295  1
  P  P32  1  0.250000  0.907734  0.107410  1
  P  P33  1  0.250000  0.592266  0.107410  1
  P  P34  1  0.750000  0.092266  0.892590  1
  P  P35  1  0.750000  0.407734  0.892590  1
