# generated using pymatgen
data_HoTm9(InGa2)2
_symmetry_space_group_name_H-M   'P 1'
_cell_length_a   7.63354500
_cell_length_b   7.63482306
_cell_length_c   14.16679611
_cell_angle_alpha   90.01456331
_cell_angle_beta   90.00000000
_cell_angle_gamma   90.00000000
_symmetry_Int_Tables_number   1
_chemical_formula_structural   HoTm9(InGa2)2
_chemical_formula_sum   'Ho2 Tm18 In4 Ga8'
_cell_volume   825.65169426
_cell_formula_units_Z   2
loop_
 _symmetry_equiv_pos_site_id
 _symmetry_equiv_pos_as_xyz
  1  'x, y, z'
loop_
 _atom_site_type_symbol
 _atom_site_label
 _atom_site_symmetry_multiplicity
 _atom_site_fract_x
 _atom_site_fract_y
 _atom_site_fract_z
 _atom_site_occupancy
  Ho  Ho0  1  0.839128  0.172755  0.605755  1
  Ho  Ho1  1  0.160872  0.172755  0.105755  1
  Tm  Tm2  1  0.000135  0.500182  0.759189  1
  Tm  Tm3  1  0.999865  0.500182  0.259189  1
  Tm  Tm4  1  0.500160  0.999884  0.241019  1
  Tm  Tm5  1  0.499840  0.999884  0.741019  1
  Tm  Tm6  1  0.672529  0.660613  0.606095  1
  Tm  Tm7  1  0.672515  0.339596  0.106063  1
  Tm  Tm8  1  0.827272  0.839225  0.393890  1
  Tm  Tm9  1  0.172728  0.839225  0.893890  1
  Tm  Tm10  1  0.327485  0.339596  0.606063  1
  Tm  Tm11  1  0.327471  0.660613  0.106095  1
  Tm  Tm12  1  0.172851  0.160612  0.393904  1
  Tm  Tm13  1  0.827149  0.160612  0.893904  1
  Tm  Tm14  1  0.660574  0.327314  0.393862  1
  Tm  Tm15  1  0.339426  0.327314  0.893862  1
  Tm  Tm16  1  0.160606  0.827098  0.606091  1
  Tm  Tm17  1  0.839394  0.827098  0.106091  1
  Tm  Tm18  1  0.339401  0.672802  0.393882  1
  Tm  Tm19  1  0.660599  0.672802  0.893882  1
  In  In20  1  0.000254  0.500334  0.496207  1
  In  In21  1  0.999746  0.500334  0.996207  1
  In  In22  1  0.499736  0.999757  0.503563  1
  In  In23  1  0.500264  0.999757  0.003563  1
  Ga  Ga24  1  0.875374  0.874872  0.750172  1
  Ga  Ga25  1  0.874877  0.124635  0.250201  1
  Ga  Ga26  1  0.624850  0.624874  0.250025  1
  Ga  Ga27  1  0.375150  0.624874  0.750025  1
  Ga  Ga28  1  0.125123  0.124635  0.750201  1
  Ga  Ga29  1  0.124626  0.874872  0.250172  1
  Ga  Ga30  1  0.375441  0.375447  0.250082  1
  Ga  Ga31  1  0.624559  0.375447  0.750082  1
