# generated using pymatgen
data_Y9Th3Os3Ru
_symmetry_space_group_name_H-M   'P 1'
_cell_length_a   6.41984117
_cell_length_b   7.33897139
_cell_length_c   9.45152200
_cell_angle_alpha   90.00000000
_cell_angle_beta   90.00000000
_cell_angle_gamma   89.19442444
_symmetry_Int_Tables_number   1
_chemical_formula_structural   Y9Th3Os3Ru
_chemical_formula_sum   'Y9 Th3 Os3 Ru1'
_cell_volume   445.26473464
_cell_formula_units_Z   1
loop_
 _symmetry_equiv_pos_site_id
 _symmetry_equiv_pos_as_xyz
  1  'x, y, z'
loop_
 _atom_site_type_symbol
 _atom_site_label
 _atom_site_symmetry_multiplicity
 _atom_site_fract_x
 _atom_site_fract_y
 _atom_site_fract_z
 _atom_site_occupancy
  Y  Y0  1  0.861961  0.536174  0.250000  1
  Y  Y1  1  0.171121  0.173782  0.068671  1
  Y  Y2  1  0.831944  0.823999  0.936066  1
  Y  Y3  1  0.664018  0.327922  0.936170  1
  Y  Y4  1  0.831944  0.823999  0.563934  1
  Y  Y5  1  0.328187  0.674595  0.068194  1
  Y  Y6  1  0.171121  0.173782  0.431329  1
  Y  Y7  1  0.328187  0.674595  0.431806  1
  Y  Y8  1  0.664018  0.327922  0.563830  1
  Th  Th9  1  0.652333  0.048913  0.250000  1
  Th  Th10  1  0.344233  0.950619  0.750000  1
  Th  Th11  1  0.147398  0.451088  0.750000  1
  Os  Os12  1  0.463325  0.373048  0.250000  1
  Os  Os13  1  0.533349  0.626831  0.750000  1
  Os  Os14  1  0.031939  0.880460  0.250000  1
  Ru  Ru15  1  0.974922  0.132268  0.750000  1
