# generated using pymatgen
data_Tb2Sc4Co11Si6Ir
_symmetry_space_group_name_H-M   'P 1'
_cell_length_a   5.15661404
_cell_length_b   5.15661343
_cell_length_c   14.54631400
_cell_angle_alpha   89.80443270
_cell_angle_beta   90.19556728
_cell_angle_gamma   120.66285979
_symmetry_Int_Tables_number   1
_chemical_formula_structural   Tb2Sc4Co11Si6Ir
_chemical_formula_sum   'Tb2 Sc4 Co11 Si6 Ir1'
_cell_volume   332.71293208
_cell_formula_units_Z   1
loop_
 _symmetry_equiv_pos_site_id
 _symmetry_equiv_pos_as_xyz
  1  'x, y, z'
loop_
 _atom_site_type_symbol
 _atom_site_label
 _atom_site_symmetry_multiplicity
 _atom_site_fract_x
 _atom_site_fract_y
 _atom_site_fract_z
 _atom_site_occupancy
  Tb  Tb0  1  0.333080  0.666920  0.751186  1
  Tb  Tb1  1  0.667403  0.332597  0.249402  1
  Sc  Sc2  1  0.333871  0.666129  0.539163  1
  Sc  Sc3  1  0.665716  0.334284  0.466658  1
  Sc  Sc4  1  0.666575  0.333425  0.034838  1
  Sc  Sc5  1  0.333707  0.666293  0.963549  1
  Co  Co6  1  0.168083  0.337544  0.123663  1
  Co  Co7  1  0.832149  0.662521  0.873100  1
  Co  Co8  1  0.662456  0.831917  0.123663  1
  Co  Co9  1  0.831464  0.663061  0.628482  1
  Co  Co10  1  0.337479  0.167851  0.873100  1
  Co  Co11  1  0.170037  0.334835  0.373551  1
  Co  Co12  1  0.168056  0.831944  0.126550  1
  Co  Co13  1  0.336939  0.168536  0.628482  1
  Co  Co14  1  0.831763  0.168237  0.872415  1
  Co  Co15  1  0.665165  0.829963  0.373551  1
  Co  Co16  1  0.830485  0.169515  0.629491  1
  Si  Si17  1  0.992402  0.007598  0.245997  1
  Si  Si18  1  0.000580  0.999420  0.750651  1
  Si  Si19  1  0.342755  0.657245  0.245993  1
  Si  Si20  1  0.665888  0.334112  0.750848  1
  Si  Si21  1  0.000070  0.999930  0.998761  1
  Si  Si22  1  0.993736  0.006264  0.503984  1
  Ir  Ir23  1  0.170144  0.829856  0.372922  1
