# generated using pymatgen
data_Dy3Tm5Cd2CoIr
_symmetry_space_group_name_H-M   'P 1'
_cell_length_a   9.50328213
_cell_length_b   9.50328259
_cell_length_c   9.48763400
_cell_angle_alpha   60.05445585
_cell_angle_beta   60.05445426
_cell_angle_gamma   60.22091522
_symmetry_Int_Tables_number   1
_chemical_formula_structural   Dy3Tm5Cd2CoIr
_chemical_formula_sum   'Dy6 Tm10 Cd4 Co2 Ir2'
_cell_volume   607.39078872
_cell_formula_units_Z   2
loop_
 _symmetry_equiv_pos_site_id
 _symmetry_equiv_pos_as_xyz
  1  'x, y, z'
loop_
 _atom_site_type_symbol
 _atom_site_label
 _atom_site_symmetry_multiplicity
 _atom_site_fract_x
 _atom_site_fract_y
 _atom_site_fract_z
 _atom_site_occupancy
  Dy  Dy0  1  0.189580  0.811100  0.809955  1
  Dy  Dy1  1  0.811100  0.189580  0.189365  1
  Dy  Dy2  1  0.811100  0.189580  0.809955  1
  Dy  Dy3  1  0.189580  0.811100  0.189365  1
  Dy  Dy4  1  0.809508  0.809508  0.190492  1
  Dy  Dy5  1  0.188325  0.188325  0.811675  1
  Tm  Tm6  1  0.595071  0.595071  0.602914  1
  Tm  Tm7  1  0.595071  0.595071  0.206945  1
  Tm  Tm8  1  0.591672  0.210693  0.598818  1
  Tm  Tm9  1  0.210693  0.591672  0.598818  1
  Tm  Tm10  1  0.066672  0.437341  0.438593  1
  Tm  Tm11  1  0.437341  0.066672  0.057395  1
  Tm  Tm12  1  0.437341  0.066672  0.438593  1
  Tm  Tm13  1  0.066672  0.437341  0.057395  1
  Tm  Tm14  1  0.437305  0.437305  0.062695  1
  Tm  Tm15  1  0.061447  0.061447  0.438553  1
  Cd  Cd16  1  0.830508  0.830508  0.829884  1
  Cd  Cd17  1  0.830508  0.830508  0.509100  1
  Cd  Cd18  1  0.831160  0.507598  0.830621  1
  Cd  Cd19  1  0.507598  0.831160  0.830621  1
  Co  Co20  1  0.391499  0.391499  0.390215  1
  Co  Co21  1  0.391499  0.391499  0.826789  1
  Ir  Ir22  1  0.392819  0.825935  0.390623  1
  Ir  Ir23  1  0.825935  0.392819  0.390623  1
