# generated using pymatgen
data_Zr6Al16Pt6Rh
_symmetry_space_group_name_H-M   'P 1'
_cell_length_a   8.78631972
_cell_length_b   8.78631977
_cell_length_c   8.78631900
_cell_angle_alpha   59.99999915
_cell_angle_beta   59.99999894
_cell_angle_gamma   59.99999950
_symmetry_Int_Tables_number   1
_chemical_formula_structural   Zr6Al16Pt6Rh
_chemical_formula_sum   'Zr6 Al16 Pt6 Rh1'
_cell_volume   479.62959034
_cell_formula_units_Z   1
loop_
 _symmetry_equiv_pos_site_id
 _symmetry_equiv_pos_as_xyz
  1  'x, y, z'
loop_
 _atom_site_type_symbol
 _atom_site_label
 _atom_site_symmetry_multiplicity
 _atom_site_fract_x
 _atom_site_fract_y
 _atom_site_fract_z
 _atom_site_occupancy
  Zr  Zr0  1  0.687494  0.687494  0.312506  1
  Zr  Zr1  1  0.312506  0.687494  0.312506  1
  Zr  Zr2  1  0.687494  0.312506  0.312506  1
  Zr  Zr3  1  0.312506  0.312506  0.687494  1
  Zr  Zr4  1  0.687494  0.312506  0.687494  1
  Zr  Zr5  1  0.312506  0.687494  0.687494  1
  Al  Al6  1  0.881381  0.881381  0.355855  1
  Al  Al7  1  0.881381  0.355855  0.881381  1
  Al  Al8  1  0.355855  0.881381  0.881381  1
  Al  Al9  1  0.881381  0.881381  0.881381  1
  Al  Al10  1  0.118619  0.118619  0.644145  1
  Al  Al11  1  0.118619  0.644145  0.118619  1
  Al  Al12  1  0.644145  0.118619  0.118619  1
  Al  Al13  1  0.118619  0.118619  0.118619  1
  Al  Al14  1  0.664604  0.664604  0.006187  1
  Al  Al15  1  0.664604  0.006187  0.664604  1
  Al  Al16  1  0.006187  0.664604  0.664604  1
  Al  Al17  1  0.664604  0.664604  0.664604  1
  Al  Al18  1  0.335396  0.335396  0.993813  1
  Al  Al19  1  0.335396  0.993813  0.335396  1
  Al  Al20  1  0.993813  0.335396  0.335396  1
  Al  Al21  1  0.335396  0.335396  0.335396  1
  Pt  Pt22  1  0.000000  0.000000  0.500000  1
  Pt  Pt23  1  0.500000  0.000000  0.500000  1
  Pt  Pt24  1  0.000000  0.500000  0.500000  1
  Pt  Pt25  1  0.500000  0.500000  0.000000  1
  Pt  Pt26  1  0.000000  0.500000  0.000000  1
  Pt  Pt27  1  0.500000  0.000000  0.000000  1
  Rh  Rh28  1  0.000000  0.000000  0.000000  1
