# generated using pymatgen
data_Lu4Si4Ni3Ru
_symmetry_space_group_name_H-M   'P 1'
_cell_length_a   4.11064800
_cell_length_b   6.68462552
_cell_length_c   7.17518641
_cell_angle_alpha   91.14887635
_cell_angle_beta   90.00000000
_cell_angle_gamma   90.00000000
_symmetry_Int_Tables_number   1
_chemical_formula_structural   Lu4Si4Ni3Ru
_chemical_formula_sum   'Lu4 Si4 Ni3 Ru1'
_cell_volume   197.12116000
_cell_formula_units_Z   1
loop_
 _symmetry_equiv_pos_site_id
 _symmetry_equiv_pos_as_xyz
  1  'x, y, z'
loop_
 _atom_site_type_symbol
 _atom_site_label
 _atom_site_symmetry_multiplicity
 _atom_site_fract_x
 _atom_site_fract_y
 _atom_site_fract_z
 _atom_site_occupancy
  Lu  Lu0  1  0.750000  0.007974  0.809585  1
  Lu  Lu1  1  0.250000  0.497599  0.297804  1
  Lu  Lu2  1  0.750000  0.505992  0.705557  1
  Lu  Lu3  1  0.250000  0.996992  0.188843  1
  Si  Si4  1  0.750000  0.208535  0.400467  1
  Si  Si5  1  0.250000  0.301530  0.902127  1
  Si  Si6  1  0.750000  0.698019  0.096889  1
  Si  Si7  1  0.250000  0.796634  0.604446  1
  Ni  Ni8  1  0.250000  0.155282  0.564373  1
  Ni  Ni9  1  0.750000  0.317630  0.074116  1
  Ni  Ni10  1  0.250000  0.672799  0.920602  1
  Ru  Ru11  1  0.750000  0.841014  0.435192  1
