# generated using pymatgen
data_SrLaFeSbO6
_symmetry_space_group_name_H-M   'P 1'
_cell_length_a   5.66544104
_cell_length_b   8.16858013
_cell_length_c   5.81208430
_cell_angle_alpha   90.15113470
_cell_angle_beta   89.38230654
_cell_angle_gamma   89.66802037
_symmetry_Int_Tables_number   1
_chemical_formula_structural   SrLaFeSbO6
_chemical_formula_sum   'Sr2 La2 Fe2 Sb2 O12'
_cell_volume   268.95405137
_cell_formula_units_Z   2
loop_
 _symmetry_equiv_pos_site_id
 _symmetry_equiv_pos_as_xyz
  1  'x, y, z'
loop_
 _atom_site_type_symbol
 _atom_site_label
 _atom_site_symmetry_multiplicity
 _atom_site_fract_x
 _atom_site_fract_y
 _atom_site_fract_z
 _atom_site_occupancy
  Sr  Sr0  1  0.991454  0.251189  0.963247  1
  Sr  Sr1  1  0.491009  0.750764  0.536063  1
  La  La2  1  0.512683  0.251633  0.451987  1
  La  La3  1  0.013260  0.751368  0.048158  1
  Fe  Fe4  1  0.501682  0.500789  0.995682  1
  Fe  Fe5  1  0.000643  0.999951  0.504851  1
  Sb  Sb6  1  0.500555  0.000416  0.997924  1
  Sb  Sb7  1  0.000058  0.500161  0.502193  1
  O  O8  1  0.424722  0.239499  0.029771  1
  O  O9  1  0.925977  0.739325  0.469451  1
  O  O10  1  0.791174  0.455091  0.227084  1
  O  O11  1  0.289760  0.955413  0.277215  1
  O  O12  1  0.775511  0.040312  0.204380  1
  O  O13  1  0.279576  0.538867  0.293726  1
  O  O14  1  0.093097  0.261802  0.522124  1
  O  O15  1  0.594821  0.761739  0.978270  1
  O  O16  1  0.710933  0.454055  0.695450  1
  O  O17  1  0.215708  0.952889  0.806540  1
  O  O18  1  0.695004  0.047249  0.708987  1
  O  O19  1  0.192376  0.547490  0.786898  1
