# generated using pymatgen
data_Ho8MgInNiIr
_symmetry_space_group_name_H-M   'P 1'
_cell_length_a   9.57002682
_cell_length_b   9.59648473
_cell_length_c   9.59015525
_cell_angle_alpha   60.34462167
_cell_angle_beta   60.13749045
_cell_angle_gamma   59.91201009
_symmetry_Int_Tables_number   1
_chemical_formula_structural   Ho8MgInNiIr
_chemical_formula_sum   'Ho16 Mg2 In2 Ni2 Ir2'
_cell_volume   624.61760483
_cell_formula_units_Z   2
loop_
 _symmetry_equiv_pos_site_id
 _symmetry_equiv_pos_as_xyz
  1  'x, y, z'
loop_
 _atom_site_type_symbol
 _atom_site_label
 _atom_site_symmetry_multiplicity
 _atom_site_fract_x
 _atom_site_fract_y
 _atom_site_fract_z
 _atom_site_occupancy
  Ho  Ho0  1  0.437831  0.431872  0.063397  1
  Ho  Ho1  1  0.647005  0.652090  0.048635  1
  Ho  Ho2  1  0.189950  0.810919  0.186724  1
  Ho  Ho3  1  0.059915  0.437093  0.060565  1
  Ho  Ho4  1  0.188089  0.810287  0.811912  1
  Ho  Ho5  1  0.061583  0.438782  0.437435  1
  Ho  Ho6  1  0.811145  0.188697  0.188042  1
  Ho  Ho7  1  0.650532  0.655971  0.655050  1
  Ho  Ho8  1  0.812066  0.187577  0.809407  1
  Ho  Ho9  1  0.187070  0.183743  0.814765  1
  Ho  Ho10  1  0.045594  0.652514  0.651445  1
  Ho  Ho11  1  0.437276  0.063820  0.062390  1
  Ho  Ho12  1  0.060758  0.061005  0.437651  1
  Ho  Ho13  1  0.650141  0.044798  0.652868  1
  Ho  Ho14  1  0.810117  0.807542  0.190122  1
  Ho  Ho15  1  0.439864  0.062904  0.433398  1
  Mg  Mg16  1  0.423693  0.422444  0.420156  1
  Mg  Mg17  1  0.424318  0.423309  0.733223  1
  In  In18  1  0.416340  0.746052  0.419567  1
  In  In19  1  0.747436  0.415862  0.418675  1
  Ni  Ni20  1  0.424849  0.859950  0.860216  1
  Ni  Ni21  1  0.857148  0.857588  0.858490  1
  Ir  Ir22  1  0.858829  0.426352  0.860651  1
  Ir  Ir23  1  0.858457  0.858827  0.425217  1
