# generated using pymatgen
data_Dy3Er3Ni12(B2Ru)2
_symmetry_space_group_name_H-M   'P 1'
_cell_length_a   5.07829700
_cell_length_b   5.07829707
_cell_length_c   14.58762200
_cell_angle_alpha   90.00000000
_cell_angle_beta   90.00000000
_cell_angle_gamma   120.00000607
_symmetry_Int_Tables_number   1
_chemical_formula_structural   Dy3Er3Ni12(B2Ru)2
_chemical_formula_sum   'Dy3 Er3 Ni12 B4 Ru2'
_cell_volume   325.80016912
_cell_formula_units_Z   1
loop_
 _symmetry_equiv_pos_site_id
 _symmetry_equiv_pos_as_xyz
  1  'x, y, z'
loop_
 _atom_site_type_symbol
 _atom_site_label
 _atom_site_symmetry_multiplicity
 _atom_site_fract_x
 _atom_site_fract_y
 _atom_site_fract_z
 _atom_site_occupancy
  Dy  Dy0  1  0.333333  0.666667  0.470975  1
  Dy  Dy1  1  0.666667  0.333333  0.750269  1
  Dy  Dy2  1  0.333333  0.666667  0.249522  1
  Er  Er3  1  0.666667  0.333333  0.971448  1
  Er  Er4  1  0.666667  0.333333  0.529088  1
  Er  Er5  1  0.333333  0.666667  0.028558  1
  Ni  Ni6  1  0.835032  0.164968  0.346487  1
  Ni  Ni7  1  0.835032  0.670062  0.346487  1
  Ni  Ni8  1  0.835645  0.671290  0.153076  1
  Ni  Ni9  1  0.164954  0.835046  0.653468  1
  Ni  Ni10  1  0.670092  0.835046  0.653468  1
  Ni  Ni11  1  0.328710  0.164355  0.153076  1
  Ni  Ni12  1  0.835645  0.164355  0.153076  1
  Ni  Ni13  1  0.164306  0.328614  0.846947  1
  Ni  Ni14  1  0.164306  0.835694  0.846947  1
  Ni  Ni15  1  0.164954  0.329908  0.653468  1
  Ni  Ni16  1  0.671386  0.835694  0.846947  1
  Ni  Ni17  1  0.329938  0.164968  0.346487  1
  B  B18  1  0.666667  0.333333  0.249661  1
  B  B19  1  0.333333  0.666667  0.750313  1
  B  B20  1  0.000000  0.000000  0.749979  1
  B  B21  1  0.000000  0.000000  0.250152  1
  Ru  Ru22  1  0.000000  0.000000  0.000008  1
  Ru  Ru23  1  0.000000  0.000000  0.500095  1
