# generated using pymatgen
data_Ho2Be3Fe14C3
_symmetry_space_group_name_H-M   'P 1'
_cell_length_a   6.34402540
_cell_length_b   6.34402563
_cell_length_c   6.34402568
_cell_angle_alpha   83.48050430
_cell_angle_beta   83.48049829
_cell_angle_gamma   83.48050964
_symmetry_Int_Tables_number   1
_chemical_formula_structural   Ho2Be3Fe14C3
_chemical_formula_sum   'Ho2 Be3 Fe14 C3'
_cell_volume   250.72069405
_cell_formula_units_Z   1
loop_
 _symmetry_equiv_pos_site_id
 _symmetry_equiv_pos_as_xyz
  1  'x, y, z'
loop_
 _atom_site_type_symbol
 _atom_site_label
 _atom_site_symmetry_multiplicity
 _atom_site_fract_x
 _atom_site_fract_y
 _atom_site_fract_z
 _atom_site_occupancy
  Ho  Ho0  1  0.655922  0.655922  0.655922  1
  Ho  Ho1  1  0.344078  0.344078  0.344078  1
  Be  Be2  1  0.000000  0.000000  0.500000  1
  Be  Be3  1  0.500000  0.000000  0.000000  1
  Be  Be4  1  0.000000  0.500000  0.000000  1
  Fe  Fe5  1  0.719206  0.280794  0.000000  1
  Fe  Fe6  1  0.000000  0.719206  0.280794  1
  Fe  Fe7  1  0.280794  0.000000  0.719206  1
  Fe  Fe8  1  0.000000  0.280794  0.719206  1
  Fe  Fe9  1  0.719206  0.000000  0.280794  1
  Fe  Fe10  1  0.280794  0.719206  0.000000  1
  Fe  Fe11  1  0.338903  0.859763  0.338903  1
  Fe  Fe12  1  0.338903  0.338903  0.859763  1
  Fe  Fe13  1  0.859763  0.338903  0.338903  1
  Fe  Fe14  1  0.661097  0.140237  0.661097  1
  Fe  Fe15  1  0.661097  0.661097  0.140237  1
  Fe  Fe16  1  0.140237  0.661097  0.661097  1
  Fe  Fe17  1  0.902044  0.902044  0.902044  1
  Fe  Fe18  1  0.097956  0.097956  0.097956  1
  C  C19  1  0.500000  0.500000  0.000000  1
  C  C20  1  0.000000  0.500000  0.500000  1
  C  C21  1  0.500000  0.000000  0.500000  1
