# generated using pymatgen
data_Dy11Tm(BBr3)4
_symmetry_space_group_name_H-M   'P 1'
_cell_length_a   9.73230479
_cell_length_b   9.73230440
_cell_length_c   9.73213802
_cell_angle_alpha   109.47261345
_cell_angle_beta   109.47261498
_cell_angle_gamma   109.46849103
_symmetry_Int_Tables_number   1
_chemical_formula_structural   Dy11Tm(BBr3)4
_chemical_formula_sum   'Dy11 Tm1 B4 Br12'
_cell_volume   709.60627111
_cell_formula_units_Z   1
loop_
 _symmetry_equiv_pos_site_id
 _symmetry_equiv_pos_as_xyz
  1  'x, y, z'
loop_
 _atom_site_type_symbol
 _atom_site_label
 _atom_site_symmetry_multiplicity
 _atom_site_fract_x
 _atom_site_fract_y
 _atom_site_fract_z
 _atom_site_occupancy
  Dy  Dy0  1  0.460323  0.480080  0.230024  1
  Dy  Dy1  1  0.750249  0.230054  0.270200  1
  Dy  Dy2  1  0.749935  0.019744  0.480024  1
  Dy  Dy3  1  0.230234  0.460236  0.480229  1
  Dy  Dy4  1  0.269946  0.749751  0.229800  1
  Dy  Dy5  1  0.039764  0.269766  0.019771  1
  Dy  Dy6  1  0.019920  0.039677  0.269976  1
  Dy  Dy7  1  0.480256  0.750065  0.019976  1
  Dy  Dy8  1  0.480177  0.230101  0.460263  1
  Dy  Dy9  1  0.020205  0.479795  0.750000  1
  Dy  Dy10  1  0.269899  0.019823  0.039737  1
  Tm  Tm11  1  0.228631  0.271369  0.750000  1
  B  B12  1  0.249975  0.250025  0.250000  1
  B  B13  1  0.500044  0.999956  0.250000  1
  B  B14  1  0.001129  0.250047  0.501170  1
  B  B15  1  0.249953  0.498871  0.998830  1
  Br  Br16  1  0.249994  0.758134  0.741823  1
  Br  Br17  1  0.515376  0.507026  0.758242  1
  Br  Br18  1  0.983645  0.741825  0.991815  1
  Br  Br19  1  0.741866  0.250006  0.758177  1
  Br  Br20  1  0.992974  0.984624  0.741758  1
  Br  Br21  1  0.250092  0.992780  0.509193  1
  Br  Br22  1  0.758175  0.516355  0.508185  1
  Br  Br23  1  0.507220  0.249908  0.990807  1
  Br  Br24  1  0.758197  0.741803  0.250000  1
  Br  Br25  1  0.741852  0.991848  0.983657  1
  Br  Br26  1  0.991816  0.508184  0.250000  1
  Br  Br27  1  0.508152  0.758148  0.516343  1
