# generated using pymatgen
data_Li5(AlHg)2
_symmetry_space_group_name_H-M   'P 1'
_cell_length_a   4.57828900
_cell_length_b   4.57828738
_cell_length_c   8.29737600
_cell_angle_alpha   90.00000000
_cell_angle_beta   90.00000000
_cell_angle_gamma   120.00000447
_symmetry_Int_Tables_number   1
_chemical_formula_structural   Li5(AlHg)2
_chemical_formula_sum   'Li5 Al2 Hg2'
_cell_volume   150.61826366
_cell_formula_units_Z   1
loop_
 _symmetry_equiv_pos_site_id
 _symmetry_equiv_pos_as_xyz
  1  'x, y, z'
loop_
 _atom_site_type_symbol
 _atom_site_label
 _atom_site_symmetry_multiplicity
 _atom_site_fract_x
 _atom_site_fract_y
 _atom_site_fract_z
 _atom_site_occupancy
  Li  Li0  1  0.333333  0.666667  0.120514  1
  Li  Li1  1  0.666667  0.333333  0.879486  1
  Li  Li2  1  0.333333  0.666667  0.446945  1
  Li  Li3  1  0.666667  0.333333  0.553055  1
  Li  Li4  1  0.000000  0.000000  0.000000  1
  Al  Al5  1  0.000000  0.000000  0.336105  1
  Al  Al6  1  0.000000  0.000000  0.663895  1
  Hg  Hg7  1  0.333333  0.666667  0.776973  1
  Hg  Hg8  1  0.666667  0.333333  0.223027  1
