# generated using pymatgen
data_PrNd3(GaPt)4
_symmetry_space_group_name_H-M   'P 1'
_cell_length_a   4.51749900
_cell_length_b   7.14737895
_cell_length_c   7.87621318
_cell_angle_alpha   90.24415377
_cell_angle_beta   90.00000000
_cell_angle_gamma   90.00000000
_symmetry_Int_Tables_number   1
_chemical_formula_structural   PrNd3(GaPt)4
_chemical_formula_sum   'Pr1 Nd3 Ga4 Pt4'
_cell_volume   254.30704601
_cell_formula_units_Z   1
loop_
 _symmetry_equiv_pos_site_id
 _symmetry_equiv_pos_as_xyz
  1  'x, y, z'
loop_
 _atom_site_type_symbol
 _atom_site_label
 _atom_site_symmetry_multiplicity
 _atom_site_fract_x
 _atom_site_fract_y
 _atom_site_fract_z
 _atom_site_occupancy
  Pr  Pr0  1  0.750000  0.481264  0.197653  1
  Nd  Nd1  1  0.250000  0.018008  0.697951  1
  Nd  Nd2  1  0.250000  0.519256  0.801247  1
  Nd  Nd3  1  0.750000  0.981825  0.302522  1
  Ga  Ga4  1  0.250000  0.169373  0.073878  1
  Ga  Ga5  1  0.250000  0.672074  0.425875  1
  Ga  Ga6  1  0.750000  0.830476  0.925690  1
  Ga  Ga7  1  0.750000  0.328691  0.575304  1
  Pt  Pt8  1  0.250000  0.279162  0.403944  1
  Pt  Pt9  1  0.250000  0.781940  0.097745  1
  Pt  Pt10  1  0.750000  0.719597  0.597959  1
  Pt  Pt11  1  0.750000  0.218333  0.900233  1
