# generated using pymatgen
data_Ba2Al4GaAg5
_symmetry_space_group_name_H-M   'P 1'
_cell_length_a   7.08119049
_cell_length_b   7.08118995
_cell_length_c   5.59108500
_cell_angle_alpha   90.00000000
_cell_angle_beta   90.00000000
_cell_angle_gamma   103.36773062
_symmetry_Int_Tables_number   1
_chemical_formula_structural   Ba2Al4GaAg5
_chemical_formula_sum   'Ba2 Al4 Ga1 Ag5'
_cell_volume   272.75932549
_cell_formula_units_Z   1
loop_
 _symmetry_equiv_pos_site_id
 _symmetry_equiv_pos_as_xyz
  1  'x, y, z'
loop_
 _atom_site_type_symbol
 _atom_site_label
 _atom_site_symmetry_multiplicity
 _atom_site_fract_x
 _atom_site_fract_y
 _atom_site_fract_z
 _atom_site_occupancy
  Ba  Ba0  1  0.832172  0.832172  0.000000  1
  Ba  Ba1  1  0.181753  0.181753  0.500000  1
  Al  Al2  1  0.291640  0.698581  0.250301  1
  Al  Al3  1  0.291640  0.698581  0.749699  1
  Al  Al4  1  0.698581  0.291640  0.250301  1
  Al  Al5  1  0.698581  0.291640  0.749699  1
  Ga  Ga6  1  0.579141  0.579141  0.500000  1
  Ag  Ag7  1  0.420045  0.020731  0.000000  1
  Ag  Ag8  1  0.966484  0.581556  0.500000  1
  Ag  Ag9  1  0.581556  0.966484  0.500000  1
  Ag  Ag10  1  0.020731  0.420045  0.000000  1
  Ag  Ag11  1  0.437674  0.437674  0.000000  1
