# generated using pymatgen
data_CeZr4Bi3F28
_symmetry_space_group_name_H-M   'P 1'
_cell_length_a   5.90022174
_cell_length_b   9.42115069
_cell_length_c   12.57252406
_cell_angle_alpha   61.94046529
_cell_angle_beta   89.89563116
_cell_angle_gamma   89.99237469
_symmetry_Int_Tables_number   1
_chemical_formula_structural   CeZr4Bi3F28
_chemical_formula_sum   'Ce1 Zr4 Bi3 F28'
_cell_volume   616.72077212
_cell_formula_units_Z   1
loop_
 _symmetry_equiv_pos_site_id
 _symmetry_equiv_pos_as_xyz
  1  'x, y, z'
loop_
 _atom_site_type_symbol
 _atom_site_label
 _atom_site_symmetry_multiplicity
 _atom_site_fract_x
 _atom_site_fract_y
 _atom_site_fract_z
 _atom_site_occupancy
  Ce  Ce0  1  0.755804  0.813831  0.765122  1
  Zr  Zr1  1  0.743934  0.275651  0.454484  1
  Zr  Zr2  1  0.244398  0.724636  0.046157  1
  Zr  Zr3  1  0.255499  0.725269  0.542943  1
  Zr  Zr4  1  0.755961  0.273463  0.956428  1
  Bi  Bi5  1  0.742399  0.817683  0.263879  1
  Bi  Bi6  1  0.243007  0.182481  0.236649  1
  Bi  Bi7  1  0.258366  0.182451  0.736180  1
  F  F8  1  0.460050  0.711761  0.924221  1
  F  F9  1  0.959435  0.287461  0.576152  1
  F  F10  1  0.539064  0.287218  0.077511  1
  F  F11  1  0.038041  0.712822  0.422318  1
  F  F12  1  0.458409  0.280022  0.547434  1
  F  F13  1  0.962406  0.718428  0.953092  1
  F  F14  1  0.542626  0.720640  0.451910  1
  F  F15  1  0.040426  0.280297  0.048290  1
  F  F16  1  0.766546  0.517762  0.860632  1
  F  F17  1  0.267687  0.483301  0.639341  1
  F  F18  1  0.233279  0.481776  0.140271  1
  F  F19  1  0.732326  0.519212  0.359300  1
  F  F20  1  0.759870  0.026983  0.058826  1
  F  F21  1  0.259699  0.972852  0.441107  1
  F  F22  1  0.239784  0.971572  0.942187  1
  F  F23  1  0.740259  0.030404  0.555686  1
  F  F24  1  0.992155  0.734450  0.645492  1
  F  F25  1  0.490296  0.264630  0.855643  1
  F  F26  1  0.010413  0.264748  0.353792  1
  F  F27  1  0.511765  0.735943  0.145243  1
  F  F28  1  0.037887  0.747988  0.169181  1
  F  F29  1  0.537942  0.252395  0.330503  1
  F  F30  1  0.960246  0.252295  0.831875  1
  F  F31  1  0.459518  0.746822  0.667926  1
  F  F32  1  0.421780  0.971838  0.233268  1
  F  F33  1  0.922897  0.027653  0.266964  1
  F  F34  1  0.572093  0.029295  0.767018  1
  F  F35  1  0.083732  0.973969  0.732973  1
