# generated using pymatgen
data_Y4CrFeC4
_symmetry_space_group_name_H-M   'P 1'
_cell_length_a   5.05702500
_cell_length_b   6.37612156
_cell_length_c   9.73119950
_cell_angle_alpha   89.75289305
_cell_angle_beta   90.00000000
_cell_angle_gamma   90.00000000
_symmetry_Int_Tables_number   1
_chemical_formula_structural   Y4CrFeC4
_chemical_formula_sum   'Y8 Cr2 Fe2 C8'
_cell_volume   313.77188468
_cell_formula_units_Z   2
loop_
 _symmetry_equiv_pos_site_id
 _symmetry_equiv_pos_as_xyz
  1  'x, y, z'
loop_
 _atom_site_type_symbol
 _atom_site_label
 _atom_site_symmetry_multiplicity
 _atom_site_fract_x
 _atom_site_fract_y
 _atom_site_fract_z
 _atom_site_occupancy
  Y  Y0  1  0.250000  0.681161  0.555325  1
  Y  Y1  1  0.750000  0.318839  0.444675  1
  Y  Y2  1  0.750000  0.817285  0.055914  1
  Y  Y3  1  0.250000  0.182715  0.944086  1
  Y  Y4  1  0.250000  0.528123  0.215448  1
  Y  Y5  1  0.750000  0.471877  0.784552  1
  Y  Y6  1  0.750000  0.975965  0.713734  1
  Y  Y7  1  0.250000  0.024035  0.286266  1
  Cr  Cr8  1  0.250000  0.727823  0.857130  1
  Cr  Cr9  1  0.750000  0.272177  0.142870  1
  Fe  Fe10  1  0.750000  0.770881  0.357695  1
  Fe  Fe11  1  0.250000  0.229119  0.642305  1
  C  C12  1  0.250000  0.461340  0.759472  1
  C  C13  1  0.750000  0.538660  0.240528  1
  C  C14  1  0.750000  0.036511  0.260719  1
  C  C15  1  0.250000  0.963489  0.739281  1
  C  C16  1  0.250000  0.809296  0.037294  1
  C  C17  1  0.750000  0.190704  0.962706  1
  C  C18  1  0.750000  0.690266  0.533495  1
  C  C19  1  0.250000  0.309734  0.466505  1
