# generated using pymatgen
data_YPb4W3O13
_symmetry_space_group_name_H-M   'P 1'
_cell_length_a   7.62360004
_cell_length_b   7.62359903
_cell_length_c   7.62359900
_cell_angle_alpha   60.47810581
_cell_angle_beta   60.47811009
_cell_angle_gamma   60.47810007
_symmetry_Int_Tables_number   1
_chemical_formula_structural   YPb4W3O13
_chemical_formula_sum   'Y1 Pb4 W3 O13'
_cell_volume   316.68923192
_cell_formula_units_Z   1
loop_
 _symmetry_equiv_pos_site_id
 _symmetry_equiv_pos_as_xyz
  1  'x, y, z'
loop_
 _atom_site_type_symbol
 _atom_site_label
 _atom_site_symmetry_multiplicity
 _atom_site_fract_x
 _atom_site_fract_y
 _atom_site_fract_z
 _atom_site_occupancy
  Y  Y0  1  0.501072  0.501072  0.501072  1
  Pb  Pb1  1  0.996626  0.996626  0.996626  1
  Pb  Pb2  1  0.495448  0.002832  0.002832  1
  Pb  Pb3  1  0.002832  0.002832  0.495448  1
  Pb  Pb4  1  0.002832  0.495448  0.002832  1
  W  W5  1  0.001645  0.500177  0.500177  1
  W  W6  1  0.500177  0.500177  0.001645  1
  W  W7  1  0.500177  0.001645  0.500177  1
  O  O8  1  0.856861  0.415211  0.415211  1
  O  O9  1  0.418863  0.815552  0.815552  1
  O  O10  1  0.415211  0.415211  0.856861  1
  O  O11  1  0.815552  0.815552  0.418863  1
  O  O12  1  0.815552  0.418863  0.815552  1
  O  O13  1  0.415211  0.856861  0.415211  1
  O  O14  1  0.149708  0.580843  0.580843  1
  O  O15  1  0.580681  0.186558  0.186558  1
  O  O16  1  0.580843  0.580843  0.149708  1
  O  O17  1  0.186558  0.186558  0.580681  1
  O  O18  1  0.186558  0.580681  0.186558  1
  O  O19  1  0.580843  0.149708  0.580843  1
  O  O20  1  0.121748  0.121748  0.121748  1
