# generated using pymatgen
data_Rb3Nb2Ag3Se8
_symmetry_space_group_name_H-M   'P 1'
_cell_length_a   13.40566865
_cell_length_b   13.40566806
_cell_length_c   15.37437110
_cell_angle_alpha   61.39736138
_cell_angle_beta   61.39736306
_cell_angle_gamma   26.56520782
_symmetry_Int_Tables_number   1
_chemical_formula_structural   Rb3Nb2Ag3Se8
_chemical_formula_sum   'Rb6 Nb4 Ag6 Se16'
_cell_volume   1075.81764067
_cell_formula_units_Z   2
loop_
 _symmetry_equiv_pos_site_id
 _symmetry_equiv_pos_as_xyz
  1  'x, y, z'
loop_
 _atom_site_type_symbol
 _atom_site_label
 _atom_site_symmetry_multiplicity
 _atom_site_fract_x
 _atom_site_fract_y
 _atom_site_fract_z
 _atom_site_occupancy
  Rb  Rb0  1  0.637040  0.753645  0.398457  1
  Rb  Rb1  1  0.362960  0.246355  0.601543  1
  Rb  Rb2  1  0.753645  0.637040  0.898457  1
  Rb  Rb3  1  0.000000  0.000000  0.500000  1
  Rb  Rb4  1  0.246355  0.362960  0.101543  1
  Rb  Rb5  1  0.000000  0.000000  0.000000  1
  Nb  Nb6  1  0.158427  0.588181  0.778935  1
  Nb  Nb7  1  0.841573  0.411819  0.221065  1
  Nb  Nb8  1  0.588181  0.158427  0.278935  1
  Nb  Nb9  1  0.411819  0.841573  0.721065  1
  Ag  Ag10  1  0.283069  0.716931  0.750000  1
  Ag  Ag11  1  0.716931  0.283069  0.250000  1
  Ag  Ag12  1  0.658402  0.088342  0.784412  1
  Ag  Ag13  1  0.911658  0.341598  0.715588  1
  Ag  Ag14  1  0.341598  0.911658  0.215588  1
  Ag  Ag15  1  0.088342  0.658402  0.284412  1
  Se  Se16  1  0.538716  0.550978  0.346698  1
  Se  Se17  1  0.100070  0.215962  0.316359  1
  Se  Se18  1  0.286227  0.291421  0.390456  1
  Se  Se19  1  0.974562  0.830161  0.883691  1
  Se  Se20  1  0.025438  0.169839  0.116309  1
  Se  Se21  1  0.449022  0.461284  0.153302  1
  Se  Se22  1  0.830161  0.974562  0.383691  1
  Se  Se23  1  0.461284  0.449022  0.653302  1
  Se  Se24  1  0.169839  0.025438  0.616309  1
  Se  Se25  1  0.291421  0.286227  0.890456  1
  Se  Se26  1  0.708579  0.713773  0.109544  1
  Se  Se27  1  0.713773  0.708579  0.609544  1
  Se  Se28  1  0.784038  0.899930  0.183641  1
  Se  Se29  1  0.899930  0.784038  0.683641  1
  Se  Se30  1  0.550978  0.538716  0.846698  1
  Se  Se31  1  0.215962  0.100070  0.816359  1
