# generated using pymatgen
data_Nd4ScP12Ir4Ru15
_symmetry_space_group_name_H-M   'P 1'
_cell_length_a   12.61356715
_cell_length_b   12.61418076
_cell_length_c   3.99623400
_cell_angle_alpha   90.00000000
_cell_angle_beta   90.00000000
_cell_angle_gamma   119.91732618
_symmetry_Int_Tables_number   1
_chemical_formula_structural   Nd4ScP12Ir4Ru15
_chemical_formula_sum   'Nd4 Sc1 P12 Ir4 Ru15'
_cell_volume   551.11180486
_cell_formula_units_Z   1
loop_
 _symmetry_equiv_pos_site_id
 _symmetry_equiv_pos_as_xyz
  1  'x, y, z'
loop_
 _atom_site_type_symbol
 _atom_site_label
 _atom_site_symmetry_multiplicity
 _atom_site_fract_x
 _atom_site_fract_y
 _atom_site_fract_z
 _atom_site_occupancy
  Nd  Nd0  1  0.332137  0.665512  0.000000  1
  Nd  Nd1  1  0.665347  0.332151  0.000000  1
  Nd  Nd2  1  0.813823  0.999295  0.500000  1
  Nd  Nd3  1  0.001247  0.814504  0.500000  1
  Sc  Sc4  1  0.188560  0.188440  0.500000  1
  P  P5  1  0.184634  0.000297  0.000000  1
  P  P6  1  0.005342  0.187101  0.000000  1
  P  P7  1  0.814537  0.816178  0.000000  1
  P  P8  1  0.170717  0.476089  0.500000  1
  P  P9  1  0.522207  0.692984  0.500000  1
  P  P10  1  0.305578  0.830600  0.500000  1
  P  P11  1  0.686889  0.518947  0.500000  1
  P  P12  1  0.833550  0.311083  0.500000  1
  P  P13  1  0.479301  0.167466  0.500000  1
  P  P14  1  0.623679  0.996534  0.000000  1
  P  P15  1  0.003514  0.627434  0.000000  1
  P  P16  1  0.369918  0.374025  0.000000  1
  Ir  Ir17  1  0.809297  0.624260  0.000000  1
  Ir  Ir18  1  0.816731  0.191652  0.000000  1
  Ir  Ir19  1  0.368512  0.186318  0.000000  1
  Ir  Ir20  1  0.004538  0.004684  0.000000  1
  Ru  Ru21  1  0.448685  0.007872  0.000000  1
  Ru  Ru22  1  0.996785  0.443525  0.000000  1
  Ru  Ru23  1  0.555585  0.550113  0.000000  1
  Ru  Ru24  1  0.365098  0.487964  0.500000  1
  Ru  Ru25  1  0.509343  0.876816  0.500000  1
  Ru  Ru26  1  0.122981  0.633621  0.500000  1
  Ru  Ru27  1  0.871883  0.509214  0.500000  1
  Ru  Ru28  1  0.638846  0.127518  0.500000  1
  Ru  Ru29  1  0.487498  0.359816  0.500000  1
  Ru  Ru30  1  0.183447  0.374114  0.000000  1
  Ru  Ru31  1  0.621377  0.803521  0.000000  1
  Ru  Ru32  1  0.197246  0.819390  0.000000  1
  Ru  Ru33  1  0.284407  0.004546  0.500000  1
  Ru  Ru34  1  0.001071  0.282535  0.500000  1
  Ru  Ru35  1  0.715689  0.713881  0.500000  1
