# generated using pymatgen
data_La3Bi(TeO4)4
_symmetry_space_group_name_H-M   'P 1'
_cell_length_a   7.19985835
_cell_length_b   7.09567745
_cell_length_c   10.47490927
_cell_angle_alpha   66.88900071
_cell_angle_beta   66.83634813
_cell_angle_gamma   47.53614322
_symmetry_Int_Tables_number   1
_chemical_formula_structural   La3Bi(TeO4)4
_chemical_formula_sum   'La3 Bi1 Te4 O16'
_cell_volume   356.53594091
_cell_formula_units_Z   1
loop_
 _symmetry_equiv_pos_site_id
 _symmetry_equiv_pos_as_xyz
  1  'x, y, z'
loop_
 _atom_site_type_symbol
 _atom_site_label
 _atom_site_symmetry_multiplicity
 _atom_site_fract_x
 _atom_site_fract_y
 _atom_site_fract_z
 _atom_site_occupancy
  La  La0  1  0.763328  0.704948  0.159661  1
  La  La1  1  0.950443  0.051750  0.745800  1
  La  La2  1  0.052255  0.955334  0.249309  1
  Bi  Bi3  1  0.664148  0.778492  0.659053  1
  Te  Te4  1  0.358019  0.193653  0.383461  1
  Te  Te5  1  0.512194  0.489431  0.504594  1
  Te  Te6  1  0.188909  0.357305  0.885720  1
  Te  Te7  1  0.489449  0.508142  0.005649  1
  O  O8  1  0.145759  0.653551  0.118630  1
  O  O9  1  0.285141  0.087455  0.589120  1
  O  O10  1  0.349465  0.798431  0.846653  1
  O  O11  1  0.717867  0.484777  0.585990  1
  O  O12  1  0.380467  0.832198  0.373324  1
  O  O13  1  0.098285  0.272550  0.088083  1
  O  O14  1  0.484714  0.300971  0.912885  1
  O  O15  1  0.797211  0.348159  0.348550  1
  O  O16  1  0.212347  0.644753  0.648467  1
  O  O17  1  0.491121  0.704149  0.089684  1
  O  O18  1  0.922427  0.714053  0.901298  1
  O  O19  1  0.649985  0.145788  0.620481  1
  O  O20  1  0.306772  0.487995  0.412073  1
  O  O21  1  0.631069  0.194901  0.152830  1
  O  O22  1  0.711057  0.917522  0.399123  1
  O  O23  1  0.828408  0.364532  0.882769  1
