# generated using pymatgen
data_Th4ZnIr13
_symmetry_space_group_name_H-M   'P 1'
_cell_length_a   5.39164495
_cell_length_b   5.39164557
_cell_length_c   13.48772363
_cell_angle_alpha   78.47049661
_cell_angle_beta   78.47050568
_cell_angle_gamma   60.00001005
_symmetry_Int_Tables_number   1
_chemical_formula_structural   Th4ZnIr13
_chemical_formula_sum   'Th4 Zn1 Ir13'
_cell_volume   330.38939438
_cell_formula_units_Z   1
loop_
 _symmetry_equiv_pos_site_id
 _symmetry_equiv_pos_as_xyz
  1  'x, y, z'
loop_
 _atom_site_type_symbol
 _atom_site_label
 _atom_site_symmetry_multiplicity
 _atom_site_fract_x
 _atom_site_fract_y
 _atom_site_fract_z
 _atom_site_occupancy
  Th  Th0  1  0.948737  0.948737  0.153792  1
  Th  Th1  1  0.048261  0.048261  0.855216  1
  Th  Th2  1  0.853312  0.853312  0.440063  1
  Th  Th3  1  0.146308  0.146308  0.561076  1
  Zn  Zn4  1  0.721542  0.721542  0.835371  1
  Ir  Ir5  1  0.498920  0.498920  0.503240  1
  Ir  Ir6  1  0.278554  0.278554  0.164341  1
  Ir  Ir7  1  0.612022  0.612022  0.163934  1
  Ir  Ir8  1  0.389782  0.389782  0.830655  1
  Ir  Ir9  1  0.001826  0.499525  0.999124  1
  Ir  Ir10  1  0.499525  0.001826  0.999124  1
  Ir  Ir11  1  0.499525  0.499525  0.999124  1
  Ir  Ir12  1  0.389779  0.389779  0.329703  1
  Ir  Ir13  1  0.890739  0.389779  0.329703  1
  Ir  Ir14  1  0.389779  0.890739  0.329703  1
  Ir  Ir15  1  0.613433  0.613433  0.668611  1
  Ir  Ir16  1  0.104524  0.613433  0.668611  1
  Ir  Ir17  1  0.613433  0.104524  0.668611  1
