# generated using pymatgen
data_Sm7Ti(Si4Mo3)4
_symmetry_space_group_name_H-M   'P 1'
_cell_length_a   6.80767556
_cell_length_b   6.95038266
_cell_length_c   13.01511646
_cell_angle_alpha   89.75501200
_cell_angle_beta   90.08652263
_cell_angle_gamma   90.10664213
_symmetry_Int_Tables_number   1
_chemical_formula_structural   Sm7Ti(Si4Mo3)4
_chemical_formula_sum   'Sm7 Ti1 Si16 Mo12'
_cell_volume   615.81521104
_cell_formula_units_Z   1
loop_
 _symmetry_equiv_pos_site_id
 _symmetry_equiv_pos_as_xyz
  1  'x, y, z'
loop_
 _atom_site_type_symbol
 _atom_site_label
 _atom_site_symmetry_multiplicity
 _atom_site_fract_x
 _atom_site_fract_y
 _atom_site_fract_z
 _atom_site_occupancy
  Sm  Sm0  1  0.996837  0.164609  0.094267  1
  Sm  Sm1  1  0.003223  0.834326  0.902869  1
  Sm  Sm2  1  0.503092  0.664257  0.906264  1
  Sm  Sm3  1  0.003987  0.834240  0.593432  1
  Sm  Sm4  1  0.496802  0.334321  0.094354  1
  Sm  Sm5  1  0.999527  0.165822  0.408964  1
  Sm  Sm6  1  0.499316  0.335596  0.409782  1
  Ti  Ti7  1  0.504383  0.674201  0.602368  1
  Si  Si8  1  0.035147  0.140470  0.748168  1
  Si  Si9  1  0.962403  0.861152  0.250993  1
  Si  Si10  1  0.463703  0.636451  0.250478  1
  Si  Si11  1  0.534317  0.370083  0.743901  1
  Si  Si12  1  0.310994  0.867475  0.745429  1
  Si  Si13  1  0.693726  0.124010  0.252033  1
  Si  Si14  1  0.195753  0.373183  0.251318  1
  Si  Si15  1  0.794714  0.628470  0.745503  1
  Si  Si16  1  0.173425  0.463961  0.547843  1
  Si  Si17  1  0.839444  0.545387  0.457391  1
  Si  Si18  1  0.346363  0.946366  0.458037  1
  Si  Si19  1  0.843162  0.545160  0.047203  1
  Si  Si20  1  0.652733  0.034323  0.548209  1
  Si  Si21  1  0.154909  0.454228  0.950614  1
  Si  Si22  1  0.655933  0.045807  0.951109  1
  Si  Si23  1  0.342834  0.955128  0.046902  1
  Mo  Mo24  1  0.166289  0.504130  0.745397  1
  Mo  Mo25  1  0.835152  0.500470  0.252034  1
  Mo  Mo26  1  0.333735  0.996699  0.250612  1
  Mo  Mo27  1  0.664383  0.997338  0.746909  1
  Mo  Mo28  1  0.331551  0.164037  0.625238  1
  Mo  Mo29  1  0.666721  0.830677  0.377663  1
  Mo  Mo30  1  0.168256  0.664883  0.375026  1
  Mo  Mo31  1  0.666752  0.834146  0.126815  1
  Mo  Mo32  1  0.832020  0.340501  0.623905  1
  Mo  Mo33  1  0.332635  0.167352  0.871113  1
  Mo  Mo34  1  0.828862  0.337408  0.871960  1
  Mo  Mo35  1  0.166919  0.663335  0.125898  1
