# generated using pymatgen
data_Dy5Er7Co4BiRh
_symmetry_space_group_name_H-M   'P 1'
_cell_length_a   8.30380033
_cell_length_b   8.29899085
_cell_length_c   8.29904404
_cell_angle_alpha   110.72854492
_cell_angle_beta   110.85776027
_cell_angle_gamma   106.83414427
_symmetry_Int_Tables_number   1
_chemical_formula_structural   Dy5Er7Co4BiRh
_chemical_formula_sum   'Dy5 Er7 Co4 Bi1 Rh1'
_cell_volume   439.70203261
_cell_formula_units_Z   1
loop_
 _symmetry_equiv_pos_site_id
 _symmetry_equiv_pos_as_xyz
  1  'x, y, z'
loop_
 _atom_site_type_symbol
 _atom_site_label
 _atom_site_symmetry_multiplicity
 _atom_site_fract_x
 _atom_site_fract_y
 _atom_site_fract_z
 _atom_site_occupancy
  Dy  Dy0  1  0.288054  0.184564  0.473643  1
  Dy  Dy1  1  0.711744  0.815872  0.526801  1
  Dy  Dy2  1  0.288049  0.814368  0.103384  1
  Dy  Dy3  1  0.711660  0.184868  0.895779  1
  Dy  Dy4  1  0.619528  0.310994  0.308601  1
  Er  Er5  1  0.379209  0.688544  0.690660  1
  Er  Er6  1  0.002402  0.311700  0.690763  1
  Er  Er7  1  0.998204  0.688656  0.309577  1
  Er  Er8  1  0.209649  0.407332  0.197053  1
  Er  Er9  1  0.790191  0.593196  0.803471  1
  Er  Er10  1  0.209749  0.012666  0.802323  1
  Er  Er11  1  0.790286  0.986840  0.196998  1
  Co  Co12  1  0.000897  0.377018  0.377182  1
  Co  Co13  1  0.000923  0.623776  0.623964  1
  Co  Co14  1  0.387796  0.888037  0.499752  1
  Co  Co15  1  0.611530  0.111275  0.500266  1
  Bi  Bi16  1  0.499824  0.500264  0.999654  1
  Rh  Rh17  1  0.000306  0.000030  0.000127  1
