# generated using pymatgen
data_Pr15NdMgCo4Hg3
_symmetry_space_group_name_H-M   'P 1'
_cell_length_a   9.84651013
_cell_length_b   9.85244556
_cell_length_c   9.85244583
_cell_angle_alpha   60.19910021
_cell_angle_beta   60.19650007
_cell_angle_gamma   60.19649275
_symmetry_Int_Tables_number   1
_chemical_formula_structural   Pr15NdMgCo4Hg3
_chemical_formula_sum   'Pr15 Nd1 Mg1 Co4 Hg3'
_cell_volume   678.87846603
_cell_formula_units_Z   1
loop_
 _symmetry_equiv_pos_site_id
 _symmetry_equiv_pos_as_xyz
  1  'x, y, z'
loop_
 _atom_site_type_symbol
 _atom_site_label
 _atom_site_symmetry_multiplicity
 _atom_site_fract_x
 _atom_site_fract_y
 _atom_site_fract_z
 _atom_site_occupancy
  Pr  Pr0  1  0.688260  0.688389  0.311050  1
  Pr  Pr1  1  0.904168  0.903676  0.287984  1
  Pr  Pr2  1  0.309678  0.690400  0.309574  1
  Pr  Pr3  1  0.690256  0.309799  0.309799  1
  Pr  Pr4  1  0.062275  0.438843  0.438843  1
  Pr  Pr5  1  0.440543  0.059128  0.059128  1
  Pr  Pr6  1  0.059196  0.059206  0.440740  1
  Pr  Pr7  1  0.309678  0.309574  0.690400  1
  Pr  Pr8  1  0.438577  0.062265  0.439252  1
  Pr  Pr9  1  0.902914  0.902256  0.902256  1
  Pr  Pr10  1  0.438577  0.439252  0.062265  1
  Pr  Pr11  1  0.310731  0.688570  0.688570  1
  Pr  Pr12  1  0.688260  0.311050  0.688389  1
  Pr  Pr13  1  0.059196  0.440740  0.059206  1
  Pr  Pr14  1  0.904168  0.287984  0.903676  1
  Nd  Nd15  1  0.287519  0.904027  0.904027  1
  Mg  Mg16  1  0.678905  0.679504  0.679504  1
  Co  Co17  1  0.109206  0.107905  0.107905  1
  Co  Co18  1  0.108695  0.107424  0.671945  1
  Co  Co19  1  0.671437  0.108005  0.108005  1
  Co  Co20  1  0.108695  0.671945  0.107424  1
  Hg  Hg21  1  0.664578  0.665272  0.999785  1
  Hg  Hg22  1  0.999909  0.665002  0.665002  1
  Hg  Hg23  1  0.664578  0.999785  0.665272  1
