# generated using pymatgen
data_PrIn2Pd3
_symmetry_space_group_name_H-M   'P 1'
_cell_length_a   10.36546000
_cell_length_b   4.69245200
_cell_length_c   10.06091900
_cell_angle_alpha   90.00000000
_cell_angle_beta   90.00000000
_cell_angle_gamma   90.00000000
_symmetry_Int_Tables_number   1
_chemical_formula_structural   PrIn2Pd3
_chemical_formula_sum   'Pr4 In8 Pd12'
_cell_volume   489.35730012
_cell_formula_units_Z   4
loop_
 _symmetry_equiv_pos_site_id
 _symmetry_equiv_pos_as_xyz
  1  'x, y, z'
loop_
 _atom_site_type_symbol
 _atom_site_label
 _atom_site_symmetry_multiplicity
 _atom_site_fract_x
 _atom_site_fract_y
 _atom_site_fract_z
 _atom_site_occupancy
  Pr  Pr0  1  0.230596  0.250001  0.056837  1
  Pr  Pr1  1  0.730596  0.250001  0.443163  1
  Pr  Pr2  1  0.269404  0.750000  0.556837  1
  Pr  Pr3  1  0.769404  0.750000  0.943163  1
  In  In4  1  0.483922  0.750000  0.116509  1
  In  In5  1  0.894940  0.250001  0.157621  1
  In  In6  1  0.394939  0.250001  0.342379  1
  In  In7  1  0.983923  0.750000  0.383491  1
  In  In8  1  0.016077  0.250001  0.616509  1
  In  In9  1  0.605060  0.750000  0.657621  1
  In  In10  1  0.105061  0.750000  0.842379  1
  In  In11  1  0.516078  0.250001  0.883492  1
  Pd  Pd12  1  0.025682  0.750000  0.105695  1
  Pd  Pd13  1  0.618842  0.250001  0.144360  1
  Pd  Pd14  1  0.758032  0.750000  0.239035  1
  Pd  Pd15  1  0.258032  0.750000  0.260965  1
  Pd  Pd16  1  0.118842  0.250001  0.355640  1
  Pd  Pd17  1  0.525682  0.750000  0.394305  1
  Pd  Pd18  1  0.474318  0.250001  0.605695  1
  Pd  Pd19  1  0.881157  0.750000  0.644360  1
  Pd  Pd20  1  0.741968  0.250001  0.739035  1
  Pd  Pd21  1  0.241967  0.250001  0.760966  1
  Pd  Pd22  1  0.381158  0.750000  0.855640  1
  Pd  Pd23  1  0.974318  0.250001  0.894306  1
