# generated using pymatgen
data_Th5AlSi9
_symmetry_space_group_name_H-M   'P 1'
_cell_length_a   4.13986241
_cell_length_b   4.17537655
_cell_length_c   36.75438600
_cell_angle_alpha   86.74378388
_cell_angle_beta   86.77151880
_cell_angle_gamma   90.00000133
_symmetry_Int_Tables_number   1
_chemical_formula_structural   Th5AlSi9
_chemical_formula_sum   'Th10 Al2 Si18'
_cell_volume   633.28170569
_cell_formula_units_Z   2
loop_
 _symmetry_equiv_pos_site_id
 _symmetry_equiv_pos_as_xyz
  1  'x, y, z'
loop_
 _atom_site_type_symbol
 _atom_site_label
 _atom_site_symmetry_multiplicity
 _atom_site_fract_x
 _atom_site_fract_y
 _atom_site_fract_z
 _atom_site_occupancy
  Th  Th0  1  0.950140  0.449734  0.099580  1
  Th  Th1  1  0.350796  0.849685  0.299741  1
  Th  Th2  1  0.750918  0.250749  0.498084  1
  Th  Th3  1  0.149746  0.650049  0.700690  1
  Th  Th4  1  0.549245  0.048638  0.903114  1
  Th  Th5  1  0.000000  0.000084  0.000620  1
  Th  Th6  1  0.399675  0.400332  0.199797  1
  Th  Th7  1  0.800035  0.800612  0.399274  1
  Th  Th8  1  0.201614  0.201908  0.595333  1
  Th  Th9  1  0.601371  0.601371  0.797179  1
  Al  Al10  1  0.683915  0.684084  0.631563  1
  Al  Al11  1  0.083188  0.083450  0.833584  1
  Si  Si12  1  0.467420  0.966933  0.066169  1
  Si  Si13  1  0.867051  0.366749  0.266242  1
  Si  Si14  1  0.267635  0.767378  0.465038  1
  Si  Si15  1  0.666889  0.167036  0.666078  1
  Si  Si16  1  0.066625  0.565606  0.868019  1
  Si  Si17  1  0.916192  0.918013  0.166651  1
  Si  Si18  1  0.317038  0.318747  0.366482  1
  Si  Si19  1  0.717616  0.718163  0.564499  1
  Si  Si20  1  0.116707  0.116911  0.766484  1
  Si  Si21  1  0.516280  0.516362  0.968063  1
  Si  Si22  1  0.433138  0.932874  0.132446  1
  Si  Si23  1  0.833638  0.331880  0.332729  1
  Si  Si24  1  0.234381  0.733513  0.531092  1
  Si  Si25  1  0.633720  0.133538  0.732833  1
  Si  Si26  1  0.033118  0.532738  0.934789  1
  Si  Si27  1  0.482767  0.483101  0.033767  1
  Si  Si28  1  0.883057  0.883409  0.233134  1
  Si  Si29  1  0.283286  0.283552  0.432524  1
