# generated using pymatgen
data_YEr3Mn2(Co2Si5)2
_symmetry_space_group_name_H-M   'P 1'
_cell_length_a   5.41814570
_cell_length_b   7.95426224
_cell_length_c   7.95533113
_cell_angle_alpha   72.93817907
_cell_angle_beta   70.09049033
_cell_angle_gamma   70.08770492
_symmetry_Int_Tables_number   1
_chemical_formula_structural   YEr3Mn2(Co2Si5)2
_chemical_formula_sum   'Y1 Er3 Mn2 Co4 Si10'
_cell_volume   296.92243504
_cell_formula_units_Z   1
loop_
 _symmetry_equiv_pos_site_id
 _symmetry_equiv_pos_as_xyz
  1  'x, y, z'
loop_
 _atom_site_type_symbol
 _atom_site_label
 _atom_site_symmetry_multiplicity
 _atom_site_fract_x
 _atom_site_fract_y
 _atom_site_fract_z
 _atom_site_occupancy
  Y  Y0  1  0.364447  0.868290  0.402817  1
  Er  Er1  1  0.635558  0.131749  0.597135  1
  Er  Er2  1  0.864268  0.403054  0.868411  1
  Er  Er3  1  0.135693  0.597044  0.131570  1
  Mn  Mn4  1  0.750270  0.000076  0.999684  1
  Mn  Mn5  1  0.249970  0.000076  0.999684  1
  Co  Co6  1  0.140953  0.261285  0.456809  1
  Co  Co7  1  0.858728  0.738779  0.543766  1
  Co  Co8  1  0.641260  0.456778  0.260701  1
  Co  Co9  1  0.358732  0.542940  0.739597  1
  Si  Si10  1  0.750397  0.499521  0.500167  1
  Si  Si11  1  0.249915  0.499521  0.500167  1
  Si  Si12  1  0.532186  0.218437  0.217854  1
  Si  Si13  1  0.967747  0.781884  0.782320  1
  Si  Si14  1  0.468048  0.781884  0.782320  1
  Si  Si15  1  0.031523  0.218437  0.217854  1
  Si  Si16  1  0.098671  0.069984  0.732675  1
  Si  Si17  1  0.901186  0.930530  0.267097  1
  Si  Si18  1  0.599325  0.732239  0.069111  1
  Si  Si19  1  0.401123  0.267493  0.930261  1
