# generated using pymatgen
data_Lu3Co8Si4TcP2
_symmetry_space_group_name_H-M   'P 1'
_cell_length_a   3.72381800
_cell_length_b   10.64472300
_cell_length_c   12.22071800
_cell_angle_alpha   90.00000000
_cell_angle_beta   90.00000000
_cell_angle_gamma   90.00000000
_symmetry_Int_Tables_number   1
_chemical_formula_structural   Lu3Co8Si4TcP2
_chemical_formula_sum   'Lu6 Co16 Si8 Tc2 P4'
_cell_volume   484.41717660
_cell_formula_units_Z   2
loop_
 _symmetry_equiv_pos_site_id
 _symmetry_equiv_pos_as_xyz
  1  'x, y, z'
loop_
 _atom_site_type_symbol
 _atom_site_label
 _atom_site_symmetry_multiplicity
 _atom_site_fract_x
 _atom_site_fract_y
 _atom_site_fract_z
 _atom_site_occupancy
  Lu  Lu0  1  0.000000  0.500000  0.526321  1
  Lu  Lu1  1  0.500000  0.000000  0.473679  1
  Lu  Lu2  1  0.500000  0.820635  0.202779  1
  Lu  Lu3  1  0.500000  0.179365  0.202779  1
  Lu  Lu4  1  0.000000  0.679365  0.797221  1
  Lu  Lu5  1  0.000000  0.320635  0.797221  1
  Co  Co6  1  0.500000  0.500000  0.700532  1
  Co  Co7  1  0.000000  0.000000  0.299468  1
  Co  Co8  1  0.000000  0.500000  0.979246  1
  Co  Co9  1  0.500000  0.000000  0.020754  1
  Co  Co10  1  0.500000  0.333464  0.990349  1
  Co  Co11  1  0.500000  0.666536  0.990349  1
  Co  Co12  1  0.000000  0.166536  0.009651  1
  Co  Co13  1  0.000000  0.833464  0.009651  1
  Co  Co14  1  0.500000  0.303762  0.429753  1
  Co  Co15  1  0.500000  0.696238  0.429753  1
  Co  Co16  1  0.000000  0.196238  0.570247  1
  Co  Co17  1  0.000000  0.803762  0.570247  1
  Co  Co18  1  0.500000  0.882709  0.704351  1
  Co  Co19  1  0.500000  0.117291  0.704351  1
  Co  Co20  1  0.000000  0.617291  0.295649  1
  Co  Co21  1  0.000000  0.382709  0.295649  1
  Si  Si22  1  0.500000  0.306861  0.615449  1
  Si  Si23  1  0.500000  0.693139  0.615449  1
  Si  Si24  1  0.000000  0.193139  0.384551  1
  Si  Si25  1  0.000000  0.806861  0.384551  1
  Si  Si26  1  0.500000  0.848173  0.892588  1
  Si  Si27  1  0.500000  0.151827  0.892588  1
  Si  Si28  1  0.000000  0.651827  0.107412  1
  Si  Si29  1  0.000000  0.348173  0.107412  1
  Tc  Tc30  1  0.500000  0.500000  0.154323  1
  Tc  Tc31  1  0.000000  0.000000  0.845677  1
  P  P32  1  0.500000  0.500000  0.881025  1
  P  P33  1  0.000000  0.000000  0.118975  1
  P  P34  1  0.500000  0.500000  0.345705  1
  P  P35  1  0.000000  0.000000  0.654295  1
