# generated using pymatgen
data_TbY5(CoSn6)2
_symmetry_space_group_name_H-M   'P 1'
_cell_length_a   8.52754815
_cell_length_b   8.52754797
_cell_length_c   13.16291768
_cell_angle_alpha   89.95845095
_cell_angle_beta   90.04154877
_cell_angle_gamma   149.00181560
_symmetry_Int_Tables_number   1
_chemical_formula_structural   TbY5(CoSn6)2
_chemical_formula_sum   'Tb1 Y5 Co2 Sn12'
_cell_volume   492.96583878
_cell_formula_units_Z   1
loop_
 _symmetry_equiv_pos_site_id
 _symmetry_equiv_pos_as_xyz
  1  'x, y, z'
loop_
 _atom_site_type_symbol
 _atom_site_label
 _atom_site_symmetry_multiplicity
 _atom_site_fract_x
 _atom_site_fract_y
 _atom_site_fract_z
 _atom_site_occupancy
  Tb  Tb0  1  0.899035  0.100965  0.406320  1
  Y  Y1  1  0.898837  0.101163  0.093318  1
  Y  Y2  1  0.100950  0.899050  0.593595  1
  Y  Y3  1  0.900372  0.099628  0.750687  1
  Y  Y4  1  0.100563  0.899437  0.907178  1
  Y  Y5  1  0.099716  0.900284  0.249363  1
  Co  Co6  1  0.300042  0.699958  0.250080  1
  Co  Co7  1  0.700139  0.299861  0.749661  1
  Sn  Sn8  1  0.757044  0.242956  0.571845  1
  Sn  Sn9  1  0.428130  0.571870  0.576163  1
  Sn  Sn10  1  0.572080  0.427920  0.423740  1
  Sn  Sn11  1  0.734075  0.265925  0.249887  1
  Sn  Sn12  1  0.265669  0.734331  0.750135  1
  Sn  Sn13  1  0.243946  0.756054  0.071633  1
  Sn  Sn14  1  0.244129  0.755871  0.428417  1
  Sn  Sn15  1  0.571951  0.428049  0.075755  1
  Sn  Sn16  1  0.453690  0.546310  0.249658  1
  Sn  Sn17  1  0.546235  0.453765  0.750309  1
  Sn  Sn18  1  0.755935  0.244065  0.928221  1
  Sn  Sn19  1  0.427466  0.572534  0.924035  1
