# generated using pymatgen
data_KHfIO6
_symmetry_space_group_name_H-M   'P 1'
_cell_length_a   5.42420600
_cell_length_b   5.42420620
_cell_length_c   6.00908500
_cell_angle_alpha   90.00000000
_cell_angle_beta   90.00000000
_cell_angle_gamma   119.99998658
_symmetry_Int_Tables_number   1
_chemical_formula_structural   KHfIO6
_chemical_formula_sum   'K1 Hf1 I1 O6'
_cell_volume   153.11276639
_cell_formula_units_Z   1
loop_
 _symmetry_equiv_pos_site_id
 _symmetry_equiv_pos_as_xyz
  1  'x, y, z'
loop_
 _atom_site_type_symbol
 _atom_site_label
 _atom_site_symmetry_multiplicity
 _atom_site_fract_x
 _atom_site_fract_y
 _atom_site_fract_z
 _atom_site_occupancy
  K  K0  1  0.000000  0.000000  0.000000  1
  Hf  Hf1  1  0.333333  0.666667  0.500000  1
  I  I2  1  0.666667  0.333333  0.500000  1
  O  O3  1  0.398285  0.025852  0.681874  1
  O  O4  1  0.974148  0.372432  0.681874  1
  O  O5  1  0.627568  0.601715  0.681874  1
  O  O6  1  0.974148  0.601715  0.318126  1
  O  O7  1  0.627568  0.025852  0.318126  1
  O  O8  1  0.398285  0.372432  0.318126  1
