# generated using pymatgen
data_HoLu(ScSb5)2
_symmetry_space_group_name_H-M   'P 1'
_cell_length_a   4.19537200
_cell_length_b   13.00575873
_cell_length_c   14.18041420
_cell_angle_alpha   78.90152862
_cell_angle_beta   90.00000000
_cell_angle_gamma   90.00000000
_symmetry_Int_Tables_number   1
_chemical_formula_structural   HoLu(ScSb5)2
_chemical_formula_sum   'Ho2 Lu2 Sc4 Sb20'
_cell_volume   759.26942241
_cell_formula_units_Z   2
loop_
 _symmetry_equiv_pos_site_id
 _symmetry_equiv_pos_as_xyz
  1  'x, y, z'
loop_
 _atom_site_type_symbol
 _atom_site_label
 _atom_site_symmetry_multiplicity
 _atom_site_fract_x
 _atom_site_fract_y
 _atom_site_fract_z
 _atom_site_occupancy
  Ho  Ho0  1  0.250000  0.953883  0.354978  1
  Ho  Ho1  1  0.750000  0.046117  0.645022  1
  Lu  Lu2  1  0.250000  0.669232  0.576418  1
  Lu  Lu3  1  0.750000  0.330768  0.423582  1
  Sc  Sc4  1  0.250000  0.396799  0.772218  1
  Sc  Sc5  1  0.750000  0.603201  0.227782  1
  Sc  Sc6  1  0.250000  0.657548  0.858451  1
  Sc  Sc7  1  0.750000  0.342452  0.141549  1
  Sb  Sb8  1  0.250000  0.147543  0.779869  1
  Sb  Sb9  1  0.750000  0.852457  0.220131  1
  Sb  Sb10  1  0.250000  0.144606  0.483170  1
  Sb  Sb11  1  0.750000  0.855394  0.516830  1
  Sb  Sb12  1  0.250000  0.162908  0.161038  1
  Sb  Sb13  1  0.750000  0.837092  0.838962  1
  Sb  Sb14  1  0.250000  0.422159  0.975014  1
  Sb  Sb15  1  0.750000  0.577841  0.024986  1
  Sb  Sb16  1  0.750000  0.028702  0.913933  1
  Sb  Sb17  1  0.250000  0.971298  0.086067  1
  Sb  Sb18  1  0.750000  0.143451  0.316460  1
  Sb  Sb19  1  0.250000  0.856549  0.683540  1
  Sb  Sb20  1  0.750000  0.279636  0.936364  1
  Sb  Sb21  1  0.250000  0.720364  0.063636  1
  Sb  Sb22  1  0.750000  0.289214  0.658311  1
  Sb  Sb23  1  0.250000  0.710786  0.341689  1
  Sb  Sb24  1  0.750000  0.574307  0.739587  1
  Sb  Sb25  1  0.250000  0.425693  0.260413  1
  Sb  Sb26  1  0.750000  0.570124  0.444587  1
  Sb  Sb27  1  0.250000  0.429876  0.555413  1
