# generated using pymatgen
data_NdCd3(IO6)2
_symmetry_space_group_name_H-M   'P 1'
_cell_length_a   5.07533263
_cell_length_b   5.06237346
_cell_length_c   10.06616400
_cell_angle_alpha   90.00000000
_cell_angle_beta   90.00000000
_cell_angle_gamma   89.75546083
_symmetry_Int_Tables_number   1
_chemical_formula_structural   NdCd3(IO6)2
_chemical_formula_sum   'Nd1 Cd3 I2 O12'
_cell_volume   258.62990296
_cell_formula_units_Z   1
loop_
 _symmetry_equiv_pos_site_id
 _symmetry_equiv_pos_as_xyz
  1  'x, y, z'
loop_
 _atom_site_type_symbol
 _atom_site_label
 _atom_site_symmetry_multiplicity
 _atom_site_fract_x
 _atom_site_fract_y
 _atom_site_fract_z
 _atom_site_occupancy
  Nd  Nd0  1  0.000000  0.000000  0.338604  1
  Cd  Cd1  1  0.500000  0.500000  0.162031  1
  Cd  Cd2  1  0.000000  0.000000  0.668501  1
  Cd  Cd3  1  0.500000  0.500000  0.833606  1
  I  I4  1  0.500000  0.500000  0.504671  1
  I  I5  1  0.000000  0.000000  0.995722  1
  O  O6  1  0.681417  0.681923  0.641304  1
  O  O7  1  0.318583  0.318077  0.641304  1
  O  O8  1  0.818510  0.181993  0.858474  1
  O  O9  1  0.181490  0.818007  0.858474  1
  O  O10  1  0.322495  0.322254  0.361896  1
  O  O11  1  0.677505  0.677746  0.361896  1
  O  O12  1  0.179744  0.819810  0.137223  1
  O  O13  1  0.820256  0.180190  0.137223  1
  O  O14  1  0.734316  0.733660  0.999076  1
  O  O15  1  0.265684  0.266340  0.999076  1
  O  O16  1  0.766049  0.233483  0.500459  1
  O  O17  1  0.233951  0.766517  0.500459  1
