# generated using pymatgen
data_CaLa(B2Rh3)3
_symmetry_space_group_name_H-M   'P 1'
_cell_length_a   5.66679200
_cell_length_b   5.66688791
_cell_length_c   8.54195201
_cell_angle_alpha   90.00096626
_cell_angle_beta   89.99806744
_cell_angle_gamma   119.99945182
_symmetry_Int_Tables_number   1
_chemical_formula_structural   CaLa(B2Rh3)3
_chemical_formula_sum   'Ca1 La1 B6 Rh9'
_cell_volume   237.55930850
_cell_formula_units_Z   1
loop_
 _symmetry_equiv_pos_site_id
 _symmetry_equiv_pos_as_xyz
  1  'x, y, z'
loop_
 _atom_site_type_symbol
 _atom_site_label
 _atom_site_symmetry_multiplicity
 _atom_site_fract_x
 _atom_site_fract_y
 _atom_site_fract_z
 _atom_site_occupancy
  Ca  Ca0  1  0.999979  0.000000  0.284599  1
  La  La1  1  0.999996  0.000000  0.704976  1
  B  B2  1  0.333320  0.666679  0.003697  1
  B  B3  1  0.666641  0.333321  0.003697  1
  B  B4  1  0.333339  0.666704  0.331396  1
  B  B5  1  0.666636  0.333296  0.331396  1
  B  B6  1  0.666646  0.333315  0.666634  1
  B  B7  1  0.333332  0.666685  0.666634  1
  Rh  Rh8  1  0.500188  0.000000  0.165676  1
  Rh  Rh9  1  0.500098  0.500158  0.165676  1
  Rh  Rh10  1  0.999939  0.499842  0.165676  1
  Rh  Rh11  1  0.499797  0.000000  0.837434  1
  Rh  Rh12  1  0.499930  0.499945  0.837422  1
  Rh  Rh13  1  0.999985  0.500055  0.837422  1
  Rh  Rh14  1  0.500140  0.000000  0.499225  1
  Rh  Rh15  1  0.499992  0.500050  0.499221  1
  Rh  Rh16  1  0.999942  0.499950  0.499221  1
