# generated using pymatgen
data_ThAs12(OsRu)2
_symmetry_space_group_name_H-M   'P 1'
_cell_length_a   7.45348106
_cell_length_b   7.45345054
_cell_length_c   7.46196365
_cell_angle_alpha   109.47006152
_cell_angle_beta   109.47066385
_cell_angle_gamma   109.42418964
_symmetry_Int_Tables_number   1
_chemical_formula_structural   ThAs12(OsRu)2
_chemical_formula_sum   'Th1 As12 Os2 Ru2'
_cell_volume   319.30718525
_cell_formula_units_Z   1
loop_
 _symmetry_equiv_pos_site_id
 _symmetry_equiv_pos_as_xyz
  1  'x, y, z'
loop_
 _atom_site_type_symbol
 _atom_site_label
 _atom_site_symmetry_multiplicity
 _atom_site_fract_x
 _atom_site_fract_y
 _atom_site_fract_z
 _atom_site_occupancy
  Th  Th0  1  0.000000  0.000000  0.000000  1
  As  As1  1  0.345604  0.196716  0.849843  1
  As  As2  1  0.654396  0.803284  0.150157  1
  As  As3  1  0.653123  0.504237  0.849838  1
  As  As4  1  0.346877  0.495763  0.150162  1
  As  As5  1  0.196712  0.850954  0.346771  1
  As  As6  1  0.803288  0.149046  0.653229  1
  As  As7  1  0.504182  0.849938  0.653229  1
  As  As8  1  0.495818  0.150062  0.346771  1
  As  As9  1  0.850727  0.346535  0.197265  1
  As  As10  1  0.149273  0.653465  0.802735  1
  As  As11  1  0.850256  0.653969  0.504231  1
  As  As12  1  0.149744  0.346031  0.495769  1
  Os  Os13  1  0.500000  0.000000  0.000000  1
  Os  Os14  1  0.000000  0.500000  0.000000  1
  Ru  Ru15  1  0.000000  0.000000  0.500000  1
  Ru  Ru16  1  0.500000  0.500000  0.500000  1
