# generated using pymatgen
data_Ta24Si5P3
_symmetry_space_group_name_H-M   'P 1'
_cell_length_a   10.17597990
_cell_length_b   10.21245692
_cell_length_c   5.17790591
_cell_angle_alpha   89.91016371
_cell_angle_beta   90.08662551
_cell_angle_gamma   90.04336383
_symmetry_Int_Tables_number   1
_chemical_formula_structural   Ta24Si5P3
_chemical_formula_sum   'Ta24 Si5 P3'
_cell_volume   538.09564714
_cell_formula_units_Z   1
loop_
 _symmetry_equiv_pos_site_id
 _symmetry_equiv_pos_as_xyz
  1  'x, y, z'
loop_
 _atom_site_type_symbol
 _atom_site_label
 _atom_site_symmetry_multiplicity
 _atom_site_fract_x
 _atom_site_fract_y
 _atom_site_fract_z
 _atom_site_occupancy
  Ta  Ta0  1  0.400110  0.914242  0.471558  1
  Ta  Ta1  1  0.412579  0.100820  0.971843  1
  Ta  Ta2  1  0.586580  0.903030  0.972514  1
  Ta  Ta3  1  0.600416  0.086763  0.470539  1
  Ta  Ta4  1  0.100233  0.587940  0.030355  1
  Ta  Ta5  1  0.086239  0.401106  0.530316  1
  Ta  Ta6  1  0.913229  0.599259  0.526667  1
  Ta  Ta7  1  0.901352  0.413551  0.029072  1
  Ta  Ta8  1  0.014765  0.857025  0.269805  1
  Ta  Ta9  1  0.355903  0.480189  0.773709  1
  Ta  Ta10  1  0.645514  0.511228  0.770291  1
  Ta  Ta11  1  0.985443  0.144368  0.270250  1
  Ta  Ta12  1  0.483136  0.646301  0.229374  1
  Ta  Ta13  1  0.146420  0.017045  0.729511  1
  Ta  Ta14  1  0.852977  0.984878  0.728370  1
  Ta  Ta15  1  0.515359  0.352019  0.228877  1
  Ta  Ta16  1  0.287244  0.812782  0.989381  1
  Ta  Ta17  1  0.310420  0.211738  0.488247  1
  Ta  Ta18  1  0.690767  0.788843  0.485079  1
  Ta  Ta19  1  0.712673  0.189832  0.986866  1
  Ta  Ta20  1  0.213212  0.688028  0.515354  1
  Ta  Ta21  1  0.187943  0.287523  0.014208  1
  Ta  Ta22  1  0.809351  0.712365  0.009058  1
  Ta  Ta23  1  0.787460  0.310755  0.510724  1
  Si  Si24  1  0.026452  0.794918  0.775695  1
  Si  Si25  1  0.294650  0.472286  0.279045  1
  Si  Si26  1  0.704901  0.526898  0.276095  1
  Si  Si27  1  0.972685  0.205844  0.776100  1
  Si  Si28  1  0.474087  0.705313  0.724296  1
  P  P29  1  0.206971  0.027476  0.223447  1
  P  P30  1  0.793374  0.974000  0.221604  1
  P  P31  1  0.527558  0.291633  0.721749  1
