# generated using pymatgen
data_Nb3Si3Ru2W
_symmetry_space_group_name_H-M   'P 1'
_cell_length_a   7.53411943
_cell_length_b   7.53411923
_cell_length_c   7.53411965
_cell_angle_alpha   126.87077559
_cell_angle_beta   124.10877136
_cell_angle_gamma   80.74793891
_symmetry_Int_Tables_number   1
_chemical_formula_structural   Nb3Si3Ru2W
_chemical_formula_sum   'Nb6 Si6 Ru4 W2'
_cell_volume   273.12316381
_cell_formula_units_Z   2
loop_
 _symmetry_equiv_pos_site_id
 _symmetry_equiv_pos_as_xyz
  1  'x, y, z'
loop_
 _atom_site_type_symbol
 _atom_site_label
 _atom_site_symmetry_multiplicity
 _atom_site_fract_x
 _atom_site_fract_y
 _atom_site_fract_z
 _atom_site_occupancy
  Nb  Nb0  1  0.557863  0.092466  0.034603  1
  Nb  Nb1  1  0.442137  0.476740  0.534603  1
  Nb  Nb2  1  0.960166  0.489538  0.029372  1
  Nb  Nb3  1  0.039834  0.069206  0.529372  1
  Nb  Nb4  1  0.752881  0.921794  0.668914  1
  Nb  Nb5  1  0.247119  0.916033  0.168914  1
  Si  Si6  1  0.779798  0.553570  0.273773  1
  Si  Si7  1  0.220202  0.493975  0.773773  1
  Si  Si8  1  0.334175  0.817526  0.492000  1
  Si  Si9  1  0.665825  0.157823  0.483350  1
  Si  Si10  1  0.825527  0.817526  0.983350  1
  Si  Si11  1  0.174473  0.157823  0.992000  1
  Ru  Ru12  1  0.161401  0.746025  0.654705  1
  Ru  Ru13  1  0.838599  0.493305  0.584624  1
  Ru  Ru14  1  0.591320  0.746025  0.084624  1
  Ru  Ru15  1  0.408680  0.493305  0.154705  1
  W  W16  1  0.500000  0.249759  0.749759  1
  W  W17  1  0.000000  0.249759  0.249759  1
