# generated using pymatgen
data_La2Lu3S7
_symmetry_space_group_name_H-M   'P 1'
_cell_length_a   6.74956747
_cell_length_b   6.74956696
_cell_length_c   11.77674200
_cell_angle_alpha   76.10832725
_cell_angle_beta   76.10832831
_cell_angle_gamma   33.24933116
_symmetry_Int_Tables_number   1
_chemical_formula_structural   La2Lu3S7
_chemical_formula_sum   'La2 Lu3 S7'
_cell_volume   284.77562070
_cell_formula_units_Z   1
loop_
 _symmetry_equiv_pos_site_id
 _symmetry_equiv_pos_as_xyz
  1  'x, y, z'
loop_
 _atom_site_type_symbol
 _atom_site_label
 _atom_site_symmetry_multiplicity
 _atom_site_fract_x
 _atom_site_fract_y
 _atom_site_fract_z
 _atom_site_occupancy
  La  La0  1  0.300431  0.300431  0.808481  1
  La  La1  1  0.699569  0.699569  0.191519  1
  Lu  Lu2  1  0.000000  0.000000  0.000000  1
  Lu  Lu3  1  0.111357  0.111357  0.576230  1
  Lu  Lu4  1  0.888643  0.888643  0.423770  1
  S  S5  1  0.500000  0.500000  0.500000  1
  S  S6  1  0.649390  0.649390  0.952101  1
  S  S7  1  0.350610  0.350610  0.047899  1
  S  S8  1  0.971367  0.971367  0.783869  1
  S  S9  1  0.028633  0.028633  0.216131  1
  S  S10  1  0.263313  0.263313  0.363363  1
  S  S11  1  0.736687  0.736687  0.636637  1
