# generated using pymatgen
data_Ho3U2O10
_symmetry_space_group_name_H-M   'P 1'
_cell_length_a   6.43546405
_cell_length_b   6.43546397
_cell_length_c   8.32357277
_cell_angle_alpha   51.48787519
_cell_angle_beta   51.48787639
_cell_angle_gamma   48.96111012
_symmetry_Int_Tables_number   1
_chemical_formula_structural   Ho3U2O10
_chemical_formula_sum   'Ho3 U2 O10'
_cell_volume   189.62820015
_cell_formula_units_Z   1
loop_
 _symmetry_equiv_pos_site_id
 _symmetry_equiv_pos_as_xyz
  1  'x, y, z'
loop_
 _atom_site_type_symbol
 _atom_site_label
 _atom_site_symmetry_multiplicity
 _atom_site_fract_x
 _atom_site_fract_y
 _atom_site_fract_z
 _atom_site_occupancy
  Ho  Ho0  1  0.397493  0.397493  0.903774  1
  Ho  Ho1  1  0.000000  0.000000  0.500000  1
  Ho  Ho2  1  0.602507  0.602507  0.096226  1
  U  U3  1  0.197806  0.197806  0.704944  1
  U  U4  1  0.802194  0.802194  0.295056  1
  O  O5  1  0.235166  0.764834  0.000000  1
  O  O6  1  0.855812  0.353671  0.605954  1
  O  O7  1  0.460792  0.946652  0.208183  1
  O  O8  1  0.764834  0.235166  0.000000  1
  O  O9  1  0.053348  0.539208  0.791817  1
  O  O10  1  0.353671  0.855812  0.605954  1
  O  O11  1  0.946652  0.460792  0.208183  1
  O  O12  1  0.646329  0.144188  0.394046  1
  O  O13  1  0.539208  0.053348  0.791817  1
  O  O14  1  0.144188  0.646329  0.394046  1
