# generated using pymatgen
data_ThMgIn3Rh
_symmetry_space_group_name_H-M   'P 1'
_cell_length_a   4.41112100
_cell_length_b   7.38142400
_cell_length_c   8.42555900
_cell_angle_alpha   90.00000000
_cell_angle_beta   90.00000000
_cell_angle_gamma   90.00000000
_symmetry_Int_Tables_number   1
_chemical_formula_structural   ThMgIn3Rh
_chemical_formula_sum   'Th2 Mg2 In6 Rh2'
_cell_volume   274.33918720
_cell_formula_units_Z   2
loop_
 _symmetry_equiv_pos_site_id
 _symmetry_equiv_pos_as_xyz
  1  'x, y, z'
loop_
 _atom_site_type_symbol
 _atom_site_label
 _atom_site_symmetry_multiplicity
 _atom_site_fract_x
 _atom_site_fract_y
 _atom_site_fract_z
 _atom_site_occupancy
  Th  Th0  1  0.000000  0.404693  0.250000  1
  Th  Th1  1  0.000000  0.595307  0.750000  1
  Mg  Mg2  1  0.000000  0.000000  0.000000  1
  Mg  Mg3  1  0.000000  0.000000  0.500000  1
  In  In4  1  0.500000  0.054869  0.250000  1
  In  In5  1  0.500000  0.945131  0.750000  1
  In  In6  1  0.500000  0.694165  0.052460  1
  In  In7  1  0.500000  0.305835  0.947540  1
  In  In8  1  0.500000  0.694165  0.447540  1
  In  In9  1  0.500000  0.305835  0.552460  1
  Rh  Rh10  1  0.000000  0.782899  0.250000  1
  Rh  Rh11  1  0.000000  0.217101  0.750000  1
