# generated using pymatgen
data_Yb11Pr5Mg3InRu4
_symmetry_space_group_name_H-M   'P 1'
_cell_length_a   10.03841257
_cell_length_b   9.91700864
_cell_length_c   9.90378460
_cell_angle_alpha   60.38217784
_cell_angle_beta   60.77346924
_cell_angle_gamma   60.54978959
_symmetry_Int_Tables_number   1
_chemical_formula_structural   Yb11Pr5Mg3InRu4
_chemical_formula_sum   'Yb11 Pr5 Mg3 In1 Ru4'
_cell_volume   706.09560460
_cell_formula_units_Z   1
loop_
 _symmetry_equiv_pos_site_id
 _symmetry_equiv_pos_as_xyz
  1  'x, y, z'
loop_
 _atom_site_type_symbol
 _atom_site_label
 _atom_site_symmetry_multiplicity
 _atom_site_fract_x
 _atom_site_fract_y
 _atom_site_fract_z
 _atom_site_occupancy
  Yb  Yb0  1  0.049445  0.451353  0.449185  1
  Yb  Yb1  1  0.191948  0.808467  0.189386  1
  Yb  Yb2  1  0.657587  0.659872  0.658814  1
  Yb  Yb3  1  0.452460  0.451463  0.052149  1
  Yb  Yb4  1  0.046463  0.453529  0.050144  1
  Yb  Yb5  1  0.453268  0.046437  0.047252  1
  Yb  Yb6  1  0.048391  0.051013  0.451160  1
  Yb  Yb7  1  0.656999  0.660996  0.023342  1
  Yb  Yb8  1  0.658599  0.020226  0.661089  1
  Yb  Yb9  1  0.190563  0.810284  0.810311  1
  Yb  Yb10  1  0.453035  0.049706  0.452886  1
  Pr  Pr11  1  0.196297  0.188340  0.805960  1
  Pr  Pr12  1  0.030412  0.658272  0.655068  1
  Pr  Pr13  1  0.803539  0.812574  0.192357  1
  Pr  Pr14  1  0.806632  0.193455  0.195368  1
  Pr  Pr15  1  0.805184  0.189690  0.812236  1
  Mg  Mg16  1  0.423735  0.729202  0.420903  1
  Mg  Mg17  1  0.728122  0.423921  0.422207  1
  Mg  Mg18  1  0.422467  0.421453  0.730186  1
  In  In19  1  0.419342  0.417439  0.421395  1
  Ru  Ru20  1  0.866213  0.863386  0.868156  1
  Ru  Ru21  1  0.401158  0.874775  0.862359  1
  Ru  Ru22  1  0.871582  0.399935  0.864790  1
  Ru  Ru23  1  0.866561  0.864210  0.403301  1
