# generated using pymatgen
data_Np(ZnAu2)2
_symmetry_space_group_name_H-M   'P 1'
_cell_length_a   5.67840960
_cell_length_b   5.67840925
_cell_length_c   5.67901836
_cell_angle_alpha   103.03406800
_cell_angle_beta   103.03407566
_cell_angle_gamma   123.29094107
_symmetry_Int_Tables_number   1
_chemical_formula_structural   Np(ZnAu2)2
_chemical_formula_sum   'Np1 Zn2 Au4'
_cell_volume   134.70599898
_cell_formula_units_Z   1
loop_
 _symmetry_equiv_pos_site_id
 _symmetry_equiv_pos_as_xyz
  1  'x, y, z'
loop_
 _atom_site_type_symbol
 _atom_site_label
 _atom_site_symmetry_multiplicity
 _atom_site_fract_x
 _atom_site_fract_y
 _atom_site_fract_z
 _atom_site_occupancy
  Np  Np0  1  0.000000  0.000000  0.000000  1
  Zn  Zn1  1  0.250000  0.750000  0.500000  1
  Zn  Zn2  1  0.750000  0.250000  0.500000  1
  Au  Au3  1  0.300277  0.300277  0.600554  1
  Au  Au4  1  0.699723  0.699723  0.399446  1
  Au  Au5  1  0.699733  0.300267  0.000000  1
  Au  Au6  1  0.300267  0.699733  0.000000  1
