# generated using pymatgen
data_Hf18Mo8IrRh
_symmetry_space_group_name_H-M   'P 1'
_cell_length_a   8.73358200
_cell_length_b   8.73358074
_cell_length_c   8.54054300
_cell_angle_alpha   90.00000000
_cell_angle_beta   90.00000000
_cell_angle_gamma   119.99999720
_symmetry_Int_Tables_number   1
_chemical_formula_structural   Hf18Mo8IrRh
_chemical_formula_sum   'Hf18 Mo8 Ir1 Rh1'
_cell_volume   564.15815370
_cell_formula_units_Z   1
loop_
 _symmetry_equiv_pos_site_id
 _symmetry_equiv_pos_as_xyz
  1  'x, y, z'
loop_
 _atom_site_type_symbol
 _atom_site_label
 _atom_site_symmetry_multiplicity
 _atom_site_fract_x
 _atom_site_fract_y
 _atom_site_fract_z
 _atom_site_occupancy
  Hf  Hf0  1  0.198035  0.801965  0.447003  1
  Hf  Hf1  1  0.198035  0.396070  0.447003  1
  Hf  Hf2  1  0.603930  0.801965  0.447003  1
  Hf  Hf3  1  0.801538  0.198462  0.552799  1
  Hf  Hf4  1  0.801538  0.603076  0.552799  1
  Hf  Hf5  1  0.396924  0.198462  0.552799  1
  Hf  Hf6  1  0.801538  0.198462  0.947201  1
  Hf  Hf7  1  0.801538  0.603076  0.947201  1
  Hf  Hf8  1  0.396924  0.198462  0.947201  1
  Hf  Hf9  1  0.198035  0.801965  0.052997  1
  Hf  Hf10  1  0.198035  0.396070  0.052997  1
  Hf  Hf11  1  0.603930  0.801965  0.052997  1
  Hf  Hf12  1  0.542965  0.457035  0.250000  1
  Hf  Hf13  1  0.542965  0.085929  0.250000  1
  Hf  Hf14  1  0.914071  0.457035  0.250000  1
  Hf  Hf15  1  0.456567  0.543433  0.750000  1
  Hf  Hf16  1  0.456567  0.913134  0.750000  1
  Hf  Hf17  1  0.086866  0.543433  0.750000  1
  Mo  Mo18  1  0.888133  0.111867  0.250000  1
  Mo  Mo19  1  0.888133  0.776263  0.250000  1
  Mo  Mo20  1  0.223737  0.111867  0.250000  1
  Mo  Mo21  1  0.111678  0.888322  0.750000  1
  Mo  Mo22  1  0.111678  0.223357  0.750000  1
  Mo  Mo23  1  0.776643  0.888322  0.750000  1
  Mo  Mo24  1  0.000000  0.000000  0.499621  1
  Mo  Mo25  1  0.000000  0.000000  0.000379  1
  Ir  Ir26  1  0.333333  0.666667  0.250000  1
  Rh  Rh27  1  0.666667  0.333333  0.750000  1
