# generated using pymatgen
data_Y7HoEr2(In2Pd)4
_symmetry_space_group_name_H-M   'P 1'
_cell_length_a   3.63821500
_cell_length_b   8.16316501
_cell_length_c   18.25815204
_cell_angle_alpha   89.99910673
_cell_angle_beta   90.00000000
_cell_angle_gamma   90.00000000
_symmetry_Int_Tables_number   1
_chemical_formula_structural   Y7HoEr2(In2Pd)4
_chemical_formula_sum   'Y7 Ho1 Er2 In8 Pd4'
_cell_volume   542.25523635
_cell_formula_units_Z   1
loop_
 _symmetry_equiv_pos_site_id
 _symmetry_equiv_pos_as_xyz
  1  'x, y, z'
loop_
 _atom_site_type_symbol
 _atom_site_label
 _atom_site_symmetry_multiplicity
 _atom_site_fract_x
 _atom_site_fract_y
 _atom_site_fract_z
 _atom_site_occupancy
  Y  Y0  1  0.000000  0.499893  0.500128  1
  Y  Y1  1  0.000000  0.000776  0.999670  1
  Y  Y2  1  0.000000  0.738497  0.282059  1
  Y  Y3  1  0.000000  0.261219  0.717942  1
  Y  Y4  1  0.000000  0.761199  0.781474  1
  Y  Y5  1  0.000000  0.239066  0.218759  1
  Y  Y6  1  0.000000  0.618602  0.083010  1
  Ho  Ho7  1  0.000000  0.117573  0.416445  1
  Er  Er8  1  0.000000  0.382022  0.915510  1
  Er  Er9  1  0.000000  0.882370  0.583947  1
  In  In10  1  0.500000  0.706221  0.932652  1
  In  In11  1  0.500000  0.293141  0.067014  1
  In  In12  1  0.500000  0.793550  0.433695  1
  In  In13  1  0.500000  0.205908  0.566528  1
  In  In14  1  0.500000  0.581296  0.650402  1
  In  In15  1  0.500000  0.418683  0.349695  1
  In  In16  1  0.500000  0.919887  0.151041  1
  In  In17  1  0.500000  0.080992  0.848975  1
  Pd  Pd18  1  0.500000  0.523100  0.196261  1
  Pd  Pd19  1  0.500000  0.476112  0.804815  1
  Pd  Pd20  1  0.500000  0.976263  0.694477  1
  Pd  Pd21  1  0.500000  0.023632  0.305500  1
