# generated using pymatgen
data_Tm3MgPaZnNi4
_symmetry_space_group_name_H-M   'P 1'
_cell_length_a   7.36006056
_cell_length_b   7.31878572
_cell_length_c   3.50301700
_cell_angle_alpha   90.00000000
_cell_angle_beta   90.00000000
_cell_angle_gamma   92.15167348
_symmetry_Int_Tables_number   1
_chemical_formula_structural   Tm3MgPaZnNi4
_chemical_formula_sum   'Tm3 Mg1 Pa1 Zn1 Ni4'
_cell_volume   188.56294511
_cell_formula_units_Z   1
loop_
 _symmetry_equiv_pos_site_id
 _symmetry_equiv_pos_as_xyz
  1  'x, y, z'
loop_
 _atom_site_type_symbol
 _atom_site_label
 _atom_site_symmetry_multiplicity
 _atom_site_fract_x
 _atom_site_fract_y
 _atom_site_fract_z
 _atom_site_occupancy
  Tm  Tm0  1  0.307907  0.844810  0.500000  1
  Tm  Tm1  1  0.158815  0.313352  0.500000  1
  Tm  Tm2  1  0.848384  0.682523  0.500000  1
  Mg  Mg3  1  0.497366  0.510082  0.000000  1
  Pa  Pa4  1  0.683242  0.154016  0.500000  1
  Zn  Zn5  1  0.998632  0.997145  0.000000  1
  Ni  Ni6  1  0.125629  0.605621  0.000000  1
  Ni  Ni7  1  0.855089  0.364710  0.000000  1
  Ni  Ni8  1  0.625419  0.885633  0.000000  1
  Ni  Ni9  1  0.399517  0.142108  0.000000  1
