# generated using pymatgen
data_La2Sm6SiPd24
_symmetry_space_group_name_H-M   'P 1'
_cell_length_a   8.44830652
_cell_length_b   8.44830652
_cell_length_c   8.44830652
_cell_angle_alpha   90.02842630
_cell_angle_beta   90.02842630
_cell_angle_gamma   90.02842630
_symmetry_Int_Tables_number   1
_chemical_formula_structural   La2Sm6SiPd24
_chemical_formula_sum   'La2 Sm6 Si1 Pd24'
_cell_volume   602.98821887
_cell_formula_units_Z   1
loop_
 _symmetry_equiv_pos_site_id
 _symmetry_equiv_pos_as_xyz
  1  'x, y, z'
loop_
 _atom_site_type_symbol
 _atom_site_label
 _atom_site_symmetry_multiplicity
 _atom_site_fract_x
 _atom_site_fract_y
 _atom_site_fract_z
 _atom_site_occupancy
  La  La0  1  0.254428  0.254428  0.254428  1
  La  La1  1  0.745572  0.745572  0.745572  1
  Sm  Sm2  1  0.746301  0.746301  0.253175  1
  Sm  Sm3  1  0.746301  0.253175  0.746301  1
  Sm  Sm4  1  0.253699  0.253699  0.746825  1
  Sm  Sm5  1  0.253699  0.746825  0.253699  1
  Sm  Sm6  1  0.253175  0.746301  0.746301  1
  Sm  Sm7  1  0.746825  0.253699  0.253699  1
  Si  Si8  1  0.000000  0.000000  0.000000  1
  Pd  Pd9  1  0.256999  0.501147  0.998928  1
  Pd  Pd10  1  0.743001  0.498853  0.001072  1
  Pd  Pd11  1  0.998928  0.256999  0.501147  1
  Pd  Pd12  1  0.501147  0.256999  0.998928  1
  Pd  Pd13  1  0.001072  0.743001  0.498853  1
  Pd  Pd14  1  0.498853  0.743001  0.001072  1
  Pd  Pd15  1  0.501147  0.998928  0.256999  1
  Pd  Pd16  1  0.256999  0.998928  0.501147  1
  Pd  Pd17  1  0.498853  0.001072  0.743001  1
  Pd  Pd18  1  0.743001  0.001072  0.498853  1
  Pd  Pd19  1  0.998928  0.501147  0.256999  1
  Pd  Pd20  1  0.001072  0.498853  0.743001  1
  Pd  Pd21  1  0.251624  0.501233  0.501233  1
  Pd  Pd22  1  0.748376  0.498767  0.498767  1
  Pd  Pd23  1  0.501233  0.251624  0.501233  1
  Pd  Pd24  1  0.498767  0.748376  0.498767  1
  Pd  Pd25  1  0.501233  0.501233  0.251624  1
  Pd  Pd26  1  0.498767  0.498767  0.748376  1
  Pd  Pd27  1  0.280283  0.998111  0.998111  1
  Pd  Pd28  1  0.719717  0.001889  0.001889  1
  Pd  Pd29  1  0.998111  0.280283  0.998111  1
  Pd  Pd30  1  0.001889  0.719717  0.001889  1
  Pd  Pd31  1  0.998111  0.998111  0.280283  1
  Pd  Pd32  1  0.001889  0.001889  0.719717  1
