# generated using pymatgen
data_DyY3Ga17SiIr6
_symmetry_space_group_name_H-M   'P 1'
_cell_length_a   7.58723693
_cell_length_b   7.56400167
_cell_length_c   9.49765039
_cell_angle_alpha   90.06185628
_cell_angle_beta   89.85737756
_cell_angle_gamma   119.92904992
_symmetry_Int_Tables_number   1
_chemical_formula_structural   DyY3Ga17SiIr6
_chemical_formula_sum   'Dy1 Y3 Ga17 Si1 Ir6'
_cell_volume   472.37920418
_cell_formula_units_Z   1
loop_
 _symmetry_equiv_pos_site_id
 _symmetry_equiv_pos_as_xyz
  1  'x, y, z'
loop_
 _atom_site_type_symbol
 _atom_site_label
 _atom_site_symmetry_multiplicity
 _atom_site_fract_x
 _atom_site_fract_y
 _atom_site_fract_z
 _atom_site_occupancy
  Dy  Dy0  1  0.996806  0.664594  0.248043  1
  Y  Y1  1  0.002957  0.331084  0.751230  1
  Y  Y2  1  0.673967  0.002154  0.248143  1
  Y  Y3  1  0.330382  0.002694  0.749856  1
  Ga  Ga4  1  0.130240  0.129333  0.250867  1
  Ga  Ga5  1  0.872357  0.873808  0.750780  1
  Ga  Ga6  1  0.998973  0.671101  0.917881  1
  Ga  Ga7  1  0.000535  0.665914  0.579603  1
  Ga  Ga8  1  0.333793  0.997947  0.419848  1
  Ga  Ga9  1  0.999535  0.334675  0.421004  1
  Ga  Ga10  1  0.665345  0.000380  0.579747  1
  Ga  Ga11  1  0.658417  0.994391  0.917901  1
  Ga  Ga12  1  0.333438  0.997846  0.081226  1
  Ga  Ga13  1  0.332602  0.331883  0.564357  1
  Ga  Ga14  1  0.668553  0.668833  0.435249  1
  Ga  Ga15  1  0.667947  0.669090  0.067224  1
  Ga  Ga16  1  0.338690  0.332698  0.933872  1
  Ga  Ga17  1  0.341017  0.546048  0.251465  1
  Ga  Ga18  1  0.661176  0.452475  0.751271  1
  Ga  Ga19  1  0.547351  0.339720  0.250560  1
  Ga  Ga20  1  0.451874  0.658904  0.750566  1
  Si  Si21  1  0.999721  0.334451  0.072283  1
  Ir  Ir22  1  0.684075  0.329580  0.003520  1
  Ir  Ir23  1  0.313142  0.656435  0.001795  1
  Ir  Ir24  1  0.328203  0.671128  0.500308  1
  Ir  Ir25  1  0.671356  0.328704  0.500196  1
  Ir  Ir26  1  0.998079  0.014209  0.001419  1
  Ir  Ir27  1  0.999468  0.999917  0.499784  1
