# generated using pymatgen
data_PrNd3(Er3Pt4)2
_symmetry_space_group_name_H-M   'P 1'
_cell_length_a   7.55299400
_cell_length_b   7.61730304
_cell_length_c   14.78329200
_cell_angle_alpha   90.00614531
_cell_angle_beta   90.00000000
_cell_angle_gamma   90.00000000
_symmetry_Int_Tables_number   1
_chemical_formula_structural   PrNd3(Er3Pt4)2
_chemical_formula_sum   'Pr2 Nd6 Er12 Pt16'
_cell_volume   850.53370028
_cell_formula_units_Z   2
loop_
 _symmetry_equiv_pos_site_id
 _symmetry_equiv_pos_as_xyz
  1  'x, y, z'
loop_
 _atom_site_type_symbol
 _atom_site_label
 _atom_site_symmetry_multiplicity
 _atom_site_fract_x
 _atom_site_fract_y
 _atom_site_fract_z
 _atom_site_occupancy
  Pr  Pr0  1  0.499436  0.676129  0.905618  1
  Pr  Pr1  1  0.999436  0.823871  0.594382  1
  Nd  Nd2  1  0.500592  0.676780  0.594233  1
  Nd  Nd3  1  0.000592  0.823220  0.905767  1
  Nd  Nd4  1  0.499454  0.323470  0.094181  1
  Nd  Nd5  1  0.999454  0.176530  0.405819  1
  Nd  Nd6  1  0.499174  0.323321  0.405916  1
  Nd  Nd7  1  0.999174  0.176679  0.094084  1
  Er  Er8  1  0.656604  0.167899  0.623458  1
  Er  Er9  1  0.156604  0.332101  0.876542  1
  Er  Er10  1  0.343431  0.832467  0.123314  1
  Er  Er11  1  0.843431  0.667533  0.376686  1
  Er  Er12  1  0.343437  0.832824  0.376572  1
  Er  Er13  1  0.843437  0.667176  0.123428  1
  Er  Er14  1  0.657277  0.167520  0.876386  1
  Er  Er15  1  0.157277  0.332480  0.623614  1
  Er  Er16  1  0.820295  0.508461  0.749950  1
  Er  Er17  1  0.320295  0.991539  0.750050  1
  Er  Er18  1  0.179904  0.490910  0.250176  1
  Er  Er19  1  0.679904  0.009090  0.249824  1
  Pt  Pt20  1  0.678284  0.963261  0.457655  1
  Pt  Pt21  1  0.178284  0.536739  0.042345  1
  Pt  Pt22  1  0.322212  0.036136  0.956507  1
  Pt  Pt23  1  0.822212  0.463864  0.543493  1
  Pt  Pt24  1  0.320993  0.036192  0.543129  1
  Pt  Pt25  1  0.820993  0.463808  0.956871  1
  Pt  Pt26  1  0.678858  0.962885  0.042398  1
  Pt  Pt27  1  0.178858  0.537115  0.457602  1
  Pt  Pt28  1  0.453456  0.377684  0.749983  1
  Pt  Pt29  1  0.953456  0.122316  0.750017  1
  Pt  Pt30  1  0.546685  0.623049  0.250127  1
  Pt  Pt31  1  0.046685  0.876951  0.249873  1
  Pt  Pt32  1  0.685026  0.862186  0.750195  1
  Pt  Pt33  1  0.185026  0.637814  0.749805  1
  Pt  Pt34  1  0.314880  0.137867  0.249899  1
  Pt  Pt35  1  0.814880  0.362133  0.250101  1
