# generated using pymatgen
data_Zr6Fe9Co6Si7Rh
_symmetry_space_group_name_H-M   'P 1'
_cell_length_a   8.11055496
_cell_length_b   8.11055516
_cell_length_c   8.13116583
_cell_angle_alpha   60.01904364
_cell_angle_beta   60.01904657
_cell_angle_gamma   59.93783920
_symmetry_Int_Tables_number   1
_chemical_formula_structural   Zr6Fe9Co6Si7Rh
_chemical_formula_sum   'Zr6 Fe9 Co6 Si7 Rh1'
_cell_volume   378.14588473
_cell_formula_units_Z   1
loop_
 _symmetry_equiv_pos_site_id
 _symmetry_equiv_pos_as_xyz
  1  'x, y, z'
loop_
 _atom_site_type_symbol
 _atom_site_label
 _atom_site_symmetry_multiplicity
 _atom_site_fract_x
 _atom_site_fract_y
 _atom_site_fract_z
 _atom_site_occupancy
  Zr  Zr0  1  0.703832  0.703832  0.293956  1
  Zr  Zr1  1  0.297461  0.704831  0.293505  1
  Zr  Zr2  1  0.704831  0.297461  0.293505  1
  Zr  Zr3  1  0.292862  0.292862  0.709263  1
  Zr  Zr4  1  0.704714  0.293507  0.707899  1
  Zr  Zr5  1  0.293507  0.704714  0.707899  1
  Fe  Fe6  1  0.123633  0.123633  0.117970  1
  Fe  Fe7  1  0.676231  0.676231  0.971426  1
  Fe  Fe8  1  0.674465  0.971731  0.679451  1
  Fe  Fe9  1  0.971731  0.674465  0.679451  1
  Fe  Fe10  1  0.674418  0.674418  0.680284  1
  Fe  Fe11  1  0.323757  0.323757  0.029577  1
  Fe  Fe12  1  0.324460  0.028824  0.323566  1
  Fe  Fe13  1  0.028824  0.324460  0.323566  1
  Fe  Fe14  1  0.323933  0.323933  0.323015  1
  Co  Co15  1  0.879171  0.360445  0.879731  1
  Co  Co16  1  0.360445  0.879171  0.879731  1
  Co  Co17  1  0.879946  0.879946  0.880158  1
  Co  Co18  1  0.121078  0.121078  0.636936  1
  Co  Co19  1  0.122674  0.638454  0.116397  1
  Co  Co20  1  0.638454  0.122674  0.116397  1
  Si  Si21  1  0.004878  0.004878  0.987556  1
  Si  Si22  1  0.000625  0.000625  0.502981  1
  Si  Si23  1  0.494327  0.000374  0.505217  1
  Si  Si24  1  0.000374  0.494327  0.505217  1
  Si  Si25  1  0.500003  0.500003  0.000992  1
  Si  Si26  1  0.999024  0.498408  0.001109  1
  Si  Si27  1  0.498408  0.999024  0.001109  1
  Rh  Rh28  1  0.881933  0.881933  0.352142  1
