# generated using pymatgen
data_TbThHgPd2
_symmetry_space_group_name_H-M   'P 1'
_cell_length_a   3.78324400
_cell_length_b   7.83012020
_cell_length_c   7.83012179
_cell_angle_alpha   91.21195096
_cell_angle_beta   90.00000000
_cell_angle_gamma   90.00000000
_symmetry_Int_Tables_number   1
_chemical_formula_structural   TbThHgPd2
_chemical_formula_sum   'Tb2 Th2 Hg2 Pd4'
_cell_volume   231.90180701
_cell_formula_units_Z   2
loop_
 _symmetry_equiv_pos_site_id
 _symmetry_equiv_pos_as_xyz
  1  'x, y, z'
loop_
 _atom_site_type_symbol
 _atom_site_label
 _atom_site_symmetry_multiplicity
 _atom_site_fract_x
 _atom_site_fract_y
 _atom_site_fract_z
 _atom_site_occupancy
  Tb  Tb0  1  0.500000  0.327169  0.172831  1
  Tb  Tb1  1  0.500000  0.672831  0.827169  1
  Th  Th2  1  0.500000  0.175790  0.675790  1
  Th  Th3  1  0.500000  0.824210  0.324210  1
  Hg  Hg4  1  0.000000  0.000000  0.000000  1
  Hg  Hg5  1  0.000000  0.500000  0.500000  1
  Pd  Pd6  1  0.000000  0.627329  0.127329  1
  Pd  Pd7  1  0.000000  0.372671  0.872671  1
  Pd  Pd8  1  0.000000  0.874256  0.625744  1
  Pd  Pd9  1  0.000000  0.125744  0.374256  1
