# generated using pymatgen
data_Th5VRh10
_symmetry_space_group_name_H-M   'P 1'
_cell_length_a   5.91422411
_cell_length_b   5.91422490
_cell_length_c   9.02272700
_cell_angle_alpha   90.00000000
_cell_angle_beta   90.00000000
_cell_angle_gamma   101.64735975
_symmetry_Int_Tables_number   1
_chemical_formula_structural   Th5VRh10
_chemical_formula_sum   'Th5 V1 Rh10'
_cell_volume   309.09885116
_cell_formula_units_Z   1
loop_
 _symmetry_equiv_pos_site_id
 _symmetry_equiv_pos_as_xyz
  1  'x, y, z'
loop_
 _atom_site_type_symbol
 _atom_site_label
 _atom_site_symmetry_multiplicity
 _atom_site_fract_x
 _atom_site_fract_y
 _atom_site_fract_z
 _atom_site_occupancy
  Th  Th0  1  0.626246  0.626246  0.750000  1
  Th  Th1  1  0.784282  0.202164  0.494987  1
  Th  Th2  1  0.202164  0.784282  0.005013  1
  Th  Th3  1  0.202164  0.784282  0.494987  1
  Th  Th4  1  0.784282  0.202164  0.005013  1
  V  V5  1  0.396758  0.396758  0.250000  1
  Rh  Rh6  1  0.665516  0.665516  0.091752  1
  Rh  Rh7  1  0.665516  0.665516  0.408248  1
  Rh  Rh8  1  0.296947  0.296947  0.983779  1
  Rh  Rh9  1  0.296947  0.296947  0.516221  1
  Rh  Rh10  1  0.494052  0.053911  0.750000  1
  Rh  Rh11  1  0.494279  0.013997  0.250000  1
  Rh  Rh12  1  0.006993  0.006993  0.250000  1
  Rh  Rh13  1  0.015942  0.015942  0.750000  1
  Rh  Rh14  1  0.053911  0.494052  0.750000  1
  Rh  Rh15  1  0.013997  0.494279  0.250000  1
