# generated using pymatgen
data_Tb2DyInIr8
_symmetry_space_group_name_H-M   'P 1'
_cell_length_a   5.33112600
_cell_length_b   5.33112503
_cell_length_c   8.66647300
_cell_angle_alpha   90.00000000
_cell_angle_beta   90.00000000
_cell_angle_gamma   119.99999363
_symmetry_Int_Tables_number   1
_chemical_formula_structural   Tb2DyInIr8
_chemical_formula_sum   'Tb2 Dy1 In1 Ir8'
_cell_volume   213.30982666
_cell_formula_units_Z   1
loop_
 _symmetry_equiv_pos_site_id
 _symmetry_equiv_pos_as_xyz
  1  'x, y, z'
loop_
 _atom_site_type_symbol
 _atom_site_label
 _atom_site_symmetry_multiplicity
 _atom_site_fract_x
 _atom_site_fract_y
 _atom_site_fract_z
 _atom_site_occupancy
  Tb  Tb0  1  0.333333  0.666667  0.080232  1
  Tb  Tb1  1  0.666667  0.333333  0.559297  1
  Dy  Dy2  1  0.666667  0.333333  0.930195  1
  In  In3  1  0.333333  0.666667  0.440048  1
  Ir  Ir4  1  0.000000  0.000000  0.996560  1
  Ir  Ir5  1  0.000000  0.000000  0.498034  1
  Ir  Ir6  1  0.830429  0.660857  0.248901  1
  Ir  Ir7  1  0.170405  0.829595  0.749643  1
  Ir  Ir8  1  0.659190  0.829595  0.749643  1
  Ir  Ir9  1  0.339143  0.169571  0.248901  1
  Ir  Ir10  1  0.830429  0.169571  0.248901  1
  Ir  Ir11  1  0.170405  0.340810  0.749643  1
