# generated using pymatgen
data_Zn11RuAu2
_symmetry_space_group_name_H-M   'P 1'
_cell_length_a   6.76821441
_cell_length_b   6.76821449
_cell_length_c   5.18803788
_cell_angle_alpha   80.54621698
_cell_angle_beta   80.54622354
_cell_angle_gamma   70.53835453
_symmetry_Int_Tables_number   1
_chemical_formula_structural   Zn11RuAu2
_chemical_formula_sum   'Zn11 Ru1 Au2'
_cell_volume   219.49740603
_cell_formula_units_Z   1
loop_
 _symmetry_equiv_pos_site_id
 _symmetry_equiv_pos_as_xyz
  1  'x, y, z'
loop_
 _atom_site_type_symbol
 _atom_site_label
 _atom_site_symmetry_multiplicity
 _atom_site_fract_x
 _atom_site_fract_y
 _atom_site_fract_z
 _atom_site_occupancy
  Zn  Zn0  1  0.000000  0.000000  0.000000  1
  Zn  Zn1  1  0.776393  0.776393  0.383658  1
  Zn  Zn2  1  0.223607  0.223607  0.616342  1
  Zn  Zn3  1  0.220457  0.634364  0.310971  1
  Zn  Zn4  1  0.365636  0.779543  0.689029  1
  Zn  Zn5  1  0.779543  0.365636  0.689029  1
  Zn  Zn6  1  0.634364  0.220457  0.310971  1
  Zn  Zn7  1  0.004325  0.642180  0.797770  1
  Zn  Zn8  1  0.357820  0.995675  0.202230  1
  Zn  Zn9  1  0.995675  0.357820  0.202230  1
  Zn  Zn10  1  0.642180  0.004325  0.797770  1
  Ru  Ru11  1  0.000000  0.000000  0.500000  1
  Au  Au12  1  0.376896  0.376896  0.939645  1
  Au  Au13  1  0.623104  0.623104  0.060355  1
