# generated using pymatgen
data_La11Yb4Pr(CdIr)4
_symmetry_space_group_name_H-M   'P 1'
_cell_length_a   10.08983549
_cell_length_b   10.08858483
_cell_length_c   10.10145330
_cell_angle_alpha   60.19644395
_cell_angle_beta   60.06151679
_cell_angle_gamma   60.09506642
_symmetry_Int_Tables_number   1
_chemical_formula_structural   La11Yb4Pr(CdIr)4
_chemical_formula_sum   'La11 Yb4 Pr1 Cd4 Ir4'
_cell_volume   729.01789952
_cell_formula_units_Z   1
loop_
 _symmetry_equiv_pos_site_id
 _symmetry_equiv_pos_as_xyz
  1  'x, y, z'
loop_
 _atom_site_type_symbol
 _atom_site_label
 _atom_site_symmetry_multiplicity
 _atom_site_fract_x
 _atom_site_fract_y
 _atom_site_fract_z
 _atom_site_occupancy
  La  La0  1  0.347657  0.346532  0.345654  1
  La  La1  1  0.346597  0.348397  0.958505  1
  La  La2  1  0.346512  0.959241  0.347676  1
  La  La3  1  0.960019  0.346451  0.345708  1
  La  La4  1  0.809424  0.191561  0.190163  1
  La  La5  1  0.193122  0.807113  0.807648  1
  La  La6  1  0.192181  0.809954  0.188040  1
  La  La7  1  0.809129  0.190666  0.808287  1
  La  La8  1  0.192208  0.189194  0.809114  1
  La  La9  1  0.807746  0.808350  0.190356  1
  La  La10  1  0.937732  0.561304  0.561845  1
  Yb  Yb11  1  0.562044  0.938067  0.938803  1
  Yb  Yb12  1  0.563299  0.938179  0.561324  1
  Yb  Yb13  1  0.936730  0.562326  0.938382  1
  Yb  Yb14  1  0.562493  0.561624  0.938784  1
  Pr  Pr15  1  0.935959  0.937492  0.563533  1
  Cd  Cd16  1  0.579620  0.580112  0.579884  1
  Cd  Cd17  1  0.580281  0.580037  0.259941  1
  Cd  Cd18  1  0.580168  0.260165  0.579757  1
  Cd  Cd19  1  0.260348  0.580138  0.579866  1
  Ir  Ir20  1  0.139586  0.140479  0.141656  1
  Ir  Ir21  1  0.139510  0.142459  0.579981  1
  Ir  Ir22  1  0.139116  0.579486  0.143552  1
  Ir  Ir23  1  0.578515  0.140671  0.141539  1
