# generated using pymatgen
data_Dy2Ho4SbO12
_symmetry_space_group_name_H-M   'P 1'
_cell_length_a   6.47939846
_cell_length_b   6.47834595
_cell_length_c   6.47867811
_cell_angle_alpha   98.91004387
_cell_angle_beta   98.88082352
_cell_angle_gamma   98.88173883
_symmetry_Int_Tables_number   1
_chemical_formula_structural   Dy2Ho4SbO12
_chemical_formula_sum   'Dy2 Ho4 Sb1 O12'
_cell_volume   260.97853978
_cell_formula_units_Z   1
loop_
 _symmetry_equiv_pos_site_id
 _symmetry_equiv_pos_as_xyz
  1  'x, y, z'
loop_
 _atom_site_type_symbol
 _atom_site_label
 _atom_site_symmetry_multiplicity
 _atom_site_fract_x
 _atom_site_fract_y
 _atom_site_fract_z
 _atom_site_occupancy
  Dy  Dy0  1  0.609275  0.303378  0.139853  1
  Dy  Dy1  1  0.140128  0.609567  0.303870  1
  Ho  Ho2  1  0.696041  0.859957  0.391072  1
  Ho  Ho3  1  0.390811  0.696168  0.859779  1
  Ho  Ho4  1  0.860249  0.390819  0.696118  1
  Ho  Ho5  1  0.303621  0.139888  0.609348  1
  Sb  Sb6  1  0.999681  0.999604  0.999550  1
  O  O7  1  0.436701  0.588413  0.177536  1
  O  O8  1  0.178224  0.435501  0.588327  1
  O  O9  1  0.587264  0.177718  0.436976  1
  O  O10  1  0.563978  0.413001  0.820774  1
  O  O11  1  0.821365  0.564474  0.413859  1
  O  O12  1  0.413410  0.822372  0.564857  1
  O  O13  1  0.928840  0.042732  0.695035  1
  O  O14  1  0.957386  0.304268  0.070255  1
  O  O15  1  0.304123  0.070403  0.956579  1
  O  O16  1  0.070947  0.958149  0.304774  1
  O  O17  1  0.042661  0.695117  0.928578  1
  O  O18  1  0.695295  0.928472  0.042859  1
