# generated using pymatgen
data_Ce7Os3
_symmetry_space_group_name_H-M   'P 1'
_cell_length_a   9.77416400
_cell_length_b   9.77416458
_cell_length_c   6.10585300
_cell_angle_alpha   90.00000000
_cell_angle_beta   90.00000000
_cell_angle_gamma   119.99999802
_symmetry_Int_Tables_number   1
_chemical_formula_structural   Ce7Os3
_chemical_formula_sum   'Ce14 Os6'
_cell_volume   505.16849077
_cell_formula_units_Z   2
loop_
 _symmetry_equiv_pos_site_id
 _symmetry_equiv_pos_as_xyz
  1  'x, y, z'
loop_
 _atom_site_type_symbol
 _atom_site_label
 _atom_site_symmetry_multiplicity
 _atom_site_fract_x
 _atom_site_fract_y
 _atom_site_fract_z
 _atom_site_occupancy
  Ce  Ce0  1  0.462956  0.537044  0.294984  1
  Ce  Ce1  1  0.074087  0.537044  0.294984  1
  Ce  Ce2  1  0.925913  0.462956  0.794984  1
  Ce  Ce3  1  0.254570  0.127285  0.508487  1
  Ce  Ce4  1  0.537044  0.074087  0.794984  1
  Ce  Ce5  1  0.745430  0.872715  0.008487  1
  Ce  Ce6  1  0.666667  0.333333  0.285205  1
  Ce  Ce7  1  0.127285  0.872715  0.008487  1
  Ce  Ce8  1  0.462956  0.925913  0.294984  1
  Ce  Ce9  1  0.537044  0.462956  0.794984  1
  Ce  Ce10  1  0.872715  0.127285  0.508487  1
  Ce  Ce11  1  0.127285  0.254570  0.008487  1
  Ce  Ce12  1  0.872715  0.745430  0.508487  1
  Ce  Ce13  1  0.333333  0.666667  0.785205  1
  Os  Os14  1  0.814133  0.628266  0.048794  1
  Os  Os15  1  0.814133  0.185867  0.048794  1
  Os  Os16  1  0.628266  0.814133  0.548794  1
  Os  Os17  1  0.371734  0.185867  0.048794  1
  Os  Os18  1  0.185867  0.371734  0.548794  1
  Os  Os19  1  0.185867  0.814133  0.548794  1
