# generated using pymatgen
data_HoErLu2CdPt
_symmetry_space_group_name_H-M   'P 1'
_cell_length_a   9.55361447
_cell_length_b   9.54242514
_cell_length_c   9.54242478
_cell_angle_alpha   60.07758977
_cell_angle_beta   59.96120753
_cell_angle_gamma   59.96120834
_symmetry_Int_Tables_number   1
_chemical_formula_structural   HoErLu2CdPt
_chemical_formula_sum   'Ho4 Er4 Lu8 Cd4 Pt4'
_cell_volume   615.13302455
_cell_formula_units_Z   4
loop_
 _symmetry_equiv_pos_site_id
 _symmetry_equiv_pos_as_xyz
  1  'x, y, z'
loop_
 _atom_site_type_symbol
 _atom_site_label
 _atom_site_symmetry_multiplicity
 _atom_site_fract_x
 _atom_site_fract_y
 _atom_site_fract_z
 _atom_site_occupancy
  Ho  Ho0  1  0.815199  0.184801  0.815199  1
  Ho  Ho1  1  0.184801  0.815199  0.184801  1
  Ho  Ho2  1  0.815199  0.815199  0.184801  1
  Ho  Ho3  1  0.184801  0.184801  0.815199  1
  Er  Er4  1  0.603523  0.603126  0.603126  1
  Er  Er5  1  0.603126  0.603523  0.190225  1
  Er  Er6  1  0.603126  0.190225  0.603523  1
  Er  Er7  1  0.190225  0.603126  0.603126  1
  Lu  Lu8  1  0.061496  0.438504  0.438504  1
  Lu  Lu9  1  0.438504  0.061496  0.061496  1
  Lu  Lu10  1  0.438261  0.061739  0.438261  1
  Lu  Lu11  1  0.061739  0.438261  0.061739  1
  Lu  Lu12  1  0.438261  0.438261  0.061739  1
  Lu  Lu13  1  0.061739  0.061739  0.438261  1
  Lu  Lu14  1  0.187617  0.812383  0.812383  1
  Lu  Lu15  1  0.812383  0.187617  0.187617  1
  Cd  Cd16  1  0.833113  0.831540  0.831540  1
  Cd  Cd17  1  0.831540  0.833113  0.503808  1
  Cd  Cd18  1  0.831540  0.503808  0.833113  1
  Cd  Cd19  1  0.503808  0.831540  0.831540  1
  Pt  Pt20  1  0.393883  0.392311  0.392311  1
  Pt  Pt21  1  0.392311  0.393883  0.821495  1
  Pt  Pt22  1  0.392311  0.821495  0.393883  1
  Pt  Pt23  1  0.821495  0.392311  0.392311  1
