# generated using pymatgen
data_Ta6Si6Tc5Rh
_symmetry_space_group_name_H-M   'P 1'
_cell_length_a   7.50547943
_cell_length_b   7.52727465
_cell_length_c   7.52727374
_cell_angle_alpha   127.99814938
_cell_angle_beta   122.68257337
_cell_angle_gamma   81.11195325
_symmetry_Int_Tables_number   1
_chemical_formula_structural   Ta6Si6Tc5Rh
_chemical_formula_sum   'Ta6 Si6 Tc5 Rh1'
_cell_volume   271.72128682
_cell_formula_units_Z   1
loop_
 _symmetry_equiv_pos_site_id
 _symmetry_equiv_pos_as_xyz
  1  'x, y, z'
loop_
 _atom_site_type_symbol
 _atom_site_label
 _atom_site_symmetry_multiplicity
 _atom_site_fract_x
 _atom_site_fract_y
 _atom_site_fract_z
 _atom_site_occupancy
  Ta  Ta0  1  0.544481  0.093919  0.039438  1
  Ta  Ta1  1  0.455519  0.494958  0.549438  1
  Ta  Ta2  1  0.960324  0.501563  0.024533  1
  Ta  Ta3  1  0.039676  0.064209  0.541239  1
  Ta  Ta4  1  0.747178  0.911186  0.653754  1
  Ta  Ta5  1  0.252822  0.906575  0.164009  1
  Si  Si6  1  0.335773  0.826065  0.496733  1
  Si  Si7  1  0.664227  0.160959  0.490292  1
  Si  Si8  1  0.831541  0.835833  0.997579  1
  Si  Si9  1  0.168459  0.166037  0.004292  1
  Si  Si10  1  0.775595  0.525043  0.248162  1
  Si  Si11  1  0.224405  0.472567  0.749449  1
  Tc  Tc12  1  0.156339  0.747381  0.653215  1
  Tc  Tc13  1  0.843661  0.496875  0.591042  1
  Tc  Tc14  1  0.590183  0.748983  0.087022  1
  Tc  Tc15  1  0.409817  0.496838  0.158800  1
  Tc  Tc16  1  0.500000  0.244243  0.744243  1
  Rh  Rh17  1  0.000000  0.248761  0.248761  1
