# generated using pymatgen
data_Tb6Dy2Ti9Si16Tc3
_symmetry_space_group_name_H-M   'P 1'
_cell_length_a   6.98558164
_cell_length_b   6.99469796
_cell_length_c   12.91140604
_cell_angle_alpha   89.82963940
_cell_angle_beta   90.13826223
_cell_angle_gamma   89.99544221
_symmetry_Int_Tables_number   1
_chemical_formula_structural   Tb6Dy2Ti9Si16Tc3
_chemical_formula_sum   'Tb6 Dy2 Ti9 Si16 Tc3'
_cell_volume   630.87292877
_cell_formula_units_Z   1
loop_
 _symmetry_equiv_pos_site_id
 _symmetry_equiv_pos_as_xyz
  1  'x, y, z'
loop_
 _atom_site_type_symbol
 _atom_site_label
 _atom_site_symmetry_multiplicity
 _atom_site_fract_x
 _atom_site_fract_y
 _atom_site_fract_z
 _atom_site_occupancy
  Tb  Tb0  1  0.500540  0.158866  0.215759  1
  Tb  Tb1  1  0.837105  0.496901  0.282171  1
  Tb  Tb2  1  0.161975  0.501626  0.781843  1
  Tb  Tb3  1  0.659364  0.998158  0.968056  1
  Tb  Tb4  1  0.003243  0.337916  0.534557  1
  Tb  Tb5  1  0.997676  0.661429  0.030613  1
  Dy  Dy6  1  0.342757  0.999875  0.467906  1
  Dy  Dy7  1  0.498153  0.841132  0.719576  1
  Ti  Ti8  1  0.328118  0.330524  0.998798  1
  Ti  Ti9  1  0.171600  0.824574  0.247825  1
  Ti  Ti10  1  0.829199  0.173572  0.749036  1
  Ti  Ti11  1  0.669793  0.668118  0.499851  1
  Ti  Ti12  1  0.657533  0.494025  0.875306  1
  Ti  Ti13  1  0.342531  0.505770  0.375839  1
  Ti  Ti14  1  0.837688  0.992511  0.374874  1
  Ti  Ti15  1  0.004826  0.155828  0.126318  1
  Ti  Ti16  1  0.992486  0.842903  0.625798  1
  Si  Si17  1  0.204806  0.127300  0.685182  1
  Si  Si18  1  0.371719  0.705149  0.933938  1
  Si  Si19  1  0.628902  0.298261  0.437955  1
  Si  Si20  1  0.698571  0.376537  0.065041  1
  Si  Si21  1  0.305589  0.625691  0.566689  1
  Si  Si22  1  0.792822  0.869517  0.182729  1
  Si  Si23  1  0.129210  0.199897  0.316003  1
  Si  Si24  1  0.876881  0.804783  0.815880  1
  Si  Si25  1  0.287980  0.958608  0.062122  1
  Si  Si26  1  0.541628  0.789467  0.311684  1
  Si  Si27  1  0.457930  0.211857  0.813326  1
  Si  Si28  1  0.786349  0.544325  0.686178  1
  Si  Si29  1  0.210491  0.457052  0.186479  1
  Si  Si30  1  0.710245  0.043717  0.564129  1
  Si  Si31  1  0.957214  0.285954  0.936702  1
  Si  Si32  1  0.045775  0.708446  0.436015  1
  Tc  Tc33  1  0.168256  0.011358  0.874795  1
  Tc  Tc34  1  0.482978  0.661799  0.122934  1
  Tc  Tc35  1  0.508067  0.336556  0.628097  1
