# generated using pymatgen
data_HoNiAsH
_symmetry_space_group_name_H-M   'P 1'
_cell_length_a   3.99494600
_cell_length_b   8.05894000
_cell_length_c   6.99060500
_cell_angle_alpha   90.00000000
_cell_angle_beta   90.00000000
_cell_angle_gamma   90.00000000
_symmetry_Int_Tables_number   1
_chemical_formula_structural   HoNiAsH
_chemical_formula_sum   'Ho4 Ni4 As4 H4'
_cell_volume   225.06273851
_cell_formula_units_Z   4
loop_
 _symmetry_equiv_pos_site_id
 _symmetry_equiv_pos_as_xyz
  1  'x, y, z'
loop_
 _atom_site_type_symbol
 _atom_site_label
 _atom_site_symmetry_multiplicity
 _atom_site_fract_x
 _atom_site_fract_y
 _atom_site_fract_z
 _atom_site_occupancy
  Ho  Ho0  1  0.750000  0.506875  0.756965  1
  Ho  Ho1  1  0.250000  0.493125  0.243035  1
  Ho  Ho2  1  0.250000  0.993125  0.256965  1
  Ho  Ho3  1  0.750000  0.006875  0.743035  1
  Ni  Ni4  1  0.750000  0.235114  0.411958  1
  Ni  Ni5  1  0.250000  0.764886  0.588042  1
  Ni  Ni6  1  0.250000  0.264886  0.911958  1
  Ni  Ni7  1  0.750000  0.735114  0.088042  1
  As  As8  1  0.750000  0.232194  0.078699  1
  As  As9  1  0.250000  0.767806  0.921301  1
  As  As10  1  0.250000  0.267806  0.578699  1
  As  As11  1  0.750000  0.732194  0.421301  1
  H  H12  1  0.250000  0.960560  0.582293  1
  H  H13  1  0.750000  0.039440  0.417707  1
  H  H14  1  0.750000  0.539440  0.082293  1
  H  H15  1  0.250000  0.460560  0.917707  1
