# generated using pymatgen
data_LiCa12V8Ge11O48
_symmetry_space_group_name_H-M   'P 1'
_cell_length_a   10.81796963
_cell_length_b   10.81796955
_cell_length_c   10.81796991
_cell_angle_alpha   109.62707469
_cell_angle_beta   109.15995289
_cell_angle_gamma   109.62708282
_symmetry_Int_Tables_number   1
_chemical_formula_structural   LiCa12V8Ge11O48
_chemical_formula_sum   'Li1 Ca12 V8 Ge11 O48'
_cell_volume   974.55371113
_cell_formula_units_Z   1
loop_
 _symmetry_equiv_pos_site_id
 _symmetry_equiv_pos_as_xyz
  1  'x, y, z'
loop_
 _atom_site_type_symbol
 _atom_site_label
 _atom_site_symmetry_multiplicity
 _atom_site_fract_x
 _atom_site_fract_y
 _atom_site_fract_z
 _atom_site_occupancy
  Li  Li0  1  0.125000  0.750000  0.875000  1
  Ca  Ca1  1  0.247480  0.871908  0.625289  1
  Ca  Ca2  1  0.753381  0.628092  0.875571  1
  Ca  Ca3  1  0.625627  0.876989  0.752466  1
  Ca  Ca4  1  0.875477  0.623011  0.248638  1
  Ca  Ca5  1  0.625944  0.250000  0.875944  1
  Ca  Ca6  1  0.879053  0.750000  0.629053  1
  Ca  Ca7  1  0.751362  0.126839  0.374373  1
  Ca  Ca8  1  0.247534  0.373161  0.124523  1
  Ca  Ca9  1  0.374711  0.122191  0.246619  1
  Ca  Ca10  1  0.124429  0.377809  0.752520  1
  Ca  Ca11  1  0.370947  0.750000  0.120947  1
  Ca  Ca12  1  0.124056  0.250000  0.374056  1
  V  V13  1  0.500332  0.499979  0.500046  1
  V  V14  1  0.499647  0.999715  0.499668  1
  V  V15  1  0.003737  0.510992  0.507409  1
  V  V16  1  0.499954  0.500285  0.999932  1
  V  V17  1  0.000068  0.000021  0.500353  1
  V  V18  1  0.007255  0.503672  0.996263  1
  V  V19  1  0.492591  0.996328  0.003584  1
  V  V20  1  0.996416  0.989008  0.992745  1
  Ge  Ge21  1  0.875000  0.250000  0.125000  1
  Ge  Ge22  1  0.625675  0.375244  0.249201  1
  Ge  Ge23  1  0.750799  0.876474  0.126042  1
  Ge  Ge24  1  0.873958  0.124756  0.750432  1
  Ge  Ge25  1  0.249568  0.623526  0.374325  1
  Ge  Ge26  1  0.752457  0.376465  0.626184  1
  Ge  Ge27  1  0.249720  0.123535  0.875993  1
  Ge  Ge28  1  0.124007  0.873727  0.247543  1
  Ge  Ge29  1  0.373816  0.626273  0.750280  1
  Ge  Ge30  1  0.625000  0.750000  0.375000  1
  Ge  Ge31  1  0.375000  0.250000  0.625000  1
  O  O32  1  0.415967  0.816751  0.798856  1
  O  O33  1  0.884470  0.397367  0.080444  1
  O  O34  1  0.102534  0.981205  0.687880  1
  O  O35  1  0.516165  0.619497  0.702670  1
  O  O36  1  0.686091  0.085086  0.705679  1
  O  O37  1  0.619302  0.702777  0.517543  1
  O  O38  1  0.620592  0.414914  0.101004  1
  O  O39  1  0.706675  0.518795  0.621329  1
  O  O40  1  0.813778  0.516992  0.396613  1
  O  O41  1  0.974080  0.810452  0.885222  1
  O  O42  1  0.794256  0.884031  0.982471  1
  O  O43  1  0.703825  0.686530  0.083837  1
  O  O44  1  0.415636  0.101308  0.619194  1
  O  O45  1  0.397306  0.813470  0.517295  1
  O  O46  1  0.074770  0.689548  0.663628  1
  O  O47  1  0.098440  0.615969  0.410225  1
  O  O48  1  0.517887  0.398692  0.814329  1
  O  O49  1  0.083173  0.880503  0.396668  1
  O  O50  1  0.982104  0.683249  0.099216  1
  O  O51  1  0.184613  0.484814  0.601001  1
  O  O52  1  0.683076  0.102633  0.987103  1
  O  O53  1  0.800201  0.416389  0.815387  1
  O  O54  1  0.398999  0.083611  0.883813  1
  O  O55  1  0.879621  0.983008  0.796786  1
  O  O56  1  0.589775  0.188215  0.205744  1
  O  O57  1  0.114778  0.588857  0.925230  1
  O  O58  1  0.898996  0.019588  0.313909  1
  O  O59  1  0.482705  0.380011  0.296175  1
  O  O60  1  0.312120  0.914654  0.293325  1
  O  O61  1  0.380806  0.296442  0.482113  1
  O  O62  1  0.378671  0.585346  0.897466  1
  O  O63  1  0.294321  0.480412  0.379408  1
  O  O64  1  0.116187  0.015186  0.199799  1
  O  O65  1  0.603387  0.917165  0.120379  1
  O  O66  1  0.203214  0.582835  0.186222  1
  O  O67  1  0.185671  0.203558  0.584364  1
  O  O68  1  0.336372  0.911143  0.025920  1
  O  O69  1  0.017529  0.311785  0.901560  1
  O  O70  1  0.916163  0.119989  0.602694  1
  O  O71  1  0.482457  0.601759  0.185234  1
  O  O72  1  0.900784  0.382889  0.584033  1
  O  O73  1  0.919556  0.304026  0.316924  1
  O  O74  1  0.603332  0.186505  0.483835  1
  O  O75  1  0.583475  0.898241  0.380698  1
  O  O76  1  0.297330  0.313495  0.916827  1
  O  O77  1  0.201144  0.117111  0.017896  1
  O  O78  1  0.012897  0.195974  0.115530  1
  O  O79  1  0.814766  0.797223  0.416525  1
