# generated using pymatgen
data_Tb7Dy5Co4SnIr
_symmetry_space_group_name_H-M   'P 1'
_cell_length_a   8.32516357
_cell_length_b   8.32556250
_cell_length_c   8.32516199
_cell_angle_alpha   106.92559648
_cell_angle_beta   110.41606665
_cell_angle_gamma   111.10046065
_symmetry_Int_Tables_number   1
_chemical_formula_structural   Tb7Dy5Co4SnIr
_chemical_formula_sum   'Tb7 Dy5 Co4 Sn1 Ir1'
_cell_volume   443.53874424
_cell_formula_units_Z   1
loop_
 _symmetry_equiv_pos_site_id
 _symmetry_equiv_pos_as_xyz
  1  'x, y, z'
loop_
 _atom_site_type_symbol
 _atom_site_label
 _atom_site_symmetry_multiplicity
 _atom_site_fract_x
 _atom_site_fract_y
 _atom_site_fract_z
 _atom_site_occupancy
  Tb  Tb0  1  0.473135  0.288582  0.184249  1
  Tb  Tb1  1  0.104333  0.288582  0.815446  1
  Tb  Tb2  1  0.895295  0.711409  0.184311  1
  Tb  Tb3  1  0.527098  0.711409  0.816113  1
  Tb  Tb4  1  0.305511  0.619968  0.314457  1
  Tb  Tb5  1  0.305265  0.990780  0.685515  1
  Tb  Tb6  1  0.694685  0.379986  0.685301  1
  Dy  Dy7  1  0.694333  0.009099  0.314767  1
  Dy  Dy8  1  0.195225  0.212563  0.408129  1
  Dy  Dy9  1  0.804447  0.787482  0.591606  1
  Dy  Dy10  1  0.195876  0.787482  0.983034  1
  Dy  Dy11  1  0.804433  0.212563  0.017338  1
  Co  Co12  1  0.500211  0.611968  0.111757  1
  Co  Co13  1  0.499880  0.388431  0.888552  1
  Co  Co14  1  0.378031  0.999992  0.377604  1
  Co  Co15  1  0.622388  0.999992  0.621961  1
  Sn  Sn16  1  0.999818  0.499696  0.499878  1
  Ir  Ir17  1  0.000037  0.000018  0.999981  1
