# generated using pymatgen
data_Er4Al18(CoNi)3
_symmetry_space_group_name_H-M   'P 1'
_cell_length_a   7.39176418
_cell_length_b   7.39176344
_cell_length_c   9.23061848
_cell_angle_alpha   90.02708826
_cell_angle_beta   90.02708723
_cell_angle_gamma   119.30828621
_symmetry_Int_Tables_number   1
_chemical_formula_structural   Er4Al18(CoNi)3
_chemical_formula_sum   'Er4 Al18 Co3 Ni3'
_cell_volume   439.78711966
_cell_formula_units_Z   1
loop_
 _symmetry_equiv_pos_site_id
 _symmetry_equiv_pos_as_xyz
  1  'x, y, z'
loop_
 _atom_site_type_symbol
 _atom_site_label
 _atom_site_symmetry_multiplicity
 _atom_site_fract_x
 _atom_site_fract_y
 _atom_site_fract_z
 _atom_site_occupancy
  Er  Er0  1  0.005776  0.328224  0.750230  1
  Er  Er1  1  0.329343  0.007030  0.750145  1
  Er  Er2  1  0.992970  0.670657  0.249855  1
  Er  Er3  1  0.671776  0.994224  0.249770  1
  Al  Al4  1  0.664621  0.001159  0.928025  1
  Al  Al5  1  0.003179  0.667576  0.573015  1
  Al  Al6  1  0.122819  0.122049  0.249431  1
  Al  Al7  1  0.668455  0.671475  0.044057  1
  Al  Al8  1  0.330409  0.329755  0.547409  1
  Al  Al9  1  0.328525  0.331545  0.955943  1
  Al  Al10  1  0.670245  0.669591  0.452591  1
  Al  Al11  1  0.331616  0.993897  0.072069  1
  Al  Al12  1  0.998184  0.331789  0.426683  1
  Al  Al13  1  0.340584  0.554583  0.246877  1
  Al  Al14  1  0.998841  0.335379  0.071975  1
  Al  Al15  1  0.552112  0.340024  0.249586  1
  Al  Al16  1  0.659976  0.447888  0.750414  1
  Al  Al17  1  0.877951  0.877181  0.750569  1
  Al  Al18  1  0.006103  0.668384  0.927931  1
  Al  Al19  1  0.668211  0.001816  0.573317  1
  Al  Al20  1  0.332424  0.996821  0.426985  1
  Al  Al21  1  0.445417  0.659416  0.753123  1
  Co  Co22  1  0.999416  0.000584  0.000000  1
  Co  Co23  1  0.000600  0.999400  0.500000  1
  Co  Co24  1  0.328468  0.671532  0.000000  1
  Ni  Ni25  1  0.672240  0.327760  0.500000  1
  Ni  Ni26  1  0.670642  0.329358  0.000000  1
  Ni  Ni27  1  0.329096  0.670904  0.500000  1
