# generated using pymatgen
data_Ca2Al6Si4Pt
_symmetry_space_group_name_H-M   'P 1'
_cell_length_a   4.17062301
_cell_length_b   4.17057631
_cell_length_c   17.19455900
_cell_angle_alpha   96.96575248
_cell_angle_beta   90.00458847
_cell_angle_gamma   119.99962458
_symmetry_Int_Tables_number   1
_chemical_formula_structural   Ca2Al6Si4Pt
_chemical_formula_sum   'Ca2 Al6 Si4 Pt1'
_cell_volume   256.45833031
_cell_formula_units_Z   1
loop_
 _symmetry_equiv_pos_site_id
 _symmetry_equiv_pos_as_xyz
  1  'x, y, z'
loop_
 _atom_site_type_symbol
 _atom_site_label
 _atom_site_symmetry_multiplicity
 _atom_site_fract_x
 _atom_site_fract_y
 _atom_site_fract_z
 _atom_site_occupancy
  Ca  Ca0  1  0.433647  0.867287  0.300925  1
  Ca  Ca1  1  0.566354  0.132714  0.699075  1
  Al  Al2  1  0.683357  0.366662  0.049968  1
  Al  Al3  1  0.049862  0.100015  0.150168  1
  Al  Al4  1  0.814493  0.629837  0.445180  1
  Al  Al5  1  0.185507  0.370164  0.554820  1
  Al  Al6  1  0.950138  0.899986  0.849832  1
  Al  Al7  1  0.316644  0.633338  0.950032  1
  Si  Si8  1  0.732435  0.465504  0.198572  1
  Si  Si9  1  0.135248  0.269944  0.404638  1
  Si  Si10  1  0.864752  0.730057  0.595363  1
  Si  Si11  1  0.267565  0.534497  0.801428  1
  Pt  Pt12  1  0.000000  0.000000  0.000000  1
