# generated using pymatgen
data_SrPr2Sm4OsBr12
_symmetry_space_group_name_H-M   'P 1'
_cell_length_a   9.49649341
_cell_length_b   9.51480434
_cell_length_c   9.59669932
_cell_angle_alpha   105.94392158
_cell_angle_beta   106.47443673
_cell_angle_gamma   106.17636612
_symmetry_Int_Tables_number   1
_chemical_formula_structural   SrPr2Sm4OsBr12
_chemical_formula_sum   'Sr1 Pr2 Sm4 Os1 Br12'
_cell_volume   737.36759833
_cell_formula_units_Z   1
loop_
 _symmetry_equiv_pos_site_id
 _symmetry_equiv_pos_as_xyz
  1  'x, y, z'
loop_
 _atom_site_type_symbol
 _atom_site_label
 _atom_site_symmetry_multiplicity
 _atom_site_fract_x
 _atom_site_fract_y
 _atom_site_fract_z
 _atom_site_occupancy
  Sr  Sr0  1  0.499768  0.500370  0.501038  1
  Pr  Pr1  1  0.100190  0.308150  0.017759  1
  Pr  Pr2  1  0.310480  0.020001  0.102075  1
  Sm  Sm3  1  0.020131  0.103467  0.314969  1
  Sm  Sm4  1  0.980129  0.893880  0.683679  1
  Sm  Sm5  1  0.694718  0.980260  0.898730  1
  Sm  Sm6  1  0.898516  0.696116  0.980874  1
  Os  Os7  1  0.000247  0.999647  0.999111  1
  Br  Br8  1  0.214716  0.678407  0.071697  1
  Br  Br9  1  0.452776  0.370423  0.153061  1
  Br  Br10  1  0.683811  0.071803  0.216689  1
  Br  Br11  1  0.927536  0.782104  0.318473  1
  Br  Br12  1  0.146145  0.445224  0.367799  1
  Br  Br13  1  0.363849  0.149231  0.450889  1
  Br  Br14  1  0.636218  0.853432  0.555198  1
  Br  Br15  1  0.853687  0.554347  0.638058  1
  Br  Br16  1  0.070038  0.212584  0.674334  1
  Br  Br17  1  0.318688  0.926762  0.777313  1
  Br  Br18  1  0.553863  0.636828  0.852380  1
  Br  Br19  1  0.774493  0.316965  0.925873  1
