# generated using pymatgen
data_La2Nd3SmTa2O14
_symmetry_space_group_name_H-M   'P 1'
_cell_length_a   6.68762176
_cell_length_b   6.68273642
_cell_length_c   7.75838700
_cell_angle_alpha   90.00000000
_cell_angle_beta   90.00000000
_cell_angle_gamma   109.20536255
_symmetry_Int_Tables_number   1
_chemical_formula_structural   La2Nd3SmTa2O14
_chemical_formula_sum   'La2 Nd3 Sm1 Ta2 O14'
_cell_volume   327.43750930
_cell_formula_units_Z   1
loop_
 _symmetry_equiv_pos_site_id
 _symmetry_equiv_pos_as_xyz
  1  'x, y, z'
loop_
 _atom_site_type_symbol
 _atom_site_label
 _atom_site_symmetry_multiplicity
 _atom_site_fract_x
 _atom_site_fract_y
 _atom_site_fract_z
 _atom_site_occupancy
  La  La0  1  0.499002  0.499352  0.500560  1
  La  La1  1  0.499002  0.499352  0.999440  1
  Nd  Nd2  1  0.535831  0.999512  0.750000  1
  Nd  Nd3  1  0.999483  0.534949  0.250000  1
  Nd  Nd4  1  0.464398  0.000462  0.250000  1
  Sm  Sm5  1  0.999914  0.465734  0.750000  1
  Ta  Ta6  1  0.999979  0.999887  0.500678  1
  Ta  Ta7  1  0.999979  0.999887  0.999322  1
  O  O8  1  0.688055  0.933283  0.469876  1
  O  O9  1  0.936274  0.688275  0.532907  1
  O  O10  1  0.688055  0.933283  0.030124  1
  O  O11  1  0.936274  0.688275  0.967093  1
  O  O12  1  0.312494  0.066549  0.530148  1
  O  O13  1  0.065162  0.312975  0.472051  1
  O  O14  1  0.312494  0.066549  0.969852  1
  O  O15  1  0.065162  0.312975  0.027949  1
  O  O16  1  0.942203  0.058742  0.750000  1
  O  O17  1  0.056837  0.942220  0.250000  1
  O  O18  1  0.364520  0.628595  0.750000  1
  O  O19  1  0.630788  0.369490  0.250000  1
  O  O20  1  0.640428  0.364035  0.750000  1
  O  O21  1  0.363664  0.635618  0.250000  1
