# generated using pymatgen
data_Ho2Al9RePdPt
_symmetry_space_group_name_H-M   'P 1'
_cell_length_a   7.59284462
_cell_length_b   7.59284417
_cell_length_c   9.49832794
_cell_angle_alpha   90.03740615
_cell_angle_beta   90.03740576
_cell_angle_gamma   118.50104662
_symmetry_Int_Tables_number   1
_chemical_formula_structural   Ho2Al9RePdPt
_chemical_formula_sum   'Ho4 Al18 Re2 Pd2 Pt2'
_cell_volume   481.22701831
_cell_formula_units_Z   2
loop_
 _symmetry_equiv_pos_site_id
 _symmetry_equiv_pos_as_xyz
  1  'x, y, z'
loop_
 _atom_site_type_symbol
 _atom_site_label
 _atom_site_symmetry_multiplicity
 _atom_site_fract_x
 _atom_site_fract_y
 _atom_site_fract_z
 _atom_site_occupancy
  Ho  Ho0  1  0.994049  0.684041  0.249810  1
  Ho  Ho1  1  0.005951  0.315959  0.750190  1
  Ho  Ho2  1  0.684041  0.994049  0.249810  1
  Ho  Ho3  1  0.315959  0.005951  0.750190  1
  Al  Al4  1  0.134033  0.134033  0.249963  1
  Al  Al5  1  0.865967  0.865967  0.750037  1
  Al  Al6  1  0.001678  0.335768  0.076780  1
  Al  Al7  1  0.998322  0.664232  0.923220  1
  Al  Al8  1  0.997573  0.663682  0.577697  1
  Al  Al9  1  0.336318  0.002427  0.422303  1
  Al  Al10  1  0.002427  0.336318  0.422303  1
  Al  Al11  1  0.663682  0.997573  0.577697  1
  Al  Al12  1  0.664232  0.998322  0.923220  1
  Al  Al13  1  0.335768  0.001678  0.076780  1
  Al  Al14  1  0.329488  0.329488  0.548812  1
  Al  Al15  1  0.670512  0.670513  0.451188  1
  Al  Al16  1  0.670922  0.670923  0.047735  1
  Al  Al17  1  0.329078  0.329078  0.952265  1
  Al  Al18  1  0.345200  0.554039  0.249978  1
  Al  Al19  1  0.654800  0.445961  0.750022  1
  Al  Al20  1  0.554039  0.345200  0.249978  1
  Al  Al21  1  0.445961  0.654800  0.750022  1
  Re  Re22  1  0.000000  0.000000  0.000000  1
  Re  Re23  1  0.000000  0.000000  0.500000  1
  Pd  Pd24  1  0.327776  0.672224  0.500000  1
  Pd  Pd25  1  0.672224  0.327776  0.500000  1
  Pt  Pt26  1  0.671665  0.328335  0.000000  1
  Pt  Pt27  1  0.328335  0.671665  0.000000  1
