# generated using pymatgen
data_Tb3YSc6(Si3Ni)2
_symmetry_space_group_name_H-M   'P 1'
_cell_length_a   6.90950302
_cell_length_b   7.58446807
_cell_length_c   13.91022911
_cell_angle_alpha   90.01424123
_cell_angle_beta   89.99670682
_cell_angle_gamma   89.99269306
_symmetry_Int_Tables_number   1
_chemical_formula_structural   Tb3YSc6(Si3Ni)2
_chemical_formula_sum   'Tb6 Y2 Sc12 Si12 Ni4'
_cell_volume   728.96420609
_cell_formula_units_Z   2
loop_
 _symmetry_equiv_pos_site_id
 _symmetry_equiv_pos_as_xyz
  1  'x, y, z'
loop_
 _atom_site_type_symbol
 _atom_site_label
 _atom_site_symmetry_multiplicity
 _atom_site_fract_x
 _atom_site_fract_y
 _atom_site_fract_z
 _atom_site_occupancy
  Tb  Tb0  1  0.494426  0.680469  0.908396  1
  Tb  Tb1  1  0.994399  0.819711  0.591536  1
  Tb  Tb2  1  0.505574  0.319531  0.091604  1
  Tb  Tb3  1  0.005601  0.180289  0.408464  1
  Tb  Tb4  1  0.505528  0.319637  0.408335  1
  Tb  Tb5  1  0.494472  0.680363  0.591665  1
  Y  Y6  1  0.005401  0.180863  0.091279  1
  Y  Y7  1  0.994599  0.819137  0.908721  1
  Sc  Sc8  1  0.177451  0.506049  0.750024  1
  Sc  Sc9  1  0.822549  0.493951  0.249976  1
  Sc  Sc10  1  0.322474  0.005886  0.249939  1
  Sc  Sc11  1  0.677526  0.994114  0.750061  1
  Sc  Sc12  1  0.320625  0.170123  0.629941  1
  Sc  Sc13  1  0.679375  0.829877  0.370059  1
  Sc  Sc14  1  0.179324  0.670085  0.370044  1
  Sc  Sc15  1  0.679730  0.830079  0.129860  1
  Sc  Sc16  1  0.820676  0.329915  0.629956  1
  Sc  Sc17  1  0.320270  0.169921  0.870140  1
  Sc  Sc18  1  0.820777  0.329845  0.870042  1
  Sc  Sc19  1  0.179223  0.670155  0.129958  1
  Si  Si20  1  0.278717  0.873317  0.750287  1
  Si  Si21  1  0.721283  0.126683  0.249713  1
  Si  Si22  1  0.220645  0.373311  0.249999  1
  Si  Si23  1  0.779355  0.626689  0.750001  1
  Si  Si24  1  0.159210  0.465466  0.539493  1
  Si  Si25  1  0.840790  0.534534  0.460507  1
  Si  Si26  1  0.340958  0.965515  0.460494  1
  Si  Si27  1  0.840796  0.534467  0.039599  1
  Si  Si28  1  0.659042  0.034485  0.539506  1
  Si  Si29  1  0.159204  0.465533  0.960401  1
  Si  Si30  1  0.659642  0.034527  0.960474  1
  Si  Si31  1  0.340358  0.965473  0.039526  1
  Ni  Ni32  1  0.032192  0.105256  0.749953  1
  Ni  Ni33  1  0.967808  0.894744  0.250047  1
  Ni  Ni34  1  0.467934  0.604840  0.250009  1
  Ni  Ni35  1  0.532066  0.395160  0.749991  1
