# generated using pymatgen
data_Ta2Ti4V6Si9Ge
_symmetry_space_group_name_H-M   'P 1'
_cell_length_a   4.95569997
_cell_length_b   7.69123557
_cell_length_c   9.35370882
_cell_angle_alpha   65.40748975
_cell_angle_beta   74.63864661
_cell_angle_gamma   89.99998938
_symmetry_Int_Tables_number   1
_chemical_formula_structural   Ta2Ti4V6Si9Ge
_chemical_formula_sum   'Ta2 Ti4 V6 Si9 Ge1'
_cell_volume   310.11870056
_cell_formula_units_Z   1
loop_
 _symmetry_equiv_pos_site_id
 _symmetry_equiv_pos_as_xyz
  1  'x, y, z'
loop_
 _atom_site_type_symbol
 _atom_site_label
 _atom_site_symmetry_multiplicity
 _atom_site_fract_x
 _atom_site_fract_y
 _atom_site_fract_z
 _atom_site_occupancy
  Ta  Ta0  1  0.358668  0.743553  0.282664  1
  Ta  Ta1  1  0.641086  0.259001  0.717828  1
  Ti  Ti2  1  0.140356  0.028490  0.719289  1
  Ti  Ti3  1  0.859229  0.971597  0.281544  1
  Ti  Ti4  1  0.064824  0.321061  0.870353  1
  Ti  Ti5  1  0.935110  0.679346  0.129780  1
  V  V6  1  0.942827  0.686744  0.620130  1
  V  V7  1  0.559718  0.312876  0.378416  1
  V  V8  1  0.061866  0.312876  0.378416  1
  V  V9  1  0.437042  0.686744  0.620130  1
  V  V10  1  0.436648  0.190276  0.126705  1
  V  V11  1  0.561930  0.808363  0.876138  1
  Si  Si12  1  0.436296  0.517037  0.127407  1
  Si  Si13  1  0.563610  0.483535  0.872781  1
  Si  Si14  1  0.066188  0.655225  0.867624  1
  Si  Si15  1  0.933911  0.345315  0.132178  1
  Si  Si16  1  0.253003  0.000177  0.000053  1
  Si  Si17  1  0.746943  0.000177  0.000053  1
  Si  Si18  1  0.215225  0.417852  0.569552  1
  Si  Si19  1  0.784635  0.581137  0.430729  1
  Si  Si20  1  0.287587  0.991650  0.424826  1
  Ge  Ge21  1  0.713298  0.006969  0.573404  1
