# generated using pymatgen
data_Sm8Ga(Pd3Pt)6
_symmetry_space_group_name_H-M   'P 1'
_cell_length_a   8.43170411
_cell_length_b   8.43865811
_cell_length_c   8.43712900
_cell_angle_alpha   90.00000000
_cell_angle_beta   90.00000000
_cell_angle_gamma   90.01810875
_symmetry_Int_Tables_number   1
_chemical_formula_structural   Sm8Ga(Pd3Pt)6
_chemical_formula_sum   'Sm8 Ga1 Pd18 Pt6'
_cell_volume   600.32083538
_cell_formula_units_Z   1
loop_
 _symmetry_equiv_pos_site_id
 _symmetry_equiv_pos_as_xyz
  1  'x, y, z'
loop_
 _atom_site_type_symbol
 _atom_site_label
 _atom_site_symmetry_multiplicity
 _atom_site_fract_x
 _atom_site_fract_y
 _atom_site_fract_z
 _atom_site_occupancy
  Sm  Sm0  1  0.251899  0.251957  0.251740  1
  Sm  Sm1  1  0.748197  0.747718  0.747776  1
  Sm  Sm2  1  0.748197  0.747718  0.252224  1
  Sm  Sm3  1  0.748041  0.252258  0.748006  1
  Sm  Sm4  1  0.251899  0.251957  0.748260  1
  Sm  Sm5  1  0.251778  0.748041  0.251888  1
  Sm  Sm6  1  0.251778  0.748041  0.748112  1
  Sm  Sm7  1  0.748041  0.252258  0.251994  1
  Ga  Ga8  1  0.000321  0.000146  0.000000  1
  Pd  Pd9  1  0.499903  0.739374  0.000000  1
  Pd  Pd10  1  0.499956  0.000006  0.260799  1
  Pd  Pd11  1  0.260618  0.999984  0.500000  1
  Pd  Pd12  1  0.499956  0.000006  0.739201  1
  Pd  Pd13  1  0.739281  0.999973  0.500000  1
  Pd  Pd14  1  0.999945  0.500060  0.260712  1
  Pd  Pd15  1  0.999945  0.500060  0.739288  1
  Pd  Pd16  1  0.253033  0.500038  0.500000  1
  Pd  Pd17  1  0.747020  0.500063  0.500000  1
  Pd  Pd18  1  0.500071  0.253150  0.500000  1
  Pd  Pd19  1  0.500089  0.746834  0.500000  1
  Pd  Pd20  1  0.500079  0.499998  0.253121  1
  Pd  Pd21  1  0.500079  0.499998  0.746879  1
  Pd  Pd22  1  0.707237  0.000051  0.000000  1
  Pd  Pd23  1  0.999871  0.293479  0.000000  1
  Pd  Pd24  1  0.999885  0.706414  0.000000  1
  Pd  Pd25  1  0.999853  0.999984  0.293559  1
  Pd  Pd26  1  0.999853  0.999984  0.706441  1
  Pt  Pt27  1  0.260509  0.499849  0.000000  1
  Pt  Pt28  1  0.739314  0.499811  0.000000  1
  Pt  Pt29  1  0.999957  0.260604  0.500000  1
  Pt  Pt30  1  0.499867  0.260567  0.000000  1
  Pt  Pt31  1  0.999935  0.739458  0.500000  1
  Pt  Pt32  1  0.293592  0.000161  0.000000  1
