# generated using pymatgen
data_K3Rb(SiP)12
_symmetry_space_group_name_H-M   'P 1'
_cell_length_a   3.54844100
_cell_length_b   9.92022299
_cell_length_c   19.59732122
_cell_angle_alpha   90.27936773
_cell_angle_beta   90.00000000
_cell_angle_gamma   90.00000000
_symmetry_Int_Tables_number   1
_chemical_formula_structural   K3Rb(SiP)12
_chemical_formula_sum   'K3 Rb1 Si12 P12'
_cell_volume   689.84349227
_cell_formula_units_Z   1
loop_
 _symmetry_equiv_pos_site_id
 _symmetry_equiv_pos_as_xyz
  1  'x, y, z'
loop_
 _atom_site_type_symbol
 _atom_site_label
 _atom_site_symmetry_multiplicity
 _atom_site_fract_x
 _atom_site_fract_y
 _atom_site_fract_z
 _atom_site_occupancy
  K  K0  1  0.000000  0.304935  0.307569  1
  K  K1  1  0.000000  0.695158  0.692731  1
  K  K2  1  0.000000  0.195321  0.807012  1
  Rb  Rb3  1  0.000000  0.802519  0.192166  1
  Si  Si4  1  0.500000  0.404739  0.034800  1
  Si  Si5  1  0.500000  0.595530  0.964163  1
  Si  Si6  1  0.500000  0.096177  0.535123  1
  Si  Si7  1  0.500000  0.903753  0.464923  1
  Si  Si8  1  0.000000  0.114397  0.015580  1
  Si  Si9  1  0.000000  0.886252  0.983814  1
  Si  Si10  1  0.000000  0.385861  0.515741  1
  Si  Si11  1  0.000000  0.614032  0.485206  1
  Si  Si12  1  0.000000  0.182073  0.131122  1
  Si  Si13  1  0.000000  0.819878  0.868404  1
  Si  Si14  1  0.000000  0.320466  0.631194  1
  Si  Si15  1  0.000000  0.677968  0.369998  1
  P  P16  1  0.500000  0.117118  0.192280  1
  P  P17  1  0.500000  0.887117  0.807694  1
  P  P18  1  0.500000  0.387547  0.692331  1
  P  P19  1  0.500000  0.608248  0.309927  1
  P  P20  1  0.500000  0.281560  0.463850  1
  P  P21  1  0.500000  0.718920  0.536655  1
  P  P22  1  0.500000  0.217806  0.963734  1
  P  P23  1  0.500000  0.782245  0.035008  1
  P  P24  1  0.000000  0.411491  0.107742  1
  P  P25  1  0.000000  0.589666  0.891236  1
  P  P26  1  0.000000  0.090374  0.608060  1
  P  P27  1  0.000000  0.908849  0.391936  1
