# generated using pymatgen
data_Rb8Na4DyEr3Sb8
_symmetry_space_group_name_H-M   'P 1'
_cell_length_a   11.32812983
_cell_length_b   11.32812941
_cell_length_c   7.47633532
_cell_angle_alpha   90.02552397
_cell_angle_beta   89.97447348
_cell_angle_gamma   98.64374917
_symmetry_Int_Tables_number   1
_chemical_formula_structural   Rb8Na4DyEr3Sb8
_chemical_formula_sum   'Rb8 Na4 Dy1 Er3 Sb8'
_cell_volume   948.51484864
_cell_formula_units_Z   1
loop_
 _symmetry_equiv_pos_site_id
 _symmetry_equiv_pos_as_xyz
  1  'x, y, z'
loop_
 _atom_site_type_symbol
 _atom_site_label
 _atom_site_symmetry_multiplicity
 _atom_site_fract_x
 _atom_site_fract_y
 _atom_site_fract_z
 _atom_site_occupancy
  Rb  Rb0  1  0.071024  0.429149  0.250133  1
  Rb  Rb1  1  0.429149  0.071024  0.749867  1
  Rb  Rb2  1  0.929005  0.571008  0.749936  1
  Rb  Rb3  1  0.571008  0.929005  0.250064  1
  Rb  Rb4  1  0.676240  0.323744  0.215696  1
  Rb  Rb5  1  0.823605  0.176263  0.715534  1
  Rb  Rb6  1  0.323744  0.676240  0.784304  1
  Rb  Rb7  1  0.176263  0.823605  0.284466  1
  Na  Na8  1  0.382106  0.382106  0.000000  1
  Na  Na9  1  0.118042  0.118042  0.500000  1
  Na  Na10  1  0.618032  0.618032  0.000000  1
  Na  Na11  1  0.881930  0.881930  0.500000  1
  Dy  Dy12  1  0.130746  0.130746  0.000000  1
  Er  Er13  1  0.369700  0.369700  0.500000  1
  Er  Er14  1  0.869142  0.869142  0.000000  1
  Er  Er15  1  0.630335  0.630335  0.500000  1
  Sb  Sb16  1  0.846265  0.653751  0.249961  1
  Sb  Sb17  1  0.653751  0.846265  0.750039  1
  Sb  Sb18  1  0.153870  0.347421  0.748577  1
  Sb  Sb19  1  0.347421  0.153870  0.251423  1
  Sb  Sb20  1  0.898634  0.099910  0.211509  1
  Sb  Sb21  1  0.600204  0.399872  0.710545  1
  Sb  Sb22  1  0.099910  0.898634  0.788491  1
  Sb  Sb23  1  0.399872  0.600204  0.289455  1
