# generated using pymatgen
data_Cd3Pd4Pt9
_symmetry_space_group_name_H-M   'P 1'
_cell_length_a   8.65237672
_cell_length_b   8.65237622
_cell_length_c   5.64974200
_cell_angle_alpha   89.99908328
_cell_angle_beta   90.00091968
_cell_angle_gamma   37.97903162
_symmetry_Int_Tables_number   1
_chemical_formula_structural   Cd3Pd4Pt9
_chemical_formula_sum   'Cd3 Pd4 Pt9'
_cell_volume   260.27826408
_cell_formula_units_Z   1
loop_
 _symmetry_equiv_pos_site_id
 _symmetry_equiv_pos_as_xyz
  1  'x, y, z'
loop_
 _atom_site_type_symbol
 _atom_site_label
 _atom_site_symmetry_multiplicity
 _atom_site_fract_x
 _atom_site_fract_y
 _atom_site_fract_z
 _atom_site_occupancy
  Cd  Cd0  1  0.626091  0.626091  0.000000  1
  Cd  Cd1  1  0.123598  0.123598  0.500001  1
  Cd  Cd2  1  0.875173  0.875173  0.500001  1
  Pd  Pd3  1  0.123590  0.123590  0.000000  1
  Pd  Pd4  1  0.875583  0.875583  0.000000  1
  Pd  Pd5  1  0.376424  0.376424  0.500001  1
  Pd  Pd6  1  0.626870  0.626870  0.500001  1
  Pt  Pt7  1  0.373079  0.373079  0.000000  1
  Pt  Pt8  1  0.744964  0.251391  0.246597  1
  Pt  Pt9  1  0.004550  0.498912  0.248787  1
  Pt  Pt10  1  0.499669  0.003761  0.248783  1
  Pt  Pt11  1  0.251492  0.744851  0.246672  1
  Pt  Pt12  1  0.744851  0.251492  0.753329  1
  Pt  Pt13  1  0.498912  0.004550  0.751212  1
  Pt  Pt14  1  0.003761  0.499669  0.751216  1
  Pt  Pt15  1  0.251391  0.744964  0.753402  1
