# generated using pymatgen
data_Tm5Lu3(ScSb3)2
_symmetry_space_group_name_H-M   'P 1'
_cell_length_a   7.87862900
_cell_length_b   9.09613501
_cell_length_c   11.60745501
_cell_angle_alpha   90.00553218
_cell_angle_beta   90.00000000
_cell_angle_gamma   90.00000000
_symmetry_Int_Tables_number   1
_chemical_formula_structural   Tm5Lu3(ScSb3)2
_chemical_formula_sum   'Tm10 Lu6 Sc4 Sb12'
_cell_volume   831.84910797
_cell_formula_units_Z   2
loop_
 _symmetry_equiv_pos_site_id
 _symmetry_equiv_pos_as_xyz
  1  'x, y, z'
loop_
 _atom_site_type_symbol
 _atom_site_label
 _atom_site_symmetry_multiplicity
 _atom_site_fract_x
 _atom_site_fract_y
 _atom_site_fract_z
 _atom_site_occupancy
  Tm  Tm0  1  0.196917  0.562135  0.440042  1
  Tm  Tm1  1  0.696917  0.937865  0.059958  1
  Tm  Tm2  1  0.185223  0.750038  0.720661  1
  Tm  Tm3  1  0.685223  0.749962  0.779339  1
  Tm  Tm4  1  0.814980  0.249971  0.279424  1
  Tm  Tm5  1  0.314980  0.250029  0.220576  1
  Tm  Tm6  1  0.855515  0.750041  0.284830  1
  Tm  Tm7  1  0.355515  0.749959  0.215170  1
  Tm  Tm8  1  0.144593  0.250115  0.715073  1
  Tm  Tm9  1  0.644593  0.249885  0.784927  1
  Lu  Lu10  1  0.803183  0.062625  0.560136  1
  Lu  Lu11  1  0.303183  0.437375  0.939864  1
  Lu  Lu12  1  0.803149  0.437375  0.560170  1
  Lu  Lu13  1  0.303149  0.062625  0.939830  1
  Lu  Lu14  1  0.196915  0.937378  0.439823  1
  Lu  Lu15  1  0.696915  0.562622  0.060177  1
  Sc  Sc16  1  0.028111  0.749863  0.988581  1
  Sc  Sc17  1  0.528111  0.750137  0.511419  1
  Sc  Sc18  1  0.972031  0.250057  0.011215  1
  Sc  Sc19  1  0.472031  0.249943  0.488785  1
  Sb  Sb20  1  0.933261  0.496282  0.830962  1
  Sb  Sb21  1  0.433261  0.003718  0.669038  1
  Sb  Sb22  1  0.066938  0.996390  0.169125  1
  Sb  Sb23  1  0.566938  0.503610  0.330875  1
  Sb  Sb24  1  0.066743  0.503592  0.169048  1
  Sb  Sb25  1  0.566743  0.996408  0.330952  1
  Sb  Sb26  1  0.933229  0.003621  0.830835  1
  Sb  Sb27  1  0.433229  0.496379  0.669165  1
  Sb  Sb28  1  0.906452  0.750299  0.541327  1
  Sb  Sb29  1  0.406452  0.749701  0.958673  1
  Sb  Sb30  1  0.092759  0.249194  0.458924  1
  Sb  Sb31  1  0.592759  0.250806  0.041076  1
