# generated using pymatgen
data_Tb3Y(B4Mo)4
_symmetry_space_group_name_H-M   'P 1'
_cell_length_a   3.63531800
_cell_length_b   6.04251111
_cell_length_c   11.67632051
_cell_angle_alpha   90.01833410
_cell_angle_beta   90.00000000
_cell_angle_gamma   90.00000000
_symmetry_Int_Tables_number   1
_chemical_formula_structural   Tb3Y(B4Mo)4
_chemical_formula_sum   'Tb3 Y1 B16 Mo4'
_cell_volume   256.48729056
_cell_formula_units_Z   1
loop_
 _symmetry_equiv_pos_site_id
 _symmetry_equiv_pos_as_xyz
  1  'x, y, z'
loop_
 _atom_site_type_symbol
 _atom_site_label
 _atom_site_symmetry_multiplicity
 _atom_site_fract_x
 _atom_site_fract_y
 _atom_site_fract_z
 _atom_site_occupancy
  Tb  Tb0  1  0.000000  0.127048  0.149852  1
  Tb  Tb1  1  0.000000  0.872927  0.850232  1
  Tb  Tb2  1  0.000000  0.626986  0.350119  1
  Y  Y3  1  0.000000  0.372938  0.649817  1
  B  B4  1  0.500000  0.023374  0.693309  1
  B  B5  1  0.500000  0.976662  0.306648  1
  B  B6  1  0.500000  0.523547  0.806808  1
  B  B7  1  0.500000  0.476662  0.193280  1
  B  B8  1  0.500000  0.113625  0.547248  1
  B  B9  1  0.500000  0.886514  0.452482  1
  B  B10  1  0.500000  0.613440  0.952777  1
  B  B11  1  0.500000  0.386506  0.047386  1
  B  B12  1  0.500000  0.286662  0.313894  1
  B  B13  1  0.500000  0.713299  0.686130  1
  B  B14  1  0.500000  0.786711  0.186044  1
  B  B15  1  0.500000  0.213212  0.814094  1
  B  B16  1  0.500000  0.366199  0.467914  1
  B  B17  1  0.500000  0.633506  0.531772  1
  B  B18  1  0.500000  0.866257  0.032038  1
  B  B19  1  0.500000  0.133873  0.968214  1
  Mo  Mo20  1  0.000000  0.129624  0.416378  1
  Mo  Mo21  1  0.000000  0.870480  0.583477  1
  Mo  Mo22  1  0.000000  0.629561  0.083618  1
  Mo  Mo23  1  0.000000  0.370389  0.916469  1
