# generated using pymatgen
data_Tb9Y3Rh4
_symmetry_space_group_name_H-M   'P 1'
_cell_length_a   6.28275417
_cell_length_b   7.18392647
_cell_length_c   9.56231000
_cell_angle_alpha   90.00000000
_cell_angle_beta   90.00000000
_cell_angle_gamma   89.90485602
_symmetry_Int_Tables_number   1
_chemical_formula_structural   Tb9Y3Rh4
_chemical_formula_sum   'Tb9 Y3 Rh4'
_cell_volume   431.59277501
_cell_formula_units_Z   1
loop_
 _symmetry_equiv_pos_site_id
 _symmetry_equiv_pos_as_xyz
  1  'x, y, z'
loop_
 _atom_site_type_symbol
 _atom_site_label
 _atom_site_symmetry_multiplicity
 _atom_site_fract_x
 _atom_site_fract_y
 _atom_site_fract_z
 _atom_site_occupancy
  Tb  Tb0  1  0.330470  0.677277  0.063415  1
  Tb  Tb1  1  0.169692  0.177317  0.436492  1
  Tb  Tb2  1  0.669334  0.322447  0.563573  1
  Tb  Tb3  1  0.830391  0.822726  0.936594  1
  Tb  Tb4  1  0.669334  0.322447  0.936427  1
  Tb  Tb5  1  0.830391  0.822726  0.563406  1
  Tb  Tb6  1  0.330470  0.677277  0.436585  1
  Tb  Tb7  1  0.169692  0.177317  0.063508  1
  Tb  Tb8  1  0.365041  0.967993  0.750000  1
  Y  Y9  1  0.865242  0.531742  0.250000  1
  Y  Y10  1  0.634761  0.031824  0.250000  1
  Y  Y11  1  0.134693  0.468456  0.750000  1
  Rh  Rh12  1  0.062060  0.882484  0.250000  1
  Rh  Rh13  1  0.437852  0.382337  0.250000  1
  Rh  Rh14  1  0.938817  0.117304  0.750000  1
  Rh  Rh15  1  0.561760  0.618327  0.750000  1
