# generated using pymatgen
data_Ac5Pr5(Pb3Cl)2
_symmetry_space_group_name_H-M   'P 1'
_cell_length_a   9.84421100
_cell_length_b   9.84421085
_cell_length_c   7.10819200
_cell_angle_alpha   90.00000000
_cell_angle_beta   90.00000000
_cell_angle_gamma   119.80532928
_symmetry_Int_Tables_number   1
_chemical_formula_structural   Ac5Pr5(Pb3Cl)2
_chemical_formula_sum   'Ac5 Pr5 Pb6 Cl2'
_cell_volume   597.72330643
_cell_formula_units_Z   1
loop_
 _symmetry_equiv_pos_site_id
 _symmetry_equiv_pos_as_xyz
  1  'x, y, z'
loop_
 _atom_site_type_symbol
 _atom_site_label
 _atom_site_symmetry_multiplicity
 _atom_site_fract_x
 _atom_site_fract_y
 _atom_site_fract_z
 _atom_site_occupancy
  Ac  Ac0  1  0.264405  0.001706  0.250000  1
  Ac  Ac1  1  0.735343  0.999393  0.750000  1
  Ac  Ac2  1  0.001706  0.264405  0.250000  1
  Ac  Ac3  1  0.999393  0.735343  0.750000  1
  Ac  Ac4  1  0.739127  0.739127  0.250000  1
  Pr  Pr5  1  0.262001  0.262001  0.750000  1
  Pr  Pr6  1  0.332788  0.663651  0.998729  1
  Pr  Pr7  1  0.663651  0.332788  0.998729  1
  Pr  Pr8  1  0.663651  0.332788  0.501271  1
  Pr  Pr9  1  0.332788  0.663651  0.501271  1
  Pb  Pb10  1  0.609051  0.000644  0.250000  1
  Pb  Pb11  1  0.389599  0.004335  0.750000  1
  Pb  Pb12  1  0.000644  0.609051  0.250000  1
  Pb  Pb13  1  0.004335  0.389599  0.750000  1
  Pb  Pb14  1  0.393000  0.393000  0.250000  1
  Pb  Pb15  1  0.601796  0.601796  0.750000  1
  Cl  Cl16  1  0.003362  0.003362  0.996755  1
  Cl  Cl17  1  0.003362  0.003362  0.503245  1
