# generated using pymatgen
data_CsNp(PO4)2
_symmetry_space_group_name_H-M   'P 1'
_cell_length_a   5.34508502
_cell_length_b   5.34508479
_cell_length_c   9.14133247
_cell_angle_alpha   87.06765953
_cell_angle_beta   87.06765931
_cell_angle_gamma   62.63639552
_symmetry_Int_Tables_number   1
_chemical_formula_structural   CsNp(PO4)2
_chemical_formula_sum   'Cs1 Np1 P2 O8'
_cell_volume   231.52837448
_cell_formula_units_Z   1
loop_
 _symmetry_equiv_pos_site_id
 _symmetry_equiv_pos_as_xyz
  1  'x, y, z'
loop_
 _atom_site_type_symbol
 _atom_site_label
 _atom_site_symmetry_multiplicity
 _atom_site_fract_x
 _atom_site_fract_y
 _atom_site_fract_z
 _atom_site_occupancy
  Cs  Cs0  1  0.000000  0.000000  0.000000  1
  Np  Np1  1  0.000000  0.000000  0.500000  1
  P  P2  1  0.643006  0.643006  0.699592  1
  P  P3  1  0.356994  0.356994  0.300408  1
  O  O4  1  0.223394  0.675799  0.341240  1
  O  O5  1  0.217937  0.217937  0.414081  1
  O  O6  1  0.317817  0.317817  0.144189  1
  O  O7  1  0.675799  0.223394  0.341240  1
  O  O8  1  0.682183  0.682183  0.855811  1
  O  O9  1  0.782063  0.782063  0.585919  1
  O  O10  1  0.324201  0.776606  0.658760  1
  O  O11  1  0.776606  0.324201  0.658760  1
