# generated using pymatgen
data_La17Tb3Si15Se
_symmetry_space_group_name_H-M   'P 1'
_cell_length_a   7.96424087
_cell_length_b   8.05087449
_cell_length_c   15.41362853
_cell_angle_alpha   90.33861296
_cell_angle_beta   95.18292793
_cell_angle_gamma   89.67599110
_symmetry_Int_Tables_number   1
_chemical_formula_structural   La17Tb3Si15Se
_chemical_formula_sum   'La17 Tb3 Si15 Se1'
_cell_volume   984.23700808
_cell_formula_units_Z   1
loop_
 _symmetry_equiv_pos_site_id
 _symmetry_equiv_pos_as_xyz
  1  'x, y, z'
loop_
 _atom_site_type_symbol
 _atom_site_label
 _atom_site_symmetry_multiplicity
 _atom_site_fract_x
 _atom_site_fract_y
 _atom_site_fract_z
 _atom_site_occupancy
  La  La0  1  0.634946  0.161093  0.614315  1
  La  La1  1  0.181274  0.321852  0.880383  1
  La  La2  1  0.317510  0.824155  0.121727  1
  La  La3  1  0.863578  0.661672  0.382693  1
  La  La4  1  0.359377  0.837043  0.385759  1
  La  La5  1  0.817677  0.678571  0.122316  1
  La  La6  1  0.679673  0.179303  0.880061  1
  La  La7  1  0.136726  0.336324  0.614482  1
  La  La8  1  0.489597  0.673355  0.604415  1
  La  La9  1  0.033922  0.808852  0.895587  1
  La  La10  1  0.467205  0.314380  0.104218  1
  La  La11  1  0.012747  0.186906  0.398419  1
  La  La12  1  0.507148  0.322326  0.396445  1
  La  La13  1  0.968110  0.188391  0.104133  1
  La  La14  1  0.534945  0.689916  0.897205  1
  La  La15  1  0.999614  0.810887  0.603990  1
  La  La16  1  0.833481  0.507123  0.744964  1
  Tb  Tb17  1  0.329342  0.989849  0.747321  1
  Tb  Tb18  1  0.172931  0.492361  0.253243  1
  Tb  Tb19  1  0.670432  0.011650  0.245670  1
  Si  Si20  1  0.131663  0.523022  0.046685  1
  Si  Si21  1  0.366768  0.022931  0.956240  1
  Si  Si22  1  0.784585  0.468633  0.541724  1
  Si  Si23  1  0.287215  0.021796  0.551101  1
  Si  Si24  1  0.868694  0.475306  0.958985  1
  Si  Si25  1  0.630702  0.979703  0.046373  1
  Si  Si26  1  0.208563  0.527319  0.449844  1
  Si  Si27  1  0.452506  0.395883  0.750761  1
  Si  Si28  1  0.953799  0.097512  0.750407  1
  Si  Si29  1  0.542734  0.601269  0.251066  1
  Si  Si30  1  0.043318  0.901055  0.252221  1
  Si  Si31  1  0.721731  0.880511  0.751634  1
  Si  Si32  1  0.230290  0.625999  0.751687  1
  Si  Si33  1  0.277157  0.129084  0.250027  1
  Si  Si34  1  0.777687  0.372680  0.249833  1
  Se  Se35  1  0.712350  0.981289  0.444065  1
