# generated using pymatgen
data_YbYEr2(B6Ru)2
_symmetry_space_group_name_H-M   'P 1'
_cell_length_a   3.64236900
_cell_length_b   9.12576704
_cell_length_c   11.52210902
_cell_angle_alpha   89.82984438
_cell_angle_beta   90.00000000
_cell_angle_gamma   90.00000000
_symmetry_Int_Tables_number   1
_chemical_formula_structural   YbYEr2(B6Ru)2
_chemical_formula_sum   'Yb2 Y2 Er4 B24 Ru4'
_cell_volume   382.98642832
_cell_formula_units_Z   2
loop_
 _symmetry_equiv_pos_site_id
 _symmetry_equiv_pos_as_xyz
  1  'x, y, z'
loop_
 _atom_site_type_symbol
 _atom_site_label
 _atom_site_symmetry_multiplicity
 _atom_site_fract_x
 _atom_site_fract_y
 _atom_site_fract_z
 _atom_site_occupancy
  Yb  Yb0  1  0.000000  0.324963  0.414898  1
  Yb  Yb1  1  0.000000  0.675037  0.585102  1
  Y  Y2  1  0.000000  0.822328  0.086116  1
  Y  Y3  1  0.000000  0.177672  0.913884  1
  Er  Er4  1  0.000000  0.941939  0.369901  1
  Er  Er5  1  0.000000  0.058061  0.630099  1
  Er  Er6  1  0.000000  0.442724  0.131099  1
  Er  Er7  1  0.000000  0.557276  0.868901  1
  B  B8  1  0.500000  0.554360  0.432415  1
  B  B9  1  0.500000  0.445640  0.567585  1
  B  B10  1  0.500000  0.054025  0.066974  1
  B  B11  1  0.500000  0.945975  0.933026  1
  B  B12  1  0.500000  0.748263  0.417958  1
  B  B13  1  0.500000  0.251737  0.582042  1
  B  B14  1  0.500000  0.248726  0.081492  1
  B  B15  1  0.500000  0.751274  0.918508  1
  B  B16  1  0.500000  0.791302  0.264963  1
  B  B17  1  0.500000  0.208698  0.735037  1
  B  B18  1  0.500000  0.290298  0.234562  1
  B  B19  1  0.500000  0.709702  0.765438  1
  B  B20  1  0.500000  0.631173  0.185214  1
  B  B21  1  0.500000  0.368827  0.814786  1
  B  B22  1  0.500000  0.130821  0.314215  1
  B  B23  1  0.500000  0.869179  0.685785  1
  B  B24  1  0.500000  0.983445  0.211909  1
  B  B25  1  0.500000  0.016555  0.788091  1
  B  B26  1  0.500000  0.483854  0.288155  1
  B  B27  1  0.500000  0.516146  0.711845  1
  B  B28  1  0.500000  0.602864  0.028234  1
  B  B29  1  0.500000  0.397136  0.971766  1
  B  B30  1  0.500000  0.099490  0.472524  1
  B  B31  1  0.500000  0.900510  0.527476  1
  Ru  Ru32  1  0.000000  0.639999  0.318896  1
  Ru  Ru33  1  0.000000  0.360001  0.681104  1
  Ru  Ru34  1  0.000000  0.137427  0.178552  1
  Ru  Ru35  1  0.000000  0.862573  0.821448  1
