# generated using pymatgen
data_LaHo2Zn2Rh7
_symmetry_space_group_name_H-M   'P 1'
_cell_length_a   5.43709102
_cell_length_b   5.43603400
_cell_length_c   16.65856200
_cell_angle_alpha   90.00000000
_cell_angle_beta   90.00000000
_cell_angle_gamma   119.99752466
_symmetry_Int_Tables_number   1
_chemical_formula_structural   LaHo2Zn2Rh7
_chemical_formula_sum   'La2 Ho4 Zn4 Rh14'
_cell_volume   426.41035292
_cell_formula_units_Z   2
loop_
 _symmetry_equiv_pos_site_id
 _symmetry_equiv_pos_as_xyz
  1  'x, y, z'
loop_
 _atom_site_type_symbol
 _atom_site_label
 _atom_site_symmetry_multiplicity
 _atom_site_fract_x
 _atom_site_fract_y
 _atom_site_fract_z
 _atom_site_occupancy
  La  La0  1  0.333337  0.666671  0.750000  1
  La  La1  1  0.666663  0.333329  0.250000  1
  Ho  Ho2  1  0.333329  0.666686  0.539026  1
  Ho  Ho3  1  0.666671  0.333314  0.039026  1
  Ho  Ho4  1  0.666671  0.333314  0.460974  1
  Ho  Ho5  1  0.333329  0.666686  0.960974  1
  Zn  Zn6  1  0.000008  0.999999  0.250000  1
  Zn  Zn7  1  0.999992  0.000001  0.750000  1
  Zn  Zn8  1  0.333320  0.666661  0.250000  1
  Zn  Zn9  1  0.666680  0.333339  0.750000  1
  Rh  Rh10  1  0.169277  0.338530  0.124335  1
  Rh  Rh11  1  0.830723  0.661470  0.624335  1
  Rh  Rh12  1  0.661462  0.830698  0.124337  1
  Rh  Rh13  1  0.169270  0.830709  0.124333  1
  Rh  Rh14  1  0.830730  0.169291  0.624333  1
  Rh  Rh15  1  0.338538  0.169302  0.624337  1
  Rh  Rh16  1  0.830723  0.661470  0.875665  1
  Rh  Rh17  1  0.830730  0.169291  0.875667  1
  Rh  Rh18  1  0.338538  0.169302  0.875663  1
  Rh  Rh19  1  0.661462  0.830698  0.375663  1
  Rh  Rh20  1  0.169270  0.830709  0.375667  1
  Rh  Rh21  1  0.169277  0.338530  0.375665  1
  Rh  Rh22  1  0.000000  0.000000  0.000000  1
  Rh  Rh23  1  0.000000  0.000000  0.500000  1
