# generated using pymatgen
data_Lu3Zr(Co5As3)4
_symmetry_space_group_name_H-M   'P 1'
_cell_length_a   3.73679300
_cell_length_b   10.60431317
_cell_length_c   12.08704002
_cell_angle_alpha   90.01370944
_cell_angle_beta   90.00000000
_cell_angle_gamma   90.00000000
_symmetry_Int_Tables_number   1
_chemical_formula_structural   Lu3Zr(Co5As3)4
_chemical_formula_sum   'Lu3 Zr1 Co20 As12'
_cell_volume   478.96252355
_cell_formula_units_Z   1
loop_
 _symmetry_equiv_pos_site_id
 _symmetry_equiv_pos_as_xyz
  1  'x, y, z'
loop_
 _atom_site_type_symbol
 _atom_site_label
 _atom_site_symmetry_multiplicity
 _atom_site_fract_x
 _atom_site_fract_y
 _atom_site_fract_z
 _atom_site_occupancy
  Lu  Lu0  1  0.250000  0.919341  0.201810  1
  Lu  Lu1  1  0.750000  0.419198  0.298022  1
  Lu  Lu2  1  0.750000  0.080673  0.797919  1
  Zr  Zr3  1  0.250000  0.579431  0.700519  1
  Co  Co4  1  0.250000  0.714408  0.992899  1
  Co  Co5  1  0.250000  0.784331  0.493250  1
  Co  Co6  1  0.750000  0.285883  0.006994  1
  Co  Co7  1  0.750000  0.215067  0.508230  1
  Co  Co8  1  0.250000  0.409883  0.488718  1
  Co  Co9  1  0.250000  0.092260  0.986799  1
  Co  Co10  1  0.750000  0.592314  0.514823  1
  Co  Co11  1  0.750000  0.907627  0.012850  1
  Co  Co12  1  0.250000  0.217401  0.178216  1
  Co  Co13  1  0.250000  0.283418  0.678060  1
  Co  Co14  1  0.750000  0.781568  0.821672  1
  Co  Co15  1  0.750000  0.716558  0.322583  1
  Co  Co16  1  0.250000  0.882743  0.698098  1
  Co  Co17  1  0.250000  0.615849  0.197706  1
  Co  Co18  1  0.750000  0.116310  0.302482  1
  Co  Co19  1  0.750000  0.385722  0.801036  1
  Co  Co20  1  0.250000  0.469852  0.929414  1
  Co  Co21  1  0.250000  0.031228  0.431507  1
  Co  Co22  1  0.750000  0.531667  0.067585  1
  Co  Co23  1  0.750000  0.967722  0.569103  1
  As  As24  1  0.250000  0.415643  0.113978  1
  As  As25  1  0.250000  0.084138  0.614967  1
  As  As26  1  0.750000  0.584500  0.883356  1
  As  As27  1  0.750000  0.915486  0.385298  1
  As  As28  1  0.250000  0.267150  0.869894  1
  As  As29  1  0.250000  0.233557  0.371073  1
  As  As30  1  0.750000  0.732969  0.130063  1
  As  As31  1  0.750000  0.765672  0.630607  1
  As  As32  1  0.250000  0.599446  0.389749  1
  As  As33  1  0.250000  0.900202  0.889852  1
  As  As34  1  0.750000  0.401164  0.610610  1
  As  As35  1  0.750000  0.099621  0.110255  1
