# generated using pymatgen
data_Lu12AlCo2Si2Sn
_symmetry_space_group_name_H-M   'P 1'
_cell_length_a   8.22892739
_cell_length_b   8.22892821
_cell_length_c   8.22892794
_cell_angle_alpha   112.96884036
_cell_angle_beta   111.74033451
_cell_angle_gamma   103.84928135
_symmetry_Int_Tables_number   1
_chemical_formula_structural   Lu12AlCo2Si2Sn
_chemical_formula_sum   'Lu12 Al1 Co2 Si2 Sn1'
_cell_volume   425.84037054
_cell_formula_units_Z   1
loop_
 _symmetry_equiv_pos_site_id
 _symmetry_equiv_pos_as_xyz
  1  'x, y, z'
loop_
 _atom_site_type_symbol
 _atom_site_label
 _atom_site_symmetry_multiplicity
 _atom_site_fract_x
 _atom_site_fract_y
 _atom_site_fract_z
 _atom_site_occupancy
  Lu  Lu0  1  0.439943  0.241648  0.198294  1
  Lu  Lu1  1  0.560057  0.758352  0.801706  1
  Lu  Lu2  1  0.043352  0.241648  0.801706  1
  Lu  Lu3  1  0.956648  0.758352  0.198294  1
  Lu  Lu4  1  0.183585  0.285467  0.469052  1
  Lu  Lu5  1  0.816415  0.714533  0.530948  1
  Lu  Lu6  1  0.183585  0.714533  0.898117  1
  Lu  Lu7  1  0.816415  0.285467  0.101883  1
  Lu  Lu8  1  0.305897  0.618573  0.312676  1
  Lu  Lu9  1  0.694103  0.381427  0.687324  1
  Lu  Lu10  1  0.305897  0.993220  0.687324  1
  Lu  Lu11  1  0.694103  0.006780  0.312676  1
  Al  Al12  1  0.000000  0.000000  0.000000  1
  Co  Co13  1  0.108985  0.608985  0.500000  1
  Co  Co14  1  0.891015  0.391015  0.500000  1
  Si  Si15  1  0.351303  0.000000  0.351303  1
  Si  Si16  1  0.648697  0.000000  0.648697  1
  Sn  Sn17  1  0.500000  0.500000  0.000000  1
