# generated using pymatgen
data_Sc4Cr2TcOs5
_symmetry_space_group_name_H-M   'P 1'
_cell_length_a   5.16384394
_cell_length_b   5.17995899
_cell_length_c   8.58783400
_cell_angle_alpha   90.00000000
_cell_angle_beta   90.00000000
_cell_angle_gamma   121.64971162
_symmetry_Int_Tables_number   1
_chemical_formula_structural   Sc4Cr2TcOs5
_chemical_formula_sum   'Sc4 Cr2 Tc1 Os5'
_cell_volume   195.54711516
_cell_formula_units_Z   1
loop_
 _symmetry_equiv_pos_site_id
 _symmetry_equiv_pos_as_xyz
  1  'x, y, z'
loop_
 _atom_site_type_symbol
 _atom_site_label
 _atom_site_symmetry_multiplicity
 _atom_site_fract_x
 _atom_site_fract_y
 _atom_site_fract_z
 _atom_site_occupancy
  Sc  Sc0  1  0.334982  0.664339  0.433884  1
  Sc  Sc1  1  0.663109  0.332812  0.563788  1
  Sc  Sc2  1  0.663109  0.332812  0.936212  1
  Sc  Sc3  1  0.334982  0.664339  0.066116  1
  Cr  Cr4  1  0.170239  0.343298  0.750000  1
  Cr  Cr5  1  0.341984  0.171275  0.250000  1
  Tc  Tc6  1  0.168760  0.820031  0.750000  1
  Os  Os7  1  0.823801  0.654829  0.250000  1
  Os  Os8  1  0.649961  0.821766  0.750000  1
  Os  Os9  1  0.014158  0.011615  0.998940  1
  Os  Os10  1  0.820759  0.171268  0.250000  1
  Os  Os11  1  0.014158  0.011615  0.501060  1
