# generated using pymatgen
data_YbPu(BH4)4
_symmetry_space_group_name_H-M   'P 1'
_cell_length_a   6.78343191
_cell_length_b   6.87580935
_cell_length_c   4.32825500
_cell_angle_alpha   90.00000000
_cell_angle_beta   90.00000000
_cell_angle_gamma   89.59039813
_symmetry_Int_Tables_number   1
_chemical_formula_structural   YbPu(BH4)4
_chemical_formula_sum   'Yb1 Pu1 B4 H16'
_cell_volume   201.87151281
_cell_formula_units_Z   1
loop_
 _symmetry_equiv_pos_site_id
 _symmetry_equiv_pos_as_xyz
  1  'x, y, z'
loop_
 _atom_site_type_symbol
 _atom_site_label
 _atom_site_symmetry_multiplicity
 _atom_site_fract_x
 _atom_site_fract_y
 _atom_site_fract_z
 _atom_site_occupancy
  Yb  Yb0  1  0.000000  0.500000  0.517191  1
  Pu  Pu1  1  0.500000  0.000000  0.020894  1
  B  B2  1  0.211691  0.316126  0.023209  1
  B  B3  1  0.788309  0.683874  0.023209  1
  B  B4  1  0.310171  0.783020  0.523164  1
  B  B5  1  0.689829  0.216980  0.523164  1
  H  H6  1  0.160816  0.487266  0.022965  1
  H  H7  1  0.839184  0.512734  0.022965  1
  H  H8  1  0.391327  0.325590  0.052064  1
  H  H9  1  0.608673  0.674410  0.052064  1
  H  H10  1  0.136582  0.226053  0.237974  1
  H  H11  1  0.863418  0.773947  0.237974  1
  H  H12  1  0.230764  0.829375  0.277591  1
  H  H13  1  0.769236  0.170625  0.277591  1
  H  H14  1  0.486315  0.831891  0.522752  1
  H  H15  1  0.513685  0.168109  0.522752  1
  H  H16  1  0.315271  0.606636  0.552460  1
  H  H17  1  0.684729  0.393364  0.552460  1
  H  H18  1  0.219231  0.860740  0.736924  1
  H  H19  1  0.780769  0.139260  0.736924  1
  H  H20  1  0.166172  0.236075  0.779859  1
  H  H21  1  0.833828  0.763925  0.779859  1
