# generated using pymatgen
data_Rb3(VS3)2
_symmetry_space_group_name_H-M   'P 1'
_cell_length_a   9.05539927
_cell_length_b   9.05565367
_cell_length_c   9.79187686
_cell_angle_alpha   91.94255018
_cell_angle_beta   91.94388990
_cell_angle_gamma   116.01903950
_symmetry_Int_Tables_number   1
_chemical_formula_structural   Rb3(VS3)2
_chemical_formula_sum   'Rb6 V4 S12'
_cell_volume   720.09813726
_cell_formula_units_Z   2
loop_
 _symmetry_equiv_pos_site_id
 _symmetry_equiv_pos_as_xyz
  1  'x, y, z'
loop_
 _atom_site_type_symbol
 _atom_site_label
 _atom_site_symmetry_multiplicity
 _atom_site_fract_x
 _atom_site_fract_y
 _atom_site_fract_z
 _atom_site_occupancy
  Rb  Rb0  1  0.741492  0.472059  0.015242  1
  Rb  Rb1  1  0.972450  0.027546  0.250008  1
  Rb  Rb2  1  0.527932  0.258501  0.484757  1
  Rb  Rb3  1  0.472069  0.741500  0.515243  1
  Rb  Rb4  1  0.027550  0.972454  0.749992  1
  Rb  Rb5  1  0.258508  0.527940  0.984758  1
  V  V6  1  0.358375  0.015931  0.052830  1
  V  V7  1  0.984049  0.641561  0.447193  1
  V  V8  1  0.015951  0.358438  0.552806  1
  V  V9  1  0.641626  0.984070  0.947171  1
  S  S10  1  0.117212  0.819121  0.036196  1
  S  S11  1  0.368539  0.236964  0.146269  1
  S  S12  1  0.534340  0.933309  0.154501  1
  S  S13  1  0.066700  0.465652  0.345497  1
  S  S14  1  0.763048  0.631438  0.353736  1
  S  S15  1  0.180842  0.882701  0.463802  1
  S  S16  1  0.819159  0.117300  0.536197  1
  S  S17  1  0.236953  0.368563  0.646264  1
  S  S18  1  0.933300  0.534348  0.654503  1
  S  S19  1  0.465661  0.066692  0.845500  1
  S  S20  1  0.631461  0.763035  0.853730  1
  S  S21  1  0.882787  0.180879  0.963803  1
