# generated using pymatgen
data_BaNpS3
_symmetry_space_group_name_H-M   'P 1'
_cell_length_a   4.16212200
_cell_length_b   8.77026800
_cell_length_c   14.79682400
_cell_angle_alpha   90.00000000
_cell_angle_beta   90.00000000
_cell_angle_gamma   90.00000000
_symmetry_Int_Tables_number   1
_chemical_formula_structural   BaNpS3
_chemical_formula_sum   'Ba4 Np4 S12'
_cell_volume   540.12736246
_cell_formula_units_Z   4
loop_
 _symmetry_equiv_pos_site_id
 _symmetry_equiv_pos_as_xyz
  1  'x, y, z'
loop_
 _atom_site_type_symbol
 _atom_site_label
 _atom_site_symmetry_multiplicity
 _atom_site_fract_x
 _atom_site_fract_y
 _atom_site_fract_z
 _atom_site_occupancy
  Ba  Ba0  1  0.750000  0.573417  0.677318  1
  Ba  Ba1  1  0.250000  0.926583  0.177318  1
  Ba  Ba2  1  0.250000  0.426583  0.322682  1
  Ba  Ba3  1  0.750000  0.073417  0.822682  1
  Np  Np4  1  0.250000  0.669000  0.943170  1
  Np  Np5  1  0.750000  0.331000  0.056830  1
  Np  Np6  1  0.250000  0.169000  0.556830  1
  Np  Np7  1  0.750000  0.831000  0.443170  1
  S  S8  1  0.250000  0.667922  0.508095  1
  S  S9  1  0.750000  0.832078  0.008095  1
  S  S10  1  0.250000  0.018131  0.397471  1
  S  S11  1  0.750000  0.481869  0.897471  1
  S  S12  1  0.250000  0.518131  0.102529  1
  S  S13  1  0.250000  0.295505  0.715478  1
  S  S14  1  0.750000  0.204495  0.215478  1
  S  S15  1  0.250000  0.795505  0.784522  1
  S  S16  1  0.750000  0.704495  0.284522  1
  S  S17  1  0.750000  0.332078  0.491905  1
  S  S18  1  0.250000  0.167922  0.991905  1
  S  S19  1  0.750000  0.981869  0.602529  1
