# generated using pymatgen
data_LaSm7(Lu3Si4)4
_symmetry_space_group_name_H-M   'P 1'
_cell_length_a   7.67385802
_cell_length_b   7.67576581
_cell_length_c   14.13999400
_cell_angle_alpha   90.06084318
_cell_angle_beta   89.99563218
_cell_angle_gamma   89.95393372
_symmetry_Int_Tables_number   1
_chemical_formula_structural   LaSm7(Lu3Si4)4
_chemical_formula_sum   'La1 Sm7 Lu12 Si16'
_cell_volume   832.88360694
_cell_formula_units_Z   1
loop_
 _symmetry_equiv_pos_site_id
 _symmetry_equiv_pos_as_xyz
  1  'x, y, z'
loop_
 _atom_site_type_symbol
 _atom_site_label
 _atom_site_symmetry_multiplicity
 _atom_site_fract_x
 _atom_site_fract_y
 _atom_site_fract_z
 _atom_site_occupancy
  La  La0  1  0.008188  0.353530  0.039852  1
  Sm  Sm1  1  0.643851  0.993382  0.460302  1
  Sm  Sm2  1  0.357510  0.006340  0.958275  1
  Sm  Sm3  1  0.993488  0.643608  0.540330  1
  Sm  Sm4  1  0.493810  0.855785  0.210710  1
  Sm  Sm5  1  0.505454  0.144100  0.709002  1
  Sm  Sm6  1  0.854991  0.495040  0.789555  1
  Sm  Sm7  1  0.144032  0.505445  0.291449  1
  Lu  Lu8  1  0.494340  0.358608  0.124573  1
  Lu  Lu9  1  0.993723  0.141246  0.625461  1
  Lu  Lu10  1  0.857150  0.007172  0.873052  1
  Lu  Lu11  1  0.141224  0.992442  0.375063  1
  Lu  Lu12  1  0.506814  0.641482  0.624156  1
  Lu  Lu13  1  0.358716  0.495365  0.874584  1
  Lu  Lu14  1  0.641116  0.506211  0.376450  1
  Lu  Lu15  1  0.007430  0.857071  0.126718  1
  Lu  Lu16  1  0.318691  0.319007  0.500024  1
  Lu  Lu17  1  0.180656  0.819582  0.749519  1
  Lu  Lu18  1  0.818475  0.179812  0.250373  1
  Lu  Lu19  1  0.680338  0.682463  0.000154  1
  Si  Si20  1  0.291074  0.940251  0.562464  1
  Si  Si21  1  0.707379  0.056986  0.062727  1
  Si  Si22  1  0.940175  0.290099  0.437701  1
  Si  Si23  1  0.441541  0.208227  0.313184  1
  Si  Si24  1  0.559458  0.791537  0.812058  1
  Si  Si25  1  0.208831  0.440379  0.687253  1
  Si  Si26  1  0.789422  0.561365  0.188785  1
  Si  Si27  1  0.061304  0.712932  0.936765  1
  Si  Si28  1  0.796253  0.850363  0.685991  1
  Si  Si29  1  0.206197  0.148032  0.189534  1
  Si  Si30  1  0.849311  0.796249  0.313822  1
  Si  Si31  1  0.349970  0.703163  0.437124  1
  Si  Si32  1  0.646701  0.295742  0.935041  1
  Si  Si33  1  0.703364  0.349805  0.563430  1
  Si  Si34  1  0.299378  0.652924  0.062606  1
  Si  Si35  1  0.149643  0.204256  0.811914  1
