# generated using pymatgen
data_Tb5Y3Ti5Si16Mo7
_symmetry_space_group_name_H-M   'P 1'
_cell_length_a   6.95493834
_cell_length_b   6.94664659
_cell_length_c   12.86740804
_cell_angle_alpha   89.87868061
_cell_angle_beta   90.02136913
_cell_angle_gamma   90.02050692
_symmetry_Int_Tables_number   1
_chemical_formula_structural   Tb5Y3Ti5Si16Mo7
_chemical_formula_sum   'Tb5 Y3 Ti5 Si16 Mo7'
_cell_volume   621.66802601
_cell_formula_units_Z   1
loop_
 _symmetry_equiv_pos_site_id
 _symmetry_equiv_pos_as_xyz
  1  'x, y, z'
loop_
 _atom_site_type_symbol
 _atom_site_label
 _atom_site_symmetry_multiplicity
 _atom_site_fract_x
 _atom_site_fract_y
 _atom_site_fract_z
 _atom_site_occupancy
  Tb  Tb0  1  0.840045  0.495926  0.280958  1
  Tb  Tb1  1  0.159613  0.502673  0.782956  1
  Tb  Tb2  1  0.659506  0.996792  0.968312  1
  Tb  Tb3  1  0.003340  0.340029  0.531941  1
  Tb  Tb4  1  0.995853  0.660690  0.031261  1
  Y  Y5  1  0.341009  0.003725  0.467116  1
  Y  Y6  1  0.496854  0.840687  0.718635  1
  Y  Y7  1  0.502656  0.159862  0.218349  1
  Ti  Ti8  1  0.329050  0.329306  0.999443  1
  Ti  Ti9  1  0.170326  0.828518  0.250055  1
  Ti  Ti10  1  0.827279  0.172397  0.750387  1
  Ti  Ti11  1  0.670362  0.668511  0.499246  1
  Ti  Ti12  1  0.993560  0.841190  0.625479  1
  Si  Si13  1  0.201643  0.128884  0.684709  1
  Si  Si14  1  0.372041  0.700625  0.934674  1
  Si  Si15  1  0.629562  0.300230  0.434652  1
  Si  Si16  1  0.698781  0.371153  0.065489  1
  Si  Si17  1  0.301155  0.628918  0.564674  1
  Si  Si18  1  0.799928  0.871865  0.184520  1
  Si  Si19  1  0.127547  0.199929  0.315628  1
  Si  Si20  1  0.872476  0.800327  0.815207  1
  Si  Si21  1  0.288290  0.958403  0.062922  1
  Si  Si22  1  0.541767  0.788327  0.312676  1
  Si  Si23  1  0.457654  0.211428  0.812811  1
  Si  Si24  1  0.788474  0.543138  0.687502  1
  Si  Si25  1  0.211843  0.457813  0.186753  1
  Si  Si26  1  0.711063  0.043396  0.563425  1
  Si  Si27  1  0.957867  0.288486  0.937352  1
  Si  Si28  1  0.043965  0.711515  0.437018  1
  Mo  Mo29  1  0.160168  0.008891  0.875627  1
  Mo  Mo30  1  0.492170  0.658778  0.124632  1
  Mo  Mo31  1  0.507313  0.341011  0.623933  1
  Mo  Mo32  1  0.657569  0.491035  0.877233  1
  Mo  Mo33  1  0.342317  0.505332  0.374407  1
  Mo  Mo34  1  0.839797  0.991110  0.373814  1
  Mo  Mo35  1  0.007156  0.159100  0.126206  1
