# generated using pymatgen
data_Lu5(TlSb)2
_symmetry_space_group_name_H-M   'P 1'
_cell_length_a   8.63972269
_cell_length_b   8.63972270
_cell_length_c   7.97872900
_cell_angle_alpha   90.00000000
_cell_angle_beta   90.00000000
_cell_angle_gamma   124.95448177
_symmetry_Int_Tables_number   1
_chemical_formula_structural   Lu5(TlSb)2
_chemical_formula_sum   'Lu10 Tl4 Sb4'
_cell_volume   488.13418554
_cell_formula_units_Z   2
loop_
 _symmetry_equiv_pos_site_id
 _symmetry_equiv_pos_as_xyz
  1  'x, y, z'
loop_
 _atom_site_type_symbol
 _atom_site_label
 _atom_site_symmetry_multiplicity
 _atom_site_fract_x
 _atom_site_fract_y
 _atom_site_fract_z
 _atom_site_occupancy
  Lu  Lu0  1  0.031210  0.305895  0.334347  1
  Lu  Lu1  1  0.968790  0.694105  0.665653  1
  Lu  Lu2  1  0.468790  0.194105  0.834347  1
  Lu  Lu3  1  0.805895  0.531210  0.165653  1
  Lu  Lu4  1  0.531210  0.805895  0.165653  1
  Lu  Lu5  1  0.194105  0.468790  0.834347  1
  Lu  Lu6  1  0.694105  0.968790  0.665653  1
  Lu  Lu7  1  0.305895  0.031210  0.334347  1
  Lu  Lu8  1  0.000000  0.000000  0.000000  1
  Lu  Lu9  1  0.500000  0.500000  0.500000  1
  Tl  Tl10  1  0.366018  0.366018  0.133146  1
  Tl  Tl11  1  0.633982  0.633982  0.866854  1
  Tl  Tl12  1  0.133982  0.133982  0.633146  1
  Tl  Tl13  1  0.866018  0.866018  0.366854  1
  Sb  Sb14  1  0.796135  0.203865  0.000000  1
  Sb  Sb15  1  0.203865  0.796135  0.000000  1
  Sb  Sb16  1  0.703865  0.296135  0.500000  1
  Sb  Sb17  1  0.296135  0.703865  0.500000  1
