# generated using pymatgen
data_Lu3Cu4(SiSn)2
_symmetry_space_group_name_H-M   'P 1'
_cell_length_a   8.13513501
_cell_length_b   8.13513532
_cell_length_c   8.13513500
_cell_angle_alpha   149.37552134
_cell_angle_beta   132.05199644
_cell_angle_gamma   57.97229922
_symmetry_Int_Tables_number   1
_chemical_formula_structural   Lu3Cu4(SiSn)2
_chemical_formula_sum   'Lu3 Cu4 Si2 Sn2'
_cell_volume   202.13251042
_cell_formula_units_Z   1
loop_
 _symmetry_equiv_pos_site_id
 _symmetry_equiv_pos_as_xyz
  1  'x, y, z'
loop_
 _atom_site_type_symbol
 _atom_site_label
 _atom_site_symmetry_multiplicity
 _atom_site_fract_x
 _atom_site_fract_y
 _atom_site_fract_z
 _atom_site_occupancy
  Lu  Lu0  1  0.500000  0.000000  0.500000  1
  Lu  Lu1  1  0.122357  0.122357  0.000000  1
  Lu  Lu2  1  0.877643  0.877643  0.000000  1
  Cu  Cu3  1  0.462625  0.653075  0.809550  1
  Cu  Cu4  1  0.843524  0.653075  0.190450  1
  Cu  Cu5  1  0.156476  0.346925  0.809550  1
  Cu  Cu6  1  0.537375  0.346925  0.190450  1
  Si  Si7  1  0.181906  0.500000  0.681906  1
  Si  Si8  1  0.818094  0.500000  0.318094  1
  Sn  Sn9  1  0.718851  0.218851  0.500000  1
  Sn  Sn10  1  0.281149  0.781149  0.500000  1
