# generated using pymatgen
data_Ho2Fe6Co
_symmetry_space_group_name_H-M   'P 1'
_cell_length_a   5.06619442
_cell_length_b   5.05973005
_cell_length_c   12.38376874
_cell_angle_alpha   78.20130835
_cell_angle_beta   78.19684614
_cell_angle_gamma   59.95773278
_symmetry_Int_Tables_number   1
_chemical_formula_structural   Ho2Fe6Co
_chemical_formula_sum   'Ho4 Fe12 Co2'
_cell_volume   267.02543489
_cell_formula_units_Z   2
loop_
 _symmetry_equiv_pos_site_id
 _symmetry_equiv_pos_as_xyz
  1  'x, y, z'
loop_
 _atom_site_type_symbol
 _atom_site_label
 _atom_site_symmetry_multiplicity
 _atom_site_fract_x
 _atom_site_fract_y
 _atom_site_fract_z
 _atom_site_occupancy
  Ho  Ho0  1  0.947713  0.947617  0.156957  1
  Ho  Ho1  1  0.052287  0.052383  0.843043  1
  Ho  Ho2  1  0.850494  0.850567  0.448446  1
  Ho  Ho3  1  0.149506  0.149433  0.551554  1
  Fe  Fe4  1  0.721151  0.722264  0.835434  1
  Fe  Fe5  1  0.278849  0.277736  0.164566  1
  Fe  Fe6  1  0.611521  0.613494  0.163463  1
  Fe  Fe7  1  0.388479  0.386506  0.836537  1
  Fe  Fe8  1  0.000000  0.500000  0.000000  1
  Fe  Fe9  1  0.500000  0.500000  0.000000  1
  Fe  Fe10  1  0.390109  0.390207  0.328848  1
  Fe  Fe11  1  0.890835  0.390207  0.328848  1
  Fe  Fe12  1  0.390214  0.890941  0.328630  1
  Fe  Fe13  1  0.609891  0.609793  0.671152  1
  Fe  Fe14  1  0.109165  0.609793  0.671152  1
  Fe  Fe15  1  0.609786  0.109059  0.671370  1
  Co  Co16  1  0.500000  0.500000  0.500000  1
  Co  Co17  1  0.500000  0.000000  0.000000  1
