# generated using pymatgen
data_TbPa(MnAl5)4
_symmetry_space_group_name_H-M   'P 1'
_cell_length_a   6.79466944
_cell_length_b   6.79466958
_cell_length_c   9.00916700
_cell_angle_alpha   90.00000000
_cell_angle_beta   90.00000000
_cell_angle_gamma   97.58919257
_symmetry_Int_Tables_number   1
_chemical_formula_structural   TbPa(MnAl5)4
_chemical_formula_sum   'Tb1 Pa1 Mn4 Al20'
_cell_volume   412.28766125
_cell_formula_units_Z   1
loop_
 _symmetry_equiv_pos_site_id
 _symmetry_equiv_pos_as_xyz
  1  'x, y, z'
loop_
 _atom_site_type_symbol
 _atom_site_label
 _atom_site_symmetry_multiplicity
 _atom_site_fract_x
 _atom_site_fract_y
 _atom_site_fract_z
 _atom_site_occupancy
  Tb  Tb0  1  0.126250  0.873750  0.250000  1
  Pa  Pa1  1  0.871384  0.128616  0.750000  1
  Mn  Mn2  1  0.505072  0.001191  0.997451  1
  Mn  Mn3  1  0.998809  0.494928  0.997451  1
  Mn  Mn4  1  0.505072  0.001191  0.502549  1
  Mn  Mn5  1  0.998809  0.494928  0.502549  1
  Al  Al6  1  0.409557  0.133762  0.750000  1
  Al  Al7  1  0.132922  0.410728  0.250000  1
  Al  Al8  1  0.589272  0.867078  0.250000  1
  Al  Al9  1  0.866238  0.590443  0.750000  1
  Al  Al10  1  0.523703  0.782844  0.750000  1
  Al  Al11  1  0.782749  0.524024  0.250000  1
  Al  Al12  1  0.475976  0.217251  0.250000  1
  Al  Al13  1  0.217156  0.476297  0.750000  1
  Al  Al14  1  0.842458  0.157542  0.402817  1
  Al  Al15  1  0.155829  0.844171  0.597474  1
  Al  Al16  1  0.842458  0.157542  0.097183  1
  Al  Al17  1  0.155829  0.844171  0.902526  1
  Al  Al18  1  0.624565  0.375435  0.952785  1
  Al  Al19  1  0.374182  0.625818  0.042748  1
  Al  Al20  1  0.624565  0.375435  0.547215  1
  Al  Al21  1  0.374182  0.625818  0.457252  1
  Al  Al22  1  0.772456  0.770972  0.000244  1
  Al  Al23  1  0.772456  0.770972  0.499756  1
  Al  Al24  1  0.229027  0.227544  0.000244  1
  Al  Al25  1  0.229027  0.227544  0.499756  1
