# generated using pymatgen
data_Sc24FeCo5Ru2
_symmetry_space_group_name_H-M   'P 1'
_cell_length_a   5.84426268
_cell_length_b   8.48215400
_cell_length_c   13.15250050
_cell_angle_alpha   90.00000000
_cell_angle_beta   89.94505921
_cell_angle_gamma   90.00000000
_symmetry_Int_Tables_number   1
_chemical_formula_structural   Sc24FeCo5Ru2
_chemical_formula_sum   'Sc24 Fe1 Co5 Ru2'
_cell_volume   651.99461383
_cell_formula_units_Z   1
loop_
 _symmetry_equiv_pos_site_id
 _symmetry_equiv_pos_as_xyz
  1  'x, y, z'
loop_
 _atom_site_type_symbol
 _atom_site_label
 _atom_site_symmetry_multiplicity
 _atom_site_fract_x
 _atom_site_fract_y
 _atom_site_fract_z
 _atom_site_occupancy
  Sc  Sc0  1  0.536786  0.750000  0.352871  1
  Sc  Sc1  1  0.035613  0.250000  0.147107  1
  Sc  Sc2  1  0.454922  0.250000  0.647729  1
  Sc  Sc3  1  0.954133  0.750000  0.853056  1
  Sc  Sc4  1  0.784188  0.750000  0.107062  1
  Sc  Sc5  1  0.282206  0.250000  0.392258  1
  Sc  Sc6  1  0.210162  0.250000  0.885696  1
  Sc  Sc7  1  0.709863  0.750000  0.613936  1
  Sc  Sc8  1  0.405765  0.933268  0.788700  1
  Sc  Sc9  1  0.907089  0.067657  0.710508  1
  Sc  Sc10  1  0.590499  0.433927  0.215875  1
  Sc  Sc11  1  0.089196  0.565926  0.284193  1
  Sc  Sc12  1  0.590499  0.066073  0.215875  1
  Sc  Sc13  1  0.089196  0.934074  0.284193  1
  Sc  Sc14  1  0.405765  0.566732  0.788700  1
  Sc  Sc15  1  0.907089  0.432343  0.710508  1
  Sc  Sc16  1  0.250603  0.940522  0.538189  1
  Sc  Sc17  1  0.752994  0.062028  0.962056  1
  Sc  Sc18  1  0.759581  0.435649  0.465571  1
  Sc  Sc19  1  0.259126  0.563751  0.035292  1
  Sc  Sc20  1  0.759581  0.064351  0.465571  1
  Sc  Sc21  1  0.259126  0.936249  0.035292  1
  Sc  Sc22  1  0.250603  0.559478  0.538189  1
  Sc  Sc23  1  0.752994  0.437972  0.962056  1
  Fe  Fe24  1  0.062495  0.250000  0.559880  1
  Co  Co25  1  0.555714  0.750000  0.939621  1
  Co  Co26  1  0.373991  0.750000  0.179804  1
  Co  Co27  1  0.873413  0.250000  0.319780  1
  Co  Co28  1  0.628433  0.250000  0.820388  1
  Co  Co29  1  0.128534  0.750000  0.680568  1
  Ru  Ru30  1  0.939935  0.750000  0.441862  1
  Ru  Ru31  1  0.439907  0.250000  0.057614  1
