# generated using pymatgen
data_Er4Zr2MoO12
_symmetry_space_group_name_H-M   'P 1'
_cell_length_a   6.30163298
_cell_length_b   6.37528045
_cell_length_c   6.50540631
_cell_angle_alpha   100.19026228
_cell_angle_beta   98.57969774
_cell_angle_gamma   99.34007129
_symmetry_Int_Tables_number   1
_chemical_formula_structural   Er4Zr2MoO12
_chemical_formula_sum   'Er4 Zr2 Mo1 O12'
_cell_volume   249.52505019
_cell_formula_units_Z   1
loop_
 _symmetry_equiv_pos_site_id
 _symmetry_equiv_pos_as_xyz
  1  'x, y, z'
loop_
 _atom_site_type_symbol
 _atom_site_label
 _atom_site_symmetry_multiplicity
 _atom_site_fract_x
 _atom_site_fract_y
 _atom_site_fract_z
 _atom_site_occupancy
  Er  Er0  1  0.388065  0.700136  0.864611  1
  Er  Er1  1  0.699018  0.865035  0.391327  1
  Er  Er2  1  0.611935  0.299864  0.135389  1
  Er  Er3  1  0.300982  0.134965  0.608673  1
  Zr  Zr4  1  0.850017  0.394783  0.676130  1
  Zr  Zr5  1  0.149983  0.605217  0.323870  1
  Mo  Mo6  1  0.000000  0.000000  0.000000  1
  O  O7  1  0.028944  0.682315  0.898668  1
  O  O8  1  0.689289  0.930727  0.056903  1
  O  O9  1  0.924812  0.083301  0.691225  1
  O  O10  1  0.971056  0.317685  0.101332  1
  O  O11  1  0.310711  0.069273  0.943097  1
  O  O12  1  0.075188  0.916699  0.308775  1
  O  O13  1  0.588022  0.185715  0.433754  1
  O  O14  1  0.174300  0.432416  0.575735  1
  O  O15  1  0.417921  0.582023  0.177437  1
  O  O16  1  0.411978  0.814285  0.566246  1
  O  O17  1  0.825700  0.567584  0.424265  1
  O  O18  1  0.582079  0.417977  0.822563  1
