# generated using pymatgen
data_La2Tb3RuRh
_symmetry_space_group_name_H-M   'P 1'
_cell_length_a   6.56378464
_cell_length_b   7.25217596
_cell_length_c   8.95080000
_cell_angle_alpha   96.16535763
_cell_angle_beta   111.50972821
_cell_angle_gamma   89.99999838
_symmetry_Int_Tables_number   1
_chemical_formula_structural   La2Tb3RuRh
_chemical_formula_sum   'La4 Tb6 Ru2 Rh2'
_cell_volume   393.74968644
_cell_formula_units_Z   2
loop_
 _symmetry_equiv_pos_site_id
 _symmetry_equiv_pos_as_xyz
  1  'x, y, z'
loop_
 _atom_site_type_symbol
 _atom_site_label
 _atom_site_symmetry_multiplicity
 _atom_site_fract_x
 _atom_site_fract_y
 _atom_site_fract_z
 _atom_site_occupancy
  La  La0  1  0.988632  0.913247  0.194164  1
  La  La1  1  0.794469  0.586753  0.805836  1
  La  La2  1  0.020897  0.092927  0.806697  1
  La  La3  1  0.214199  0.407073  0.193303  1
  Tb  Tb4  1  0.637531  0.815785  0.427821  1
  Tb  Tb5  1  0.209712  0.684215  0.572179  1
  Tb  Tb6  1  0.361527  0.185903  0.568501  1
  Tb  Tb7  1  0.793026  0.314097  0.431499  1
  Tb  Tb8  1  0.428889  0.750000  0.000000  1
  Tb  Tb9  1  0.571633  0.250000  0.000000  1
  Ru  Ru10  1  0.168689  0.420020  0.773231  1
  Ru  Ru11  1  0.395458  0.079980  0.226769  1
  Rh  Rh12  1  0.820332  0.577542  0.225329  1
  Rh  Rh13  1  0.595004  0.922458  0.774671  1
