# generated using pymatgen
data_Li3Lu4ZnPt4
_symmetry_space_group_name_H-M   'P 1'
_cell_length_a   3.94175700
_cell_length_b   6.93100242
_cell_length_c   8.31776848
_cell_angle_alpha   89.90783186
_cell_angle_beta   90.00000000
_cell_angle_gamma   90.00000000
_symmetry_Int_Tables_number   1
_chemical_formula_structural   Li3Lu4ZnPt4
_chemical_formula_sum   'Li3 Lu4 Zn1 Pt4'
_cell_volume   227.24386345
_cell_formula_units_Z   1
loop_
 _symmetry_equiv_pos_site_id
 _symmetry_equiv_pos_as_xyz
  1  'x, y, z'
loop_
 _atom_site_type_symbol
 _atom_site_label
 _atom_site_symmetry_multiplicity
 _atom_site_fract_x
 _atom_site_fract_y
 _atom_site_fract_z
 _atom_site_occupancy
  Li  Li0  1  0.250000  0.625293  0.559497  1
  Li  Li1  1  0.750000  0.374794  0.440807  1
  Li  Li2  1  0.750000  0.875698  0.057112  1
  Lu  Lu3  1  0.250000  0.549117  0.180625  1
  Lu  Lu4  1  0.750000  0.445808  0.823164  1
  Lu  Lu5  1  0.750000  0.953197  0.681235  1
  Lu  Lu6  1  0.250000  0.053079  0.318993  1
  Zn  Zn7  1  0.250000  0.121415  0.938962  1
  Pt  Pt8  1  0.250000  0.740488  0.874110  1
  Pt  Pt9  1  0.750000  0.256603  0.125838  1
  Pt  Pt10  1  0.750000  0.762324  0.372757  1
  Pt  Pt11  1  0.250000  0.242184  0.626899  1
