# generated using pymatgen
data_Pr2Al3(Ga2Ir)3
_symmetry_space_group_name_H-M   'P 1'
_cell_length_a   7.64605497
_cell_length_b   7.64713320
_cell_length_c   9.66300584
_cell_angle_alpha   90.08754883
_cell_angle_beta   89.96023901
_cell_angle_gamma   119.56398868
_symmetry_Int_Tables_number   1
_chemical_formula_structural   Pr2Al3(Ga2Ir)3
_chemical_formula_sum   'Pr4 Al6 Ga12 Ir6'
_cell_volume   491.43921483
_cell_formula_units_Z   2
loop_
 _symmetry_equiv_pos_site_id
 _symmetry_equiv_pos_as_xyz
  1  'x, y, z'
loop_
 _atom_site_type_symbol
 _atom_site_label
 _atom_site_symmetry_multiplicity
 _atom_site_fract_x
 _atom_site_fract_y
 _atom_site_fract_z
 _atom_site_occupancy
  Pr  Pr0  1  0.998876  0.667786  0.251434  1
  Pr  Pr1  1  0.001124  0.332214  0.748566  1
  Pr  Pr2  1  0.671161  0.999916  0.254906  1
  Pr  Pr3  1  0.328839  0.000084  0.745094  1
  Al  Al4  1  0.663921  0.995893  0.929385  1
  Al  Al5  1  0.336079  0.004107  0.070615  1
  Al  Al6  1  0.333314  0.333420  0.547614  1
  Al  Al7  1  0.666686  0.666580  0.452386  1
  Al  Al8  1  0.666979  0.666327  0.048988  1
  Al  Al9  1  0.333021  0.333673  0.951012  1
  Ga  Ga10  1  0.129579  0.126833  0.249244  1
  Ga  Ga11  1  0.870421  0.873167  0.750756  1
  Ga  Ga12  1  0.000280  0.333078  0.075600  1
  Ga  Ga13  1  0.999720  0.666922  0.924400  1
  Ga  Ga14  1  0.995980  0.664351  0.577278  1
  Ga  Ga15  1  0.335367  0.003202  0.420559  1
  Ga  Ga16  1  0.004020  0.335649  0.422722  1
  Ga  Ga17  1  0.664633  0.996798  0.579441  1
  Ga  Ga18  1  0.344811  0.547808  0.249817  1
  Ga  Ga19  1  0.655189  0.452192  0.750183  1
  Ga  Ga20  1  0.545947  0.343722  0.249288  1
  Ga  Ga21  1  0.454053  0.656278  0.750712  1
  Ir  Ir22  1  0.665571  0.326853  0.999338  1
  Ir  Ir23  1  0.334429  0.673147  0.000662  1
  Ir  Ir24  1  0.331658  0.667822  0.500227  1
  Ir  Ir25  1  0.668342  0.332178  0.499773  1
  Ir  Ir26  1  0.000000  0.000000  0.000000  1
  Ir  Ir27  1  0.000000  0.000000  0.500000  1
