# generated using pymatgen
data_LuThSc2Ga18PdRh5
_symmetry_space_group_name_H-M   'P 1'
_cell_length_a   7.54212500
_cell_length_b   7.55107743
_cell_length_c   9.43811400
_cell_angle_alpha   90.00000000
_cell_angle_beta   90.00000000
_cell_angle_gamma   119.68210496
_symmetry_Int_Tables_number   1
_chemical_formula_structural   LuThSc2Ga18PdRh5
_chemical_formula_sum   'Lu1 Th1 Sc2 Ga18 Pd1 Rh5'
_cell_volume   466.98269912
_cell_formula_units_Z   1
loop_
 _symmetry_equiv_pos_site_id
 _symmetry_equiv_pos_as_xyz
  1  'x, y, z'
loop_
 _atom_site_type_symbol
 _atom_site_label
 _atom_site_symmetry_multiplicity
 _atom_site_fract_x
 _atom_site_fract_y
 _atom_site_fract_z
 _atom_site_occupancy
  Lu  Lu0  1  0.671495  0.997640  0.250553  1
  Th  Th1  1  0.996855  0.669331  0.250869  1
  Sc  Sc2  1  0.000683  0.329665  0.749903  1
  Sc  Sc3  1  0.330294  0.003335  0.750017  1
  Ga  Ga4  1  0.343967  0.548199  0.250183  1
  Ga  Ga5  1  0.659727  0.448993  0.747370  1
  Ga  Ga6  1  0.540408  0.334087  0.252329  1
  Ga  Ga7  1  0.446289  0.661955  0.749424  1
  Ga  Ga8  1  0.003186  0.328273  0.073942  1
  Ga  Ga9  1  0.007750  0.667853  0.906632  1
  Ga  Ga10  1  0.005452  0.664999  0.592122  1
  Ga  Ga11  1  0.341899  0.005290  0.428307  1
  Ga  Ga12  1  0.999888  0.328098  0.428170  1
  Ga  Ga13  1  0.665171  0.005903  0.586516  1
  Ga  Ga14  1  0.664875  0.002163  0.912293  1
  Ga  Ga15  1  0.338760  0.002572  0.073305  1
  Ga  Ga16  1  0.325941  0.326240  0.576343  1
  Ga  Ga17  1  0.661436  0.667418  0.441998  1
  Ga  Ga18  1  0.661198  0.670118  0.061150  1
  Ga  Ga19  1  0.323319  0.326465  0.920608  1
  Ga  Ga20  1  0.130182  0.132216  0.250122  1
  Ga  Ga21  1  0.879278  0.880827  0.749492  1
  Pd  Pd22  1  0.674255  0.332147  0.999511  1
  Rh  Rh23  1  0.326862  0.670275  0.999045  1
  Rh  Rh24  1  0.326684  0.671365  0.500381  1
  Rh  Rh25  1  0.674987  0.331848  0.499890  1
  Rh  Rh26  1  0.999506  0.996093  0.000018  1
  Rh  Rh27  1  0.999658  0.996630  0.499506  1
