# generated using pymatgen
data_Ho2Si5Pt2Rh
_symmetry_space_group_name_H-M   'P 1'
_cell_length_a   8.14051427
_cell_length_b   8.14051410
_cell_length_c   8.14051438
_cell_angle_alpha   136.95080284
_cell_angle_beta   104.37940083
_cell_angle_gamma   91.19702451
_symmetry_Int_Tables_number   1
_chemical_formula_structural   Ho2Si5Pt2Rh
_chemical_formula_sum   'Ho4 Si10 Pt4 Rh2'
_cell_volume   339.59389373
_cell_formula_units_Z   2
loop_
 _symmetry_equiv_pos_site_id
 _symmetry_equiv_pos_as_xyz
  1  'x, y, z'
loop_
 _atom_site_type_symbol
 _atom_site_label
 _atom_site_symmetry_multiplicity
 _atom_site_fract_x
 _atom_site_fract_y
 _atom_site_fract_z
 _atom_site_occupancy
  Ho  Ho0  1  0.638833  0.869168  0.769666  1
  Ho  Ho1  1  0.361167  0.130832  0.230334  1
  Ho  Ho2  1  0.099501  0.369168  0.730334  1
  Ho  Ho3  1  0.900499  0.630832  0.269666  1
  Si  Si4  1  0.276323  0.026323  0.750000  1
  Si  Si5  1  0.723677  0.973677  0.250000  1
  Si  Si6  1  0.723677  0.473677  0.750000  1
  Si  Si7  1  0.276323  0.526323  0.250000  1
  Si  Si8  1  0.453577  0.604923  0.848654  1
  Si  Si9  1  0.546423  0.395077  0.151346  1
  Si  Si10  1  0.756269  0.104923  0.651346  1
  Si  Si11  1  0.243731  0.895077  0.348654  1
  Si  Si12  1  0.000000  0.750000  0.750000  1
  Si  Si13  1  0.000000  0.250000  0.250000  1
  Pt  Pt14  1  0.252606  0.638912  0.613695  1
  Pt  Pt15  1  0.747394  0.361088  0.386305  1
  Pt  Pt16  1  0.025216  0.138912  0.886305  1
  Pt  Pt17  1  0.974784  0.861088  0.113695  1
  Rh  Rh18  1  0.500000  0.750000  0.250000  1
  Rh  Rh19  1  0.500000  0.250000  0.750000  1
