# generated using pymatgen
data_Pr2Sm2Ga18(PdRh)3
_symmetry_space_group_name_H-M   'P 1'
_cell_length_a   7.69385340
_cell_length_b   7.69563223
_cell_length_c   9.63843712
_cell_angle_alpha   89.98917853
_cell_angle_beta   89.96019945
_cell_angle_gamma   119.79812672
_symmetry_Int_Tables_number   1
_chemical_formula_structural   Pr2Sm2Ga18(PdRh)3
_chemical_formula_sum   'Pr2 Sm2 Ga18 Pd3 Rh3'
_cell_volume   495.22793189
_cell_formula_units_Z   1
loop_
 _symmetry_equiv_pos_site_id
 _symmetry_equiv_pos_as_xyz
  1  'x, y, z'
loop_
 _atom_site_type_symbol
 _atom_site_label
 _atom_site_symmetry_multiplicity
 _atom_site_fract_x
 _atom_site_fract_y
 _atom_site_fract_z
 _atom_site_occupancy
  Pr  Pr0  1  0.997448  0.668309  0.249636  1
  Pr  Pr1  1  0.003390  0.332465  0.750469  1
  Sm  Sm2  1  0.667766  0.996633  0.249625  1
  Sm  Sm3  1  0.331415  0.002552  0.750325  1
  Ga  Ga4  1  0.126159  0.127486  0.250246  1
  Ga  Ga5  1  0.873002  0.873348  0.749769  1
  Ga  Ga6  1  0.001199  0.330257  0.079019  1
  Ga  Ga7  1  0.998806  0.669791  0.920598  1
  Ga  Ga8  1  0.996052  0.666459  0.577723  1
  Ga  Ga9  1  0.335126  0.004678  0.422858  1
  Ga  Ga10  1  0.996882  0.329970  0.422725  1
  Ga  Ga11  1  0.668355  0.002277  0.576650  1
  Ga  Ga12  1  0.668163  0.997993  0.921575  1
  Ga  Ga13  1  0.331847  0.002043  0.078767  1
  Ga  Ga14  1  0.333645  0.329990  0.561276  1
  Ga  Ga15  1  0.669342  0.667044  0.438752  1
  Ga  Ga16  1  0.668263  0.668957  0.063360  1
  Ga  Ga17  1  0.331796  0.330965  0.936660  1
  Ga  Ga18  1  0.339892  0.542773  0.250556  1
  Ga  Ga19  1  0.659834  0.455184  0.746865  1
  Ga  Ga20  1  0.544080  0.339024  0.253122  1
  Ga  Ga21  1  0.458015  0.661277  0.749411  1
  Pd  Pd22  1  0.670625  0.328853  0.000011  1
  Pd  Pd23  1  0.329269  0.671359  0.999978  1
  Pd  Pd24  1  0.328744  0.671821  0.500008  1
  Rh  Rh25  1  0.670578  0.328714  0.499986  1
  Rh  Rh26  1  0.000245  0.999803  0.000012  1
  Rh  Rh27  1  0.000062  0.999975  0.500019  1
