# generated using pymatgen
data_Pa7Mn3
_symmetry_space_group_name_H-M   'P 1'
_cell_length_a   9.14100400
_cell_length_b   9.14100478
_cell_length_c   5.80344600
_cell_angle_alpha   90.00000000
_cell_angle_beta   90.00000000
_cell_angle_gamma   120.00000443
_symmetry_Int_Tables_number   1
_chemical_formula_structural   Pa7Mn3
_chemical_formula_sum   'Pa14 Mn6'
_cell_volume   419.95658453
_cell_formula_units_Z   2
loop_
 _symmetry_equiv_pos_site_id
 _symmetry_equiv_pos_as_xyz
  1  'x, y, z'
loop_
 _atom_site_type_symbol
 _atom_site_label
 _atom_site_symmetry_multiplicity
 _atom_site_fract_x
 _atom_site_fract_y
 _atom_site_fract_z
 _atom_site_occupancy
  Pa  Pa0  1  0.333333  0.666667  0.078394  1
  Pa  Pa1  1  0.543036  0.086071  0.052474  1
  Pa  Pa2  1  0.543036  0.456964  0.052474  1
  Pa  Pa3  1  0.913929  0.456964  0.052474  1
  Pa  Pa4  1  0.126162  0.252327  0.275651  1
  Pa  Pa5  1  0.126162  0.873837  0.275651  1
  Pa  Pa6  1  0.747673  0.873837  0.275651  1
  Pa  Pa7  1  0.666667  0.333333  0.578394  1
  Pa  Pa8  1  0.086070  0.543036  0.552474  1
  Pa  Pa9  1  0.456965  0.543036  0.552474  1
  Pa  Pa10  1  0.456964  0.913929  0.552474  1
  Pa  Pa11  1  0.252326  0.126162  0.775651  1
  Pa  Pa12  1  0.873838  0.126162  0.775651  1
  Pa  Pa13  1  0.873838  0.747673  0.775651  1
  Mn  Mn14  1  0.360986  0.180493  0.307732  1
  Mn  Mn15  1  0.819507  0.180493  0.307732  1
  Mn  Mn16  1  0.819507  0.639013  0.307732  1
  Mn  Mn17  1  0.180493  0.360987  0.807731  1
  Mn  Mn18  1  0.180493  0.819506  0.807731  1
  Mn  Mn19  1  0.639014  0.819506  0.807731  1
