# generated using pymatgen
data_K3RbCrSe4
_symmetry_space_group_name_H-M   'P 1'
_cell_length_a   8.43919000
_cell_length_b   10.00941500
_cell_length_c   15.15633500
_cell_angle_alpha   90.00000000
_cell_angle_beta   90.00000000
_cell_angle_gamma   90.00000000
_symmetry_Int_Tables_number   1
_chemical_formula_structural   K3RbCrSe4
_chemical_formula_sum   'K12 Rb4 Cr4 Se16'
_cell_volume   1280.27615389
_cell_formula_units_Z   4
loop_
 _symmetry_equiv_pos_site_id
 _symmetry_equiv_pos_as_xyz
  1  'x, y, z'
loop_
 _atom_site_type_symbol
 _atom_site_label
 _atom_site_symmetry_multiplicity
 _atom_site_fract_x
 _atom_site_fract_y
 _atom_site_fract_z
 _atom_site_occupancy
  K  K0  1  0.978610  0.750000  0.428394  1
  K  K1  1  0.478610  0.250000  0.071606  1
  K  K2  1  0.021390  0.250000  0.571606  1
  K  K3  1  0.521390  0.750000  0.928394  1
  K  K4  1  0.839063  0.052272  0.272978  1
  K  K5  1  0.339063  0.947728  0.227022  1
  K  K6  1  0.160937  0.552272  0.727022  1
  K  K7  1  0.660937  0.447728  0.772978  1
  K  K8  1  0.160937  0.947728  0.727022  1
  K  K9  1  0.660937  0.052272  0.772978  1
  K  K10  1  0.839063  0.447728  0.272978  1
  K  K11  1  0.339063  0.552272  0.227022  1
  Rb  Rb12  1  0.000000  0.000000  0.000000  1
  Rb  Rb13  1  0.500000  0.000000  0.500000  1
  Rb  Rb14  1  0.000000  0.500000  0.000000  1
  Rb  Rb15  1  0.500000  0.500000  0.500000  1
  Cr  Cr16  1  0.765254  0.750000  0.669806  1
  Cr  Cr17  1  0.234746  0.250000  0.330194  1
  Cr  Cr18  1  0.734746  0.750000  0.169806  1
  Cr  Cr19  1  0.265254  0.250000  0.830194  1
  Se  Se20  1  0.987286  0.250000  0.821070  1
  Se  Se21  1  0.512714  0.250000  0.321070  1
  Se  Se22  1  0.487286  0.750000  0.678930  1
  Se  Se23  1  0.012714  0.750000  0.178930  1
  Se  Se24  1  0.646690  0.559633  0.095833  1
  Se  Se25  1  0.146690  0.440367  0.404167  1
  Se  Se26  1  0.353310  0.059633  0.904167  1
  Se  Se27  1  0.853310  0.940367  0.595833  1
  Se  Se28  1  0.353310  0.440367  0.904167  1
  Se  Se29  1  0.853310  0.559633  0.595833  1
  Se  Se30  1  0.646690  0.940367  0.095833  1
  Se  Se31  1  0.146690  0.059633  0.404167  1
  Se  Se32  1  0.630030  0.750000  0.314579  1
  Se  Se33  1  0.130030  0.250000  0.185421  1
  Se  Se34  1  0.369970  0.250000  0.685421  1
  Se  Se35  1  0.869970  0.750000  0.814579  1
