# generated using pymatgen
data_Hf4Mn6SiOs
_symmetry_space_group_name_H-M   'P 1'
_cell_length_a   4.93174400
_cell_length_b   4.93174436
_cell_length_c   8.22385800
_cell_angle_alpha   90.00000000
_cell_angle_beta   90.00000000
_cell_angle_gamma   119.99999761
_symmetry_Int_Tables_number   1
_chemical_formula_structural   Hf4Mn6SiOs
_chemical_formula_sum   'Hf4 Mn6 Si1 Os1'
_cell_volume   173.22370612
_cell_formula_units_Z   1
loop_
 _symmetry_equiv_pos_site_id
 _symmetry_equiv_pos_as_xyz
  1  'x, y, z'
loop_
 _atom_site_type_symbol
 _atom_site_label
 _atom_site_symmetry_multiplicity
 _atom_site_fract_x
 _atom_site_fract_y
 _atom_site_fract_z
 _atom_site_occupancy
  Hf  Hf0  1  0.333333  0.666667  0.568018  1
  Hf  Hf1  1  0.666667  0.333333  0.431982  1
  Hf  Hf2  1  0.666667  0.333333  0.063848  1
  Hf  Hf3  1  0.333333  0.666667  0.936152  1
  Mn  Mn4  1  0.174095  0.348189  0.254943  1
  Mn  Mn5  1  0.825905  0.651811  0.745057  1
  Mn  Mn6  1  0.651811  0.825905  0.254943  1
  Mn  Mn7  1  0.348189  0.174095  0.745057  1
  Mn  Mn8  1  0.174095  0.825905  0.254943  1
  Mn  Mn9  1  0.825905  0.174095  0.745057  1
  Si  Si10  1  0.000000  0.000000  0.500000  1
  Os  Os11  1  0.000000  0.000000  0.000000  1
