# generated using pymatgen
data_Y5Co16(As4Ru)3
_symmetry_space_group_name_H-M   'P 1'
_cell_length_a   12.51244500
_cell_length_b   12.51244418
_cell_length_c   3.84766600
_cell_angle_alpha   90.00000000
_cell_angle_beta   90.00000000
_cell_angle_gamma   120.00000481
_symmetry_Int_Tables_number   1
_chemical_formula_structural   Y5Co16(As4Ru)3
_chemical_formula_sum   'Y5 Co16 As12 Ru3'
_cell_volume   521.68975844
_cell_formula_units_Z   1
loop_
 _symmetry_equiv_pos_site_id
 _symmetry_equiv_pos_as_xyz
  1  'x, y, z'
loop_
 _atom_site_type_symbol
 _atom_site_label
 _atom_site_symmetry_multiplicity
 _atom_site_fract_x
 _atom_site_fract_y
 _atom_site_fract_z
 _atom_site_occupancy
  Y  Y0  1  0.185781  0.185781  0.500000  1
  Y  Y1  1  0.814219  0.000000  0.500000  1
  Y  Y2  1  0.000000  0.814219  0.500000  1
  Y  Y3  1  0.333333  0.666667  0.000000  1
  Y  Y4  1  0.666667  0.333333  0.000000  1
  Co  Co5  1  0.716840  0.716840  0.500000  1
  Co  Co6  1  0.283160  0.000000  0.500000  1
  Co  Co7  1  0.000000  0.283160  0.500000  1
  Co  Co8  1  0.179636  0.376451  0.000000  1
  Co  Co9  1  0.623549  0.803184  0.000000  1
  Co  Co10  1  0.196816  0.820364  0.000000  1
  Co  Co11  1  0.803184  0.623549  0.000000  1
  Co  Co12  1  0.820364  0.196816  0.000000  1
  Co  Co13  1  0.376451  0.179636  0.000000  1
  Co  Co14  1  0.357704  0.481885  0.500000  1
  Co  Co15  1  0.518115  0.875820  0.500000  1
  Co  Co16  1  0.124180  0.642296  0.500000  1
  Co  Co17  1  0.875820  0.518115  0.500000  1
  Co  Co18  1  0.642296  0.124180  0.500000  1
  Co  Co19  1  0.481885  0.357704  0.500000  1
  Co  Co20  1  0.000000  0.000000  0.000000  1
  As  As21  1  0.820390  0.820390  0.000000  1
  As  As22  1  0.179610  0.000000  0.000000  1
  As  As23  1  0.000000  0.179610  0.000000  1
  As  As24  1  0.166381  0.480741  0.500000  1
  As  As25  1  0.519259  0.685641  0.500000  1
  As  As26  1  0.314359  0.833619  0.500000  1
  As  As27  1  0.685641  0.519259  0.500000  1
  As  As28  1  0.833619  0.314359  0.500000  1
  As  As29  1  0.480741  0.166381  0.500000  1
  As  As30  1  0.363587  0.363587  0.000000  1
  As  As31  1  0.636413  0.000000  0.000000  1
  As  As32  1  0.000000  0.636413  0.000000  1
  Ru  Ru33  1  0.557309  0.557309  0.000000  1
  Ru  Ru34  1  0.442691  0.000000  0.000000  1
  Ru  Ru35  1  0.000000  0.442691  0.000000  1
