# generated using pymatgen
data_Yb2HfU5H24
_symmetry_space_group_name_H-M   'P 1'
_cell_length_a   6.52506600
_cell_length_b   6.51683100
_cell_length_c   6.54349400
_cell_angle_alpha   90.00000000
_cell_angle_beta   90.00000000
_cell_angle_gamma   90.00000000
_symmetry_Int_Tables_number   1
_chemical_formula_structural   Yb2HfU5H24
_chemical_formula_sum   'Yb2 Hf1 U5 H24'
_cell_volume   278.24737510
_cell_formula_units_Z   1
loop_
 _symmetry_equiv_pos_site_id
 _symmetry_equiv_pos_as_xyz
  1  'x, y, z'
loop_
 _atom_site_type_symbol
 _atom_site_label
 _atom_site_symmetry_multiplicity
 _atom_site_fract_x
 _atom_site_fract_y
 _atom_site_fract_z
 _atom_site_occupancy
  Yb  Yb0  1  0.246950  0.000000  0.500000  1
  Yb  Yb1  1  0.753050  0.000000  0.500000  1
  Hf  Hf2  1  0.000000  0.000000  0.000000  1
  U  U3  1  0.500000  0.500000  0.500000  1
  U  U4  1  0.000000  0.500000  0.248044  1
  U  U5  1  0.000000  0.500000  0.751956  1
  U  U6  1  0.500000  0.755568  0.000000  1
  U  U7  1  0.500000  0.244432  0.000000  1
  H  H8  1  0.000000  0.156053  0.275105  1
  H  H9  1  0.500000  0.203081  0.659881  1
  H  H10  1  0.500000  0.796919  0.340119  1
  H  H11  1  0.812612  0.652980  0.500000  1
  H  H12  1  0.187388  0.652980  0.500000  1
  H  H13  1  0.343635  0.500000  0.806579  1
  H  H14  1  0.656365  0.500000  0.806579  1
  H  H15  1  0.294190  0.000000  0.145291  1
  H  H16  1  0.150297  0.289736  0.000000  1
  H  H17  1  0.849703  0.710264  0.000000  1
  H  H18  1  0.294190  0.000000  0.854709  1
  H  H19  1  0.849703  0.289736  0.000000  1
  H  H20  1  0.705810  0.000000  0.145291  1
  H  H21  1  0.705810  0.000000  0.854709  1
  H  H22  1  0.150297  0.710264  0.000000  1
  H  H23  1  0.000000  0.843947  0.724895  1
  H  H24  1  0.000000  0.156053  0.724895  1
  H  H25  1  0.000000  0.843947  0.275105  1
  H  H26  1  0.656365  0.500000  0.193421  1
  H  H27  1  0.343635  0.500000  0.193421  1
  H  H28  1  0.812612  0.347020  0.500000  1
  H  H29  1  0.187388  0.347020  0.500000  1
  H  H30  1  0.500000  0.796919  0.659881  1
  H  H31  1  0.500000  0.203081  0.340119  1
