# generated using pymatgen
data_Na3Dy(PO4)2
_symmetry_space_group_name_H-M   'P 1'
_cell_length_a   5.29513698
_cell_length_b   5.29513674
_cell_length_c   7.15253992
_cell_angle_alpha   90.03114152
_cell_angle_beta   90.03114442
_cell_angle_gamma   64.80164615
_symmetry_Int_Tables_number   1
_chemical_formula_structural   Na3Dy(PO4)2
_chemical_formula_sum   'Na3 Dy1 P2 O8'
_cell_volume   181.46213969
_cell_formula_units_Z   1
loop_
 _symmetry_equiv_pos_site_id
 _symmetry_equiv_pos_as_xyz
  1  'x, y, z'
loop_
 _atom_site_type_symbol
 _atom_site_label
 _atom_site_symmetry_multiplicity
 _atom_site_fract_x
 _atom_site_fract_y
 _atom_site_fract_z
 _atom_site_occupancy
  Na  Na0  1  0.685016  0.685016  0.287435  1
  Na  Na1  1  0.000000  0.000000  0.500000  1
  Na  Na2  1  0.314984  0.314984  0.712565  1
  Dy  Dy3  1  0.000000  0.000000  0.000000  1
  P  P4  1  0.652897  0.652897  0.771222  1
  P  P5  1  0.347103  0.347103  0.228778  1
  O  O6  1  0.247878  0.247878  0.402238  1
  O  O7  1  0.752122  0.752122  0.597762  1
  O  O8  1  0.228705  0.675332  0.226949  1
  O  O9  1  0.324668  0.771295  0.773051  1
  O  O10  1  0.771295  0.324668  0.773051  1
  O  O11  1  0.675332  0.228705  0.226949  1
  O  O12  1  0.249094  0.249094  0.049146  1
  O  O13  1  0.750906  0.750906  0.950854  1
