# generated using pymatgen
data_Ca12Sn8Ir7Rh
_symmetry_space_group_name_H-M   'P 1'
_cell_length_a   5.94443112
_cell_length_b   8.18982946
_cell_length_c   14.16337100
_cell_angle_alpha   89.99234641
_cell_angle_beta   90.21049707
_cell_angle_gamma   90.18653268
_symmetry_Int_Tables_number   1
_chemical_formula_structural   Ca12Sn8Ir7Rh
_chemical_formula_sum   'Ca12 Sn8 Ir7 Rh1'
_cell_volume   689.51950047
_cell_formula_units_Z   1
loop_
 _symmetry_equiv_pos_site_id
 _symmetry_equiv_pos_as_xyz
  1  'x, y, z'
loop_
 _atom_site_type_symbol
 _atom_site_label
 _atom_site_symmetry_multiplicity
 _atom_site_fract_x
 _atom_site_fract_y
 _atom_site_fract_z
 _atom_site_occupancy
  Ca  Ca0  1  0.154939  0.397236  0.592835  1
  Ca  Ca1  1  0.846573  0.607518  0.092290  1
  Ca  Ca2  1  0.153306  0.103883  0.407709  1
  Ca  Ca3  1  0.843878  0.897840  0.906551  1
  Ca  Ca4  1  0.844230  0.601915  0.407205  1
  Ca  Ca5  1  0.158285  0.396346  0.906443  1
  Ca  Ca6  1  0.844596  0.896062  0.592580  1
  Ca  Ca7  1  0.155364  0.099443  0.093083  1
  Ca  Ca8  1  0.618567  0.248277  0.749094  1
  Ca  Ca9  1  0.379925  0.751848  0.252559  1
  Ca  Ca10  1  0.619072  0.247899  0.252131  1
  Ca  Ca11  1  0.381314  0.749785  0.749304  1
  Sn  Sn12  1  0.631495  0.250254  0.500166  1
  Sn  Sn13  1  0.367302  0.750340  0.998642  1
  Sn  Sn14  1  0.366404  0.748969  0.500343  1
  Sn  Sn15  1  0.635427  0.251238  0.000723  1
  Sn  Sn16  1  0.127313  0.093296  0.749371  1
  Sn  Sn17  1  0.871233  0.905338  0.250696  1
  Sn  Sn18  1  0.128845  0.405339  0.248631  1
  Sn  Sn19  1  0.871563  0.593822  0.750429  1
  Ir  Ir20  1  0.361226  0.035032  0.592371  1
  Ir  Ir21  1  0.637416  0.965152  0.092774  1
  Ir  Ir22  1  0.360351  0.464127  0.406794  1
  Ir  Ir23  1  0.638995  0.535699  0.907687  1
  Ir  Ir24  1  0.637687  0.964293  0.407886  1
  Ir  Ir25  1  0.362655  0.038217  0.907170  1
  Ir  Ir26  1  0.637965  0.535164  0.593019  1
  Rh  Rh27  1  0.364072  0.465671  0.091515  1
