# generated using pymatgen
data_Nd6Zr8Al8Os7
_symmetry_space_group_name_H-M   'P 1'
_cell_length_a   9.31584488
_cell_length_b   9.31584593
_cell_length_c   9.31584500
_cell_angle_alpha   59.99999974
_cell_angle_beta   59.99999602
_cell_angle_gamma   59.99999287
_symmetry_Int_Tables_number   1
_chemical_formula_structural   Nd6Zr8Al8Os7
_chemical_formula_sum   'Nd6 Zr8 Al8 Os7'
_cell_volume   571.67837513
_cell_formula_units_Z   1
loop_
 _symmetry_equiv_pos_site_id
 _symmetry_equiv_pos_as_xyz
  1  'x, y, z'
loop_
 _atom_site_type_symbol
 _atom_site_label
 _atom_site_symmetry_multiplicity
 _atom_site_fract_x
 _atom_site_fract_y
 _atom_site_fract_z
 _atom_site_occupancy
  Nd  Nd0  1  0.691589  0.691589  0.308411  1
  Nd  Nd1  1  0.308411  0.691589  0.308411  1
  Nd  Nd2  1  0.691589  0.308411  0.308411  1
  Nd  Nd3  1  0.308411  0.308411  0.691589  1
  Nd  Nd4  1  0.691589  0.308411  0.691589  1
  Nd  Nd5  1  0.308411  0.691589  0.691589  1
  Zr  Zr6  1  0.877138  0.877138  0.368587  1
  Zr  Zr7  1  0.877138  0.368587  0.877138  1
  Zr  Zr8  1  0.368587  0.877138  0.877138  1
  Zr  Zr9  1  0.877138  0.877138  0.877138  1
  Zr  Zr10  1  0.122862  0.122862  0.631413  1
  Zr  Zr11  1  0.122862  0.631413  0.122862  1
  Zr  Zr12  1  0.631413  0.122862  0.122862  1
  Zr  Zr13  1  0.122862  0.122862  0.122862  1
  Al  Al14  1  0.668609  0.668609  0.994174  1
  Al  Al15  1  0.668609  0.994174  0.668609  1
  Al  Al16  1  0.994174  0.668609  0.668609  1
  Al  Al17  1  0.668609  0.668609  0.668609  1
  Al  Al18  1  0.331391  0.331391  0.005826  1
  Al  Al19  1  0.331391  0.005826  0.331391  1
  Al  Al20  1  0.005826  0.331391  0.331391  1
  Al  Al21  1  0.331391  0.331391  0.331391  1
  Os  Os22  1  0.000000  0.000000  0.000000  1
  Os  Os23  1  0.000000  0.000000  0.500000  1
  Os  Os24  1  0.500000  0.000000  0.500000  1
  Os  Os25  1  0.000000  0.500000  0.500000  1
  Os  Os26  1  0.500000  0.500000  0.000000  1
  Os  Os27  1  0.000000  0.500000  0.000000  1
  Os  Os28  1  0.500000  0.000000  0.000000  1
