# generated using pymatgen
data_Sr4Ir6O19
_symmetry_space_group_name_H-M   'P 1'
_cell_length_a   8.13567577
_cell_length_b   8.13567575
_cell_length_c   8.13567500
_cell_angle_alpha   109.47121378
_cell_angle_beta   109.47121374
_cell_angle_gamma   109.47122405
_symmetry_Int_Tables_number   1
_chemical_formula_structural   Sr4Ir6O19
_chemical_formula_sum   'Sr4 Ir6 O19'
_cell_volume   414.53291430
_cell_formula_units_Z   1
loop_
 _symmetry_equiv_pos_site_id
 _symmetry_equiv_pos_as_xyz
  1  'x, y, z'
loop_
 _atom_site_type_symbol
 _atom_site_label
 _atom_site_symmetry_multiplicity
 _atom_site_fract_x
 _atom_site_fract_y
 _atom_site_fract_z
 _atom_site_occupancy
  Sr  Sr0  1  0.000000  0.000000  0.294621  1
  Sr  Sr1  1  0.000000  0.294621  0.000000  1
  Sr  Sr2  1  0.705379  0.705379  0.705379  1
  Sr  Sr3  1  0.294621  0.000000  0.000000  1
  Ir  Ir4  1  0.340174  0.500000  0.840174  1
  Ir  Ir5  1  0.840174  0.340174  0.500000  1
  Ir  Ir6  1  0.500000  0.159826  0.659826  1
  Ir  Ir7  1  0.159826  0.659826  0.500000  1
  Ir  Ir8  1  0.500000  0.840174  0.340174  1
  Ir  Ir9  1  0.659826  0.500000  0.159826  1
  O  O10  1  0.357066  0.000000  0.357066  1
  O  O11  1  0.357066  0.357066  0.000000  1
  O  O12  1  0.000000  0.642934  0.642934  1
  O  O13  1  0.642934  0.642934  0.000000  1
  O  O14  1  0.000000  0.357066  0.357066  1
  O  O15  1  0.642934  0.000000  0.642934  1
  O  O16  1  0.000000  0.000000  0.000000  1
  O  O17  1  0.341932  0.293970  0.635448  1
  O  O18  1  0.047962  0.341478  0.706030  1
  O  O19  1  0.706483  0.364552  0.658522  1
  O  O20  1  0.364552  0.658522  0.706483  1
  O  O21  1  0.293517  0.952038  0.658068  1
  O  O22  1  0.635448  0.341932  0.293970  1
  O  O23  1  0.293970  0.635448  0.341932  1
  O  O24  1  0.706030  0.047962  0.341478  1
  O  O25  1  0.952038  0.658068  0.293517  1
  O  O26  1  0.658522  0.706483  0.364552  1
  O  O27  1  0.658068  0.293517  0.952038  1
  O  O28  1  0.341478  0.706030  0.047962  1
