# generated using pymatgen
data_V3Re2Si2W
_symmetry_space_group_name_H-M   'P 1'
_cell_length_a   4.78093414
_cell_length_b   4.78093341
_cell_length_c   4.77843696
_cell_angle_alpha   90.01315690
_cell_angle_beta   89.98682506
_cell_angle_gamma   90.10653054
_symmetry_Int_Tables_number   1
_chemical_formula_structural   V3Re2Si2W
_chemical_formula_sum   'V3 Re2 Si2 W1'
_cell_volume   109.22210526
_cell_formula_units_Z   1
loop_
 _symmetry_equiv_pos_site_id
 _symmetry_equiv_pos_as_xyz
  1  'x, y, z'
loop_
 _atom_site_type_symbol
 _atom_site_label
 _atom_site_symmetry_multiplicity
 _atom_site_fract_x
 _atom_site_fract_y
 _atom_site_fract_z
 _atom_site_occupancy
  V  V0  1  0.500731  0.248650  0.999108  1
  V  V1  1  0.748650  0.000731  0.500892  1
  V  V2  1  0.999813  0.499813  0.250000  1
  Re  Re3  1  0.501779  0.748594  0.000016  1
  Re  Re4  1  0.248594  0.001779  0.499984  1
  Si  Si5  1  0.505492  0.494847  0.493818  1
  Si  Si6  1  0.994847  0.005492  0.006182  1
  W  W7  1  0.000093  0.500093  0.750000  1
