# generated using pymatgen
data_Y4ScRh3
_symmetry_space_group_name_H-M   'P 1'
_cell_length_a   10.83819900
_cell_length_b   10.83819900
_cell_length_c   6.27029300
_cell_angle_alpha   90.00000000
_cell_angle_beta   90.00000000
_cell_angle_gamma   90.00000000
_symmetry_Int_Tables_number   1
_chemical_formula_structural   Y4ScRh3
_chemical_formula_sum   'Y16 Sc4 Rh12'
_cell_volume   736.54973363
_cell_formula_units_Z   4
loop_
 _symmetry_equiv_pos_site_id
 _symmetry_equiv_pos_as_xyz
  1  'x, y, z'
loop_
 _atom_site_type_symbol
 _atom_site_label
 _atom_site_symmetry_multiplicity
 _atom_site_fract_x
 _atom_site_fract_y
 _atom_site_fract_z
 _atom_site_occupancy
  Y  Y0  1  0.287239  0.086634  0.378272  1
  Y  Y1  1  0.287239  0.913366  0.878272  1
  Y  Y2  1  0.712761  0.086634  0.878272  1
  Y  Y3  1  0.712761  0.913366  0.378272  1
  Y  Y4  1  0.586634  0.787239  0.878272  1
  Y  Y5  1  0.586634  0.212761  0.378272  1
  Y  Y6  1  0.413366  0.787239  0.378272  1
  Y  Y7  1  0.413366  0.212761  0.878272  1
  Y  Y8  1  0.212761  0.413366  0.621728  1
  Y  Y9  1  0.212761  0.586634  0.121728  1
  Y  Y10  1  0.787239  0.413366  0.121728  1
  Y  Y11  1  0.787239  0.586634  0.621728  1
  Y  Y12  1  0.913366  0.712761  0.121728  1
  Y  Y13  1  0.913366  0.287239  0.621728  1
  Y  Y14  1  0.086634  0.712761  0.621728  1
  Y  Y15  1  0.086634  0.287239  0.121728  1
  Sc  Sc16  1  0.000000  0.000000  0.500000  1
  Sc  Sc17  1  0.000000  0.000000  0.000000  1
  Sc  Sc18  1  0.500000  0.500000  0.000000  1
  Sc  Sc19  1  0.500000  0.500000  0.500000  1
  Rh  Rh20  1  0.853480  0.146520  0.250000  1
  Rh  Rh21  1  0.853480  0.853480  0.750000  1
  Rh  Rh22  1  0.146520  0.146520  0.750000  1
  Rh  Rh23  1  0.146520  0.853480  0.250000  1
  Rh  Rh24  1  0.646520  0.353480  0.750000  1
  Rh  Rh25  1  0.646520  0.646520  0.250000  1
  Rh  Rh26  1  0.353480  0.353480  0.250000  1
  Rh  Rh27  1  0.353480  0.646520  0.750000  1
  Rh  Rh28  1  0.500000  0.000000  0.124545  1
  Rh  Rh29  1  0.500000  0.000000  0.624545  1
  Rh  Rh30  1  0.000000  0.500000  0.875455  1
  Rh  Rh31  1  0.000000  0.500000  0.375455  1
