# generated using pymatgen
data_Cs8La3CeI20
_symmetry_space_group_name_H-M   'P 1'
_cell_length_a   9.87207156
_cell_length_b   10.32351400
_cell_length_c   15.82506091
_cell_angle_alpha   90.00000000
_cell_angle_beta   90.03865681
_cell_angle_gamma   90.00000000
_symmetry_Int_Tables_number   1
_chemical_formula_structural   Cs8La3CeI20
_chemical_formula_sum   'Cs8 La3 Ce1 I20'
_cell_volume   1612.80231112
_cell_formula_units_Z   1
loop_
 _symmetry_equiv_pos_site_id
 _symmetry_equiv_pos_as_xyz
  1  'x, y, z'
loop_
 _atom_site_type_symbol
 _atom_site_label
 _atom_site_symmetry_multiplicity
 _atom_site_fract_x
 _atom_site_fract_y
 _atom_site_fract_z
 _atom_site_occupancy
  Cs  Cs0  1  0.944833  0.004867  0.827703  1
  Cs  Cs1  1  0.055144  0.995152  0.172308  1
  Cs  Cs2  1  0.444882  0.995138  0.672247  1
  Cs  Cs3  1  0.055144  0.504848  0.172308  1
  Cs  Cs4  1  0.555166  0.004850  0.327760  1
  Cs  Cs5  1  0.944833  0.495133  0.827703  1
  Cs  Cs6  1  0.555166  0.495150  0.327760  1
  Cs  Cs7  1  0.444882  0.504862  0.672247  1
  La  La8  1  0.069469  0.250000  0.496850  1
  La  La9  1  0.430433  0.250000  0.996819  1
  La  La10  1  0.569545  0.750000  0.003165  1
  Ce  Ce11  1  0.930934  0.750000  0.502904  1
  I  I12  1  0.115032  0.750000  0.669921  1
  I  I13  1  0.884030  0.250000  0.329296  1
  I  I14  1  0.615932  0.250000  0.829365  1
  I  I15  1  0.384066  0.750000  0.170645  1
  I  I16  1  0.841693  0.042107  0.570878  1
  I  I17  1  0.157914  0.956524  0.429130  1
  I  I18  1  0.341442  0.957133  0.928882  1
  I  I19  1  0.157914  0.543476  0.429130  1
  I  I20  1  0.658546  0.042855  0.071120  1
  I  I21  1  0.841693  0.457893  0.570878  1
  I  I22  1  0.658546  0.457145  0.071120  1
  I  I23  1  0.341442  0.542867  0.928882  1
  I  I24  1  0.600631  0.750000  0.512163  1
  I  I25  1  0.400387  0.250000  0.487838  1
  I  I26  1  0.099543  0.250000  0.987875  1
  I  I27  1  0.900456  0.750000  0.012160  1
  I  I28  1  0.652562  0.750000  0.806688  1
  I  I29  1  0.347419  0.250000  0.193339  1
  I  I30  1  0.152607  0.250000  0.693379  1
  I  I31  1  0.847712  0.750000  0.307537  1
