# generated using pymatgen
data_ErZr8(In2Ru)7
_symmetry_space_group_name_H-M   'P 1'
_cell_length_a   9.69867308
_cell_length_b   9.69867276
_cell_length_c   9.69867300
_cell_angle_alpha   59.99999576
_cell_angle_beta   59.99999685
_cell_angle_gamma   60.00000075
_symmetry_Int_Tables_number   1
_chemical_formula_structural   ErZr8(In2Ru)7
_chemical_formula_sum   'Er1 Zr8 In14 Ru7'
_cell_volume   645.09239747
_cell_formula_units_Z   1
loop_
 _symmetry_equiv_pos_site_id
 _symmetry_equiv_pos_as_xyz
  1  'x, y, z'
loop_
 _atom_site_type_symbol
 _atom_site_label
 _atom_site_symmetry_multiplicity
 _atom_site_fract_x
 _atom_site_fract_y
 _atom_site_fract_z
 _atom_site_occupancy
  Er  Er0  1  0.500000  0.500000  0.500000  1
  Zr  Zr1  1  0.121070  0.636792  0.121070  1
  Zr  Zr2  1  0.363208  0.878930  0.878930  1
  Zr  Zr3  1  0.878930  0.878930  0.878930  1
  Zr  Zr4  1  0.636792  0.121070  0.121070  1
  Zr  Zr5  1  0.878930  0.878930  0.363208  1
  Zr  Zr6  1  0.121070  0.121070  0.121070  1
  Zr  Zr7  1  0.878930  0.363208  0.878930  1
  Zr  Zr8  1  0.121070  0.121070  0.636792  1
  In  In9  1  0.500000  0.845273  0.154727  1
  In  In10  1  0.500000  0.845273  0.500000  1
  In  In11  1  0.500000  0.154727  0.500000  1
  In  In12  1  0.500000  0.500000  0.845273  1
  In  In13  1  0.154727  0.500000  0.500000  1
  In  In14  1  0.845273  0.154727  0.500000  1
  In  In15  1  0.154727  0.845273  0.500000  1
  In  In16  1  0.500000  0.154727  0.845273  1
  In  In17  1  0.154727  0.500000  0.845273  1
  In  In18  1  0.500000  0.500000  0.154727  1
  In  In19  1  0.845273  0.500000  0.500000  1
  In  In20  1  0.845273  0.500000  0.154727  1
  In  In21  1  0.250000  0.250000  0.250000  1
  In  In22  1  0.750000  0.750000  0.750000  1
  Ru  Ru23  1  0.776850  0.776850  0.223150  1
  Ru  Ru24  1  0.000000  0.000000  0.000000  1
  Ru  Ru25  1  0.223150  0.776850  0.223150  1
  Ru  Ru26  1  0.223150  0.776850  0.776850  1
  Ru  Ru27  1  0.223150  0.223150  0.776850  1
  Ru  Ru28  1  0.776850  0.223150  0.776850  1
  Ru  Ru29  1  0.776850  0.223150  0.223150  1
