# generated using pymatgen
data_Tb2Ga10Os3
_symmetry_space_group_name_H-M   'P 1'
_cell_length_a   8.92654000
_cell_length_b   8.92654000
_cell_length_c   6.45115300
_cell_angle_alpha   90.00000000
_cell_angle_beta   90.00000000
_cell_angle_gamma   90.00000000
_symmetry_Int_Tables_number   1
_chemical_formula_structural   Tb2Ga10Os3
_chemical_formula_sum   'Tb4 Ga20 Os6'
_cell_volume   514.04797523
_cell_formula_units_Z   2
loop_
 _symmetry_equiv_pos_site_id
 _symmetry_equiv_pos_as_xyz
  1  'x, y, z'
loop_
 _atom_site_type_symbol
 _atom_site_label
 _atom_site_symmetry_multiplicity
 _atom_site_fract_x
 _atom_site_fract_y
 _atom_site_fract_z
 _atom_site_occupancy
  Tb  Tb0  1  0.183240  0.316760  0.000000  1
  Tb  Tb1  1  0.683240  0.183240  0.000000  1
  Tb  Tb2  1  0.816760  0.683240  0.000000  1
  Tb  Tb3  1  0.316760  0.816760  0.000000  1
  Ga  Ga4  1  0.500000  0.000000  0.287393  1
  Ga  Ga5  1  0.500000  0.000000  0.712607  1
  Ga  Ga6  1  0.293506  0.561087  0.705874  1
  Ga  Ga7  1  0.000000  0.500000  0.287393  1
  Ga  Ga8  1  0.000000  0.500000  0.712607  1
  Ga  Ga9  1  0.061087  0.793506  0.705874  1
  Ga  Ga10  1  0.206494  0.061087  0.294126  1
  Ga  Ga11  1  0.061087  0.793506  0.294126  1
  Ga  Ga12  1  0.706494  0.438913  0.705874  1
  Ga  Ga13  1  0.206494  0.061087  0.705874  1
  Ga  Ga14  1  0.938913  0.206494  0.705874  1
  Ga  Ga15  1  0.706494  0.438913  0.294126  1
  Ga  Ga16  1  0.561087  0.706494  0.294126  1
  Ga  Ga17  1  0.938913  0.206494  0.294126  1
  Ga  Ga18  1  0.561087  0.706494  0.705874  1
  Ga  Ga19  1  0.793506  0.938913  0.294126  1
  Ga  Ga20  1  0.438913  0.293506  0.705874  1
  Ga  Ga21  1  0.793506  0.938913  0.705874  1
  Ga  Ga22  1  0.438913  0.293506  0.294126  1
  Ga  Ga23  1  0.293506  0.561087  0.294126  1
  Os  Os24  1  0.178406  0.321594  0.500000  1
  Os  Os25  1  0.321594  0.821594  0.500000  1
  Os  Os26  1  0.821594  0.678406  0.500000  1
  Os  Os27  1  0.000000  0.000000  0.000000  1
  Os  Os28  1  0.678406  0.178406  0.500000  1
  Os  Os29  1  0.500000  0.500000  0.000000  1
