# generated using pymatgen
data_Pr9NdSn20(IrPd)4
_symmetry_space_group_name_H-M   'P 1'
_cell_length_a   14.26647806
_cell_length_b   14.24161406
_cell_length_c   4.69923300
_cell_angle_alpha   90.00000000
_cell_angle_beta   90.00000000
_cell_angle_gamma   89.98960126
_symmetry_Int_Tables_number   1
_chemical_formula_structural   Pr9NdSn20(IrPd)4
_chemical_formula_sum   'Pr9 Nd1 Sn20 Ir4 Pd4'
_cell_volume   954.77921710
_cell_formula_units_Z   1
loop_
 _symmetry_equiv_pos_site_id
 _symmetry_equiv_pos_as_xyz
  1  'x, y, z'
loop_
 _atom_site_type_symbol
 _atom_site_label
 _atom_site_symmetry_multiplicity
 _atom_site_fract_x
 _atom_site_fract_y
 _atom_site_fract_z
 _atom_site_occupancy
  Pr  Pr0  1  0.499996  0.500011  0.000000  1
  Pr  Pr1  1  0.000003  0.000027  0.000000  1
  Pr  Pr2  1  0.324604  0.818133  0.500000  1
  Pr  Pr3  1  0.175411  0.318105  0.500000  1
  Pr  Pr4  1  0.824606  0.681903  0.500000  1
  Pr  Pr5  1  0.892416  0.390296  0.500000  1
  Pr  Pr6  1  0.107552  0.609660  0.500000  1
  Pr  Pr7  1  0.392495  0.109683  0.500000  1
  Pr  Pr8  1  0.607552  0.890373  0.500000  1
  Nd  Nd9  1  0.675175  0.181845  0.500000  1
  Sn  Sn10  1  0.568070  0.070838  0.000000  1
  Sn  Sn11  1  0.432168  0.929379  0.000000  1
  Sn  Sn12  1  0.067859  0.429347  0.000000  1
  Sn  Sn13  1  0.932144  0.570651  0.000000  1
  Sn  Sn14  1  0.652035  0.703508  0.000000  1
  Sn  Sn15  1  0.347989  0.296483  0.000000  1
  Sn  Sn16  1  0.152038  0.796492  0.000000  1
  Sn  Sn17  1  0.847761  0.203465  0.000000  1
  Sn  Sn18  1  0.300191  0.652184  0.000000  1
  Sn  Sn19  1  0.699790  0.347599  0.000000  1
  Sn  Sn20  1  0.199825  0.152189  0.000000  1
  Sn  Sn21  1  0.800161  0.847821  0.000000  1
  Sn  Sn22  1  0.663765  0.504306  0.500000  1
  Sn  Sn23  1  0.336219  0.495739  0.500000  1
  Sn  Sn24  1  0.163777  0.995733  0.500000  1
  Sn  Sn25  1  0.836138  0.004398  0.500000  1
  Sn  Sn26  1  0.496793  0.662250  0.500000  1
  Sn  Sn27  1  0.503346  0.337615  0.500000  1
  Sn  Sn28  1  0.003240  0.162245  0.500000  1
  Sn  Sn29  1  0.996804  0.837725  0.500000  1
  Ir  Ir30  1  0.467692  0.743084  0.000000  1
  Ir  Ir31  1  0.532521  0.256795  0.000000  1
  Ir  Ir32  1  0.032256  0.243067  0.000000  1
  Ir  Ir33  1  0.967684  0.756917  0.000000  1
  Pd  Pd34  1  0.745092  0.531923  0.000000  1
  Pd  Pd35  1  0.254912  0.468031  0.000000  1
  Pd  Pd36  1  0.245089  0.968039  0.000000  1
  Pd  Pd37  1  0.754831  0.032142  0.000000  1
