# generated using pymatgen
data_La3Tb5(SiI6)2
_symmetry_space_group_name_H-M   'P 1'
_cell_length_a   4.30871300
_cell_length_b   14.23879581
_cell_length_c   15.10348769
_cell_angle_alpha   90.47637959
_cell_angle_beta   90.00000000
_cell_angle_gamma   90.00000000
_symmetry_Int_Tables_number   1
_chemical_formula_structural   La3Tb5(SiI6)2
_chemical_formula_sum   'La3 Tb5 Si2 I12'
_cell_volume   926.58030311
_cell_formula_units_Z   1
loop_
 _symmetry_equiv_pos_site_id
 _symmetry_equiv_pos_as_xyz
  1  'x, y, z'
loop_
 _atom_site_type_symbol
 _atom_site_label
 _atom_site_symmetry_multiplicity
 _atom_site_fract_x
 _atom_site_fract_y
 _atom_site_fract_z
 _atom_site_occupancy
  La  La0  1  0.500000  0.118654  0.343251  1
  La  La1  1  0.500000  0.881990  0.657354  1
  La  La2  1  0.500000  0.617713  0.156273  1
  Tb  Tb3  1  0.500000  0.385112  0.846915  1
  Tb  Tb4  1  0.000000  0.111112  0.575159  1
  Tb  Tb5  1  0.000000  0.891594  0.427448  1
  Tb  Tb6  1  0.000000  0.607349  0.926168  1
  Tb  Tb7  1  0.000000  0.390670  0.071135  1
  Si  Si8  1  0.500000  0.001372  0.500944  1
  Si  Si9  1  0.500000  0.498742  0.998209  1
  I  I10  1  0.500000  0.250443  0.156236  1
  I  I11  1  0.500000  0.746570  0.839988  1
  I  I12  1  0.500000  0.751242  0.340934  1
  I  I13  1  0.500000  0.251397  0.664640  1
  I  I14  1  0.000000  0.264477  0.424837  1
  I  I15  1  0.000000  0.735750  0.576439  1
  I  I16  1  0.000000  0.763083  0.076313  1
  I  I17  1  0.000000  0.244951  0.913470  1
  I  I18  1  0.000000  0.989473  0.239783  1
  I  I19  1  0.000000  0.010525  0.761429  1
  I  I20  1  0.000000  0.489912  0.259625  1
  I  I21  1  0.000000  0.497869  0.743451  1
