# generated using pymatgen
data_Cs6TbSm(TaS4)4
_symmetry_space_group_name_H-M   'P 1'
_cell_length_a   9.83028440
_cell_length_b   10.88832457
_cell_length_c   11.62119002
_cell_angle_alpha   107.44750322
_cell_angle_beta   103.65244892
_cell_angle_gamma   113.49863191
_symmetry_Int_Tables_number   1
_chemical_formula_structural   Cs6TbSm(TaS4)4
_chemical_formula_sum   'Cs6 Tb1 Sm1 Ta4 S16'
_cell_volume   994.30186240
_cell_formula_units_Z   1
loop_
 _symmetry_equiv_pos_site_id
 _symmetry_equiv_pos_as_xyz
  1  'x, y, z'
loop_
 _atom_site_type_symbol
 _atom_site_label
 _atom_site_symmetry_multiplicity
 _atom_site_fract_x
 _atom_site_fract_y
 _atom_site_fract_z
 _atom_site_occupancy
  Cs  Cs0  1  0.999972  0.500126  0.000164  1
  Cs  Cs1  1  0.500193  0.500045  0.000165  1
  Cs  Cs2  1  0.265336  0.015340  0.030669  1
  Cs  Cs3  1  0.483820  0.733795  0.467434  1
  Cs  Cs4  1  0.516070  0.266105  0.532358  1
  Cs  Cs5  1  0.734683  0.984685  0.969383  1
  Tb  Tb6  1  0.999181  0.249178  0.498413  1
  Sm  Sm7  1  0.001756  0.751769  0.503454  1
  Ta  Ta8  1  0.765063  0.355214  0.265548  1
  Ta  Ta9  1  0.000520  0.910327  0.265472  1
  Ta  Ta10  1  0.999085  0.091397  0.734437  1
  Ta  Ta11  1  0.235234  0.642967  0.734374  1
  S  S12  1  0.656789  0.275043  0.044427  1
  S  S13  1  0.887769  0.769440  0.044356  1
  S  S14  1  0.112110  0.159936  0.310582  1
  S  S15  1  0.698533  0.150721  0.310699  1
  S  S16  1  0.039222  0.501239  0.352321  1
  S  S17  1  0.813178  0.851179  0.352351  1
  S  S18  1  0.190740  0.861019  0.363742  1
  S  S19  1  0.673074  0.502799  0.363816  1
  S  S20  1  0.323129  0.492619  0.633956  1
  S  S21  1  0.810826  0.141343  0.634048  1
  S  S22  1  0.184959  0.148067  0.645758  1
  S  S23  1  0.960741  0.497640  0.645796  1
  S  S24  1  0.307245  0.849750  0.692589  1
  S  S25  1  0.885417  0.842839  0.692647  1
  S  S26  1  0.112619  0.231912  0.955552  1
  S  S27  1  0.342733  0.723503  0.955486  1
