# generated using pymatgen
data_Y4Zr3PdF28
_symmetry_space_group_name_H-M   'P 1'
_cell_length_a   5.69469483
_cell_length_b   9.05217944
_cell_length_c   12.19776134
_cell_angle_alpha   62.47160051
_cell_angle_beta   90.08758889
_cell_angle_gamma   90.01394056
_symmetry_Int_Tables_number   1
_chemical_formula_structural   Y4Zr3PdF28
_chemical_formula_sum   'Y4 Zr3 Pd1 F28'
_cell_volume   557.59641387
_cell_formula_units_Z   1
loop_
 _symmetry_equiv_pos_site_id
 _symmetry_equiv_pos_as_xyz
  1  'x, y, z'
loop_
 _atom_site_type_symbol
 _atom_site_label
 _atom_site_symmetry_multiplicity
 _atom_site_fract_x
 _atom_site_fract_y
 _atom_site_fract_z
 _atom_site_occupancy
  Y  Y0  1  0.259088  0.815476  0.268839  1
  Y  Y1  1  0.743794  0.186935  0.732405  1
  Y  Y2  1  0.758132  0.182691  0.235186  1
  Y  Y3  1  0.241309  0.816107  0.759816  1
  Zr  Zr4  1  0.757083  0.726770  0.043364  1
  Zr  Zr5  1  0.244648  0.275269  0.954703  1
  Zr  Zr6  1  0.256247  0.274664  0.456116  1
  Pd  Pd7  1  0.738628  0.727174  0.544504  1
  F  F8  1  0.932547  0.704989  0.421191  1
  F  F9  1  0.041275  0.289950  0.582662  1
  F  F10  1  0.461008  0.291651  0.081328  1
  F  F11  1  0.538654  0.710362  0.917384  1
  F  F12  1  0.481723  0.731859  0.148641  1
  F  F13  1  0.522080  0.269216  0.851831  1
  F  F14  1  0.976348  0.266000  0.354951  1
  F  F15  1  0.019929  0.726643  0.636161  1
  F  F16  1  0.965912  0.747835  0.173687  1
  F  F17  1  0.039362  0.252234  0.825413  1
  F  F18  1  0.464279  0.253626  0.326420  1
  F  F19  1  0.549749  0.741843  0.673562  1
  F  F20  1  0.777803  0.474062  0.140770  1
  F  F21  1  0.221231  0.527889  0.856088  1
  F  F22  1  0.267852  0.528066  0.361188  1
  F  F23  1  0.725701  0.484740  0.640749  1
  F  F24  1  0.946107  0.274964  0.049226  1
  F  F25  1  0.054148  0.726101  0.948395  1
  F  F26  1  0.449659  0.720156  0.459215  1
  F  F27  1  0.556194  0.280175  0.546960  1
  F  F28  1  0.742524  0.969794  0.452501  1
  F  F29  1  0.260906  0.022468  0.555997  1
  F  F30  1  0.242379  0.023487  0.059717  1
  F  F31  1  0.759031  0.978914  0.940966  1
  F  F32  1  0.577811  0.969962  0.235404  1
  F  F33  1  0.424317  0.028050  0.763397  1
  F  F34  1  0.078898  0.027690  0.269933  1
  F  F35  1  0.923643  0.972185  0.731328  1
