# generated using pymatgen
data_Mn(VSe2)4
_symmetry_space_group_name_H-M   'P 1'
_cell_length_a   7.31555297
_cell_length_b   7.31555349
_cell_length_c   7.31555400
_cell_angle_alpha   60.00000672
_cell_angle_beta   60.00000441
_cell_angle_gamma   60.00000786
_symmetry_Int_Tables_number   1
_chemical_formula_structural   Mn(VSe2)4
_chemical_formula_sum   'Mn1 V4 Se8'
_cell_volume   276.83859362
_cell_formula_units_Z   1
loop_
 _symmetry_equiv_pos_site_id
 _symmetry_equiv_pos_as_xyz
  1  'x, y, z'
loop_
 _atom_site_type_symbol
 _atom_site_label
 _atom_site_symmetry_multiplicity
 _atom_site_fract_x
 _atom_site_fract_y
 _atom_site_fract_z
 _atom_site_occupancy
  Mn  Mn0  1  0.000000  0.000000  0.000000  1
  V  V1  1  0.608723  0.608723  0.173832  1
  V  V2  1  0.608723  0.173832  0.608723  1
  V  V3  1  0.173832  0.608723  0.608723  1
  V  V4  1  0.608723  0.608723  0.608723  1
  Se  Se5  1  0.862792  0.862792  0.411623  1
  Se  Se6  1  0.862792  0.411623  0.862792  1
  Se  Se7  1  0.411623  0.862792  0.862792  1
  Se  Se8  1  0.862792  0.862792  0.862792  1
  Se  Se9  1  0.371992  0.371992  0.884024  1
  Se  Se10  1  0.371992  0.371992  0.371992  1
  Se  Se11  1  0.884024  0.371992  0.371992  1
  Se  Se12  1  0.371992  0.884024  0.371992  1
