# generated using pymatgen
data_Hf8FeTcBi4
_symmetry_space_group_name_H-M   'P 1'
_cell_length_a   8.27232873
_cell_length_b   8.27228606
_cell_length_c   8.27232903
_cell_angle_alpha   96.05806070
_cell_angle_beta   96.06335572
_cell_angle_gamma   142.07725955
_symmetry_Int_Tables_number   1
_chemical_formula_structural   Hf8FeTcBi4
_chemical_formula_sum   'Hf8 Fe1 Tc1 Bi4'
_cell_volume   329.03506655
_cell_formula_units_Z   1
loop_
 _symmetry_equiv_pos_site_id
 _symmetry_equiv_pos_as_xyz
  1  'x, y, z'
loop_
 _atom_site_type_symbol
 _atom_site_label
 _atom_site_symmetry_multiplicity
 _atom_site_fract_x
 _atom_site_fract_y
 _atom_site_fract_z
 _atom_site_occupancy
  Hf  Hf0  1  0.579238  0.693527  0.279023  1
  Hf  Hf1  1  0.920760  0.199786  0.114282  1
  Hf  Hf2  1  0.300218  0.579241  0.885717  1
  Hf  Hf3  1  0.806476  0.920759  0.720976  1
  Hf  Hf4  1  0.693521  0.414495  0.114281  1
  Hf  Hf5  1  0.085495  0.806473  0.885711  1
  Hf  Hf6  1  0.414496  0.300214  0.720975  1
  Hf  Hf7  1  0.199786  0.085505  0.279025  1
  Fe  Fe8  1  0.250018  0.250000  0.000018  1
  Tc  Tc9  1  0.750001  0.750000  0.000001  1
  Bi  Bi10  1  0.362059  0.862060  0.224121  1
  Bi  Bi11  1  0.137936  0.362060  0.499997  1
  Bi  Bi12  1  0.637937  0.137940  0.775875  1
  Bi  Bi13  1  0.862060  0.637940  0.499999  1
