# generated using pymatgen
data_Na20TaV(GaAs6)2
_symmetry_space_group_name_H-M   'P 1'
_cell_length_a   7.52829317
_cell_length_b   8.36460378
_cell_length_c   15.84886032
_cell_angle_alpha   59.17975522
_cell_angle_beta   89.98370294
_cell_angle_gamma   89.91829637
_symmetry_Int_Tables_number   1
_chemical_formula_structural   Na20TaV(GaAs6)2
_chemical_formula_sum   'Na20 Ta1 V1 Ga2 As12'
_cell_volume   857.07891310
_cell_formula_units_Z   1
loop_
 _symmetry_equiv_pos_site_id
 _symmetry_equiv_pos_as_xyz
  1  'x, y, z'
loop_
 _atom_site_type_symbol
 _atom_site_label
 _atom_site_symmetry_multiplicity
 _atom_site_fract_x
 _atom_site_fract_y
 _atom_site_fract_z
 _atom_site_occupancy
  Na  Na0  1  0.737624  0.941538  0.245779  1
  Na  Na1  1  0.260920  0.940941  0.747377  1
  Na  Na2  1  0.771890  0.054556  0.760187  1
  Na  Na3  1  0.230364  0.054026  0.257255  1
  Na  Na4  1  0.264461  0.244901  0.419286  1
  Na  Na5  1  0.733848  0.242782  0.920688  1
  Na  Na6  1  0.218075  0.753324  0.579032  1
  Na  Na7  1  0.781554  0.757377  0.078706  1
  Na  Na8  1  0.089577  0.346202  0.583294  1
  Na  Na9  1  0.910352  0.344377  0.083057  1
  Na  Na10  1  0.405832  0.654753  0.417946  1
  Na  Na11  1  0.592405  0.653420  0.920363  1
  Na  Na12  1  0.594256  0.337107  0.241822  1
  Na  Na13  1  0.404174  0.333499  0.744255  1
  Na  Na14  1  0.907836  0.664372  0.760090  1
  Na  Na15  1  0.093081  0.666293  0.258983  1
  Na  Na16  1  0.771682  0.420061  0.408563  1
  Na  Na17  1  0.230332  0.414460  0.910567  1
  Na  Na18  1  0.739711  0.582778  0.588175  1
  Na  Na19  1  0.260764  0.586685  0.087788  1
  Ta  Ta20  1  0.614837  0.989004  0.578278  1
  V  V21  1  0.384218  0.989183  0.077994  1
  Ga  Ga22  1  0.890736  0.013323  0.415214  1
  Ga  Ga23  1  0.111226  0.013051  0.916859  1
  As  As24  1  0.982193  0.320393  0.270494  1
  As  As25  1  0.017032  0.319493  0.771146  1
  As  As26  1  0.518794  0.691760  0.725560  1
  As  As27  1  0.477245  0.702983  0.219637  1
  As  As28  1  0.947312  0.021324  0.574497  1
  As  As29  1  0.063338  0.020926  0.074960  1
  As  As30  1  0.540615  0.978809  0.427122  1
  As  As31  1  0.456808  0.978010  0.932738  1
  As  As32  1  0.004489  0.723210  0.421902  1
  As  As33  1  0.995603  0.723602  0.922171  1
  As  As34  1  0.490133  0.266655  0.578876  1
  As  As35  1  0.506683  0.254823  0.079340  1
