# generated using pymatgen
data_Dy8Sc12Si15Ir
_symmetry_space_group_name_H-M   'P 1'
_cell_length_a   7.08180401
_cell_length_b   7.43742318
_cell_length_c   13.96349100
_cell_angle_alpha   90.00000000
_cell_angle_beta   90.00000000
_cell_angle_gamma   90.19162550
_symmetry_Int_Tables_number   1
_chemical_formula_structural   Dy8Sc12Si15Ir
_chemical_formula_sum   'Dy8 Sc12 Si15 Ir1'
_cell_volume   735.45817064
_cell_formula_units_Z   1
loop_
 _symmetry_equiv_pos_site_id
 _symmetry_equiv_pos_as_xyz
  1  'x, y, z'
loop_
 _atom_site_type_symbol
 _atom_site_label
 _atom_site_symmetry_multiplicity
 _atom_site_fract_x
 _atom_site_fract_y
 _atom_site_fract_z
 _atom_site_occupancy
  Dy  Dy0  1  0.011349  0.178364  0.096190  1
  Dy  Dy1  1  0.991146  0.825292  0.904286  1
  Dy  Dy2  1  0.489128  0.676778  0.904336  1
  Dy  Dy3  1  0.991146  0.825292  0.595714  1
  Dy  Dy4  1  0.511110  0.323048  0.096423  1
  Dy  Dy5  1  0.011349  0.178364  0.403810  1
  Dy  Dy6  1  0.511110  0.323048  0.403577  1
  Dy  Dy7  1  0.489128  0.676778  0.595664  1
  Sc  Sc8  1  0.158361  0.501911  0.750000  1
  Sc  Sc9  1  0.837831  0.496025  0.250000  1
  Sc  Sc10  1  0.338777  0.004622  0.250000  1
  Sc  Sc11  1  0.668911  0.998937  0.750000  1
  Sc  Sc12  1  0.320040  0.172679  0.627076  1
  Sc  Sc13  1  0.671160  0.825280  0.373901  1
  Sc  Sc14  1  0.170756  0.677345  0.374282  1
  Sc  Sc15  1  0.671160  0.825280  0.126099  1
  Sc  Sc16  1  0.834902  0.321172  0.627040  1
  Sc  Sc17  1  0.320040  0.172679  0.872924  1
  Sc  Sc18  1  0.834902  0.321172  0.872960  1
  Sc  Sc19  1  0.170756  0.677345  0.125718  1
  Si  Si20  1  0.968540  0.884395  0.250000  1
  Si  Si21  1  0.468100  0.614960  0.250000  1
  Si  Si22  1  0.530511  0.388139  0.750000  1
  Si  Si23  1  0.287390  0.868658  0.750000  1
  Si  Si24  1  0.713401  0.129073  0.250000  1
  Si  Si25  1  0.213183  0.371859  0.250000  1
  Si  Si26  1  0.780035  0.626302  0.750000  1
  Si  Si27  1  0.159420  0.467511  0.537749  1
  Si  Si28  1  0.842934  0.535700  0.461172  1
  Si  Si29  1  0.344925  0.965783  0.460480  1
  Si  Si30  1  0.842934  0.535700  0.038828  1
  Si  Si31  1  0.657041  0.034476  0.538457  1
  Si  Si32  1  0.159420  0.467511  0.962251  1
  Si  Si33  1  0.657041  0.034476  0.961543  1
  Si  Si34  1  0.344925  0.965783  0.039520  1
  Ir  Ir35  1  0.027135  0.108262  0.750000  1
