# generated using pymatgen
data_Tb8In3SnPd8
_symmetry_space_group_name_H-M   'P 1'
_cell_length_a   7.80839500
_cell_length_b   7.80839500
_cell_length_c   7.45767700
_cell_angle_alpha   90.00000000
_cell_angle_beta   90.00000000
_cell_angle_gamma   90.00000000
_symmetry_Int_Tables_number   1
_chemical_formula_structural   Tb8In3SnPd8
_chemical_formula_sum   'Tb8 In3 Sn1 Pd8'
_cell_volume   454.70226656
_cell_formula_units_Z   1
loop_
 _symmetry_equiv_pos_site_id
 _symmetry_equiv_pos_as_xyz
  1  'x, y, z'
loop_
 _atom_site_type_symbol
 _atom_site_label
 _atom_site_symmetry_multiplicity
 _atom_site_fract_x
 _atom_site_fract_y
 _atom_site_fract_z
 _atom_site_occupancy
  Tb  Tb0  1  0.168899  0.171459  0.999412  1
  Tb  Tb1  1  0.831101  0.828541  0.999412  1
  Tb  Tb2  1  0.671459  0.331101  0.500588  1
  Tb  Tb3  1  0.328541  0.668899  0.500588  1
  Tb  Tb4  1  0.676546  0.325742  0.999593  1
  Tb  Tb5  1  0.323454  0.674258  0.999593  1
  Tb  Tb6  1  0.825742  0.823454  0.500407  1
  Tb  Tb7  1  0.174258  0.176546  0.500407  1
  In  In8  1  0.500000  0.000000  0.750000  1
  In  In9  1  0.000000  0.500000  0.250000  1
  In  In10  1  0.000000  0.500000  0.750000  1
  Sn  Sn11  1  0.500000  0.000000  0.250000  1
  Pd  Pd12  1  0.370908  0.376144  0.244296  1
  Pd  Pd13  1  0.625947  0.628169  0.755549  1
  Pd  Pd14  1  0.629092  0.623856  0.244296  1
  Pd  Pd15  1  0.871831  0.125947  0.744451  1
  Pd  Pd16  1  0.876144  0.129092  0.255704  1
  Pd  Pd17  1  0.374053  0.371831  0.755549  1
  Pd  Pd18  1  0.123856  0.870908  0.255704  1
  Pd  Pd19  1  0.128169  0.874053  0.744451  1
