# generated using pymatgen
data_Pr8Nd9Lu3Sn16
_symmetry_space_group_name_H-M   'P 1'
_cell_length_a   8.21125805
_cell_length_b   8.42919318
_cell_length_c   16.00350200
_cell_angle_alpha   90.00000000
_cell_angle_beta   90.00000000
_cell_angle_gamma   89.86105194
_symmetry_Int_Tables_number   1
_chemical_formula_structural   Pr8Nd9Lu3Sn16
_chemical_formula_sum   'Pr8 Nd9 Lu3 Sn16'
_cell_volume   1107.66761727
_cell_formula_units_Z   1
loop_
 _symmetry_equiv_pos_site_id
 _symmetry_equiv_pos_as_xyz
  1  'x, y, z'
loop_
 _atom_site_type_symbol
 _atom_site_label
 _atom_site_symmetry_multiplicity
 _atom_site_fract_x
 _atom_site_fract_y
 _atom_site_fract_z
 _atom_site_occupancy
  Pr  Pr0  1  0.507806  0.319565  0.903236  1
  Pr  Pr1  1  0.005932  0.178804  0.597022  1
  Pr  Pr2  1  0.493192  0.679142  0.402398  1
  Pr  Pr3  1  0.993919  0.820443  0.097353  1
  Pr  Pr4  1  0.493192  0.679142  0.097602  1
  Pr  Pr5  1  0.993919  0.820443  0.402647  1
  Pr  Pr6  1  0.507806  0.319565  0.596764  1
  Pr  Pr7  1  0.005932  0.178804  0.902978  1
  Nd  Nd8  1  0.350567  0.836071  0.877696  1
  Nd  Nd9  1  0.848667  0.665161  0.622533  1
  Nd  Nd10  1  0.650662  0.164363  0.376869  1
  Nd  Nd11  1  0.151085  0.336236  0.123941  1
  Nd  Nd12  1  0.650662  0.164363  0.123131  1
  Nd  Nd13  1  0.151085  0.336236  0.376059  1
  Nd  Nd14  1  0.350567  0.836071  0.622304  1
  Nd  Nd15  1  0.848667  0.665161  0.877467  1
  Nd  Nd16  1  0.181022  0.499741  0.750000  1
  Lu  Lu17  1  0.683353  0.999496  0.750000  1
  Lu  Lu18  1  0.816036  0.500082  0.250000  1
  Lu  Lu19  1  0.316026  0.999594  0.250000  1
  Sn  Sn20  1  0.309112  0.036521  0.044151  1
  Sn  Sn21  1  0.809686  0.463415  0.456172  1
  Sn  Sn22  1  0.690334  0.963928  0.543265  1
  Sn  Sn23  1  0.190578  0.538494  0.959301  1
  Sn  Sn24  1  0.690334  0.963928  0.956735  1
  Sn  Sn25  1  0.190578  0.538494  0.540699  1
  Sn  Sn26  1  0.309112  0.036521  0.455849  1
  Sn  Sn27  1  0.809686  0.463415  0.043828  1
  Sn  Sn28  1  0.550083  0.617114  0.750000  1
  Sn  Sn29  1  0.044048  0.885962  0.750000  1
  Sn  Sn30  1  0.455398  0.384362  0.250000  1
  Sn  Sn31  1  0.954771  0.115616  0.250000  1
  Sn  Sn32  1  0.314218  0.143021  0.750000  1
  Sn  Sn33  1  0.809438  0.349865  0.750000  1
  Sn  Sn34  1  0.686452  0.851398  0.250000  1
  Sn  Sn35  1  0.186077  0.649466  0.250000  1
