# generated using pymatgen
data_Zr4Mn4SiP3
_symmetry_space_group_name_H-M   'P 1'
_cell_length_a   3.64655400
_cell_length_b   6.49088400
_cell_length_c   7.56804700
_cell_angle_alpha   89.99581722
_cell_angle_beta   90.00000000
_cell_angle_gamma   90.00000000
_symmetry_Int_Tables_number   1
_chemical_formula_structural   Zr4Mn4SiP3
_chemical_formula_sum   'Zr4 Mn4 Si1 P3'
_cell_volume   179.13082124
_cell_formula_units_Z   1
loop_
 _symmetry_equiv_pos_site_id
 _symmetry_equiv_pos_as_xyz
  1  'x, y, z'
loop_
 _atom_site_type_symbol
 _atom_site_label
 _atom_site_symmetry_multiplicity
 _atom_site_fract_x
 _atom_site_fract_y
 _atom_site_fract_z
 _atom_site_occupancy
  Zr  Zr0  1  0.250000  0.529440  0.676280  1
  Zr  Zr1  1  0.250000  0.029017  0.821891  1
  Zr  Zr2  1  0.750000  0.965426  0.176141  1
  Zr  Zr3  1  0.750000  0.471565  0.327195  1
  Mn  Mn4  1  0.750000  0.366505  0.936493  1
  Mn  Mn5  1  0.250000  0.134601  0.442300  1
  Mn  Mn6  1  0.750000  0.864420  0.560541  1
  Mn  Mn7  1  0.250000  0.638788  0.059886  1
  Si  Si8  1  0.250000  0.269387  0.124293  1
  P  P9  1  0.250000  0.769620  0.375500  1
  P  P10  1  0.750000  0.730348  0.873503  1
  P  P11  1  0.750000  0.230881  0.625976  1
