# generated using pymatgen
data_Nb12Al4ZnCu3N4
_symmetry_space_group_name_H-M   'P 1'
_cell_length_a   7.02173169
_cell_length_b   7.02173169
_cell_length_c   7.02173169
_cell_angle_alpha   90.05612552
_cell_angle_beta   89.94387448
_cell_angle_gamma   89.94387448
_symmetry_Int_Tables_number   1
_chemical_formula_structural   Nb12Al4ZnCu3N4
_chemical_formula_sum   'Nb12 Al4 Zn1 Cu3 N4'
_cell_volume   346.20398695
_cell_formula_units_Z   1
loop_
 _symmetry_equiv_pos_site_id
 _symmetry_equiv_pos_as_xyz
  1  'x, y, z'
loop_
 _atom_site_type_symbol
 _atom_site_label
 _atom_site_symmetry_multiplicity
 _atom_site_fract_x
 _atom_site_fract_y
 _atom_site_fract_z
 _atom_site_occupancy
  Nb  Nb0  1  0.791571  0.956869  0.374151  1
  Nb  Nb1  1  0.708608  0.043296  0.874136  1
  Nb  Nb2  1  0.208043  0.456694  0.125831  1
  Nb  Nb3  1  0.292073  0.542484  0.626019  1
  Nb  Nb4  1  0.956704  0.374136  0.791392  1
  Nb  Nb5  1  0.043131  0.874151  0.708429  1
  Nb  Nb6  1  0.457516  0.126019  0.207927  1
  Nb  Nb7  1  0.543306  0.625831  0.291957  1
  Nb  Nb8  1  0.374169  0.791957  0.956694  1
  Nb  Nb9  1  0.873981  0.707927  0.042484  1
  Nb  Nb10  1  0.125849  0.208429  0.456869  1
  Nb  Nb11  1  0.625864  0.291392  0.543296  1
  Al  Al12  1  0.573777  0.426223  0.926223  1
  Al  Al13  1  0.430600  0.927725  0.578284  1
  Al  Al14  1  0.921716  0.569400  0.427725  1
  Al  Al15  1  0.072275  0.078284  0.069400  1
  Zn  Zn16  1  0.178751  0.821249  0.321249  1
  Cu  Cu17  1  0.321606  0.179612  0.821262  1
  Cu  Cu18  1  0.820388  0.321262  0.178394  1
  Cu  Cu19  1  0.678738  0.678394  0.679612  1
  N  N20  1  0.877036  0.122964  0.622964  1
  N  N21  1  0.623231  0.876840  0.122093  1
  N  N22  1  0.123160  0.622093  0.876769  1
  N  N23  1  0.377907  0.376769  0.376840  1
