# generated using pymatgen
data_Zr4Nb3Si3MoAs
_symmetry_space_group_name_H-M   'P 1'
_cell_length_a   3.61741700
_cell_length_b   7.05253364
_cell_length_c   8.47494954
_cell_angle_alpha   90.11789531
_cell_angle_beta   90.00000000
_cell_angle_gamma   90.00000000
_symmetry_Int_Tables_number   1
_chemical_formula_structural   Zr4Nb3Si3MoAs
_chemical_formula_sum   'Zr4 Nb3 Si3 Mo1 As1'
_cell_volume   216.21207432
_cell_formula_units_Z   1
loop_
 _symmetry_equiv_pos_site_id
 _symmetry_equiv_pos_as_xyz
  1  'x, y, z'
loop_
 _atom_site_type_symbol
 _atom_site_label
 _atom_site_symmetry_multiplicity
 _atom_site_fract_x
 _atom_site_fract_y
 _atom_site_fract_z
 _atom_site_occupancy
  Zr  Zr0  1  0.250000  0.051083  0.334286  1
  Zr  Zr1  1  0.250000  0.538954  0.165868  1
  Zr  Zr2  1  0.750000  0.958929  0.669506  1
  Zr  Zr3  1  0.750000  0.456825  0.831814  1
  Nb  Nb4  1  0.250000  0.134349  0.938950  1
  Nb  Nb5  1  0.250000  0.625263  0.561027  1
  Nb  Nb6  1  0.750000  0.869414  0.059786  1
  Si  Si7  1  0.250000  0.255439  0.636168  1
  Si  Si8  1  0.250000  0.754422  0.860157  1
  Si  Si9  1  0.750000  0.245953  0.141609  1
  Mo  Mo10  1  0.750000  0.363818  0.440553  1
  As  As11  1  0.750000  0.745551  0.360276  1
