# generated using pymatgen
data_Nd4HoGa2Sn
_symmetry_space_group_name_H-M   'P 1'
_cell_length_a   8.05422700
_cell_length_b   8.05422700
_cell_length_c   14.58075900
_cell_angle_alpha   90.00000000
_cell_angle_beta   90.00000000
_cell_angle_gamma   90.00000000
_symmetry_Int_Tables_number   1
_chemical_formula_structural   Nd4HoGa2Sn
_chemical_formula_sum   'Nd16 Ho4 Ga8 Sn4'
_cell_volume   945.86218480
_cell_formula_units_Z   4
loop_
 _symmetry_equiv_pos_site_id
 _symmetry_equiv_pos_as_xyz
  1  'x, y, z'
loop_
 _atom_site_type_symbol
 _atom_site_label
 _atom_site_symmetry_multiplicity
 _atom_site_fract_x
 _atom_site_fract_y
 _atom_site_fract_z
 _atom_site_occupancy
  Nd  Nd0  1  0.825836  0.839547  0.606662  1
  Nd  Nd1  1  0.174164  0.839547  0.106662  1
  Nd  Nd2  1  0.160453  0.825836  0.393338  1
  Nd  Nd3  1  0.839547  0.174164  0.393338  1
  Nd  Nd4  1  0.674164  0.660453  0.393338  1
  Nd  Nd5  1  0.660453  0.325836  0.606662  1
  Nd  Nd6  1  0.339547  0.674164  0.606662  1
  Nd  Nd7  1  0.660453  0.674164  0.106662  1
  Nd  Nd8  1  0.674164  0.339547  0.893338  1
  Nd  Nd9  1  0.839547  0.825836  0.893338  1
  Nd  Nd10  1  0.325836  0.339547  0.393338  1
  Nd  Nd11  1  0.174164  0.160453  0.606662  1
  Nd  Nd12  1  0.825836  0.160453  0.106662  1
  Nd  Nd13  1  0.325836  0.660453  0.893338  1
  Nd  Nd14  1  0.339547  0.325836  0.106662  1
  Nd  Nd15  1  0.160453  0.174164  0.893338  1
  Ho  Ho16  1  0.000000  0.500000  0.733137  1
  Ho  Ho17  1  0.000000  0.500000  0.233137  1
  Ho  Ho18  1  0.500000  0.000000  0.266863  1
  Ho  Ho19  1  0.500000  0.000000  0.766863  1
  Ga  Ga20  1  0.627164  0.372836  0.250000  1
  Ga  Ga21  1  0.127164  0.872836  0.750000  1
  Ga  Ga22  1  0.372836  0.372836  0.750000  1
  Ga  Ga23  1  0.372836  0.627164  0.250000  1
  Ga  Ga24  1  0.872836  0.872836  0.250000  1
  Ga  Ga25  1  0.627164  0.627164  0.750000  1
  Ga  Ga26  1  0.872836  0.127164  0.750000  1
  Ga  Ga27  1  0.127164  0.127164  0.250000  1
  Sn  Sn28  1  0.000000  0.500000  0.507130  1
  Sn  Sn29  1  0.500000  0.000000  0.492870  1
  Sn  Sn30  1  0.500000  0.000000  0.992870  1
  Sn  Sn31  1  0.000000  0.500000  0.007130  1
