# generated using pymatgen
data_LiYb3Ga9Pd
_symmetry_space_group_name_H-M   'P 1'
_cell_length_a   8.17183575
_cell_length_b   8.17183669
_cell_length_c   8.17183651
_cell_angle_alpha   148.61340661
_cell_angle_beta   109.18941574
_cell_angle_gamma   79.49246118
_symmetry_Int_Tables_number   1
_chemical_formula_structural   LiYb3Ga9Pd
_chemical_formula_sum   'Li1 Yb3 Ga9 Pd1'
_cell_volume   263.01062447
_cell_formula_units_Z   1
loop_
 _symmetry_equiv_pos_site_id
 _symmetry_equiv_pos_as_xyz
  1  'x, y, z'
loop_
 _atom_site_type_symbol
 _atom_site_label
 _atom_site_symmetry_multiplicity
 _atom_site_fract_x
 _atom_site_fract_y
 _atom_site_fract_z
 _atom_site_occupancy
  Li  Li0  1  0.819867  0.000000  0.819867  1
  Yb  Yb1  1  0.497433  0.500000  0.997433  1
  Yb  Yb2  1  0.205083  0.202905  0.002178  1
  Yb  Yb3  1  0.799272  0.797095  0.002178  1
  Ga  Ga4  1  0.079278  0.361236  0.718043  1
  Ga  Ga5  1  0.921867  0.640375  0.281492  1
  Ga  Ga6  1  0.641117  0.359625  0.281492  1
  Ga  Ga7  1  0.356806  0.638764  0.718043  1
  Ga  Ga8  1  0.797185  0.159327  0.637858  1
  Ga  Ga9  1  0.209127  0.844522  0.364604  1
  Ga  Ga10  1  0.520081  0.155478  0.364604  1
  Ga  Ga11  1  0.478532  0.840673  0.637858  1
  Ga  Ga12  1  0.000022  0.500000  0.500022  1
  Pd  Pd13  1  0.174331  0.000000  0.174331  1
