# generated using pymatgen
data_Zr2ScIn3Ir2
_symmetry_space_group_name_H-M   'P 1'
_cell_length_a   7.51858400
_cell_length_b   7.59383320
_cell_length_c   3.28923400
_cell_angle_alpha   90.00000000
_cell_angle_beta   90.00000000
_cell_angle_gamma   119.67274244
_symmetry_Int_Tables_number   1
_chemical_formula_structural   Zr2ScIn3Ir2
_chemical_formula_sum   'Zr2 Sc1 In3 Ir2'
_cell_volume   163.17185263
_cell_formula_units_Z   1
loop_
 _symmetry_equiv_pos_site_id
 _symmetry_equiv_pos_as_xyz
  1  'x, y, z'
loop_
 _atom_site_type_symbol
 _atom_site_label
 _atom_site_symmetry_multiplicity
 _atom_site_fract_x
 _atom_site_fract_y
 _atom_site_fract_z
 _atom_site_occupancy
  Zr  Zr0  1  0.422022  0.422078  0.499999  1
  Zr  Zr1  1  0.999943  0.577922  0.499999  1
  Sc  Sc2  1  0.577908  0.000000  0.499999  1
  In  In3  1  0.233432  0.000000  0.000000  1
  In  In4  1  0.997519  0.229437  0.000000  1
  In  In5  1  0.768084  0.770564  0.000000  1
  Ir  Ir6  1  0.667421  0.333751  0.000000  1
  Ir  Ir7  1  0.333671  0.666249  0.000000  1
