# generated using pymatgen
data_Dy16Er4Sn9Pb7
_symmetry_space_group_name_H-M   'P 1'
_cell_length_a   8.13096520
_cell_length_b   8.19038305
_cell_length_c   15.55766661
_cell_angle_alpha   89.97979631
_cell_angle_beta   89.95849882
_cell_angle_gamma   90.00590392
_symmetry_Int_Tables_number   1
_chemical_formula_structural   Dy16Er4Sn9Pb7
_chemical_formula_sum   'Dy16 Er4 Sn9 Pb7'
_cell_volume   1036.07366041
_cell_formula_units_Z   1
loop_
 _symmetry_equiv_pos_site_id
 _symmetry_equiv_pos_as_xyz
  1  'x, y, z'
loop_
 _atom_site_type_symbol
 _atom_site_label
 _atom_site_symmetry_multiplicity
 _atom_site_fract_x
 _atom_site_fract_y
 _atom_site_fract_z
 _atom_site_occupancy
  Dy  Dy0  1  0.380142  0.839708  0.878375  1
  Dy  Dy1  1  0.880390  0.660875  0.623121  1
  Dy  Dy2  1  0.618851  0.161453  0.376794  1
  Dy  Dy3  1  0.120536  0.335868  0.122463  1
  Dy  Dy4  1  0.617324  0.161493  0.122532  1
  Dy  Dy5  1  0.119003  0.338584  0.376868  1
  Dy  Dy6  1  0.380337  0.838649  0.622900  1
  Dy  Dy7  1  0.880067  0.661146  0.876989  1
  Dy  Dy8  1  0.535927  0.323463  0.897228  1
  Dy  Dy9  1  0.037327  0.175539  0.603619  1
  Dy  Dy10  1  0.462006  0.675741  0.395855  1
  Dy  Dy11  1  0.966300  0.826602  0.102809  1
  Dy  Dy12  1  0.461972  0.678379  0.103255  1
  Dy  Dy13  1  0.962357  0.824441  0.395964  1
  Dy  Dy14  1  0.537959  0.324983  0.603836  1
  Dy  Dy15  1  0.039500  0.174031  0.897695  1
  Er  Er16  1  0.210691  0.503483  0.750118  1
  Er  Er17  1  0.710780  0.996205  0.750125  1
  Er  Er18  1  0.789265  0.496160  0.249552  1
  Er  Er19  1  0.288858  0.003743  0.248570  1
  Sn  Sn20  1  0.282250  0.031701  0.042413  1
  Sn  Sn21  1  0.576205  0.622029  0.750444  1
  Sn  Sn22  1  0.076841  0.877989  0.750168  1
  Sn  Sn23  1  0.423115  0.378920  0.249983  1
  Sn  Sn24  1  0.922582  0.121638  0.249977  1
  Sn  Sn25  1  0.344952  0.148827  0.750123  1
  Sn  Sn26  1  0.845228  0.350332  0.750726  1
  Sn  Sn27  1  0.655897  0.851338  0.249660  1
  Sn  Sn28  1  0.155056  0.648506  0.249596  1
  Pb  Pb29  1  0.780374  0.468386  0.458134  1
  Pb  Pb30  1  0.719000  0.967867  0.541441  1
  Pb  Pb31  1  0.218332  0.532472  0.958635  1
  Pb  Pb32  1  0.719511  0.967796  0.958684  1
  Pb  Pb33  1  0.219226  0.531829  0.541570  1
  Pb  Pb34  1  0.280575  0.031809  0.458012  1
  Pb  Pb35  1  0.781263  0.468013  0.041765  1
