# generated using pymatgen
data_Ho2FeAuO7
_symmetry_space_group_name_H-M   'P 1'
_cell_length_a   7.26055098
_cell_length_b   7.30650282
_cell_length_c   7.26047370
_cell_angle_alpha   59.78933276
_cell_angle_beta   59.56924872
_cell_angle_gamma   59.78952033
_symmetry_Int_Tables_number   1
_chemical_formula_structural   Ho2FeAuO7
_chemical_formula_sum   'Ho4 Fe2 Au2 O14'
_cell_volume   270.59183037
_cell_formula_units_Z   2
loop_
 _symmetry_equiv_pos_site_id
 _symmetry_equiv_pos_as_xyz
  1  'x, y, z'
loop_
 _atom_site_type_symbol
 _atom_site_label
 _atom_site_symmetry_multiplicity
 _atom_site_fract_x
 _atom_site_fract_y
 _atom_site_fract_z
 _atom_site_occupancy
  Ho  Ho0  1  0.500003  0.999999  0.499993  1
  Ho  Ho1  1  0.000003  0.500004  0.500005  1
  Ho  Ho2  1  0.500002  0.499992  0.000005  1
  Ho  Ho3  1  0.499988  0.500007  0.500004  1
  Fe  Fe4  1  0.999997  0.500002  0.000003  1
  Fe  Fe5  1  0.000001  0.999996  0.000000  1
  Au  Au6  1  0.500002  0.999997  0.000000  1
  Au  Au7  1  0.000002  0.000001  0.500002  1
  O  O8  1  0.622136  0.627857  0.622143  1
  O  O9  1  0.377862  0.372139  0.377863  1
  O  O10  1  0.341105  0.912089  0.907026  1
  O  O11  1  0.092969  0.660212  0.658897  1
  O  O12  1  0.913812  0.336187  0.913815  1
  O  O13  1  0.907033  0.912092  0.341095  1
  O  O14  1  0.341107  0.339793  0.907027  1
  O  O15  1  0.341179  0.908842  0.341171  1
  O  O16  1  0.907034  0.339792  0.341099  1
  O  O17  1  0.658888  0.660214  0.092970  1
  O  O18  1  0.092967  0.087905  0.658902  1
  O  O19  1  0.658900  0.087914  0.092970  1
  O  O20  1  0.658826  0.091157  0.658824  1
  O  O21  1  0.086188  0.663815  0.086187  1
