# generated using pymatgen
data_Dy4Er12In4Pt3Rh
_symmetry_space_group_name_H-M   'P 1'
_cell_length_a   9.62680461
_cell_length_b   9.63348170
_cell_length_c   9.63022630
_cell_angle_alpha   60.20328781
_cell_angle_beta   60.13453782
_cell_angle_gamma   60.16648869
_symmetry_Int_Tables_number   1
_chemical_formula_structural   Dy4Er12In4Pt3Rh
_chemical_formula_sum   'Dy4 Er12 In4 Pt3 Rh1'
_cell_volume   633.92366531
_cell_formula_units_Z   1
loop_
 _symmetry_equiv_pos_site_id
 _symmetry_equiv_pos_as_xyz
  1  'x, y, z'
loop_
 _atom_site_type_symbol
 _atom_site_label
 _atom_site_symmetry_multiplicity
 _atom_site_fract_x
 _atom_site_fract_y
 _atom_site_fract_z
 _atom_site_occupancy
  Dy  Dy0  1  0.190231  0.190315  0.808775  1
  Dy  Dy1  1  0.438739  0.061922  0.062287  1
  Dy  Dy2  1  0.437206  0.063817  0.437167  1
  Dy  Dy3  1  0.061818  0.438720  0.062620  1
  Er  Er4  1  0.650820  0.051605  0.650261  1
  Er  Er5  1  0.186566  0.810464  0.810690  1
  Er  Er6  1  0.061492  0.061927  0.438960  1
  Er  Er7  1  0.808727  0.190235  0.190540  1
  Er  Er8  1  0.810861  0.810543  0.186666  1
  Er  Er9  1  0.650472  0.650485  0.051726  1
  Er  Er10  1  0.649514  0.649277  0.649128  1
  Er  Er11  1  0.063378  0.437752  0.437204  1
  Er  Er12  1  0.051570  0.650849  0.650238  1
  Er  Er13  1  0.810628  0.186563  0.810553  1
  Er  Er14  1  0.437491  0.437895  0.063488  1
  Er  Er15  1  0.190125  0.808467  0.190649  1
  In  In16  1  0.416720  0.748982  0.416920  1
  In  In17  1  0.417152  0.417017  0.748925  1
  In  In18  1  0.749490  0.416591  0.416882  1
  In  In19  1  0.416304  0.416523  0.416023  1
  Pt  Pt20  1  0.856759  0.428258  0.857618  1
  Pt  Pt21  1  0.857958  0.857514  0.427641  1
  Pt  Pt22  1  0.428329  0.856636  0.857783  1
  Rh  Rh23  1  0.857652  0.857646  0.857259  1
