# generated using pymatgen
data_Pa5Re2TcC8
_symmetry_space_group_name_H-M   'P 1'
_cell_length_a   11.45277900
_cell_length_b   11.45277900
_cell_length_c   3.38955200
_cell_angle_alpha   90.00000000
_cell_angle_beta   90.00000000
_cell_angle_gamma   90.00000000
_symmetry_Int_Tables_number   1
_chemical_formula_structural   Pa5Re2TcC8
_chemical_formula_sum   'Pa10 Re4 Tc2 C16'
_cell_volume   444.59447530
_cell_formula_units_Z   2
loop_
 _symmetry_equiv_pos_site_id
 _symmetry_equiv_pos_as_xyz
  1  'x, y, z'
loop_
 _atom_site_type_symbol
 _atom_site_label
 _atom_site_symmetry_multiplicity
 _atom_site_fract_x
 _atom_site_fract_y
 _atom_site_fract_z
 _atom_site_occupancy
  Pa  Pa0  1  0.000000  0.500000  0.000000  1
  Pa  Pa1  1  0.274515  0.543456  0.500000  1
  Pa  Pa2  1  0.725485  0.456544  0.500000  1
  Pa  Pa3  1  0.543456  0.725485  0.500000  1
  Pa  Pa4  1  0.774515  0.956544  0.500000  1
  Pa  Pa5  1  0.225485  0.043456  0.500000  1
  Pa  Pa6  1  0.956544  0.225485  0.500000  1
  Pa  Pa7  1  0.456544  0.274515  0.500000  1
  Pa  Pa8  1  0.500000  0.000000  0.000000  1
  Pa  Pa9  1  0.043456  0.774515  0.500000  1
  Re  Re10  1  0.203033  0.296967  0.000000  1
  Re  Re11  1  0.703033  0.203033  0.000000  1
  Re  Re12  1  0.296967  0.796967  0.000000  1
  Re  Re13  1  0.796967  0.703033  0.000000  1
  Tc  Tc14  1  0.500000  0.500000  0.000000  1
  Tc  Tc15  1  0.000000  0.000000  0.000000  1
  C  C16  1  0.347417  0.401236  0.000000  1
  C  C17  1  0.618431  0.118431  0.500000  1
  C  C18  1  0.901236  0.847417  0.000000  1
  C  C19  1  0.652673  0.847327  0.000000  1
  C  C20  1  0.347327  0.152673  0.000000  1
  C  C21  1  0.118431  0.381569  0.500000  1
  C  C22  1  0.152583  0.901236  0.000000  1
  C  C23  1  0.847327  0.347327  0.000000  1
  C  C24  1  0.652583  0.598764  0.000000  1
  C  C25  1  0.598764  0.347417  0.000000  1
  C  C26  1  0.881569  0.618431  0.500000  1
  C  C27  1  0.847417  0.098764  0.000000  1
  C  C28  1  0.381569  0.881569  0.500000  1
  C  C29  1  0.152673  0.652673  0.000000  1
  C  C30  1  0.098764  0.152583  0.000000  1
  C  C31  1  0.401236  0.652583  0.000000  1
