# generated using pymatgen
data_Ho6PtI10
_symmetry_space_group_name_H-M   'P 1'
_cell_length_a   7.69992000
_cell_length_b   9.69252948
_cell_length_c   9.72577944
_cell_angle_alpha   107.16929103
_cell_angle_beta   96.93020194
_cell_angle_gamma   104.68226406
_symmetry_Int_Tables_number   1
_chemical_formula_structural   Ho6PtI10
_chemical_formula_sum   'Ho6 Pt1 I10'
_cell_volume   655.68283631
_cell_formula_units_Z   1
loop_
 _symmetry_equiv_pos_site_id
 _symmetry_equiv_pos_as_xyz
  1  'x, y, z'
loop_
 _atom_site_type_symbol
 _atom_site_label
 _atom_site_symmetry_multiplicity
 _atom_site_fract_x
 _atom_site_fract_y
 _atom_site_fract_z
 _atom_site_occupancy
  Ho  Ho0  1  0.885969  0.960080  0.241246  1
  Ho  Ho1  1  0.114031  0.039920  0.758754  1
  Ho  Ho2  1  0.347862  0.125177  0.165409  1
  Ho  Ho3  1  0.652138  0.874823  0.834591  1
  Ho  Ho4  1  0.971554  0.286538  0.086581  1
  Ho  Ho5  1  0.028446  0.713462  0.913419  1
  Pt  Pt6  1  0.000000  0.000000  0.000000  1
  I  I7  1  0.355894  0.453725  0.272922  1
  I  I8  1  0.644106  0.546275  0.727078  1
  I  I9  1  0.914260  0.626856  0.179293  1
  I  I10  1  0.085740  0.373144  0.820707  1
  I  I11  1  0.453703  0.817182  0.092230  1
  I  I12  1  0.546297  0.182818  0.907770  1
  I  I13  1  0.259360  0.087727  0.463522  1
  I  I14  1  0.740640  0.912273  0.536478  1
  I  I15  1  0.779844  0.259361  0.347553  1
  I  I16  1  0.220156  0.740639  0.652447  1
