# generated using pymatgen
data_Th4Hg2Pd3Rh
_symmetry_space_group_name_H-M   'P 1'
_cell_length_a   7.92987554
_cell_length_b   7.92987554
_cell_length_c   3.79733700
_cell_angle_alpha   90.00000000
_cell_angle_beta   90.00000000
_cell_angle_gamma   90.10826401
_symmetry_Int_Tables_number   1
_chemical_formula_structural   Th4Hg2Pd3Rh
_chemical_formula_sum   'Th4 Hg2 Pd3 Rh1'
_cell_volume   238.78723553
_cell_formula_units_Z   1
loop_
 _symmetry_equiv_pos_site_id
 _symmetry_equiv_pos_as_xyz
  1  'x, y, z'
loop_
 _atom_site_type_symbol
 _atom_site_label
 _atom_site_symmetry_multiplicity
 _atom_site_fract_x
 _atom_site_fract_y
 _atom_site_fract_z
 _atom_site_occupancy
  Th  Th0  1  0.323370  0.164900  0.500001  1
  Th  Th1  1  0.827417  0.327417  0.500001  1
  Th  Th2  1  0.182448  0.682448  0.500001  1
  Th  Th3  1  0.664900  0.823370  0.500001  1
  Hg  Hg4  1  0.997375  0.999880  0.000000  1
  Hg  Hg5  1  0.499880  0.497375  0.000000  1
  Pd  Pd6  1  0.629166  0.129168  0.000000  1
  Pd  Pd7  1  0.127742  0.373973  0.000000  1
  Pd  Pd8  1  0.873973  0.627740  0.000000  1
  Rh  Rh9  1  0.373730  0.873730  0.000000  1
