# generated using pymatgen
data_Y4HoLu5Ir4
_symmetry_space_group_name_H-M   'P 1'
_cell_length_a   6.41465628
_cell_length_b   7.20447553
_cell_length_c   8.42410911
_cell_angle_alpha   97.11909491
_cell_angle_beta   112.37903465
_cell_angle_gamma   90.00000131
_symmetry_Int_Tables_number   1
_chemical_formula_structural   Y4HoLu5Ir4
_chemical_formula_sum   'Y4 Ho1 Lu5 Ir4'
_cell_volume   356.74480927
_cell_formula_units_Z   1
loop_
 _symmetry_equiv_pos_site_id
 _symmetry_equiv_pos_as_xyz
  1  'x, y, z'
loop_
 _atom_site_type_symbol
 _atom_site_label
 _atom_site_symmetry_multiplicity
 _atom_site_fract_x
 _atom_site_fract_y
 _atom_site_fract_z
 _atom_site_occupancy
  Y  Y0  1  0.974561  0.918953  0.187781  1
  Y  Y1  1  0.786781  0.581047  0.812219  1
  Y  Y2  1  0.026280  0.079643  0.811558  1
  Y  Y3  1  0.214721  0.420357  0.188442  1
  Ho  Ho4  1  0.574614  0.250000  0.000000  1
  Lu  Lu5  1  0.645719  0.816214  0.439073  1
  Lu  Lu6  1  0.206647  0.683786  0.560927  1
  Lu  Lu7  1  0.352525  0.183206  0.559644  1
  Lu  Lu8  1  0.792881  0.316794  0.440356  1
  Lu  Lu9  1  0.427028  0.750000  0.000000  1
  Ir  Ir10  1  0.819645  0.575405  0.223966  1
  Ir  Ir11  1  0.595680  0.924595  0.776034  1
  Ir  Ir12  1  0.179425  0.426118  0.775931  1
  Ir  Ir13  1  0.403492  0.073882  0.224069  1
