# generated using pymatgen
data_MnBi2PtF14
_symmetry_space_group_name_H-M   'P 1'
_cell_length_a   5.58655984
_cell_length_b   9.09072816
_cell_length_c   12.09249743
_cell_angle_alpha   61.73382411
_cell_angle_beta   90.16244459
_cell_angle_gamma   90.15577754
_symmetry_Int_Tables_number   1
_chemical_formula_structural   MnBi2PtF14
_chemical_formula_sum   'Mn2 Bi4 Pt2 F28'
_cell_volume   540.89503427
_cell_formula_units_Z   2
loop_
 _symmetry_equiv_pos_site_id
 _symmetry_equiv_pos_as_xyz
  1  'x, y, z'
loop_
 _atom_site_type_symbol
 _atom_site_label
 _atom_site_symmetry_multiplicity
 _atom_site_fract_x
 _atom_site_fract_y
 _atom_site_fract_z
 _atom_site_occupancy
  Mn  Mn0  1  0.757296  0.727182  0.042021  1
  Mn  Mn1  1  0.242704  0.272818  0.957979  1
  Bi  Bi2  1  0.261392  0.816897  0.257781  1
  Bi  Bi3  1  0.738608  0.183103  0.742219  1
  Bi  Bi4  1  0.765474  0.189230  0.233836  1
  Bi  Bi5  1  0.234526  0.810770  0.766164  1
  Pt  Pt6  1  0.260239  0.270968  0.458704  1
  Pt  Pt7  1  0.739761  0.729032  0.541296  1
  F  F8  1  0.921903  0.705204  0.411203  1
  F  F9  1  0.078097  0.294796  0.588797  1
  F  F10  1  0.433764  0.288833  0.076336  1
  F  F11  1  0.566236  0.711167  0.923664  1
  F  F12  1  0.488601  0.734650  0.127995  1
  F  F13  1  0.511399  0.265350  0.872005  1
  F  F14  1  0.962195  0.277936  0.368726  1
  F  F15  1  0.037805  0.722064  0.631274  1
  F  F16  1  0.946435  0.743614  0.162515  1
  F  F17  1  0.053565  0.256386  0.837485  1
  F  F18  1  0.435163  0.256215  0.322292  1
  F  F19  1  0.564837  0.743785  0.677708  1
  F  F20  1  0.765463  0.498592  0.134133  1
  F  F21  1  0.234537  0.501408  0.865867  1
  F  F22  1  0.277763  0.515291  0.359492  1
  F  F23  1  0.722237  0.484709  0.640508  1
  F  F24  1  0.965286  0.281225  0.040775  1
  F  F25  1  0.034714  0.718775  0.959225  1
  F  F26  1  0.434595  0.726225  0.459003  1
  F  F27  1  0.565405  0.273775  0.540997  1
  F  F28  1  0.744742  0.976493  0.448358  1
  F  F29  1  0.255258  0.023507  0.551642  1
  F  F30  1  0.238619  0.039933  0.049562  1
  F  F31  1  0.761381  0.960067  0.950438  1
  F  F32  1  0.601751  0.968765  0.227696  1
  F  F33  1  0.398249  0.031235  0.772304  1
  F  F34  1  0.098382  0.030560  0.274161  1
  F  F35  1  0.901618  0.969440  0.725839  1
