# generated using pymatgen
data_Ce5Er11(HgRu)4
_symmetry_space_group_name_H-M   'P 1'
_cell_length_a   9.44276485
_cell_length_b   9.52836277
_cell_length_c   9.52836300
_cell_angle_alpha   59.97848961
_cell_angle_beta   60.29672870
_cell_angle_gamma   60.29673183
_symmetry_Int_Tables_number   1
_chemical_formula_structural   Ce5Er11(HgRu)4
_chemical_formula_sum   'Ce5 Er11 Hg4 Ru4'
_cell_volume   608.81147683
_cell_formula_units_Z   1
loop_
 _symmetry_equiv_pos_site_id
 _symmetry_equiv_pos_as_xyz
  1  'x, y, z'
loop_
 _atom_site_type_symbol
 _atom_site_label
 _atom_site_symmetry_multiplicity
 _atom_site_fract_x
 _atom_site_fract_y
 _atom_site_fract_z
 _atom_site_occupancy
  Ce  Ce0  1  0.814486  0.185514  0.185514  1
  Ce  Ce1  1  0.349246  0.348643  0.952865  1
  Ce  Ce2  1  0.349246  0.952865  0.348643  1
  Ce  Ce3  1  0.952373  0.351746  0.351746  1
  Ce  Ce4  1  0.344136  0.351746  0.351746  1
  Er  Er5  1  0.561415  0.562120  0.936700  1
  Er  Er6  1  0.939764  0.562120  0.936700  1
  Er  Er7  1  0.565693  0.934307  0.934307  1
  Er  Er8  1  0.939764  0.936700  0.562120  1
  Er  Er9  1  0.561415  0.936700  0.562120  1
  Er  Er10  1  0.933921  0.566079  0.566079  1
  Er  Er11  1  0.193043  0.187194  0.808138  1
  Er  Er12  1  0.811625  0.187194  0.808138  1
  Er  Er13  1  0.187550  0.812450  0.812449  1
  Er  Er14  1  0.811625  0.808139  0.187194  1
  Er  Er15  1  0.193042  0.808138  0.187193  1
  Hg  Hg16  1  0.585139  0.588476  0.241247  1
  Hg  Hg17  1  0.585139  0.241247  0.588476  1
  Hg  Hg18  1  0.242962  0.585796  0.585796  1
  Hg  Hg19  1  0.585447  0.585796  0.585796  1
  Ru  Ru20  1  0.147396  0.141233  0.563977  1
  Ru  Ru21  1  0.147396  0.563977  0.141233  1
  Ru  Ru22  1  0.582187  0.150912  0.150912  1
  Ru  Ru23  1  0.115990  0.150912  0.150912  1
