# generated using pymatgen
data_Dy3Ga2Pb
_symmetry_space_group_name_H-M   'P 1'
_cell_length_a   6.39981200
_cell_length_b   9.35498800
_cell_length_c   9.91719800
_cell_angle_alpha   90.00000000
_cell_angle_beta   90.00000000
_cell_angle_gamma   90.00000000
_symmetry_Int_Tables_number   1
_chemical_formula_structural   Dy3Ga2Pb
_chemical_formula_sum   'Dy12 Ga8 Pb4'
_cell_volume   593.74427526
_cell_formula_units_Z   4
loop_
 _symmetry_equiv_pos_site_id
 _symmetry_equiv_pos_as_xyz
  1  'x, y, z'
loop_
 _atom_site_type_symbol
 _atom_site_label
 _atom_site_symmetry_multiplicity
 _atom_site_fract_x
 _atom_site_fract_y
 _atom_site_fract_z
 _atom_site_occupancy
  Dy  Dy0  1  0.000000  0.750000  0.127690  1
  Dy  Dy1  1  0.500000  0.250000  0.872310  1
  Dy  Dy2  1  0.000000  0.250000  0.872310  1
  Dy  Dy3  1  0.500000  0.750000  0.127690  1
  Dy  Dy4  1  0.750000  0.478117  0.604328  1
  Dy  Dy5  1  0.250000  0.521883  0.395672  1
  Dy  Dy6  1  0.750000  0.978117  0.395672  1
  Dy  Dy7  1  0.250000  0.021883  0.604328  1
  Dy  Dy8  1  0.750000  0.368219  0.211446  1
  Dy  Dy9  1  0.250000  0.631781  0.788554  1
  Dy  Dy10  1  0.750000  0.868219  0.788554  1
  Dy  Dy11  1  0.250000  0.131781  0.211446  1
  Ga  Ga12  1  0.000000  0.750000  0.547851  1
  Ga  Ga13  1  0.500000  0.250000  0.452149  1
  Ga  Ga14  1  0.000000  0.250000  0.452149  1
  Ga  Ga15  1  0.500000  0.750000  0.547851  1
  Ga  Ga16  1  0.750000  0.142981  0.644170  1
  Ga  Ga17  1  0.250000  0.857019  0.355830  1
  Ga  Ga18  1  0.750000  0.642981  0.355830  1
  Ga  Ga19  1  0.250000  0.357019  0.644170  1
  Pb  Pb20  1  0.750000  0.054400  0.089056  1
  Pb  Pb21  1  0.250000  0.945600  0.910944  1
  Pb  Pb22  1  0.750000  0.554400  0.910944  1
  Pb  Pb23  1  0.250000  0.445600  0.089056  1
