# generated using pymatgen
data_Hf6Al16SiRh7
_symmetry_space_group_name_H-M   'P 1'
_cell_length_a   8.75121020
_cell_length_b   8.75139462
_cell_length_c   8.75136368
_cell_angle_alpha   119.97602284
_cell_angle_beta   120.04202680
_cell_angle_gamma   89.98302384
_symmetry_Int_Tables_number   1
_chemical_formula_structural   Hf6Al16SiRh7
_chemical_formula_sum   'Hf6 Al16 Si1 Rh7'
_cell_volume   473.86191711
_cell_formula_units_Z   1
loop_
 _symmetry_equiv_pos_site_id
 _symmetry_equiv_pos_as_xyz
  1  'x, y, z'
loop_
 _atom_site_type_symbol
 _atom_site_label
 _atom_site_symmetry_multiplicity
 _atom_site_fract_x
 _atom_site_fract_y
 _atom_site_fract_z
 _atom_site_occupancy
  Hf  Hf0  1  0.795052  0.294709  0.089390  1
  Hf  Hf1  1  0.205316  0.294702  0.499650  1
  Hf  Hf2  1  0.204808  0.704815  0.500003  1
  Hf  Hf3  1  0.205305  0.705659  0.910587  1
  Hf  Hf4  1  0.795063  0.705661  0.500347  1
  Hf  Hf5  1  0.794241  0.294242  0.499999  1
  Al  Al6  1  0.379288  0.120364  0.741073  1
  Al  Al7  1  0.379287  0.638213  0.258926  1
  Al  Al8  1  0.162541  0.337862  0.175317  1
  Al  Al9  1  0.162531  0.987206  0.824662  1
  Al  Al10  1  0.162453  0.337930  0.824523  1
  Al  Al11  1  0.513404  0.337933  0.175476  1
  Al  Al12  1  0.837502  0.662450  0.824941  1
  Al  Al13  1  0.837496  0.012562  0.175056  1
  Al  Al14  1  0.837701  0.662394  0.175326  1
  Al  Al15  1  0.487063  0.662391  0.824687  1
  Al  Al16  1  0.379214  0.120599  0.258615  1
  Al  Al17  1  0.861996  0.120601  0.741389  1
  Al  Al18  1  0.620369  0.879138  0.258769  1
  Al  Al19  1  0.620364  0.361603  0.741235  1
  Al  Al20  1  0.620350  0.879297  0.741038  1
  Al  Al21  1  0.138270  0.879303  0.258953  1
  Si  Si22  1  0.999699  0.499718  0.500015  1
  Rh  Rh23  1  0.999902  0.999974  0.499663  1
  Rh  Rh24  1  0.500293  0.999983  0.000065  1
  Rh  Rh25  1  0.500364  0.500374  0.000009  1
  Rh  Rh26  1  0.500283  0.500208  0.500296  1
  Rh  Rh27  1  0.999904  0.500218  0.999928  1
  Rh  Rh28  1  0.999828  0.999826  0.000020  1
  Rh  Rh29  1  0.500102  0.000061  0.500041  1
