# generated using pymatgen
data_Ca3PdPt
_symmetry_space_group_name_H-M   'P 1'
_cell_length_a   7.64230022
_cell_length_b   7.64230039
_cell_length_c   7.64230106
_cell_angle_alpha   71.46689690
_cell_angle_beta   71.46689194
_cell_angle_gamma   71.46688555
_symmetry_Int_Tables_number   1
_chemical_formula_structural   Ca3PdPt
_chemical_formula_sum   'Ca9 Pd3 Pt3'
_cell_volume   389.40640264
_cell_formula_units_Z   3
loop_
 _symmetry_equiv_pos_site_id
 _symmetry_equiv_pos_as_xyz
  1  'x, y, z'
loop_
 _atom_site_type_symbol
 _atom_site_label
 _atom_site_symmetry_multiplicity
 _atom_site_fract_x
 _atom_site_fract_y
 _atom_site_fract_z
 _atom_site_occupancy
  Ca  Ca0  1  0.998385  0.998385  0.998385  1
  Ca  Ca1  1  0.800224  0.800224  0.800224  1
  Ca  Ca2  1  0.204333  0.204333  0.204333  1
  Ca  Ca3  1  0.330946  0.602291  0.844391  1
  Ca  Ca4  1  0.844391  0.330946  0.602291  1
  Ca  Ca5  1  0.602290  0.844391  0.330946  1
  Ca  Ca6  1  0.668614  0.395886  0.152474  1
  Ca  Ca7  1  0.152474  0.668614  0.395886  1
  Ca  Ca8  1  0.395886  0.152474  0.668614  1
  Pd  Pd9  1  0.844302  0.043858  0.413076  1
  Pd  Pd10  1  0.413076  0.844302  0.043858  1
  Pd  Pd11  1  0.043858  0.413076  0.844302  1
  Pt  Pt12  1  0.160636  0.953657  0.586926  1
  Pt  Pt13  1  0.586926  0.160636  0.953657  1
  Pt  Pt14  1  0.953657  0.586926  0.160636  1
