# generated using pymatgen
data_Tb6Ce5Tm5(CdRu)4
_symmetry_space_group_name_H-M   'P 1'
_cell_length_a   9.54483465
_cell_length_b   9.62934994
_cell_length_c   9.62934993
_cell_angle_alpha   59.89017307
_cell_angle_beta   60.28991559
_cell_angle_gamma   60.28991580
_symmetry_Int_Tables_number   1
_chemical_formula_structural   Tb6Ce5Tm5(CdRu)4
_chemical_formula_sum   'Tb6 Ce5 Tm5 Cd4 Ru4'
_cell_volume   628.01749388
_cell_formula_units_Z   1
loop_
 _symmetry_equiv_pos_site_id
 _symmetry_equiv_pos_as_xyz
  1  'x, y, z'
loop_
 _atom_site_type_symbol
 _atom_site_label
 _atom_site_symmetry_multiplicity
 _atom_site_fract_x
 _atom_site_fract_y
 _atom_site_fract_z
 _atom_site_occupancy
  Tb  Tb0  1  0.559926  0.560578  0.938490  1
  Tb  Tb1  1  0.941007  0.560578  0.938490  1
  Tb  Tb2  1  0.562925  0.937075  0.937075  1
  Tb  Tb3  1  0.941007  0.938490  0.560578  1
  Tb  Tb4  1  0.559926  0.938490  0.560578  1
  Tb  Tb5  1  0.935742  0.564258  0.564258  1
  Ce  Ce6  1  0.815939  0.184061  0.184061  1
  Ce  Ce7  1  0.347234  0.346741  0.958792  1
  Ce  Ce8  1  0.347234  0.958792  0.346741  1
  Ce  Ce9  1  0.958888  0.349803  0.349803  1
  Ce  Ce10  1  0.341506  0.349803  0.349803  1
  Tm  Tm11  1  0.191106  0.185488  0.809811  1
  Tm  Tm12  1  0.813595  0.185488  0.809811  1
  Tm  Tm13  1  0.185914  0.814086  0.814085  1
  Tm  Tm14  1  0.813595  0.809812  0.185488  1
  Tm  Tm15  1  0.191105  0.809811  0.185487  1
  Cd  Cd16  1  0.580335  0.583458  0.255871  1
  Cd  Cd17  1  0.580335  0.255871  0.583458  1
  Cd  Cd18  1  0.257817  0.580569  0.580569  1
  Cd  Cd19  1  0.581045  0.580569  0.580569  1
  Ru  Ru20  1  0.146342  0.142321  0.564996  1
  Ru  Ru21  1  0.146342  0.564996  0.142321  1
  Ru  Ru22  1  0.582711  0.149433  0.149433  1
  Ru  Ru23  1  0.118423  0.149433  0.149433  1
