# generated using pymatgen
data_CaHoNiRh3
_symmetry_space_group_name_H-M   'P 1'
_cell_length_a   5.38221848
_cell_length_b   5.38221909
_cell_length_c   5.20169807
_cell_angle_alpha   58.84519091
_cell_angle_beta   58.84518439
_cell_angle_gamma   60.00000153
_symmetry_Int_Tables_number   1
_chemical_formula_structural   CaHoNiRh3
_chemical_formula_sum   'Ca1 Ho1 Ni1 Rh3'
_cell_volume   104.65198605
_cell_formula_units_Z   1
loop_
 _symmetry_equiv_pos_site_id
 _symmetry_equiv_pos_as_xyz
  1  'x, y, z'
loop_
 _atom_site_type_symbol
 _atom_site_label
 _atom_site_symmetry_multiplicity
 _atom_site_fract_x
 _atom_site_fract_y
 _atom_site_fract_z
 _atom_site_occupancy
  Ca  Ca0  1  0.751448  0.751448  0.745657  1
  Ho  Ho1  1  0.498426  0.498426  0.504721  1
  Ni  Ni2  1  0.125039  0.125039  0.624883  1
  Rh  Rh3  1  0.125097  0.624894  0.124913  1
  Rh  Rh4  1  0.125097  0.125097  0.124913  1
  Rh  Rh5  1  0.624894  0.125097  0.124913  1
