# generated using pymatgen
data_HgRuF7
_symmetry_space_group_name_H-M   'P 1'
_cell_length_a   5.86072400
_cell_length_b   8.57162475
_cell_length_c   13.24314599
_cell_angle_alpha   64.58739319
_cell_angle_beta   90.00000000
_cell_angle_gamma   90.00000000
_symmetry_Int_Tables_number   1
_chemical_formula_structural   HgRuF7
_chemical_formula_sum   'Hg4 Ru4 F28'
_cell_volume   600.90964919
_cell_formula_units_Z   4
loop_
 _symmetry_equiv_pos_site_id
 _symmetry_equiv_pos_as_xyz
  1  'x, y, z'
loop_
 _atom_site_type_symbol
 _atom_site_label
 _atom_site_symmetry_multiplicity
 _atom_site_fract_x
 _atom_site_fract_y
 _atom_site_fract_z
 _atom_site_occupancy
  Hg  Hg0  1  0.272932  0.847728  0.721590  1
  Hg  Hg1  1  0.772932  0.152272  0.778410  1
  Hg  Hg2  1  0.727068  0.152272  0.278410  1
  Hg  Hg3  1  0.227068  0.847728  0.221590  1
  Ru  Ru4  1  0.211212  0.292563  0.437642  1
  Ru  Ru5  1  0.711212  0.707437  0.062358  1
  Ru  Ru6  1  0.788788  0.707437  0.562358  1
  Ru  Ru7  1  0.288788  0.292563  0.937642  1
  F  F8  1  0.595329  0.959336  0.733710  1
  F  F9  1  0.095329  0.040664  0.766290  1
  F  F10  1  0.404671  0.040664  0.266290  1
  F  F11  1  0.904671  0.959336  0.233710  1
  F  F12  1  0.373334  0.313791  0.552043  1
  F  F13  1  0.873334  0.686209  0.947957  1
  F  F14  1  0.626666  0.686209  0.447957  1
  F  F15  1  0.126666  0.313791  0.052043  1
  F  F16  1  0.453339  0.272527  0.814892  1
  F  F17  1  0.953339  0.727473  0.685108  1
  F  F18  1  0.546661  0.727473  0.185108  1
  F  F19  1  0.046661  0.272527  0.314892  1
  F  F20  1  0.010067  0.311268  0.856869  1
  F  F21  1  0.510067  0.688732  0.643131  1
  F  F22  1  0.989933  0.688732  0.143131  1
  F  F23  1  0.489933  0.311268  0.356869  1
  F  F24  1  0.253690  0.048202  0.008928  1
  F  F25  1  0.753690  0.951798  0.491072  1
  F  F26  1  0.746310  0.951798  0.991072  1
  F  F27  1  0.246310  0.048202  0.508928  1
  F  F28  1  0.323101  0.536495  0.861953  1
  F  F29  1  0.823101  0.463505  0.638047  1
  F  F30  1  0.676899  0.463505  0.138047  1
  F  F31  1  0.176899  0.536495  0.361953  1
  F  F32  1  0.566230  0.273125  0.012192  1
  F  F33  1  0.066230  0.726875  0.487808  1
  F  F34  1  0.433770  0.726875  0.987808  1
  F  F35  1  0.933770  0.273125  0.512192  1
