# generated using pymatgen
data_Tb12Si12PtAu11
_symmetry_space_group_name_H-M   'P 1'
_cell_length_a   4.35170400
_cell_length_b   7.53971113
_cell_length_c   22.49102800
_cell_angle_alpha   90.01065408
_cell_angle_beta   90.00000000
_cell_angle_gamma   90.00000000
_symmetry_Int_Tables_number   1
_chemical_formula_structural   Tb12Si12PtAu11
_chemical_formula_sum   'Tb12 Si12 Pt1 Au11'
_cell_volume   737.94391003
_cell_formula_units_Z   1
loop_
 _symmetry_equiv_pos_site_id
 _symmetry_equiv_pos_as_xyz
  1  'x, y, z'
loop_
 _atom_site_type_symbol
 _atom_site_label
 _atom_site_symmetry_multiplicity
 _atom_site_fract_x
 _atom_site_fract_y
 _atom_site_fract_z
 _atom_site_occupancy
  Tb  Tb0  1  0.250000  0.739228  0.336205  1
  Tb  Tb1  1  0.750000  0.276903  0.664128  1
  Tb  Tb2  1  0.750000  0.242800  0.166579  1
  Tb  Tb3  1  0.250000  0.771624  0.829837  1
  Tb  Tb4  1  0.250000  0.758318  0.167955  1
  Tb  Tb5  1  0.750000  0.231561  0.830473  1
  Tb  Tb6  1  0.750000  0.263157  0.336220  1
  Tb  Tb7  1  0.250000  0.720588  0.664660  1
  Tb  Tb8  1  0.250000  0.731334  0.996612  1
  Tb  Tb9  1  0.750000  0.269693  0.998599  1
  Tb  Tb10  1  0.750000  0.226240  0.505665  1
  Tb  Tb11  1  0.250000  0.779853  0.504057  1
  Si  Si12  1  0.250000  0.082424  0.071915  1
  Si  Si13  1  0.750000  0.913962  0.909413  1
  Si  Si14  1  0.750000  0.588528  0.433993  1
  Si  Si15  1  0.250000  0.405912  0.582796  1
  Si  Si16  1  0.250000  0.085460  0.248127  1
  Si  Si17  1  0.750000  0.910029  0.734337  1
  Si  Si18  1  0.750000  0.585765  0.255809  1
  Si  Si19  1  0.250000  0.411688  0.751183  1
  Si  Si20  1  0.250000  0.088520  0.419673  1
  Si  Si21  1  0.750000  0.918125  0.601719  1
  Si  Si22  1  0.750000  0.588687  0.082170  1
  Si  Si23  1  0.250000  0.413087  0.912080  1
  Pt  Pt24  1  0.250000  0.076462  0.592718  1
  Au  Au25  1  0.250000  0.417799  0.247668  1
  Au  Au26  1  0.750000  0.580400  0.757660  1
  Au  Au27  1  0.750000  0.919814  0.257099  1
  Au  Au28  1  0.250000  0.078892  0.738568  1
  Au  Au29  1  0.250000  0.420930  0.423860  1
  Au  Au30  1  0.750000  0.585335  0.569122  1
  Au  Au31  1  0.750000  0.919467  0.081976  1
  Au  Au32  1  0.250000  0.080033  0.924263  1
  Au  Au33  1  0.250000  0.417103  0.088207  1
  Au  Au34  1  0.750000  0.580609  0.903045  1
  Au  Au35  1  0.750000  0.919672  0.411610  1
