# generated using pymatgen
data_NdTm12Th7Sn16
_symmetry_space_group_name_H-M   'P 1'
_cell_length_a   8.10128777
_cell_length_b   8.18238826
_cell_length_c   15.44826843
_cell_angle_alpha   90.04636015
_cell_angle_beta   90.08423470
_cell_angle_gamma   89.95653510
_symmetry_Int_Tables_number   1
_chemical_formula_structural   NdTm12Th7Sn16
_chemical_formula_sum   'Nd1 Tm12 Th7 Sn16'
_cell_volume   1024.03125840
_cell_formula_units_Z   1
loop_
 _symmetry_equiv_pos_site_id
 _symmetry_equiv_pos_as_xyz
  1  'x, y, z'
loop_
 _atom_site_type_symbol
 _atom_site_label
 _atom_site_symmetry_multiplicity
 _atom_site_fract_x
 _atom_site_fract_y
 _atom_site_fract_z
 _atom_site_occupancy
  Nd  Nd0  1  0.519897  0.321386  0.903282  1
  Tm  Tm1  1  0.361612  0.837181  0.875662  1
  Tm  Tm2  1  0.861534  0.662390  0.624249  1
  Tm  Tm3  1  0.638267  0.162654  0.375862  1
  Tm  Tm4  1  0.137932  0.337442  0.124137  1
  Tm  Tm5  1  0.638498  0.162736  0.124290  1
  Tm  Tm6  1  0.138505  0.337477  0.375864  1
  Tm  Tm7  1  0.361676  0.837352  0.624289  1
  Tm  Tm8  1  0.862151  0.662590  0.875704  1
  Tm  Tm9  1  0.191237  0.499231  0.749990  1
  Tm  Tm10  1  0.691772  0.000460  0.749872  1
  Tm  Tm11  1  0.808739  0.501027  0.250023  1
  Tm  Tm12  1  0.308561  0.998923  0.250001  1
  Th  Th13  1  0.019637  0.178773  0.596120  1
  Th  Th14  1  0.480437  0.678827  0.403865  1
  Th  Th15  1  0.980524  0.821232  0.096112  1
  Th  Th16  1  0.480649  0.679265  0.096408  1
  Th  Th17  1  0.980623  0.821155  0.404004  1
  Th  Th18  1  0.519289  0.321061  0.595923  1
  Th  Th19  1  0.019065  0.178112  0.903810  1
  Sn  Sn20  1  0.298876  0.039462  0.042819  1
  Sn  Sn21  1  0.799359  0.459700  0.457573  1
  Sn  Sn22  1  0.700605  0.959823  0.542395  1
  Sn  Sn23  1  0.200668  0.540502  0.957708  1
  Sn  Sn24  1  0.700724  0.959162  0.957638  1
  Sn  Sn25  1  0.200477  0.540538  0.542269  1
  Sn  Sn26  1  0.299244  0.040247  0.457573  1
  Sn  Sn27  1  0.799488  0.459926  0.042794  1
  Sn  Sn28  1  0.557629  0.624312  0.749547  1
  Sn  Sn29  1  0.057416  0.876288  0.749987  1
  Sn  Sn30  1  0.442431  0.376030  0.249985  1
  Sn  Sn31  1  0.942356  0.123917  0.249979  1
  Sn  Sn32  1  0.326701  0.143408  0.750298  1
  Sn  Sn33  1  0.826401  0.357335  0.749898  1
  Sn  Sn34  1  0.673724  0.857254  0.250051  1
  Sn  Sn35  1  0.173294  0.642823  0.250017  1
