# generated using pymatgen
data_KRbMn2P2O7F2
_symmetry_space_group_name_H-M   'P 1'
_cell_length_a   6.99333500
_cell_length_b   10.81134700
_cell_length_c   11.46570100
_cell_angle_alpha   90.00000000
_cell_angle_beta   90.00000000
_cell_angle_gamma   90.00000000
_symmetry_Int_Tables_number   1
_chemical_formula_structural   KRbMn2P2O7F2
_chemical_formula_sum   'K4 Rb4 Mn8 P8 O28 F8'
_cell_volume   866.89151355
_cell_formula_units_Z   4
loop_
 _symmetry_equiv_pos_site_id
 _symmetry_equiv_pos_as_xyz
  1  'x, y, z'
loop_
 _atom_site_type_symbol
 _atom_site_label
 _atom_site_symmetry_multiplicity
 _atom_site_fract_x
 _atom_site_fract_y
 _atom_site_fract_z
 _atom_site_occupancy
  K  K0  1  0.999319  0.935306  0.672622  1
  K  K1  1  0.000773  0.565320  0.672620  1
  K  K2  1  0.000361  0.063057  0.326647  1
  K  K3  1  0.500691  0.936235  0.173978  1
  Rb  Rb4  1  0.501087  0.568092  0.169993  1
  Rb  Rb5  1  0.001574  0.432870  0.330612  1
  Rb  Rb6  1  0.502142  0.065941  0.829354  1
  Rb  Rb7  1  0.498138  0.433303  0.829300  1
  Mn  Mn8  1  0.501031  0.248311  0.335243  1
  Mn  Mn9  1  0.500274  0.750458  0.664803  1
  Mn  Mn10  1  0.999874  0.500425  0.999449  1
  Mn  Mn11  1  0.000170  0.249566  0.834487  1
  Mn  Mn12  1  0.000764  0.999734  0.000574  1
  Mn  Mn13  1  0.000883  0.751677  0.165493  1
  Mn  Mn14  1  0.499620  0.999641  0.499613  1
  Mn  Mn15  1  0.500655  0.500395  0.500700  1
  P  P16  1  0.783817  0.750047  0.422221  1
  P  P17  1  0.214900  0.251054  0.577630  1
  P  P18  1  0.282777  0.250682  0.079444  1
  P  P19  1  0.715270  0.246972  0.079246  1
  P  P20  1  0.716364  0.750216  0.921094  1
  P  P21  1  0.784841  0.246717  0.578219  1
  P  P22  1  0.283465  0.751928  0.920449  1
  P  P23  1  0.214278  0.752324  0.422386  1
  O  O24  1  0.999025  0.750637  0.481741  1
  O  O25  1  0.774686  0.111031  0.083563  1
  O  O26  1  0.199067  0.690823  0.302511  1
  O  O27  1  0.674422  0.325553  0.488296  1
  O  O28  1  0.702586  0.307654  0.199534  1
  O  O29  1  0.824839  0.827997  0.012953  1
  O  O30  1  0.723378  0.111296  0.584124  1
  O  O31  1  0.674234  0.828260  0.513127  1
  O  O32  1  0.721572  0.614957  0.415895  1
  O  O33  1  0.499686  0.753511  0.978109  1
  O  O34  1  0.324805  0.673858  0.512744  1
  O  O35  1  0.274505  0.887935  0.415750  1
  O  O36  1  0.221389  0.386119  0.083446  1
  O  O37  1  0.175925  0.673145  0.011761  1
  O  O38  1  0.326427  0.173292  0.487206  1
  O  O39  1  0.704612  0.810916  0.800575  1
  O  O40  1  0.800710  0.308567  0.697911  1
  O  O41  1  0.999691  0.246342  0.518974  1
  O  O42  1  0.295352  0.189587  0.199758  1
  O  O43  1  0.297673  0.690154  0.800494  1
  O  O44  1  0.272687  0.387349  0.582677  1
  O  O45  1  0.201459  0.190331  0.697912  1
  O  O46  1  0.824679  0.325278  0.988326  1
  O  O47  1  0.498983  0.249395  0.022408  1
  O  O48  1  0.798954  0.811949  0.302317  1
  O  O49  1  0.776531  0.614595  0.916437  1
  O  O50  1  0.219706  0.886681  0.914988  1
  O  O51  1  0.174288  0.172595  0.988010  1
  F  F52  1  0.119199  0.929360  0.156504  1
  F  F53  1  0.377335  0.926313  0.653108  1
  F  F54  1  0.389989  0.426839  0.346093  1
  F  F55  1  0.892825  0.069830  0.842914  1
  F  F56  1  0.106757  0.429955  0.842465  1
  F  F57  1  0.617837  0.070023  0.343636  1
  F  F58  1  0.622354  0.573892  0.653524  1
  F  F59  1  0.888764  0.573712  0.154030  1
