# generated using pymatgen
data_Tb8Tc3B24Ru
_symmetry_space_group_name_H-M   'P 1'
_cell_length_a   3.70230000
_cell_length_b   9.18411850
_cell_length_c   11.57596012
_cell_angle_alpha   89.91558785
_cell_angle_beta   90.00000000
_cell_angle_gamma   90.00000000
_symmetry_Int_Tables_number   1
_chemical_formula_structural   Tb8Tc3B24Ru
_chemical_formula_sum   'Tb8 Tc3 B24 Ru1'
_cell_volume   393.60955879
_cell_formula_units_Z   1
loop_
 _symmetry_equiv_pos_site_id
 _symmetry_equiv_pos_as_xyz
  1  'x, y, z'
loop_
 _atom_site_type_symbol
 _atom_site_label
 _atom_site_symmetry_multiplicity
 _atom_site_fract_x
 _atom_site_fract_y
 _atom_site_fract_z
 _atom_site_occupancy
  Tb  Tb0  1  0.000000  0.324473  0.413808  1
  Tb  Tb1  1  0.000000  0.674475  0.584165  1
  Tb  Tb2  1  0.000000  0.823814  0.087464  1
  Tb  Tb3  1  0.000000  0.176930  0.914441  1
  Tb  Tb4  1  0.000000  0.942683  0.370273  1
  Tb  Tb5  1  0.000000  0.057564  0.630788  1
  Tb  Tb6  1  0.000000  0.443315  0.130052  1
  Tb  Tb7  1  0.000000  0.557723  0.869081  1
  Tc  Tc8  1  0.000000  0.638447  0.320624  1
  Tc  Tc9  1  0.000000  0.361643  0.679726  1
  Tc  Tc10  1  0.000000  0.138045  0.178290  1
  B  B11  1  0.500000  0.553184  0.432441  1
  B  B12  1  0.500000  0.446540  0.566969  1
  B  B13  1  0.500000  0.053153  0.067190  1
  B  B14  1  0.500000  0.946011  0.932573  1
  B  B15  1  0.500000  0.747779  0.418518  1
  B  B16  1  0.500000  0.251473  0.581506  1
  B  B17  1  0.500000  0.248436  0.081336  1
  B  B18  1  0.500000  0.752175  0.918285  1
  B  B19  1  0.500000  0.791478  0.265942  1
  B  B20  1  0.500000  0.208766  0.734764  1
  B  B21  1  0.500000  0.291450  0.234211  1
  B  B22  1  0.500000  0.709586  0.765699  1
  B  B23  1  0.500000  0.631756  0.186030  1
  B  B24  1  0.500000  0.368424  0.814463  1
  B  B25  1  0.500000  0.131121  0.313681  1
  B  B26  1  0.500000  0.868302  0.686253  1
  B  B27  1  0.500000  0.982747  0.211850  1
  B  B28  1  0.500000  0.015766  0.788458  1
  B  B29  1  0.500000  0.483263  0.287892  1
  B  B30  1  0.500000  0.516612  0.711529  1
  B  B31  1  0.500000  0.603613  0.028457  1
  B  B32  1  0.500000  0.397932  0.971145  1
  B  B33  1  0.500000  0.102727  0.471740  1
  B  B34  1  0.500000  0.896975  0.529164  1
  Ru  Ru35  1  0.000000  0.861619  0.821190  1
