# generated using pymatgen
data_Hf5InRh9Au
_symmetry_space_group_name_H-M   'P 1'
_cell_length_a   4.26991300
_cell_length_b   5.61754608
_cell_length_c   11.08962665
_cell_angle_alpha   87.34444097
_cell_angle_beta   90.00000000
_cell_angle_gamma   90.00000000
_symmetry_Int_Tables_number   1
_chemical_formula_structural   Hf5InRh9Au
_chemical_formula_sum   'Hf5 In1 Rh9 Au1'
_cell_volume   265.71493243
_cell_formula_units_Z   1
loop_
 _symmetry_equiv_pos_site_id
 _symmetry_equiv_pos_as_xyz
  1  'x, y, z'
loop_
 _atom_site_type_symbol
 _atom_site_label
 _atom_site_symmetry_multiplicity
 _atom_site_fract_x
 _atom_site_fract_y
 _atom_site_fract_z
 _atom_site_occupancy
  Hf  Hf0  1  0.500000  0.151259  0.632877  1
  Hf  Hf1  1  0.500000  0.819377  0.356199  1
  Hf  Hf2  1  0.500000  0.685001  0.863398  1
  Hf  Hf3  1  0.500000  0.340080  0.147052  1
  Hf  Hf4  1  0.000000  0.016558  0.003054  1
  In  In5  1  0.000000  0.491602  0.495726  1
  Rh  Rh6  1  0.500000  0.192736  0.888235  1
  Rh  Rh7  1  0.500000  0.819532  0.108649  1
  Rh  Rh8  1  0.500000  0.687087  0.617794  1
  Rh  Rh9  1  0.500000  0.291553  0.385241  1
  Rh  Rh10  1  0.000000  0.579063  0.250384  1
  Rh  Rh11  1  0.000000  0.989114  0.499490  1
  Rh  Rh12  1  0.000000  0.514174  0.002049  1
  Rh  Rh13  1  0.000000  0.082090  0.243508  1
  Rh  Rh14  1  0.000000  0.918866  0.755473  1
  Au  Au15  1  0.000000  0.421908  0.750869  1
