# generated using pymatgen
data_Ce4Sb5As3
_symmetry_space_group_name_H-M   'P 1'
_cell_length_a   4.25667509
_cell_length_b   4.25736609
_cell_length_c   17.28995600
_cell_angle_alpha   90.01168157
_cell_angle_beta   90.01180461
_cell_angle_gamma   90.00157218
_symmetry_Int_Tables_number   1
_chemical_formula_structural   Ce4Sb5As3
_chemical_formula_sum   'Ce4 Sb5 As3'
_cell_volume   313.33244552
_cell_formula_units_Z   1
loop_
 _symmetry_equiv_pos_site_id
 _symmetry_equiv_pos_as_xyz
  1  'x, y, z'
loop_
 _atom_site_type_symbol
 _atom_site_label
 _atom_site_symmetry_multiplicity
 _atom_site_fract_x
 _atom_site_fract_y
 _atom_site_fract_z
 _atom_site_occupancy
  Ce  Ce0  1  0.749886  0.244447  0.854225  1
  Ce  Ce1  1  0.750060  0.255654  0.346264  1
  Ce  Ce2  1  0.249953  0.755770  0.153496  1
  Ce  Ce3  1  0.250120  0.744816  0.645275  1
  Sb  Sb4  1  0.250081  0.248344  0.496822  1
  Sb  Sb5  1  0.249950  0.250783  0.002996  1
  Sb  Sb6  1  0.750022  0.751178  0.496841  1
  Sb  Sb7  1  0.749934  0.748210  0.003016  1
  Sb  Sb8  1  0.249827  0.744731  0.825234  1
  As  As9  1  0.750139  0.244132  0.676894  1
  As  As10  1  0.749995  0.255955  0.176057  1
  As  As11  1  0.250033  0.755979  0.322882  1
