# generated using pymatgen
data_ScFeCo3P3Ru
_symmetry_space_group_name_H-M   'P 1'
_cell_length_a   3.64003600
_cell_length_b   10.28870400
_cell_length_c   11.58139300
_cell_angle_alpha   90.00000000
_cell_angle_beta   90.00000000
_cell_angle_gamma   90.00000000
_symmetry_Int_Tables_number   1
_chemical_formula_structural   ScFeCo3P3Ru
_chemical_formula_sum   'Sc4 Fe4 Co12 P12 Ru4'
_cell_volume   433.73767880
_cell_formula_units_Z   4
loop_
 _symmetry_equiv_pos_site_id
 _symmetry_equiv_pos_as_xyz
  1  'x, y, z'
loop_
 _atom_site_type_symbol
 _atom_site_label
 _atom_site_symmetry_multiplicity
 _atom_site_fract_x
 _atom_site_fract_y
 _atom_site_fract_z
 _atom_site_occupancy
  Sc  Sc0  1  0.250000  0.584789  0.702146  1
  Sc  Sc1  1  0.250000  0.915211  0.202146  1
  Sc  Sc2  1  0.750000  0.415211  0.297854  1
  Sc  Sc3  1  0.750000  0.084789  0.797854  1
  Fe  Fe4  1  0.250000  0.406554  0.487626  1
  Fe  Fe5  1  0.250000  0.093446  0.987626  1
  Fe  Fe6  1  0.750000  0.593446  0.512374  1
  Fe  Fe7  1  0.750000  0.906554  0.012374  1
  Co  Co8  1  0.250000  0.222694  0.177287  1
  Co  Co9  1  0.250000  0.277307  0.677287  1
  Co  Co10  1  0.750000  0.777307  0.822713  1
  Co  Co11  1  0.750000  0.722693  0.322713  1
  Co  Co12  1  0.250000  0.887237  0.703926  1
  Co  Co13  1  0.250000  0.612763  0.203926  1
  Co  Co14  1  0.750000  0.112763  0.296074  1
  Co  Co15  1  0.750000  0.387237  0.796074  1
  Co  Co16  1  0.250000  0.464348  0.930302  1
  Co  Co17  1  0.250000  0.035652  0.430302  1
  Co  Co18  1  0.750000  0.535652  0.069698  1
  Co  Co19  1  0.750000  0.964348  0.569698  1
  P  P20  1  0.250000  0.421053  0.116981  1
  P  P21  1  0.250000  0.078947  0.616981  1
  P  P22  1  0.750000  0.578947  0.883019  1
  P  P23  1  0.750000  0.921053  0.383019  1
  P  P24  1  0.250000  0.265025  0.866757  1
  P  P25  1  0.250000  0.234975  0.366757  1
  P  P26  1  0.750000  0.734975  0.133243  1
  P  P27  1  0.750000  0.765025  0.633243  1
  P  P28  1  0.250000  0.590729  0.391848  1
  P  P29  1  0.250000  0.909271  0.891848  1
  P  P30  1  0.750000  0.409271  0.608152  1
  P  P31  1  0.750000  0.090729  0.108152  1
  Ru  Ru32  1  0.250000  0.715406  0.989869  1
  Ru  Ru33  1  0.250000  0.784594  0.489869  1
  Ru  Ru34  1  0.750000  0.284594  0.010131  1
  Ru  Ru35  1  0.750000  0.215406  0.510131  1
