# generated using pymatgen
data_TaTi2Nb2Ge3B
_symmetry_space_group_name_H-M   'P 1'
_cell_length_a   7.72877462
_cell_length_b   7.72877419
_cell_length_c   5.25159600
_cell_angle_alpha   90.00000000
_cell_angle_beta   90.00000000
_cell_angle_gamma   119.95410049
_symmetry_Int_Tables_number   1
_chemical_formula_structural   TaTi2Nb2Ge3B
_chemical_formula_sum   'Ta2 Ti4 Nb4 Ge6 B2'
_cell_volume   271.79651483
_cell_formula_units_Z   2
loop_
 _symmetry_equiv_pos_site_id
 _symmetry_equiv_pos_as_xyz
  1  'x, y, z'
loop_
 _atom_site_type_symbol
 _atom_site_label
 _atom_site_symmetry_multiplicity
 _atom_site_fract_x
 _atom_site_fract_y
 _atom_site_fract_z
 _atom_site_occupancy
  Ta  Ta0  1  0.756573  0.999797  0.750000  1
  Ta  Ta1  1  0.999797  0.756573  0.750000  1
  Ti  Ti2  1  0.667051  0.333611  0.500447  1
  Ti  Ti3  1  0.333611  0.667051  0.500447  1
  Ti  Ti4  1  0.333611  0.667051  0.999553  1
  Ti  Ti5  1  0.667051  0.333611  0.999553  1
  Nb  Nb6  1  0.755667  0.755667  0.250000  1
  Nb  Nb7  1  0.243658  0.999451  0.250000  1
  Nb  Nb8  1  0.999451  0.243658  0.250000  1
  Nb  Nb9  1  0.244498  0.244498  0.750000  1
  Ge  Ge10  1  0.403787  0.403787  0.250000  1
  Ge  Ge11  1  0.595871  0.999795  0.250000  1
  Ge  Ge12  1  0.999795  0.595871  0.250000  1
  Ge  Ge13  1  0.595964  0.595964  0.750000  1
  Ge  Ge14  1  0.404035  0.000006  0.750000  1
  Ge  Ge15  1  0.000006  0.404035  0.750000  1
  B  B16  1  0.999788  0.999788  0.499708  1
  B  B17  1  0.999788  0.999788  0.000292  1
