# generated using pymatgen
data_Nd2LuTh(ZnSn)4
_symmetry_space_group_name_H-M   'P 1'
_cell_length_a   4.58968300
_cell_length_b   4.58968319
_cell_length_c   15.92423300
_cell_angle_alpha   90.00000000
_cell_angle_beta   90.00000000
_cell_angle_gamma   120.00000586
_symmetry_Int_Tables_number   1
_chemical_formula_structural   Nd2LuTh(ZnSn)4
_chemical_formula_sum   'Nd2 Lu1 Th1 Zn4 Sn4'
_cell_volume   290.50561341
_cell_formula_units_Z   1
loop_
 _symmetry_equiv_pos_site_id
 _symmetry_equiv_pos_as_xyz
  1  'x, y, z'
loop_
 _atom_site_type_symbol
 _atom_site_label
 _atom_site_symmetry_multiplicity
 _atom_site_fract_x
 _atom_site_fract_y
 _atom_site_fract_z
 _atom_site_occupancy
  Nd  Nd0  1  0.000000  0.000000  0.991741  1
  Nd  Nd1  1  0.000000  0.000000  0.508259  1
  Lu  Lu2  1  0.000000  0.000000  0.750000  1
  Th  Th3  1  0.000000  0.000000  0.250000  1
  Zn  Zn4  1  0.333333  0.666667  0.145344  1
  Zn  Zn5  1  0.666667  0.333333  0.835276  1
  Zn  Zn6  1  0.666667  0.333333  0.664724  1
  Zn  Zn7  1  0.333333  0.666667  0.354656  1
  Sn  Sn8  1  0.333333  0.666667  0.622134  1
  Sn  Sn9  1  0.666667  0.333333  0.386106  1
  Sn  Sn10  1  0.666667  0.333333  0.113894  1
  Sn  Sn11  1  0.333333  0.666667  0.877866  1
