# generated using pymatgen
data_Ca2PrVO6
_symmetry_space_group_name_H-M   'P 1'
_cell_length_a   7.42307628
_cell_length_b   7.42307563
_cell_length_c   5.65416200
_cell_angle_alpha   90.00000000
_cell_angle_beta   90.00000000
_cell_angle_gamma   104.20656041
_symmetry_Int_Tables_number   1
_chemical_formula_structural   Ca2PrVO6
_chemical_formula_sum   'Ca4 Pr2 V2 O12'
_cell_volume   302.02771874
_cell_formula_units_Z   2
loop_
 _symmetry_equiv_pos_site_id
 _symmetry_equiv_pos_as_xyz
  1  'x, y, z'
loop_
 _atom_site_type_symbol
 _atom_site_label
 _atom_site_symmetry_multiplicity
 _atom_site_fract_x
 _atom_site_fract_y
 _atom_site_fract_z
 _atom_site_occupancy
  Ca  Ca0  1  0.296880  0.100749  0.765644  1
  Ca  Ca1  1  0.703120  0.899251  0.265644  1
  Ca  Ca2  1  0.100749  0.296880  0.265644  1
  Ca  Ca3  1  0.899251  0.703120  0.765644  1
  Pr  Pr4  1  0.401067  0.598933  0.739705  1
  Pr  Pr5  1  0.598933  0.401067  0.239705  1
  V  V6  1  0.190099  0.809901  0.301756  1
  V  V7  1  0.809901  0.190099  0.801756  1
  O  O8  1  0.650561  0.668678  0.004838  1
  O  O9  1  0.205193  0.794807  0.989254  1
  O  O10  1  0.402898  0.896797  0.442202  1
  O  O11  1  0.597102  0.103203  0.942202  1
  O  O12  1  0.668678  0.650561  0.504838  1
  O  O13  1  0.048723  0.951277  0.395917  1
  O  O14  1  0.331322  0.349439  0.004838  1
  O  O15  1  0.349439  0.331322  0.504838  1
  O  O16  1  0.951277  0.048723  0.895917  1
  O  O17  1  0.794807  0.205193  0.489254  1
  O  O18  1  0.896797  0.402898  0.942202  1
  O  O19  1  0.103203  0.597102  0.442202  1
