# generated using pymatgen
data_BaSiSnRh3
_symmetry_space_group_name_H-M   'P 1'
_cell_length_a   6.01877415
_cell_length_b   7.13138080
_cell_length_c   7.13138104
_cell_angle_alpha   62.99514816
_cell_angle_beta   65.10434145
_cell_angle_gamma   65.10435593
_symmetry_Int_Tables_number   1
_chemical_formula_structural   BaSiSnRh3
_chemical_formula_sum   'Ba2 Si2 Sn2 Rh6'
_cell_volume   237.16499440
_cell_formula_units_Z   2
loop_
 _symmetry_equiv_pos_site_id
 _symmetry_equiv_pos_as_xyz
  1  'x, y, z'
loop_
 _atom_site_type_symbol
 _atom_site_label
 _atom_site_symmetry_multiplicity
 _atom_site_fract_x
 _atom_site_fract_y
 _atom_site_fract_z
 _atom_site_occupancy
  Ba  Ba0  1  0.493023  0.757822  0.757822  1
  Ba  Ba1  1  0.506977  0.242178  0.242178  1
  Si  Si2  1  0.150078  0.100290  0.100290  1
  Si  Si3  1  0.849922  0.899710  0.899710  1
  Sn  Sn4  1  0.184545  0.566867  0.566867  1
  Sn  Sn5  1  0.815455  0.433133  0.433133  1
  Rh  Rh6  1  0.500000  0.206233  0.793767  1
  Rh  Rh7  1  0.000000  0.793372  0.206628  1
  Rh  Rh8  1  0.500000  0.793767  0.206233  1
  Rh  Rh9  1  0.000000  0.206628  0.793372  1
  Rh  Rh10  1  0.000000  0.500000  0.000000  1
  Rh  Rh11  1  0.000000  0.000000  0.500000  1
