# generated using pymatgen
data_La2Ga5IrPd2
_symmetry_space_group_name_H-M   'P 1'
_cell_length_a   8.79167227
_cell_length_b   8.80799166
_cell_length_c   8.80799200
_cell_angle_alpha   141.45371004
_cell_angle_beta   108.21182583
_cell_angle_gamma   84.59291467
_symmetry_Int_Tables_number   1
_chemical_formula_structural   La2Ga5IrPd2
_chemical_formula_sum   'La4 Ga10 Ir2 Pd4'
_cell_volume   390.52155470
_cell_formula_units_Z   2
loop_
 _symmetry_equiv_pos_site_id
 _symmetry_equiv_pos_as_xyz
  1  'x, y, z'
loop_
 _atom_site_type_symbol
 _atom_site_label
 _atom_site_symmetry_multiplicity
 _atom_site_fract_x
 _atom_site_fract_y
 _atom_site_fract_z
 _atom_site_occupancy
  La  La0  1  0.861592  0.637175  0.224416  1
  La  La1  1  0.138408  0.362825  0.775584  1
  La  La2  1  0.416947  0.139558  0.277390  1
  La  La3  1  0.583053  0.860442  0.722610  1
  Ga  Ga4  1  0.500000  0.744055  0.244055  1
  Ga  Ga5  1  0.500000  0.255945  0.755945  1
  Ga  Ga6  1  0.210097  0.958501  0.751265  1
  Ga  Ga7  1  0.789903  0.541169  0.748404  1
  Ga  Ga8  1  0.789903  0.041499  0.248735  1
  Ga  Ga9  1  0.210097  0.458831  0.251596  1
  Ga  Ga10  1  0.071348  0.906309  0.165036  1
  Ga  Ga11  1  0.928652  0.093691  0.834964  1
  Ga  Ga12  1  0.734728  0.405592  0.329137  1
  Ga  Ga13  1  0.265272  0.594408  0.670863  1
  Ir  Ir14  1  0.447531  0.353406  0.094127  1
  Ir  Ir15  1  0.552469  0.646594  0.905873  1
  Pd  Pd16  1  0.000000  0.748984  0.748984  1
  Pd  Pd17  1  0.000000  0.251016  0.251016  1
  Pd  Pd18  1  0.257925  0.854858  0.403068  1
  Pd  Pd19  1  0.742075  0.145142  0.596932  1
