# generated using pymatgen
data_Y3Ho2Lu3(CdPt)2
_symmetry_space_group_name_H-M   'P 1'
_cell_length_a   9.60877007
_cell_length_b   9.60877013
_cell_length_c   9.60877000
_cell_angle_alpha   60.00000044
_cell_angle_beta   60.00000024
_cell_angle_gamma   60.00000036
_symmetry_Int_Tables_number   1
_chemical_formula_structural   Y3Ho2Lu3(CdPt)2
_chemical_formula_sum   'Y6 Ho4 Lu6 Cd4 Pt4'
_cell_volume   627.31895262
_cell_formula_units_Z   2
loop_
 _symmetry_equiv_pos_site_id
 _symmetry_equiv_pos_as_xyz
  1  'x, y, z'
loop_
 _atom_site_type_symbol
 _atom_site_label
 _atom_site_symmetry_multiplicity
 _atom_site_fract_x
 _atom_site_fract_y
 _atom_site_fract_z
 _atom_site_occupancy
  Y  Y0  1  0.937119  0.562881  0.562881  1
  Y  Y1  1  0.562881  0.937119  0.937119  1
  Y  Y2  1  0.562881  0.937119  0.562881  1
  Y  Y3  1  0.937119  0.562881  0.937119  1
  Y  Y4  1  0.562881  0.562881  0.937119  1
  Y  Y5  1  0.937119  0.937119  0.562881  1
  Ho  Ho6  1  0.352588  0.352588  0.352588  1
  Ho  Ho7  1  0.352588  0.352588  0.942237  1
  Ho  Ho8  1  0.352588  0.942237  0.352588  1
  Ho  Ho9  1  0.942237  0.352588  0.352588  1
  Lu  Lu10  1  0.812401  0.187599  0.187599  1
  Lu  Lu11  1  0.187599  0.812401  0.812401  1
  Lu  Lu12  1  0.187599  0.812401  0.187599  1
  Lu  Lu13  1  0.812401  0.187599  0.812401  1
  Lu  Lu14  1  0.187599  0.187599  0.812401  1
  Lu  Lu15  1  0.812401  0.812401  0.187599  1
  Cd  Cd16  1  0.581295  0.581295  0.581295  1
  Cd  Cd17  1  0.581295  0.581295  0.256115  1
  Cd  Cd18  1  0.581295  0.256115  0.581295  1
  Cd  Cd19  1  0.256115  0.581295  0.581295  1
  Pt  Pt20  1  0.142330  0.142330  0.142330  1
  Pt  Pt21  1  0.142330  0.142330  0.573011  1
  Pt  Pt22  1  0.142330  0.573011  0.142330  1
  Pt  Pt23  1  0.573011  0.142330  0.142330  1
