# generated using pymatgen
data_Li3Nd4ZnPd4
_symmetry_space_group_name_H-M   'P 1'
_cell_length_a   7.27362823
_cell_length_b   4.14339400
_cell_length_c   8.57350624
_cell_angle_alpha   90.00000000
_cell_angle_beta   89.24675992
_cell_angle_gamma   90.00000000
_symmetry_Int_Tables_number   1
_chemical_formula_structural   Li3Nd4ZnPd4
_chemical_formula_sum   'Li3 Nd4 Zn1 Pd4'
_cell_volume   258.36178111
_cell_formula_units_Z   1
loop_
 _symmetry_equiv_pos_site_id
 _symmetry_equiv_pos_as_xyz
  1  'x, y, z'
loop_
 _atom_site_type_symbol
 _atom_site_label
 _atom_site_symmetry_multiplicity
 _atom_site_fract_x
 _atom_site_fract_y
 _atom_site_fract_z
 _atom_site_occupancy
  Li  Li0  1  0.631331  0.250000  0.559128  1
  Li  Li1  1  0.123517  0.250000  0.944478  1
  Li  Li2  1  0.371004  0.750000  0.442099  1
  Nd  Nd3  1  0.040379  0.250000  0.308938  1
  Nd  Nd4  1  0.551992  0.250000  0.183355  1
  Nd  Nd5  1  0.954524  0.750000  0.691237  1
  Nd  Nd6  1  0.455898  0.750000  0.813296  1
  Zn  Zn7  1  0.871459  0.750000  0.060755  1
  Pd  Pd8  1  0.246818  0.250000  0.616497  1
  Pd  Pd9  1  0.752866  0.250000  0.886738  1
  Pd  Pd10  1  0.752571  0.750000  0.380585  1
  Pd  Pd11  1  0.247640  0.750000  0.112893  1
