# generated using pymatgen
data_Er16Tm4Ir11Ru
_symmetry_space_group_name_H-M   'P 1'
_cell_length_a   10.76335300
_cell_length_b   10.76335300
_cell_length_c   6.34463600
_cell_angle_alpha   90.00000000
_cell_angle_beta   90.00000000
_cell_angle_gamma   90.00000000
_symmetry_Int_Tables_number   1
_chemical_formula_structural   Er16Tm4Ir11Ru
_chemical_formula_sum   'Er16 Tm4 Ir11 Ru1'
_cell_volume   735.02460739
_cell_formula_units_Z   1
loop_
 _symmetry_equiv_pos_site_id
 _symmetry_equiv_pos_as_xyz
  1  'x, y, z'
loop_
 _atom_site_type_symbol
 _atom_site_label
 _atom_site_symmetry_multiplicity
 _atom_site_fract_x
 _atom_site_fract_y
 _atom_site_fract_z
 _atom_site_occupancy
  Er  Er0  1  0.292220  0.086755  0.375624  1
  Er  Er1  1  0.292678  0.913219  0.878893  1
  Er  Er2  1  0.707322  0.086781  0.878893  1
  Er  Er3  1  0.707780  0.913245  0.375624  1
  Er  Er4  1  0.586781  0.792678  0.878893  1
  Er  Er5  1  0.586755  0.207780  0.375624  1
  Er  Er6  1  0.413245  0.792220  0.375624  1
  Er  Er7  1  0.413219  0.207322  0.878893  1
  Er  Er8  1  0.209314  0.412216  0.622715  1
  Er  Er9  1  0.209256  0.587597  0.122332  1
  Er  Er10  1  0.790744  0.412403  0.122332  1
  Er  Er11  1  0.790686  0.587784  0.622715  1
  Er  Er12  1  0.912403  0.709256  0.122332  1
  Er  Er13  1  0.912216  0.290686  0.622715  1
  Er  Er14  1  0.087784  0.709314  0.622715  1
  Er  Er15  1  0.087597  0.290744  0.122332  1
  Tm  Tm16  1  0.000000  0.000000  0.499510  1
  Tm  Tm17  1  0.000000  0.000000  0.999464  1
  Tm  Tm18  1  0.500000  0.500000  0.999464  1
  Tm  Tm19  1  0.500000  0.500000  0.499510  1
  Ir  Ir20  1  0.847583  0.153287  0.250081  1
  Ir  Ir21  1  0.847567  0.846980  0.749895  1
  Ir  Ir22  1  0.152433  0.153020  0.749895  1
  Ir  Ir23  1  0.152417  0.846713  0.250081  1
  Ir  Ir24  1  0.653020  0.347567  0.749895  1
  Ir  Ir25  1  0.653287  0.652417  0.250081  1
  Ir  Ir26  1  0.346713  0.347583  0.250081  1
  Ir  Ir27  1  0.346980  0.652433  0.749895  1
  Ir  Ir28  1  0.500000  0.000000  0.623143  1
  Ir  Ir29  1  0.000000  0.500000  0.878010  1
  Ir  Ir30  1  0.000000  0.500000  0.378153  1
  Ru  Ru31  1  0.500000  0.000000  0.124593  1
