# generated using pymatgen
data_Cs3K(WO4)2
_symmetry_space_group_name_H-M   'P 1'
_cell_length_a   6.69776001
_cell_length_b   6.69786255
_cell_length_c   8.52081300
_cell_angle_alpha   90.00000169
_cell_angle_beta   90.00156912
_cell_angle_gamma   120.00049819
_symmetry_Int_Tables_number   1
_chemical_formula_structural   Cs3K(WO4)2
_chemical_formula_sum   'Cs3 K1 W2 O8'
_cell_volume   331.03605596
_cell_formula_units_Z   1
loop_
 _symmetry_equiv_pos_site_id
 _symmetry_equiv_pos_as_xyz
  1  'x, y, z'
loop_
 _atom_site_type_symbol
 _atom_site_label
 _atom_site_symmetry_multiplicity
 _atom_site_fract_x
 _atom_site_fract_y
 _atom_site_fract_z
 _atom_site_occupancy
  Cs  Cs0  1  0.000000  0.000000  0.500000  1
  Cs  Cs1  1  0.333337  0.666668  0.829162  1
  Cs  Cs2  1  0.666663  0.333332  0.170838  1
  K  K3  1  0.000000  0.000000  0.000000  1
  W  W4  1  0.333342  0.666671  0.279610  1
  W  W5  1  0.666658  0.333329  0.720390  1
  O  O6  1  0.185907  0.814090  0.204461  1
  O  O7  1  0.185907  0.371817  0.204461  1
  O  O8  1  0.628189  0.814094  0.204448  1
  O  O9  1  0.814093  0.185910  0.795539  1
  O  O10  1  0.814093  0.628183  0.795539  1
  O  O11  1  0.371811  0.185906  0.795552  1
  O  O12  1  0.333370  0.666685  0.491732  1
  O  O13  1  0.666630  0.333315  0.508268  1
