# generated using pymatgen
data_Ho2TmSc3(B2Ir5)2
_symmetry_space_group_name_H-M   'P 1'
_cell_length_a   3.15141700
_cell_length_b   9.71402614
_cell_length_c   9.71402560
_cell_angle_alpha   89.31170543
_cell_angle_beta   90.00000000
_cell_angle_gamma   90.00000000
_symmetry_Int_Tables_number   1
_chemical_formula_structural   Ho2TmSc3(B2Ir5)2
_chemical_formula_sum   'Ho2 Tm1 Sc3 B4 Ir10'
_cell_volume   297.35349483
_cell_formula_units_Z   1
loop_
 _symmetry_equiv_pos_site_id
 _symmetry_equiv_pos_as_xyz
  1  'x, y, z'
loop_
 _atom_site_type_symbol
 _atom_site_label
 _atom_site_symmetry_multiplicity
 _atom_site_fract_x
 _atom_site_fract_y
 _atom_site_fract_z
 _atom_site_occupancy
  Ho  Ho0  1  0.000000  0.176712  0.678136  1
  Ho  Ho1  1  0.000000  0.821864  0.323288  1
  Tm  Tm2  1  0.000000  0.324361  0.175639  1
  Sc  Sc3  1  0.000000  0.676538  0.823462  1
  Sc  Sc4  1  0.000000  0.000871  0.000038  1
  Sc  Sc5  1  0.000000  0.499962  0.499129  1
  B  B6  1  0.000000  0.621764  0.116462  1
  B  B7  1  0.000000  0.383538  0.878236  1
  B  B8  1  0.000000  0.876466  0.623534  1
  B  B9  1  0.000000  0.119290  0.380710  1
  Ir  Ir10  1  0.500000  0.069876  0.225354  1
  Ir  Ir11  1  0.500000  0.923921  0.778816  1
  Ir  Ir12  1  0.500000  0.775351  0.064115  1
  Ir  Ir13  1  0.500000  0.435885  0.724649  1
  Ir  Ir14  1  0.500000  0.227725  0.931922  1
  Ir  Ir15  1  0.500000  0.568078  0.272275  1
  Ir  Ir16  1  0.500000  0.721184  0.576079  1
  Ir  Ir17  1  0.500000  0.274646  0.430124  1
  Ir  Ir18  1  0.500000  0.997713  0.502287  1
  Ir  Ir19  1  0.500000  0.504255  0.995745  1
