# generated using pymatgen
data_Tb7Er3(SiBi2)2
_symmetry_space_group_name_H-M   'P 1'
_cell_length_a   12.10546600
_cell_length_b   9.19009907
_cell_length_c   8.07983206
_cell_angle_alpha   90.01357567
_cell_angle_beta   90.00015835
_cell_angle_gamma   90.00198522
_symmetry_Int_Tables_number   1
_chemical_formula_structural   Tb7Er3(SiBi2)2
_chemical_formula_sum   'Tb14 Er6 Si4 Bi8'
_cell_volume   898.88477937
_cell_formula_units_Z   2
loop_
 _symmetry_equiv_pos_site_id
 _symmetry_equiv_pos_as_xyz
  1  'x, y, z'
loop_
 _atom_site_type_symbol
 _atom_site_label
 _atom_site_symmetry_multiplicity
 _atom_site_fract_x
 _atom_site_fract_y
 _atom_site_fract_z
 _atom_site_occupancy
  Tb  Tb0  1  0.936497  0.051785  0.180732  1
  Tb  Tb1  1  0.436495  0.448231  0.319279  1
  Tb  Tb2  1  0.936632  0.448377  0.180860  1
  Tb  Tb3  1  0.436636  0.051604  0.319153  1
  Tb  Tb4  1  0.063401  0.947863  0.819030  1
  Tb  Tb5  1  0.563403  0.552134  0.680989  1
  Tb  Tb6  1  0.211493  0.749768  0.164803  1
  Tb  Tb7  1  0.711475  0.750238  0.335210  1
  Tb  Tb8  1  0.788351  0.249942  0.834889  1
  Tb  Tb9  1  0.288354  0.250064  0.665116  1
  Tb  Tb10  1  0.295090  0.750034  0.635922  1
  Tb  Tb11  1  0.795092  0.749963  0.864104  1
  Tb  Tb12  1  0.704844  0.249930  0.364562  1
  Tb  Tb13  1  0.204847  0.250069  0.135457  1
  Er  Er14  1  0.063319  0.552291  0.820190  1
  Er  Er15  1  0.563274  0.947723  0.679808  1
  Er  Er16  1  0.000786  0.749937  0.460146  1
  Er  Er17  1  0.500816  0.750075  0.039752  1
  Er  Er18  1  0.999287  0.250140  0.540333  1
  Er  Er19  1  0.499134  0.249847  0.959583  1
  Si  Si20  1  0.480181  0.750902  0.413844  1
  Si  Si21  1  0.980185  0.749090  0.086161  1
  Si  Si22  1  0.520411  0.248322  0.587404  1
  Si  Si23  1  0.020415  0.251678  0.912620  1
  Bi  Bi24  1  0.326818  0.510895  0.931746  1
  Bi  Bi25  1  0.826818  0.989105  0.568260  1
  Bi  Bi26  1  0.672743  0.010765  0.067599  1
  Bi  Bi27  1  0.172753  0.489230  0.432418  1
  Bi  Bi28  1  0.672941  0.489285  0.067941  1
  Bi  Bi29  1  0.172941  0.010704  0.432076  1
  Bi  Bi30  1  0.327284  0.989108  0.932123  1
  Bi  Bi31  1  0.827285  0.510899  0.567891  1
