# generated using pymatgen
data_TbDy4Sn3Se
_symmetry_space_group_name_H-M   'P 1'
_cell_length_a   9.12910506
_cell_length_b   9.12730748
_cell_length_c   6.73405500
_cell_angle_alpha   90.00000000
_cell_angle_beta   90.00000000
_cell_angle_gamma   119.99349349
_symmetry_Int_Tables_number   1
_chemical_formula_structural   TbDy4Sn3Se
_chemical_formula_sum   'Tb2 Dy8 Sn6 Se2'
_cell_volume   485.96685284
_cell_formula_units_Z   2
loop_
 _symmetry_equiv_pos_site_id
 _symmetry_equiv_pos_as_xyz
  1  'x, y, z'
loop_
 _atom_site_type_symbol
 _atom_site_label
 _atom_site_symmetry_multiplicity
 _atom_site_fract_x
 _atom_site_fract_y
 _atom_site_fract_z
 _atom_site_occupancy
  Tb  Tb0  1  0.746962  0.746983  0.750000  1
  Tb  Tb1  1  0.253038  0.000021  0.750000  1
  Dy  Dy2  1  0.666721  0.333322  0.000072  1
  Dy  Dy3  1  0.333279  0.666602  0.000072  1
  Dy  Dy4  1  0.333279  0.666602  0.499928  1
  Dy  Dy5  1  0.666721  0.333322  0.499928  1
  Dy  Dy6  1  0.000000  0.252791  0.750000  1
  Dy  Dy7  1  0.252855  0.252875  0.250000  1
  Dy  Dy8  1  0.747145  0.000020  0.250000  1
  Dy  Dy9  1  0.000000  0.747143  0.250000  1
  Sn  Sn10  1  0.395663  0.395814  0.750000  1
  Sn  Sn11  1  0.604337  0.000151  0.750000  1
  Sn  Sn12  1  0.000000  0.603852  0.750000  1
  Sn  Sn13  1  0.604177  0.604167  0.250000  1
  Sn  Sn14  1  0.395823  0.999990  0.250000  1
  Sn  Sn15  1  0.000000  0.395815  0.250000  1
  Se  Se16  1  0.000000  0.000266  0.000497  1
  Se  Se17  1  0.000000  0.000266  0.499503  1
