# generated using pymatgen
data_Sc3Tc(Ni4P3)2
_symmetry_space_group_name_H-M   'P 1'
_cell_length_a   3.64348000
_cell_length_b   10.44210100
_cell_length_c   12.15056400
_cell_angle_alpha   90.00000000
_cell_angle_beta   90.00000000
_cell_angle_gamma   90.00000000
_symmetry_Int_Tables_number   1
_chemical_formula_structural   Sc3Tc(Ni4P3)2
_chemical_formula_sum   'Sc6 Tc2 Ni16 P12'
_cell_volume   462.27532945
_cell_formula_units_Z   2
loop_
 _symmetry_equiv_pos_site_id
 _symmetry_equiv_pos_as_xyz
  1  'x, y, z'
loop_
 _atom_site_type_symbol
 _atom_site_label
 _atom_site_symmetry_multiplicity
 _atom_site_fract_x
 _atom_site_fract_y
 _atom_site_fract_z
 _atom_site_occupancy
  Sc  Sc0  1  0.000000  0.500000  0.526253  1
  Sc  Sc1  1  0.500000  0.000000  0.473747  1
  Sc  Sc2  1  0.500000  0.817847  0.208914  1
  Sc  Sc3  1  0.500000  0.182153  0.208914  1
  Sc  Sc4  1  0.000000  0.682153  0.791086  1
  Sc  Sc5  1  0.000000  0.317847  0.791086  1
  Tc  Tc6  1  0.500000  0.500000  0.159228  1
  Tc  Tc7  1  0.000000  0.000000  0.840772  1
  Ni  Ni8  1  0.500000  0.500000  0.700478  1
  Ni  Ni9  1  0.000000  0.000000  0.299522  1
  Ni  Ni10  1  0.000000  0.500000  0.984726  1
  Ni  Ni11  1  0.500000  0.000000  0.015274  1
  Ni  Ni12  1  0.500000  0.332168  0.986266  1
  Ni  Ni13  1  0.500000  0.667832  0.986266  1
  Ni  Ni14  1  0.000000  0.167832  0.013734  1
  Ni  Ni15  1  0.000000  0.832168  0.013734  1
  Ni  Ni16  1  0.500000  0.302471  0.431287  1
  Ni  Ni17  1  0.500000  0.697529  0.431287  1
  Ni  Ni18  1  0.000000  0.197529  0.568713  1
  Ni  Ni19  1  0.000000  0.802471  0.568713  1
  Ni  Ni20  1  0.500000  0.876016  0.706820  1
  Ni  Ni21  1  0.500000  0.123984  0.706820  1
  Ni  Ni22  1  0.000000  0.623984  0.293180  1
  Ni  Ni23  1  0.000000  0.376016  0.293180  1
  P  P24  1  0.500000  0.500000  0.874809  1
  P  P25  1  0.000000  0.000000  0.125191  1
  P  P26  1  0.500000  0.500000  0.355702  1
  P  P27  1  0.000000  0.000000  0.644298  1
  P  P28  1  0.500000  0.317782  0.616587  1
  P  P29  1  0.500000  0.682218  0.616587  1
  P  P30  1  0.000000  0.182218  0.383413  1
  P  P31  1  0.000000  0.817782  0.383413  1
  P  P32  1  0.500000  0.844646  0.888717  1
  P  P33  1  0.500000  0.155354  0.888717  1
  P  P34  1  0.000000  0.655354  0.111283  1
  P  P35  1  0.000000  0.344646  0.111283  1
