# generated using pymatgen
data_HfNiI18
_symmetry_space_group_name_H-M   'P 1'
_cell_length_a   10.20196825
_cell_length_b   10.24125909
_cell_length_c   10.19897546
_cell_angle_alpha   91.56099703
_cell_angle_beta   91.64526725
_cell_angle_gamma   91.47694237
_symmetry_Int_Tables_number   1
_chemical_formula_structural   HfNiI18
_chemical_formula_sum   'Hf1 Ni1 I18'
_cell_volume   1064.38844005
_cell_formula_units_Z   1
loop_
 _symmetry_equiv_pos_site_id
 _symmetry_equiv_pos_as_xyz
  1  'x, y, z'
loop_
 _atom_site_type_symbol
 _atom_site_label
 _atom_site_symmetry_multiplicity
 _atom_site_fract_x
 _atom_site_fract_y
 _atom_site_fract_z
 _atom_site_occupancy
  Hf  Hf0  1  0.000000  0.000000  0.000000  1
  Ni  Ni1  1  0.500000  0.500000  0.500000  1
  I  I2  1  0.764318  0.470409  0.511733  1
  I  I3  1  0.510771  0.762981  0.469688  1
  I  I4  1  0.470548  0.511910  0.764365  1
  I  I5  1  0.235682  0.529591  0.488267  1
  I  I6  1  0.489229  0.237019  0.530312  1
  I  I7  1  0.529452  0.488090  0.235635  1
  I  I8  1  0.881846  0.375550  0.746135  1
  I  I9  1  0.744775  0.880330  0.375425  1
  I  I10  1  0.375999  0.745434  0.881859  1
  I  I11  1  0.118154  0.624450  0.253865  1
  I  I12  1  0.255225  0.119670  0.624575  1
  I  I13  1  0.624001  0.254566  0.118141  1
  I  I14  1  0.013661  0.968003  0.722115  1
  I  I15  1  0.722258  0.013757  0.966206  1
  I  I16  1  0.966649  0.723238  0.012091  1
  I  I17  1  0.986339  0.031997  0.277885  1
  I  I18  1  0.277742  0.986243  0.033794  1
  I  I19  1  0.033351  0.276762  0.987909  1
