# generated using pymatgen
data_Yb5Si2Bi
_symmetry_space_group_name_H-M   'P 1'
_cell_length_a   9.21237642
_cell_length_b   9.21237643
_cell_length_c   9.21237717
_cell_angle_alpha   129.75774600
_cell_angle_beta   129.75774626
_cell_angle_gamma   73.79434372
_symmetry_Int_Tables_number   1
_chemical_formula_structural   Yb5Si2Bi
_chemical_formula_sum   'Yb10 Si4 Bi2'
_cell_volume   450.74762950
_cell_formula_units_Z   2
loop_
 _symmetry_equiv_pos_site_id
 _symmetry_equiv_pos_as_xyz
  1  'x, y, z'
loop_
 _atom_site_type_symbol
 _atom_site_label
 _atom_site_symmetry_multiplicity
 _atom_site_fract_x
 _atom_site_fract_y
 _atom_site_fract_z
 _atom_site_occupancy
  Yb  Yb0  1  0.000000  0.000000  0.000000  1
  Yb  Yb1  1  0.500000  0.500000  0.000000  1
  Yb  Yb2  1  0.808385  0.308385  0.841758  1
  Yb  Yb3  1  0.191615  0.691615  0.158242  1
  Yb  Yb4  1  0.466627  0.966627  0.158242  1
  Yb  Yb5  1  0.308385  0.466627  0.500000  1
  Yb  Yb6  1  0.033373  0.191615  0.500000  1
  Yb  Yb7  1  0.533373  0.033373  0.841758  1
  Yb  Yb8  1  0.691615  0.533373  0.500000  1
  Yb  Yb9  1  0.966627  0.808385  0.500000  1
  Si  Si10  1  0.115241  0.615241  0.730480  1
  Si  Si11  1  0.884759  0.384759  0.269520  1
  Si  Si12  1  0.615241  0.884759  0.500000  1
  Si  Si13  1  0.384759  0.115241  0.500000  1
  Bi  Bi14  1  0.250000  0.250000  0.000000  1
  Bi  Bi15  1  0.750000  0.750000  0.000000  1
