# generated using pymatgen
data_Ti4Fe2P4PdPt
_symmetry_space_group_name_H-M   'P 1'
_cell_length_a   3.64603400
_cell_length_b   6.18096680
_cell_length_c   7.09447208
_cell_angle_alpha   90.08765720
_cell_angle_beta   90.00000000
_cell_angle_gamma   90.00000000
_symmetry_Int_Tables_number   1
_chemical_formula_structural   Ti4Fe2P4PdPt
_chemical_formula_sum   'Ti4 Fe2 P4 Pd1 Pt1'
_cell_volume   159.88094297
_cell_formula_units_Z   1
loop_
 _symmetry_equiv_pos_site_id
 _symmetry_equiv_pos_as_xyz
  1  'x, y, z'
loop_
 _atom_site_type_symbol
 _atom_site_label
 _atom_site_symmetry_multiplicity
 _atom_site_fract_x
 _atom_site_fract_y
 _atom_site_fract_z
 _atom_site_occupancy
  Ti  Ti0  1  0.250000  0.022466  0.817993  1
  Ti  Ti1  1  0.250000  0.523540  0.680851  1
  Ti  Ti2  1  0.750000  0.974125  0.170286  1
  Ti  Ti3  1  0.750000  0.473307  0.331177  1
  Fe  Fe4  1  0.750000  0.861822  0.556243  1
  Fe  Fe5  1  0.750000  0.361057  0.943702  1
  P  P6  1  0.250000  0.756424  0.397085  1
  P  P7  1  0.250000  0.257265  0.101489  1
  P  P8  1  0.750000  0.236392  0.646264  1
  P  P9  1  0.750000  0.735636  0.855343  1
  Pd  Pd10  1  0.250000  0.648748  0.070739  1
  Pt  Pt11  1  0.250000  0.149217  0.428826  1
