# generated using pymatgen
data_HfSc5Co16(ReP6)2
_symmetry_space_group_name_H-M   'P 1'
_cell_length_a   11.94863800
_cell_length_b   11.96743416
_cell_length_c   3.64832400
_cell_angle_alpha   90.00000000
_cell_angle_beta   90.00000000
_cell_angle_gamma   120.05205637
_symmetry_Int_Tables_number   1
_chemical_formula_structural   HfSc5Co16(ReP6)2
_chemical_formula_sum   'Hf1 Sc5 Co16 Re2 P12'
_cell_volume   451.55996675
_cell_formula_units_Z   1
loop_
 _symmetry_equiv_pos_site_id
 _symmetry_equiv_pos_as_xyz
  1  'x, y, z'
loop_
 _atom_site_type_symbol
 _atom_site_label
 _atom_site_symmetry_multiplicity
 _atom_site_fract_x
 _atom_site_fract_y
 _atom_site_fract_z
 _atom_site_occupancy
  Hf  Hf0  1  0.000000  0.555967  0.000000  1
  Sc  Sc1  1  0.818204  0.816834  0.500000  1
  Sc  Sc2  1  0.000000  0.177266  0.500000  1
  Sc  Sc3  1  0.334281  0.667947  0.000000  1
  Sc  Sc4  1  0.665719  0.333666  0.000000  1
  Sc  Sc5  1  0.181796  0.998631  0.500000  1
  Co  Co6  1  0.624574  0.823530  0.000000  1
  Co  Co7  1  0.375426  0.198956  0.000000  1
  Co  Co8  1  0.000000  0.721315  0.500000  1
  Co  Co9  1  0.282986  0.281290  0.500000  1
  Co  Co10  1  0.870453  0.350019  0.500000  1
  Co  Co11  1  0.717014  0.998304  0.500000  1
  Co  Co12  1  0.817678  0.626571  0.000000  1
  Co  Co13  1  0.182322  0.808893  0.000000  1
  Co  Co14  1  0.358740  0.877065  0.500000  1
  Co  Co15  1  0.129547  0.479565  0.500000  1
  Co  Co16  1  0.641260  0.518325  0.500000  1
  Co  Co17  1  0.000000  0.999426  0.000000  1
  Co  Co18  1  0.515729  0.646422  0.500000  1
  Co  Co19  1  0.484271  0.130693  0.500000  1
  Co  Co20  1  0.197007  0.369684  0.000000  1
  Co  Co21  1  0.802993  0.172677  0.000000  1
  Re  Re22  1  0.447305  0.449737  0.000000  1
  Re  Re23  1  0.552695  0.002432  0.000000  1
  P  P24  1  0.000000  0.345193  0.000000  1
  P  P25  1  0.824772  0.515578  0.500000  1
  P  P26  1  0.684467  0.165898  0.500000  1
  P  P27  1  0.175926  0.173202  0.000000  1
  P  P28  1  0.641182  0.645706  0.000000  1
  P  P29  1  0.824074  0.997276  0.000000  1
  P  P30  1  0.516960  0.833815  0.500000  1
  P  P31  1  0.175228  0.690805  0.500000  1
  P  P32  1  0.358818  0.004525  0.000000  1
  P  P33  1  0.483040  0.316857  0.500000  1
  P  P34  1  0.000000  0.824502  0.000000  1
  P  P35  1  0.315533  0.481432  0.500000  1
