# generated using pymatgen
data_Lu6Zr2Cd2IrRu
_symmetry_space_group_name_H-M   'P 1'
_cell_length_a   9.32171432
_cell_length_b   9.32171451
_cell_length_c   9.31394600
_cell_angle_alpha   60.02756410
_cell_angle_beta   60.02756342
_cell_angle_gamma   60.09470042
_symmetry_Int_Tables_number   1
_chemical_formula_structural   Lu6Zr2Cd2IrRu
_chemical_formula_sum   'Lu12 Zr4 Cd4 Ir2 Ru2'
_cell_volume   572.92956953
_cell_formula_units_Z   2
loop_
 _symmetry_equiv_pos_site_id
 _symmetry_equiv_pos_as_xyz
  1  'x, y, z'
loop_
 _atom_site_type_symbol
 _atom_site_label
 _atom_site_symmetry_multiplicity
 _atom_site_fract_x
 _atom_site_fract_y
 _atom_site_fract_z
 _atom_site_occupancy
  Lu  Lu0  1  0.810943  0.190516  0.190497  1
  Lu  Lu1  1  0.190516  0.810943  0.808044  1
  Lu  Lu2  1  0.190516  0.810943  0.190497  1
  Lu  Lu3  1  0.810943  0.190516  0.808044  1
  Lu  Lu4  1  0.190147  0.190147  0.809853  1
  Lu  Lu5  1  0.809096  0.809096  0.190904  1
  Lu  Lu6  1  0.940925  0.558087  0.559662  1
  Lu  Lu7  1  0.558087  0.940925  0.941327  1
  Lu  Lu8  1  0.558087  0.940925  0.559662  1
  Lu  Lu9  1  0.940925  0.558087  0.941327  1
  Lu  Lu10  1  0.558679  0.558679  0.941321  1
  Lu  Lu11  1  0.941025  0.941025  0.558975  1
  Zr  Zr12  1  0.348727  0.348727  0.351523  1
  Zr  Zr13  1  0.348727  0.348727  0.951022  1
  Zr  Zr14  1  0.347546  0.952817  0.349818  1
  Zr  Zr15  1  0.952817  0.347546  0.349818  1
  Cd  Cd16  1  0.580967  0.580967  0.581006  1
  Cd  Cd17  1  0.580967  0.580967  0.257060  1
  Cd  Cd18  1  0.581178  0.256599  0.581111  1
  Cd  Cd19  1  0.256599  0.581178  0.581111  1
  Ir  Ir20  1  0.145739  0.564309  0.144976  1
  Ir  Ir21  1  0.564309  0.145739  0.144976  1
  Ru  Ru22  1  0.146268  0.146268  0.145101  1
  Ru  Ru23  1  0.146268  0.146268  0.562364  1
