# generated using pymatgen
data_Th(MnP)2
_symmetry_space_group_name_H-M   'P 1'
_cell_length_a   5.62867956
_cell_length_b   5.62867914
_cell_length_c   5.62867852
_cell_angle_alpha   138.75420885
_cell_angle_beta   138.75420497
_cell_angle_gamma   59.74983415
_symmetry_Int_Tables_number   1
_chemical_formula_structural   Th(MnP)2
_chemical_formula_sum   'Th1 Mn2 P2'
_cell_volume   76.73146528
_cell_formula_units_Z   1
loop_
 _symmetry_equiv_pos_site_id
 _symmetry_equiv_pos_as_xyz
  1  'x, y, z'
loop_
 _atom_site_type_symbol
 _atom_site_label
 _atom_site_symmetry_multiplicity
 _atom_site_fract_x
 _atom_site_fract_y
 _atom_site_fract_z
 _atom_site_occupancy
  Th  Th0  1  0.000000  0.000000  0.000000  1
  Mn  Mn1  1  0.250000  0.750000  0.500000  1
  Mn  Mn2  1  0.750000  0.250000  0.500000  1
  P  P3  1  0.643050  0.643050  0.000000  1
  P  P4  1  0.356950  0.356950  0.000000  1
