# generated using pymatgen
data_BaHo2CoH12Ir
_symmetry_space_group_name_H-M   'P 1'
_cell_length_a   4.90304700
_cell_length_b   4.90304703
_cell_length_c   8.55216300
_cell_angle_alpha   90.00000000
_cell_angle_beta   90.00000000
_cell_angle_gamma   120.00000657
_symmetry_Int_Tables_number   1
_chemical_formula_structural   BaHo2CoH12Ir
_chemical_formula_sum   'Ba1 Ho2 Co1 H12 Ir1'
_cell_volume   178.04865108
_cell_formula_units_Z   1
loop_
 _symmetry_equiv_pos_site_id
 _symmetry_equiv_pos_as_xyz
  1  'x, y, z'
loop_
 _atom_site_type_symbol
 _atom_site_label
 _atom_site_symmetry_multiplicity
 _atom_site_fract_x
 _atom_site_fract_y
 _atom_site_fract_z
 _atom_site_occupancy
  Ba  Ba0  1  0.000000  0.000000  0.974853  1
  Ho  Ho1  1  0.666667  0.333333  0.385504  1
  Ho  Ho2  1  0.333333  0.666667  0.647192  1
  Co  Co3  1  0.666667  0.333333  0.723138  1
  H  H4  1  0.168434  0.831566  0.391630  1
  H  H5  1  0.663133  0.831566  0.391630  1
  H  H6  1  0.168434  0.336867  0.391630  1
  H  H7  1  0.821429  0.178571  0.606972  1
  H  H8  1  0.357142  0.178571  0.606972  1
  H  H9  1  0.821429  0.642858  0.606972  1
  H  H10  1  0.505901  0.011801  0.835740  1
  H  H11  1  0.505901  0.494099  0.835740  1
  H  H12  1  0.988199  0.494099  0.835740  1
  H  H13  1  0.491869  0.983737  0.162117  1
  H  H14  1  0.491869  0.508131  0.162117  1
  H  H15  1  0.016263  0.508131  0.162117  1
  Ir  Ir16  1  0.333333  0.666667  0.279936  1
