# generated using pymatgen
data_Li2EuAgAs2
_symmetry_space_group_name_H-M   'P 1'
_cell_length_a   4.37700200
_cell_length_b   4.37700033
_cell_length_c   7.07554800
_cell_angle_alpha   90.00000000
_cell_angle_beta   90.00000000
_cell_angle_gamma   120.00001260
_symmetry_Int_Tables_number   1
_chemical_formula_structural   Li2EuAgAs2
_chemical_formula_sum   'Li2 Eu1 Ag1 As2'
_cell_volume   117.39348159
_cell_formula_units_Z   1
loop_
 _symmetry_equiv_pos_site_id
 _symmetry_equiv_pos_as_xyz
  1  'x, y, z'
loop_
 _atom_site_type_symbol
 _atom_site_label
 _atom_site_symmetry_multiplicity
 _atom_site_fract_x
 _atom_site_fract_y
 _atom_site_fract_z
 _atom_site_occupancy
  Li  Li0  1  0.000000  0.000000  0.509538  1
  Li  Li1  1  0.333333  0.666667  0.647107  1
  Eu  Eu2  1  0.000000  0.000000  0.997465  1
  Ag  Ag3  1  0.666667  0.333333  0.358371  1
  As  As4  1  0.333333  0.666667  0.243435  1
  As  As5  1  0.666667  0.333333  0.744084  1
