# generated using pymatgen
data_Tb2Y2Al18Pd5W
_symmetry_space_group_name_H-M   'P 1'
_cell_length_a   7.64083727
_cell_length_b   7.64063739
_cell_length_c   9.55051122
_cell_angle_alpha   89.63860421
_cell_angle_beta   89.65246983
_cell_angle_gamma   118.91544457
_symmetry_Int_Tables_number   1
_chemical_formula_structural   Tb2Y2Al18Pd5W
_chemical_formula_sum   'Tb2 Y2 Al18 Pd5 W1'
_cell_volume   488.02141266
_cell_formula_units_Z   1
loop_
 _symmetry_equiv_pos_site_id
 _symmetry_equiv_pos_as_xyz
  1  'x, y, z'
loop_
 _atom_site_type_symbol
 _atom_site_label
 _atom_site_symmetry_multiplicity
 _atom_site_fract_x
 _atom_site_fract_y
 _atom_site_fract_z
 _atom_site_occupancy
  Tb  Tb0  1  0.995048  0.678409  0.247163  1
  Tb  Tb1  1  0.004952  0.321591  0.752837  1
  Y  Y2  1  0.678378  0.995058  0.247121  1
  Y  Y3  1  0.321622  0.004942  0.752879  1
  Al  Al4  1  0.135334  0.135336  0.249138  1
  Al  Al5  1  0.864666  0.864664  0.750862  1
  Al  Al6  1  0.002967  0.335371  0.075916  1
  Al  Al7  1  0.997033  0.664629  0.924084  1
  Al  Al8  1  0.998278  0.661067  0.577828  1
  Al  Al9  1  0.338942  0.001737  0.422165  1
  Al  Al10  1  0.001722  0.338933  0.422172  1
  Al  Al11  1  0.661058  0.998263  0.577835  1
  Al  Al12  1  0.664397  0.996936  0.924210  1
  Al  Al13  1  0.335603  0.003064  0.075790  1
  Al  Al14  1  0.333690  0.333660  0.554703  1
  Al  Al15  1  0.666310  0.666340  0.445297  1
  Al  Al16  1  0.666588  0.666699  0.052200  1
  Al  Al17  1  0.333412  0.333301  0.947800  1
  Al  Al18  1  0.342078  0.550389  0.250253  1
  Al  Al19  1  0.657922  0.449611  0.749747  1
  Al  Al20  1  0.550412  0.342097  0.250269  1
  Al  Al21  1  0.449588  0.657903  0.749731  1
  Pd  Pd22  1  0.672203  0.327598  0.999999  1
  Pd  Pd23  1  0.327797  0.672402  0.000001  1
  Pd  Pd24  1  0.328146  0.672286  0.499979  1
  Pd  Pd25  1  0.671854  0.327714  0.500021  1
  Pd  Pd26  1  0.000000  0.000000  0.500000  1
  W  W27  1  0.000000  0.000000  0.000000  1
