# generated using pymatgen
data_Sm2Y5PI12
_symmetry_space_group_name_H-M   'P 1'
_cell_length_a   9.76383995
_cell_length_b   9.75365319
_cell_length_c   9.75117614
_cell_angle_alpha   107.89107991
_cell_angle_beta   107.96739146
_cell_angle_gamma   107.79030584
_symmetry_Int_Tables_number   1
_chemical_formula_structural   Sm2Y5PI12
_chemical_formula_sum   'Sm2 Y5 P1 I12'
_cell_volume   753.97247222
_cell_formula_units_Z   1
loop_
 _symmetry_equiv_pos_site_id
 _symmetry_equiv_pos_as_xyz
  1  'x, y, z'
loop_
 _atom_site_type_symbol
 _atom_site_label
 _atom_site_symmetry_multiplicity
 _atom_site_fract_x
 _atom_site_fract_y
 _atom_site_fract_z
 _atom_site_occupancy
  Sm  Sm0  1  0.696901  0.968113  0.898286  1
  Sm  Sm1  1  0.966602  0.898138  0.696057  1
  Y  Y2  1  0.508761  0.508888  0.508796  1
  Y  Y3  1  0.097169  0.298729  0.027064  1
  Y  Y4  1  0.300798  0.027587  0.098144  1
  Y  Y5  1  0.899541  0.700186  0.967251  1
  Y  Y6  1  0.027513  0.098183  0.300963  1
  P  P7  1  0.003389  0.001937  0.003766  1
  I  I8  1  0.077875  0.231418  0.687765  1
  I  I9  1  0.384394  0.156799  0.462665  1
  I  I10  1  0.607600  0.843562  0.527045  1
  I  I11  1  0.224622  0.686500  0.075139  1
  I  I12  1  0.777867  0.319324  0.926803  1
  I  I13  1  0.687809  0.077555  0.231789  1
  I  I14  1  0.534687  0.608561  0.847026  1
  I  I15  1  0.844563  0.528841  0.613780  1
  I  I16  1  0.925087  0.773502  0.310573  1
  I  I17  1  0.316003  0.925673  0.775823  1
  I  I18  1  0.461976  0.384119  0.156638  1
  I  I19  1  0.156843  0.462385  0.384629  1
