# generated using pymatgen
data_Pr3NdGeS3
_symmetry_space_group_name_H-M   'P 1'
_cell_length_a   7.22665346
_cell_length_b   7.22665314
_cell_length_c   7.22665300
_cell_angle_alpha   131.93539325
_cell_angle_beta   131.96918541
_cell_angle_gamma   70.30439032
_symmetry_Int_Tables_number   1
_chemical_formula_structural   Pr3NdGeS3
_chemical_formula_sum   'Pr3 Nd1 Ge1 S3'
_cell_volume   204.58059594
_cell_formula_units_Z   1
loop_
 _symmetry_equiv_pos_site_id
 _symmetry_equiv_pos_as_xyz
  1  'x, y, z'
loop_
 _atom_site_type_symbol
 _atom_site_label
 _atom_site_symmetry_multiplicity
 _atom_site_fract_x
 _atom_site_fract_y
 _atom_site_fract_z
 _atom_site_occupancy
  Pr  Pr0  1  0.250374  0.250374  0.000000  1
  Pr  Pr1  1  0.749626  0.749626  0.000000  1
  Pr  Pr2  1  0.000000  0.500001  0.500001  1
  Nd  Nd3  1  0.500001  0.000000  0.500001  1
  Ge  Ge4  1  0.000000  0.000000  0.000000  1
  S  S5  1  0.500000  0.500000  0.000000  1
  S  S6  1  0.749117  0.249118  0.499999  1
  S  S7  1  0.250882  0.750881  0.499999  1
