# generated using pymatgen
data_Ho8Sc12SiGe15
_symmetry_space_group_name_H-M   'P 1'
_cell_length_a   7.22686718
_cell_length_b   7.46440787
_cell_length_c   14.04933800
_cell_angle_alpha   90.00000000
_cell_angle_beta   90.00000000
_cell_angle_gamma   90.25571937
_symmetry_Int_Tables_number   1
_chemical_formula_structural   Ho8Sc12SiGe15
_chemical_formula_sum   'Ho8 Sc12 Si1 Ge15'
_cell_volume   757.87393423
_cell_formula_units_Z   1
loop_
 _symmetry_equiv_pos_site_id
 _symmetry_equiv_pos_as_xyz
  1  'x, y, z'
loop_
 _atom_site_type_symbol
 _atom_site_label
 _atom_site_symmetry_multiplicity
 _atom_site_fract_x
 _atom_site_fract_y
 _atom_site_fract_z
 _atom_site_occupancy
  Ho  Ho0  1  0.000849  0.177446  0.095828  1
  Ho  Ho1  1  0.997482  0.820394  0.901694  1
  Ho  Ho2  1  0.500902  0.676046  0.903381  1
  Ho  Ho3  1  0.997482  0.820394  0.598306  1
  Ho  Ho4  1  0.500179  0.324209  0.096340  1
  Ho  Ho5  1  0.000849  0.177446  0.404172  1
  Ho  Ho6  1  0.500179  0.324209  0.403660  1
  Ho  Ho7  1  0.500902  0.676046  0.596619  1
  Sc  Sc8  1  0.171082  0.500565  0.750000  1
  Sc  Sc9  1  0.826702  0.500082  0.250000  1
  Sc  Sc10  1  0.327059  0.000245  0.250000  1
  Sc  Sc11  1  0.674558  0.996914  0.750000  1
  Sc  Sc12  1  0.341001  0.169510  0.625691  1
  Sc  Sc13  1  0.659670  0.831476  0.374709  1
  Sc  Sc14  1  0.159836  0.668763  0.375982  1
  Sc  Sc15  1  0.659670  0.831476  0.125291  1
  Sc  Sc16  1  0.840629  0.332568  0.624489  1
  Sc  Sc17  1  0.341001  0.169510  0.874309  1
  Sc  Sc18  1  0.840629  0.332568  0.875511  1
  Sc  Sc19  1  0.159836  0.668763  0.124018  1
  Si  Si20  1  0.800623  0.633449  0.750000  1
  Ge  Ge21  1  0.038051  0.124831  0.750000  1
  Ge  Ge22  1  0.962726  0.873837  0.250000  1
  Ge  Ge23  1  0.460880  0.625212  0.250000  1
  Ge  Ge24  1  0.541572  0.378339  0.750000  1
  Ge  Ge25  1  0.304606  0.860613  0.750000  1
  Ge  Ge26  1  0.696056  0.140112  0.250000  1
  Ge  Ge27  1  0.194214  0.362244  0.250000  1
  Ge  Ge28  1  0.179329  0.459182  0.541697  1
  Ge  Ge29  1  0.820852  0.541827  0.458219  1
  Ge  Ge30  1  0.323510  0.960141  0.459166  1
  Ge  Ge31  1  0.820852  0.541827  0.041781  1
  Ge  Ge32  1  0.676696  0.040217  0.541516  1
  Ge  Ge33  1  0.179329  0.459182  0.958303  1
  Ge  Ge34  1  0.676696  0.040217  0.958484  1
  Ge  Ge35  1  0.323510  0.960141  0.040834  1
