# generated using pymatgen
data_Tb2Sc3Co19Si11P
_symmetry_space_group_name_H-M   'P 1'
_cell_length_a   12.02766206
_cell_length_b   12.02766172
_cell_length_c   3.66940700
_cell_angle_alpha   90.00000000
_cell_angle_beta   90.00000000
_cell_angle_gamma   119.79249175
_symmetry_Int_Tables_number   1
_chemical_formula_structural   Tb2Sc3Co19Si11P
_chemical_formula_sum   'Tb2 Sc3 Co19 Si11 P1'
_cell_volume   460.67352363
_cell_formula_units_Z   1
loop_
 _symmetry_equiv_pos_site_id
 _symmetry_equiv_pos_as_xyz
  1  'x, y, z'
loop_
 _atom_site_type_symbol
 _atom_site_label
 _atom_site_symmetry_multiplicity
 _atom_site_fract_x
 _atom_site_fract_y
 _atom_site_fract_z
 _atom_site_occupancy
  Tb  Tb0  1  0.333386  0.666137  0.000000  1
  Tb  Tb1  1  0.666137  0.333386  0.000000  1
  Sc  Sc2  1  0.185314  0.000712  0.500000  1
  Sc  Sc3  1  0.000712  0.185314  0.500000  1
  Sc  Sc4  1  0.814130  0.814130  0.500000  1
  Co  Co5  1  0.194591  0.369718  0.000000  1
  Co  Co6  1  0.626621  0.821508  0.000000  1
  Co  Co7  1  0.178365  0.805367  0.000000  1
  Co  Co8  1  0.821508  0.626621  0.000000  1
  Co  Co9  1  0.805367  0.178365  0.000000  1
  Co  Co10  1  0.369718  0.194591  0.000000  1
  Co  Co11  1  0.558152  0.000451  0.000000  1
  Co  Co12  1  0.000451  0.558152  0.000000  1
  Co  Co13  1  0.442357  0.442357  0.000000  1
  Co  Co14  1  0.123198  0.476619  0.500000  1
  Co  Co15  1  0.522147  0.644768  0.500000  1
  Co  Co16  1  0.354729  0.877697  0.500000  1
  Co  Co17  1  0.644768  0.522147  0.500000  1
  Co  Co18  1  0.877697  0.354729  0.500000  1
  Co  Co19  1  0.476619  0.123198  0.500000  1
  Co  Co20  1  0.722807  0.999809  0.500000  1
  Co  Co21  1  0.999809  0.722807  0.500000  1
  Co  Co22  1  0.273927  0.273927  0.500000  1
  Co  Co23  1  0.005725  0.005725  0.000000  1
  Si  Si24  1  0.366844  0.000282  0.000000  1
  Si  Si25  1  0.000282  0.366844  0.000000  1
  Si  Si26  1  0.633041  0.633041  0.000000  1
  Si  Si27  1  0.319082  0.476099  0.500000  1
  Si  Si28  1  0.523500  0.842099  0.500000  1
  Si  Si29  1  0.158316  0.681400  0.500000  1
  Si  Si30  1  0.842099  0.523500  0.500000  1
  Si  Si31  1  0.681400  0.158316  0.500000  1
  Si  Si32  1  0.476099  0.319082  0.500000  1
  Si  Si33  1  0.822104  0.999285  0.000000  1
  Si  Si34  1  0.999285  0.822104  0.000000  1
  P  P35  1  0.179714  0.179714  0.000000  1
