# generated using pymatgen
data_La2HoPa3N8
_symmetry_space_group_name_H-M   'P 1'
_cell_length_a   6.99200906
_cell_length_b   6.99189948
_cell_length_c   6.88429600
_cell_angle_alpha   120.51377025
_cell_angle_beta   90.00720294
_cell_angle_gamma   119.99593065
_symmetry_Int_Tables_number   1
_chemical_formula_structural   La2HoPa3N8
_chemical_formula_sum   'La2 Ho1 Pa3 N8'
_cell_volume   236.11527122
_cell_formula_units_Z   1
loop_
 _symmetry_equiv_pos_site_id
 _symmetry_equiv_pos_as_xyz
  1  'x, y, z'
loop_
 _atom_site_type_symbol
 _atom_site_label
 _atom_site_symmetry_multiplicity
 _atom_site_fract_x
 _atom_site_fract_y
 _atom_site_fract_z
 _atom_site_occupancy
  La  La0  1  0.995870  0.991752  0.987659  1
  La  La1  1  0.754131  0.508248  0.262341  1
  Ho  Ho2  1  0.375000  0.750000  0.125000  1
  Pa  Pa3  1  0.375000  0.750000  0.624999  1
  Pa  Pa4  1  0.375000  0.249999  0.624999  1
  Pa  Pa5  1  0.874999  0.249999  0.625000  1
  N  N6  1  0.614385  0.228831  0.405137  1
  N  N7  1  0.176319  0.790756  0.405137  1
  N  N8  1  0.614440  0.790758  0.405191  1
  N  N9  1  0.142042  0.284141  0.426184  1
  N  N10  1  0.607957  0.215860  0.823816  1
  N  N11  1  0.135560  0.709241  0.844807  1
  N  N12  1  0.135616  0.271170  0.844863  1
  N  N13  1  0.573681  0.709243  0.844863  1
