# generated using pymatgen
data_Tm3Sc(SiRh2)8
_symmetry_space_group_name_H-M   'P 1'
_cell_length_a   4.10118300
_cell_length_b   9.04455342
_cell_length_c   11.23722527
_cell_angle_alpha   90.34814587
_cell_angle_beta   90.00000000
_cell_angle_gamma   90.00000000
_symmetry_Int_Tables_number   1
_chemical_formula_structural   Tm3Sc(SiRh2)8
_chemical_formula_sum   'Tm3 Sc1 Si8 Rh16'
_cell_volume   416.81884531
_cell_formula_units_Z   1
loop_
 _symmetry_equiv_pos_site_id
 _symmetry_equiv_pos_as_xyz
  1  'x, y, z'
loop_
 _atom_site_type_symbol
 _atom_site_label
 _atom_site_symmetry_multiplicity
 _atom_site_fract_x
 _atom_site_fract_y
 _atom_site_fract_z
 _atom_site_occupancy
  Tm  Tm0  1  0.250000  0.145249  0.823706  1
  Tm  Tm1  1  0.250000  0.354227  0.325861  1
  Tm  Tm2  1  0.750000  0.852075  0.174342  1
  Sc  Sc3  1  0.750000  0.644447  0.675461  1
  Si  Si4  1  0.250000  0.415880  0.638314  1
  Si  Si5  1  0.250000  0.087977  0.135953  1
  Si  Si6  1  0.750000  0.589114  0.364424  1
  Si  Si7  1  0.750000  0.908653  0.860962  1
  Si  Si8  1  0.250000  0.618561  0.059693  1
  Si  Si9  1  0.250000  0.885743  0.559228  1
  Si  Si10  1  0.750000  0.382453  0.941410  1
  Si  Si11  1  0.750000  0.118198  0.441444  1
  Rh  Rh12  1  0.250000  0.620682  0.508034  1
  Rh  Rh13  1  0.250000  0.884686  0.996882  1
  Rh  Rh14  1  0.750000  0.387651  0.499722  1
  Rh  Rh15  1  0.750000  0.114572  0.997675  1
  Rh  Rh16  1  0.250000  0.685331  0.271796  1
  Rh  Rh17  1  0.250000  0.800444  0.763229  1
  Rh  Rh18  1  0.750000  0.314332  0.731131  1
  Rh  Rh19  1  0.750000  0.187111  0.231598  1
  Rh  Rh20  1  0.250000  0.173842  0.560498  1
  Rh  Rh21  1  0.250000  0.327728  0.058554  1
  Rh  Rh22  1  0.750000  0.829077  0.441575  1
  Rh  Rh23  1  0.750000  0.670628  0.938066  1
  Rh  Rh24  1  0.250000  0.007498  0.343142  1
  Rh  Rh25  1  0.250000  0.493392  0.843304  1
  Rh  Rh26  1  0.750000  0.991775  0.658178  1
  Rh  Rh27  1  0.750000  0.508675  0.155820  1
