# generated using pymatgen
data_Tm10Tl5In3Ru3Pt
_symmetry_space_group_name_H-M   'P 1'
_cell_length_a   3.51783500
_cell_length_b   8.08552198
_cell_length_c   18.38542418
_cell_angle_alpha   89.84960397
_cell_angle_beta   90.00000000
_cell_angle_gamma   90.00000000
_symmetry_Int_Tables_number   1
_chemical_formula_structural   Tm10Tl5In3Ru3Pt
_chemical_formula_sum   'Tm10 Tl5 In3 Ru3 Pt1'
_cell_volume   522.94460306
_cell_formula_units_Z   1
loop_
 _symmetry_equiv_pos_site_id
 _symmetry_equiv_pos_as_xyz
  1  'x, y, z'
loop_
 _atom_site_type_symbol
 _atom_site_label
 _atom_site_symmetry_multiplicity
 _atom_site_fract_x
 _atom_site_fract_y
 _atom_site_fract_z
 _atom_site_occupancy
  Tm  Tm0  1  0.000000  0.117480  0.413347  1
  Tm  Tm1  1  0.000000  0.881105  0.589229  1
  Tm  Tm2  1  0.000000  0.380845  0.909418  1
  Tm  Tm3  1  0.000000  0.617880  0.087060  1
  Tm  Tm4  1  0.000000  0.239803  0.223247  1
  Tm  Tm5  1  0.000000  0.756915  0.777929  1
  Tm  Tm6  1  0.000000  0.255307  0.722024  1
  Tm  Tm7  1  0.000000  0.752362  0.278728  1
  Tm  Tm8  1  0.000000  0.996093  0.999596  1
  Tm  Tm9  1  0.000000  0.500469  0.499666  1
  Tl  Tl10  1  0.500000  0.426625  0.354093  1
  Tl  Tl11  1  0.500000  0.566490  0.648605  1
  Tl  Tl12  1  0.500000  0.066490  0.850949  1
  Tl  Tl13  1  0.500000  0.933442  0.148632  1
  Tl  Tl14  1  0.500000  0.292084  0.062245  1
  In  In15  1  0.500000  0.701173  0.932155  1
  In  In16  1  0.500000  0.203619  0.568743  1
  In  In17  1  0.500000  0.796195  0.432070  1
  Ru  Ru18  1  0.500000  0.020329  0.305869  1
  Ru  Ru19  1  0.500000  0.983748  0.694675  1
  Ru  Ru20  1  0.500000  0.486290  0.804903  1
  Pt  Pt21  1  0.500000  0.525257  0.196815  1
