# generated using pymatgen
data_Nd6Dy10Cd3InIr4
_symmetry_space_group_name_H-M   'P 1'
_cell_length_a   9.73796707
_cell_length_b   9.73796722
_cell_length_c   9.73796882
_cell_angle_alpha   60.13911772
_cell_angle_beta   60.13911486
_cell_angle_gamma   60.13912111
_symmetry_Int_Tables_number   1
_chemical_formula_structural   Nd6Dy10Cd3InIr4
_chemical_formula_sum   'Nd6 Dy10 Cd3 In1 Ir4'
_cell_volume   655.02286990
_cell_formula_units_Z   1
loop_
 _symmetry_equiv_pos_site_id
 _symmetry_equiv_pos_as_xyz
  1  'x, y, z'
loop_
 _atom_site_type_symbol
 _atom_site_label
 _atom_site_symmetry_multiplicity
 _atom_site_fract_x
 _atom_site_fract_y
 _atom_site_fract_z
 _atom_site_occupancy
  Nd  Nd0  1  0.943453  0.559181  0.559181  1
  Nd  Nd1  1  0.557797  0.941858  0.941858  1
  Nd  Nd2  1  0.559181  0.943453  0.559181  1
  Nd  Nd3  1  0.941858  0.557797  0.941858  1
  Nd  Nd4  1  0.559181  0.559181  0.943453  1
  Nd  Nd5  1  0.941858  0.941858  0.557797  1
  Dy  Dy6  1  0.347046  0.347046  0.347046  1
  Dy  Dy7  1  0.349040  0.349040  0.955822  1
  Dy  Dy8  1  0.349040  0.955822  0.349040  1
  Dy  Dy9  1  0.955822  0.349040  0.349040  1
  Dy  Dy10  1  0.811808  0.187133  0.187133  1
  Dy  Dy11  1  0.186503  0.810762  0.810762  1
  Dy  Dy12  1  0.187133  0.811808  0.187133  1
  Dy  Dy13  1  0.810762  0.186503  0.810762  1
  Dy  Dy14  1  0.187133  0.187133  0.811808  1
  Dy  Dy15  1  0.810762  0.810762  0.186503  1
  Cd  Cd16  1  0.578958  0.578958  0.261071  1
  Cd  Cd17  1  0.578958  0.261071  0.578958  1
  Cd  Cd18  1  0.261071  0.578958  0.578958  1
  In  In19  1  0.580083  0.580083  0.580083  1
  Ir  Ir20  1  0.141998  0.141998  0.141998  1
  Ir  Ir21  1  0.142269  0.142269  0.576012  1
  Ir  Ir22  1  0.142269  0.576012  0.142269  1
  Ir  Ir23  1  0.576012  0.142269  0.142269  1
