# generated using pymatgen
data_Y7Tm13CdIn5Ru2
_symmetry_space_group_name_H-M   'P 1'
_cell_length_a   9.67189518
_cell_length_b   9.73424756
_cell_length_c   9.56244669
_cell_angle_alpha   90.00000051
_cell_angle_beta   90.08603050
_cell_angle_gamma   120.21348431
_symmetry_Int_Tables_number   1
_chemical_formula_structural   Y7Tm13CdIn5Ru2
_chemical_formula_sum   'Y7 Tm13 Cd1 In5 Ru2'
_cell_volume   777.99120561
_cell_formula_units_Z   1
loop_
 _symmetry_equiv_pos_site_id
 _symmetry_equiv_pos_as_xyz
  1  'x, y, z'
loop_
 _atom_site_type_symbol
 _atom_site_label
 _atom_site_symmetry_multiplicity
 _atom_site_fract_x
 _atom_site_fract_y
 _atom_site_fract_z
 _atom_site_occupancy
  Y  Y0  1  0.579548  0.789775  0.061828  1
  Y  Y1  1  0.540215  0.459962  0.250903  1
  Y  Y2  1  0.540215  0.080254  0.250903  1
  Y  Y3  1  0.924800  0.462400  0.250015  1
  Y  Y4  1  0.462790  0.540702  0.749054  1
  Y  Y5  1  0.462790  0.922087  0.749054  1
  Y  Y6  1  0.081014  0.540507  0.749924  1
  Tm  Tm7  1  0.995812  0.997906  0.502145  1
  Tm  Tm8  1  0.997652  0.998826  0.997439  1
  Tm  Tm9  1  0.211002  0.790080  0.439682  1
  Tm  Tm10  1  0.211002  0.420924  0.439682  1
  Tm  Tm11  1  0.577723  0.788862  0.438299  1
  Tm  Tm12  1  0.789806  0.212126  0.560577  1
  Tm  Tm13  1  0.789806  0.577680  0.560577  1
  Tm  Tm14  1  0.420528  0.210263  0.562179  1
  Tm  Tm15  1  0.790338  0.212728  0.939016  1
  Tm  Tm16  1  0.790338  0.577609  0.939016  1
  Tm  Tm17  1  0.421254  0.210626  0.937822  1
  Tm  Tm18  1  0.210283  0.789858  0.060812  1
  Tm  Tm19  1  0.210283  0.420426  0.060812  1
  Cd  Cd20  1  0.768538  0.884269  0.749564  1
  In  In21  1  0.884928  0.117194  0.249690  1
  In  In22  1  0.884928  0.767735  0.249690  1
  In  In23  1  0.229546  0.114773  0.250360  1
  In  In24  1  0.114800  0.882258  0.749989  1
  In  In25  1  0.114800  0.232541  0.749989  1
  Ru  Ru26  1  0.328011  0.664006  0.251324  1
  Ru  Ru27  1  0.667248  0.333624  0.749657  1
