# generated using pymatgen
data_Dy4Y3Th(CdNi)2
_symmetry_space_group_name_H-M   'P 1'
_cell_length_a   9.61299003
_cell_length_b   9.61299158
_cell_length_c   9.62582300
_cell_angle_alpha   59.95583879
_cell_angle_beta   59.95583346
_cell_angle_gamma   59.91492630
_symmetry_Int_Tables_number   1
_chemical_formula_structural   Dy4Y3Th(CdNi)2
_chemical_formula_sum   'Dy8 Y6 Th2 Cd4 Ni4'
_cell_volume   628.15969210
_cell_formula_units_Z   2
loop_
 _symmetry_equiv_pos_site_id
 _symmetry_equiv_pos_as_xyz
  1  'x, y, z'
loop_
 _atom_site_type_symbol
 _atom_site_label
 _atom_site_symmetry_multiplicity
 _atom_site_fract_x
 _atom_site_fract_y
 _atom_site_fract_z
 _atom_site_occupancy
  Dy  Dy0  1  0.598907  0.199980  0.600556  1
  Dy  Dy1  1  0.199980  0.598907  0.600556  1
  Dy  Dy2  1  0.062049  0.439660  0.437638  1
  Dy  Dy3  1  0.439660  0.062049  0.060652  1
  Dy  Dy4  1  0.439660  0.062049  0.437638  1
  Dy  Dy5  1  0.062049  0.439660  0.060652  1
  Dy  Dy6  1  0.438891  0.438891  0.061109  1
  Dy  Dy7  1  0.061968  0.061968  0.438032  1
  Y  Y8  1  0.186986  0.814083  0.815515  1
  Y  Y9  1  0.814083  0.186986  0.183415  1
  Y  Y10  1  0.814083  0.186986  0.815515  1
  Y  Y11  1  0.186986  0.814083  0.183415  1
  Y  Y12  1  0.813818  0.813818  0.186182  1
  Y  Y13  1  0.185834  0.185834  0.814166  1
  Th  Th14  1  0.593776  0.593776  0.600447  1
  Th  Th15  1  0.593776  0.593776  0.212001  1
  Cd  Cd16  1  0.832410  0.832410  0.830180  1
  Cd  Cd17  1  0.832410  0.832410  0.504998  1
  Cd  Cd18  1  0.832961  0.505144  0.830947  1
  Cd  Cd19  1  0.505144  0.832961  0.830947  1
  Ni  Ni20  1  0.393962  0.393962  0.390751  1
  Ni  Ni21  1  0.393962  0.393962  0.821326  1
  Ni  Ni22  1  0.397578  0.819062  0.391681  1
  Ni  Ni23  1  0.819062  0.397578  0.391681  1
