# generated using pymatgen
data_Tb9DySi5P
_symmetry_space_group_name_H-M   'P 1'
_cell_length_a   8.46012400
_cell_length_b   8.46648722
_cell_length_c   6.34481800
_cell_angle_alpha   90.00153316
_cell_angle_beta   90.00065017
_cell_angle_gamma   119.97514111
_symmetry_Int_Tables_number   1
_chemical_formula_structural   Tb9DySi5P
_chemical_formula_sum   'Tb9 Dy1 Si5 P1'
_cell_volume   393.67562008
_cell_formula_units_Z   1
loop_
 _symmetry_equiv_pos_site_id
 _symmetry_equiv_pos_as_xyz
  1  'x, y, z'
loop_
 _atom_site_type_symbol
 _atom_site_label
 _atom_site_symmetry_multiplicity
 _atom_site_fract_x
 _atom_site_fract_y
 _atom_site_fract_z
 _atom_site_occupancy
  Tb  Tb0  1  0.001055  0.756803  0.749977  1
  Tb  Tb1  1  0.000860  0.244340  0.250027  1
  Tb  Tb2  1  0.756556  0.755629  0.250025  1
  Tb  Tb3  1  0.754908  0.000026  0.749976  1
  Tb  Tb4  1  0.244272  0.243170  0.749972  1
  Tb  Tb5  1  0.243864  0.000028  0.250020  1
  Tb  Tb6  1  0.666273  0.332510  0.999549  1
  Tb  Tb7  1  0.333763  0.667501  0.500493  1
  Tb  Tb8  1  0.333762  0.667490  0.999513  1
  Dy  Dy9  1  0.666288  0.332527  0.500430  1
  Si  Si10  1  0.394247  0.393686  0.250087  1
  Si  Si11  1  0.000367  0.606212  0.250081  1
  Si  Si12  1  0.000020  0.393430  0.749920  1
  Si  Si13  1  0.606681  0.606458  0.749918  1
  Si  Si14  1  0.607189  0.000101  0.250083  1
  P  P15  1  0.389897  0.000089  0.749928  1
