# generated using pymatgen
data_Er5Cd2(HgPt)2
_symmetry_space_group_name_H-M   'P 1'
_cell_length_a   3.63633000
_cell_length_b   7.92753800
_cell_length_c   18.11439100
_cell_angle_alpha   90.00000000
_cell_angle_beta   90.00000000
_cell_angle_gamma   90.00000000
_symmetry_Int_Tables_number   1
_chemical_formula_structural   Er5Cd2(HgPt)2
_chemical_formula_sum   'Er10 Cd4 Hg4 Pt4'
_cell_volume   522.18616246
_cell_formula_units_Z   2
loop_
 _symmetry_equiv_pos_site_id
 _symmetry_equiv_pos_as_xyz
  1  'x, y, z'
loop_
 _atom_site_type_symbol
 _atom_site_label
 _atom_site_symmetry_multiplicity
 _atom_site_fract_x
 _atom_site_fract_y
 _atom_site_fract_z
 _atom_site_occupancy
  Er  Er0  1  0.000000  0.109715  0.414109  1
  Er  Er1  1  0.000000  0.890285  0.585891  1
  Er  Er2  1  0.000000  0.390285  0.914109  1
  Er  Er3  1  0.000000  0.609715  0.085891  1
  Er  Er4  1  0.000000  0.238588  0.216123  1
  Er  Er5  1  0.000000  0.761412  0.783877  1
  Er  Er6  1  0.000000  0.261412  0.716123  1
  Er  Er7  1  0.000000  0.738588  0.283877  1
  Er  Er8  1  0.000000  0.000000  0.000000  1
  Er  Er9  1  0.000000  0.500000  0.500000  1
  Cd  Cd10  1  0.500000  0.420958  0.353784  1
  Cd  Cd11  1  0.500000  0.579042  0.646216  1
  Cd  Cd12  1  0.500000  0.079042  0.853784  1
  Cd  Cd13  1  0.500000  0.920958  0.146216  1
  Hg  Hg14  1  0.500000  0.285590  0.061916  1
  Hg  Hg15  1  0.500000  0.714410  0.938084  1
  Hg  Hg16  1  0.500000  0.214410  0.561916  1
  Hg  Hg17  1  0.500000  0.785590  0.438084  1
  Pt  Pt18  1  0.500000  0.027270  0.302194  1
  Pt  Pt19  1  0.500000  0.972730  0.697806  1
  Pt  Pt20  1  0.500000  0.472730  0.802194  1
  Pt  Pt21  1  0.500000  0.527270  0.197806  1
