# generated using pymatgen
data_DyHo2Mg3AgSn2
_symmetry_space_group_name_H-M   'P 1'
_cell_length_a   7.49691800
_cell_length_b   7.50387981
_cell_length_c   4.51088500
_cell_angle_alpha   90.00000000
_cell_angle_beta   90.00000000
_cell_angle_gamma   119.96931465
_symmetry_Int_Tables_number   1
_chemical_formula_structural   DyHo2Mg3AgSn2
_chemical_formula_sum   'Dy1 Ho2 Mg3 Ag1 Sn2'
_cell_volume   219.83418130
_cell_formula_units_Z   1
loop_
 _symmetry_equiv_pos_site_id
 _symmetry_equiv_pos_as_xyz
  1  'x, y, z'
loop_
 _atom_site_type_symbol
 _atom_site_label
 _atom_site_symmetry_multiplicity
 _atom_site_fract_x
 _atom_site_fract_y
 _atom_site_fract_z
 _atom_site_occupancy
  Dy  Dy0  1  0.584629  0.000000  0.000000  1
  Ho  Ho1  1  0.999873  0.584676  0.000000  1
  Ho  Ho2  1  0.415197  0.415324  0.000000  1
  Mg  Mg3  1  0.237369  0.000000  0.500000  1
  Mg  Mg4  1  0.000092  0.237154  0.500000  1
  Mg  Mg5  1  0.762937  0.762846  0.500000  1
  Ag  Ag6  1  0.000765  0.000000  0.000000  1
  Sn  Sn7  1  0.332266  0.665395  0.500000  1
  Sn  Sn8  1  0.666872  0.334605  0.500000  1
