# generated using pymatgen
data_RbVPS5
_symmetry_space_group_name_H-M   'P 1'
_cell_length_a   9.95354751
_cell_length_b   9.95354805
_cell_length_c   16.34723911
_cell_angle_alpha   59.68857941
_cell_angle_beta   59.68857727
_cell_angle_gamma   40.88443414
_symmetry_Int_Tables_number   1
_chemical_formula_structural   RbVPS5
_chemical_formula_sum   'Rb4 V4 P4 S20'
_cell_volume   893.15880266
_cell_formula_units_Z   4
loop_
 _symmetry_equiv_pos_site_id
 _symmetry_equiv_pos_as_xyz
  1  'x, y, z'
loop_
 _atom_site_type_symbol
 _atom_site_label
 _atom_site_symmetry_multiplicity
 _atom_site_fract_x
 _atom_site_fract_y
 _atom_site_fract_z
 _atom_site_occupancy
  Rb  Rb0  1  0.665755  0.665755  0.140459  1
  Rb  Rb1  1  0.698363  0.698363  0.643543  1
  Rb  Rb2  1  0.301637  0.301637  0.356457  1
  Rb  Rb3  1  0.334245  0.334245  0.859541  1
  V  V4  1  0.713382  0.286618  0.000000  1
  V  V5  1  0.286618  0.713382  0.000000  1
  V  V6  1  0.789161  0.210839  0.500000  1
  V  V7  1  0.210839  0.789161  0.500000  1
  P  P8  1  0.336869  0.336869  0.589940  1
  P  P9  1  0.075444  0.075444  0.093935  1
  P  P10  1  0.924556  0.924556  0.906065  1
  P  P11  1  0.663131  0.663131  0.410060  1
  S  S12  1  0.172795  0.172795  0.110656  1
  S  S13  1  0.600433  0.123865  0.646364  1
  S  S14  1  0.123865  0.600433  0.646364  1
  S  S15  1  0.975913  0.975913  0.414457  1
  S  S16  1  0.443957  0.443957  0.448278  1
  S  S17  1  0.104109  0.104109  0.951267  1
  S  S18  1  0.758328  0.237082  0.147209  1
  S  S19  1  0.237082  0.758328  0.147209  1
  S  S20  1  0.604468  0.604468  0.912190  1
  S  S21  1  0.223778  0.223778  0.606491  1
  S  S22  1  0.776222  0.776222  0.393509  1
  S  S23  1  0.395532  0.395532  0.087810  1
  S  S24  1  0.241672  0.762918  0.852791  1
  S  S25  1  0.762918  0.241672  0.852791  1
  S  S26  1  0.895891  0.895891  0.048733  1
  S  S27  1  0.556043  0.556043  0.551722  1
  S  S28  1  0.024087  0.024087  0.585543  1
  S  S29  1  0.876135  0.399567  0.353636  1
  S  S30  1  0.399567  0.876135  0.353636  1
  S  S31  1  0.827205  0.827205  0.889344  1
