# generated using pymatgen
data_Tb5Tm5Pt18
_symmetry_space_group_name_H-M   'P 1'
_cell_length_a   9.73841391
_cell_length_b   9.75902286
_cell_length_c   5.76506700
_cell_angle_alpha   90.00000000
_cell_angle_beta   90.00000000
_cell_angle_gamma   90.20684479
_symmetry_Int_Tables_number   1
_chemical_formula_structural   Tb5Tm5Pt18
_chemical_formula_sum   'Tb5 Tm5 Pt18'
_cell_volume   547.89343066
_cell_formula_units_Z   1
loop_
 _symmetry_equiv_pos_site_id
 _symmetry_equiv_pos_as_xyz
  1  'x, y, z'
loop_
 _atom_site_type_symbol
 _atom_site_label
 _atom_site_symmetry_multiplicity
 _atom_site_fract_x
 _atom_site_fract_y
 _atom_site_fract_z
 _atom_site_occupancy
  Tb  Tb0  1  0.453029  0.808747  0.000000  1
  Tb  Tb1  1  0.547376  0.191100  0.000000  1
  Tb  Tb2  1  0.190805  0.547070  0.000000  1
  Tb  Tb3  1  0.809083  0.452981  0.000000  1
  Tb  Tb4  1  0.308484  0.047453  0.500000  1
  Tm  Tm5  1  0.500095  0.499974  0.500000  1
  Tm  Tm6  1  0.691972  0.952443  0.500000  1
  Tm  Tm7  1  0.952421  0.691560  0.500000  1
  Tm  Tm8  1  0.047168  0.308853  0.500000  1
  Tm  Tm9  1  0.999805  0.999936  0.000000  1
  Pt  Pt10  1  0.189973  0.808078  0.251715  1
  Pt  Pt11  1  0.809767  0.190502  0.747749  1
  Pt  Pt12  1  0.809767  0.190502  0.252251  1
  Pt  Pt13  1  0.189973  0.808078  0.748285  1
  Pt  Pt14  1  0.441637  0.780441  0.500000  1
  Pt  Pt15  1  0.560003  0.219062  0.500000  1
  Pt  Pt16  1  0.217859  0.558617  0.500000  1
  Pt  Pt17  1  0.782158  0.441377  0.500000  1
  Pt  Pt18  1  0.307118  0.308733  0.250129  1
  Pt  Pt19  1  0.693040  0.692944  0.748906  1
  Pt  Pt20  1  0.693040  0.692944  0.251094  1
  Pt  Pt21  1  0.307118  0.308733  0.749871  1
  Pt  Pt22  1  0.279714  0.059247  0.000000  1
  Pt  Pt23  1  0.720035  0.940985  0.000000  1
  Pt  Pt24  1  0.940799  0.720107  0.000000  1
  Pt  Pt25  1  0.058828  0.279684  0.000000  1
  Pt  Pt26  1  0.998744  0.999671  0.500000  1
  Pt  Pt27  1  0.500189  0.500179  0.000000  1
