# generated using pymatgen
data_Nb6Al4ZnNiC2
_symmetry_space_group_name_H-M   'P 1'
_cell_length_a   8.33471337
_cell_length_b   8.33471368
_cell_length_c   8.33934000
_cell_angle_alpha   59.98164479
_cell_angle_beta   59.98164356
_cell_angle_gamma   59.98549454
_symmetry_Int_Tables_number   1
_chemical_formula_structural   Nb6Al4ZnNiC2
_chemical_formula_sum   'Nb12 Al8 Zn2 Ni2 C4'
_cell_volume   409.47734765
_cell_formula_units_Z   2
loop_
 _symmetry_equiv_pos_site_id
 _symmetry_equiv_pos_as_xyz
  1  'x, y, z'
loop_
 _atom_site_type_symbol
 _atom_site_label
 _atom_site_symmetry_multiplicity
 _atom_site_fract_x
 _atom_site_fract_y
 _atom_site_fract_z
 _atom_site_occupancy
  Nb  Nb0  1  0.816792  0.816792  0.183208  1
  Nb  Nb1  1  0.184887  0.184887  0.815113  1
  Nb  Nb2  1  0.816393  0.183045  0.815370  1
  Nb  Nb3  1  0.183045  0.816393  0.185192  1
  Nb  Nb4  1  0.183045  0.816393  0.815370  1
  Nb  Nb5  1  0.816393  0.183045  0.185192  1
  Nb  Nb6  1  0.433208  0.433208  0.066792  1
  Nb  Nb7  1  0.065113  0.065113  0.434887  1
  Nb  Nb8  1  0.433607  0.066955  0.434630  1
  Nb  Nb9  1  0.066955  0.433607  0.064808  1
  Nb  Nb10  1  0.066955  0.433607  0.434630  1
  Nb  Nb11  1  0.433607  0.066955  0.064808  1
  Al  Al12  1  0.751280  0.426999  0.410860  1
  Al  Al13  1  0.426999  0.751280  0.410860  1
  Al  Al14  1  0.421904  0.421904  0.751689  1
  Al  Al15  1  0.421904  0.421904  0.404503  1
  Al  Al16  1  0.498720  0.823001  0.839140  1
  Al  Al17  1  0.823001  0.498720  0.839140  1
  Al  Al18  1  0.828096  0.828096  0.498311  1
  Al  Al19  1  0.828096  0.828096  0.845497  1
  Zn  Zn20  1  0.125000  0.625000  0.625000  1
  Zn  Zn21  1  0.625000  0.125000  0.625000  1
  Ni  Ni22  1  0.625000  0.625000  0.125000  1
  Ni  Ni23  1  0.625000  0.625000  0.625000  1
  C  C24  1  0.625000  0.125000  0.125000  1
  C  C25  1  0.125000  0.625000  0.125000  1
  C  C26  1  0.125000  0.125000  0.625000  1
  C  C27  1  0.125000  0.125000  0.125000  1
