# generated using pymatgen
data_PuTh3B16
_symmetry_space_group_name_H-M   'P 1'
_cell_length_a   7.21594260
_cell_length_b   7.21594260
_cell_length_c   4.09794800
_cell_angle_alpha   90.00000000
_cell_angle_beta   90.00000000
_cell_angle_gamma   89.39791035
_symmetry_Int_Tables_number   1
_chemical_formula_structural   PuTh3B16
_chemical_formula_sum   'Pu1 Th3 B16'
_cell_volume   213.36766480
_cell_formula_units_Z   1
loop_
 _symmetry_equiv_pos_site_id
 _symmetry_equiv_pos_as_xyz
  1  'x, y, z'
loop_
 _atom_site_type_symbol
 _atom_site_label
 _atom_site_symmetry_multiplicity
 _atom_site_fract_x
 _atom_site_fract_y
 _atom_site_fract_z
 _atom_site_occupancy
  Pu  Pu0  1  0.814036  0.314036  0.000000  1
  Th  Th1  1  0.183579  0.683579  0.000000  1
  Th  Th2  1  0.685680  0.814161  0.000000  1
  Th  Th3  1  0.314161  0.185680  0.000000  1
  B  B4  1  0.326495  0.460598  0.500000  1
  B  B5  1  0.678191  0.536419  0.500000  1
  B  B6  1  0.542952  0.322692  0.500000  1
  B  B7  1  0.462088  0.673672  0.500000  1
  B  B8  1  0.997649  0.003164  0.201551  1
  B  B9  1  0.503164  0.497649  0.798449  1
  B  B10  1  0.997649  0.003164  0.798449  1
  B  B11  1  0.503164  0.497649  0.201551  1
  B  B12  1  0.587414  0.087414  0.500000  1
  B  B13  1  0.088948  0.410867  0.500000  1
  B  B14  1  0.910867  0.588948  0.500000  1
  B  B15  1  0.410580  0.910580  0.500000  1
  B  B16  1  0.036419  0.178191  0.500000  1
  B  B17  1  0.173672  0.962088  0.500000  1
  B  B18  1  0.822692  0.042952  0.500000  1
  B  B19  1  0.960598  0.826495  0.500000  1
