# generated using pymatgen
data_YHo3Ga5Tc3
_symmetry_space_group_name_H-M   'P 1'
_cell_length_a   5.48206984
_cell_length_b   5.54108122
_cell_length_c   8.69264647
_cell_angle_alpha   90.00000204
_cell_angle_beta   90.03264529
_cell_angle_gamma   120.35674338
_symmetry_Int_Tables_number   1
_chemical_formula_structural   YHo3Ga5Tc3
_chemical_formula_sum   'Y1 Ho3 Ga5 Tc3'
_cell_volume   227.85008182
_cell_formula_units_Z   1
loop_
 _symmetry_equiv_pos_site_id
 _symmetry_equiv_pos_as_xyz
  1  'x, y, z'
loop_
 _atom_site_type_symbol
 _atom_site_label
 _atom_site_symmetry_multiplicity
 _atom_site_fract_x
 _atom_site_fract_y
 _atom_site_fract_z
 _atom_site_occupancy
  Y  Y0  1  0.333834  0.666917  0.057020  1
  Ho  Ho1  1  0.334494  0.667247  0.443582  1
  Ho  Ho2  1  0.662599  0.331298  0.552607  1
  Ho  Ho3  1  0.662505  0.331252  0.947254  1
  Ga  Ga4  1  0.836340  0.163985  0.250110  1
  Ga  Ga5  1  0.836340  0.672355  0.250110  1
  Ga  Ga6  1  0.326415  0.163208  0.250100  1
  Ga  Ga7  1  0.188229  0.840068  0.749851  1
  Ga  Ga8  1  0.188229  0.348162  0.749851  1
  Tc  Tc9  1  0.975565  0.987783  0.510598  1
  Tc  Tc10  1  0.975834  0.987918  0.989157  1
  Tc  Tc11  1  0.679614  0.839806  0.749757  1
