# generated using pymatgen
data_YbZnCu3Hg
_symmetry_space_group_name_H-M   'P 1'
_cell_length_a   5.11190424
_cell_length_b   5.09140531
_cell_length_c   5.11190500
_cell_angle_alpha   59.86672688
_cell_angle_beta   60.00000154
_cell_angle_gamma   59.86672261
_symmetry_Int_Tables_number   1
_chemical_formula_structural   YbZnCu3Hg
_chemical_formula_sum   'Yb1 Zn1 Cu3 Hg1'
_cell_volume   93.88805708
_cell_formula_units_Z   1
loop_
 _symmetry_equiv_pos_site_id
 _symmetry_equiv_pos_as_xyz
  1  'x, y, z'
loop_
 _atom_site_type_symbol
 _atom_site_label
 _atom_site_symmetry_multiplicity
 _atom_site_fract_x
 _atom_site_fract_y
 _atom_site_fract_z
 _atom_site_occupancy
  Yb  Yb0  1  0.752161  0.743517  0.752161  1
  Zn  Zn1  1  0.373622  0.879133  0.373622  1
  Cu  Cu2  1  0.374534  0.375843  0.374534  1
  Cu  Cu3  1  0.875088  0.375843  0.374534  1
  Cu  Cu4  1  0.374534  0.375843  0.875088  1
  Hg  Hg5  1  0.000059  0.999821  0.000059  1
