# generated using pymatgen
data_Rb2V5TcTe6
_symmetry_space_group_name_H-M   'P 1'
_cell_length_a   4.51688200
_cell_length_b   9.97559388
_cell_length_c   10.03055026
_cell_angle_alpha   118.97867097
_cell_angle_beta   90.00000000
_cell_angle_gamma   90.00000000
_symmetry_Int_Tables_number   1
_chemical_formula_structural   Rb2V5TcTe6
_chemical_formula_sum   'Rb2 V5 Tc1 Te6'
_cell_volume   395.37672385
_cell_formula_units_Z   1
loop_
 _symmetry_equiv_pos_site_id
 _symmetry_equiv_pos_as_xyz
  1  'x, y, z'
loop_
 _atom_site_type_symbol
 _atom_site_label
 _atom_site_symmetry_multiplicity
 _atom_site_fract_x
 _atom_site_fract_y
 _atom_site_fract_z
 _atom_site_occupancy
  Rb  Rb0  1  0.750000  0.665632  0.333246  1
  Rb  Rb1  1  0.250000  0.336834  0.670968  1
  V  V2  1  0.750000  0.163374  0.141680  1
  V  V3  1  0.750000  0.889095  0.027063  1
  V  V4  1  0.250000  0.031352  0.179180  1
  V  V5  1  0.250000  0.832798  0.852476  1
  V  V6  1  0.250000  0.107462  0.972755  1
  Tc  Tc7  1  0.750000  0.971925  0.833689  1
  Te  Te8  1  0.750000  0.658752  0.711278  1
  Te  Te9  1  0.750000  0.281288  0.944612  1
  Te  Te10  1  0.750000  0.052099  0.348506  1
  Te  Te11  1  0.250000  0.337768  0.279318  1
  Te  Te12  1  0.250000  0.721422  0.052490  1
  Te  Te13  1  0.250000  0.950196  0.652741  1
