# generated using pymatgen
data_Tb15Er(TmSn4)4
_symmetry_space_group_name_H-M   'P 1'
_cell_length_a   8.03175232
_cell_length_b   8.18259933
_cell_length_c   15.48660815
_cell_angle_alpha   90.01124104
_cell_angle_beta   90.01153034
_cell_angle_gamma   90.03038853
_symmetry_Int_Tables_number   1
_chemical_formula_structural   Tb15Er(TmSn4)4
_chemical_formula_sum   'Tb15 Er1 Tm4 Sn16'
_cell_volume   1017.78916915
_cell_formula_units_Z   1
loop_
 _symmetry_equiv_pos_site_id
 _symmetry_equiv_pos_as_xyz
  1  'x, y, z'
loop_
 _atom_site_type_symbol
 _atom_site_label
 _atom_site_symmetry_multiplicity
 _atom_site_fract_x
 _atom_site_fract_y
 _atom_site_fract_z
 _atom_site_occupancy
  Tb  Tb0  1  0.866721  0.662781  0.622192  1
  Tb  Tb1  1  0.633168  0.162741  0.377903  1
  Tb  Tb2  1  0.133214  0.337249  0.121968  1
  Tb  Tb3  1  0.633249  0.162871  0.122172  1
  Tb  Tb4  1  0.133169  0.337224  0.377894  1
  Tb  Tb5  1  0.366827  0.837219  0.622222  1
  Tb  Tb6  1  0.866911  0.662754  0.877922  1
  Tb  Tb7  1  0.519773  0.320374  0.902747  1
  Tb  Tb8  1  0.019823  0.179445  0.597318  1
  Tb  Tb9  1  0.480232  0.679515  0.402751  1
  Tb  Tb10  1  0.980123  0.820427  0.097301  1
  Tb  Tb11  1  0.480110  0.679592  0.097037  1
  Tb  Tb12  1  0.980224  0.820533  0.402722  1
  Tb  Tb13  1  0.519771  0.320542  0.597334  1
  Tb  Tb14  1  0.019973  0.179387  0.902677  1
  Er  Er15  1  0.366733  0.837320  0.877632  1
  Tm  Tm16  1  0.198358  0.503065  0.750191  1
  Tm  Tm17  1  0.697911  0.997114  0.750123  1
  Tm  Tm18  1  0.801855  0.497267  0.250006  1
  Tm  Tm19  1  0.301855  0.002696  0.249962  1
  Sn  Sn20  1  0.293447  0.035485  0.041950  1
  Sn  Sn21  1  0.793182  0.463936  0.457481  1
  Sn  Sn22  1  0.706851  0.963898  0.542604  1
  Sn  Sn23  1  0.207452  0.537090  0.957235  1
  Sn  Sn24  1  0.705783  0.963690  0.957306  1
  Sn  Sn25  1  0.206812  0.536088  0.542587  1
  Sn  Sn26  1  0.293170  0.036093  0.457452  1
  Sn  Sn27  1  0.793146  0.463930  0.042554  1
  Sn  Sn28  1  0.563270  0.618705  0.750257  1
  Sn  Sn29  1  0.064267  0.881614  0.750280  1
  Sn  Sn30  1  0.436237  0.381768  0.249974  1
  Sn  Sn31  1  0.936254  0.118245  0.249981  1
  Sn  Sn32  1  0.328986  0.148172  0.750233  1
  Sn  Sn33  1  0.828938  0.351277  0.750036  1
  Sn  Sn34  1  0.671137  0.851279  0.249992  1
  Sn  Sn35  1  0.171066  0.648614  0.250007  1
