# generated using pymatgen
data_Sm4Sn2Bi4Rh7
_symmetry_space_group_name_H-M   'P 1'
_cell_length_a   7.81165439
_cell_length_b   7.81165683
_cell_length_c   7.79894302
_cell_angle_alpha   109.41344844
_cell_angle_beta   109.41344608
_cell_angle_gamma   109.65263427
_symmetry_Int_Tables_number   1
_chemical_formula_structural   Sm4Sn2Bi4Rh7
_chemical_formula_sum   'Sm4 Sn2 Bi4 Rh7'
_cell_volume   366.05353581
_cell_formula_units_Z   1
loop_
 _symmetry_equiv_pos_site_id
 _symmetry_equiv_pos_as_xyz
  1  'x, y, z'
loop_
 _atom_site_type_symbol
 _atom_site_label
 _atom_site_symmetry_multiplicity
 _atom_site_fract_x
 _atom_site_fract_y
 _atom_site_fract_z
 _atom_site_occupancy
  Sm  Sm0  1  0.518655  0.002359  0.000000  1
  Sm  Sm1  1  0.997641  0.481345  0.000000  1
  Sm  Sm2  1  0.997962  0.002038  0.500000  1
  Sm  Sm3  1  0.497962  0.502038  0.500000  1
  Sn  Sn4  1  0.002483  0.326165  0.328647  1
  Sn  Sn5  1  0.673835  0.997517  0.671353  1
  Bi  Bi6  1  0.688155  0.682187  0.000000  1
  Bi  Bi7  1  0.003230  0.688737  0.691966  1
  Bi  Bi8  1  0.311263  0.996770  0.308034  1
  Bi  Bi9  1  0.317813  0.311845  0.000000  1
  Rh  Rh10  1  0.976760  0.023240  0.000000  1
  Rh  Rh11  1  0.502749  0.748907  0.251657  1
  Rh  Rh12  1  0.753722  0.497814  0.251537  1
  Rh  Rh13  1  0.252245  0.747755  0.500000  1
  Rh  Rh14  1  0.251093  0.497251  0.748343  1
  Rh  Rh15  1  0.502186  0.246278  0.748463  1
  Rh  Rh16  1  0.752245  0.247755  0.500000  1
