# generated using pymatgen
data_Nd20IrRu5Rh6
_symmetry_space_group_name_H-M   'P 1'
_cell_length_a   11.24672672
_cell_length_b   11.24672675
_cell_length_c   6.61820000
_cell_angle_alpha   90.04692192
_cell_angle_beta   90.04692194
_cell_angle_gamma   90.01486924
_symmetry_Int_Tables_number   1
_chemical_formula_structural   Nd20IrRu5Rh6
_chemical_formula_sum   'Nd20 Ir1 Ru5 Rh6'
_cell_volume   837.12799875
_cell_formula_units_Z   1
loop_
 _symmetry_equiv_pos_site_id
 _symmetry_equiv_pos_as_xyz
  1  'x, y, z'
loop_
 _atom_site_type_symbol
 _atom_site_label
 _atom_site_symmetry_multiplicity
 _atom_site_fract_x
 _atom_site_fract_y
 _atom_site_fract_z
 _atom_site_occupancy
  Nd  Nd0  1  0.088096  0.294227  0.116763  1
  Nd  Nd1  1  0.793623  0.411482  0.114938  1
  Nd  Nd2  1  0.205820  0.590048  0.116169  1
  Nd  Nd3  1  0.913179  0.706286  0.117311  1
  Nd  Nd4  1  0.409952  0.794180  0.383831  1
  Nd  Nd5  1  0.588518  0.206377  0.385062  1
  Nd  Nd6  1  0.293714  0.086821  0.382689  1
  Nd  Nd7  1  0.705773  0.911904  0.383237  1
  Nd  Nd8  1  0.413222  0.206158  0.883332  1
  Nd  Nd9  1  0.706648  0.089200  0.883574  1
  Nd  Nd10  1  0.292514  0.910977  0.885260  1
  Nd  Nd11  1  0.587784  0.794777  0.883356  1
  Nd  Nd12  1  0.089023  0.707486  0.614740  1
  Nd  Nd13  1  0.910800  0.293352  0.616426  1
  Nd  Nd14  1  0.205223  0.412216  0.616644  1
  Nd  Nd15  1  0.793842  0.586778  0.616668  1
  Nd  Nd16  1  0.001380  0.998994  0.000180  1
  Nd  Nd17  1  0.500189  0.500249  0.000617  1
  Nd  Nd18  1  0.499751  0.499811  0.499383  1
  Nd  Nd19  1  0.001006  0.998620  0.499820  1
  Ir  Ir20  1  0.652214  0.347786  0.750000  1
  Ru  Ru21  1  0.150603  0.849397  0.250000  1
  Ru  Ru22  1  0.000283  0.500032  0.378447  1
  Ru  Ru23  1  0.499968  0.999717  0.121553  1
  Ru  Ru24  1  0.500330  0.999312  0.622123  1
  Ru  Ru25  1  0.000688  0.499670  0.877877  1
  Rh  Rh26  1  0.346909  0.347327  0.249738  1
  Rh  Rh27  1  0.652673  0.653091  0.250262  1
  Rh  Rh28  1  0.848003  0.151997  0.250000  1
  Rh  Rh29  1  0.348795  0.651205  0.750000  1
  Rh  Rh30  1  0.153013  0.153533  0.749545  1
  Rh  Rh31  1  0.846467  0.846987  0.750455  1
