# generated using pymatgen
data_SmGd7C10
_symmetry_space_group_name_H-M   'P 1'
_cell_length_a   3.74188000
_cell_length_b   6.70853209
_cell_length_c   12.06988925
_cell_angle_alpha   88.93281883
_cell_angle_beta   90.00000000
_cell_angle_gamma   90.00000000
_symmetry_Int_Tables_number   1
_chemical_formula_structural   SmGd7C10
_chemical_formula_sum   'Sm1 Gd7 C10'
_cell_volume   302.93210693
_cell_formula_units_Z   1
loop_
 _symmetry_equiv_pos_site_id
 _symmetry_equiv_pos_as_xyz
  1  'x, y, z'
loop_
 _atom_site_type_symbol
 _atom_site_label
 _atom_site_symmetry_multiplicity
 _atom_site_fract_x
 _atom_site_fract_y
 _atom_site_fract_z
 _atom_site_occupancy
  Sm  Sm0  1  0.500000  0.106803  0.801858  1
  Gd  Gd1  1  0.000000  0.254424  0.543093  1
  Gd  Gd2  1  0.000000  0.743549  0.456394  1
  Gd  Gd3  1  0.000000  0.755056  0.958491  1
  Gd  Gd4  1  0.000000  0.245470  0.042338  1
  Gd  Gd5  1  0.500000  0.894209  0.198297  1
  Gd  Gd6  1  0.500000  0.611370  0.695921  1
  Gd  Gd7  1  0.500000  0.388578  0.303130  1
  C  C8  1  0.500000  0.498294  0.499488  1
  C  C9  1  0.500000  0.999734  0.002244  1
  C  C10  1  0.000000  0.360786  0.738054  1
  C  C11  1  0.000000  0.642023  0.261653  1
  C  C12  1  0.000000  0.860586  0.764203  1
  C  C13  1  0.000000  0.136680  0.235606  1
  C  C14  1  0.000000  0.426947  0.840868  1
  C  C15  1  0.000000  0.577921  0.158457  1
  C  C16  1  0.000000  0.108611  0.345284  1
  C  C17  1  0.000000  0.888959  0.654623  1
