# generated using pymatgen
data_LaGdPdS3
_symmetry_space_group_name_H-M   'P 1'
_cell_length_a   6.80638142
_cell_length_b   6.80638629
_cell_length_c   10.04962307
_cell_angle_alpha   89.98744302
_cell_angle_beta   90.01257898
_cell_angle_gamma   146.02720209
_symmetry_Int_Tables_number   1
_chemical_formula_structural   LaGdPdS3
_chemical_formula_sum   'La2 Gd2 Pd2 S6'
_cell_volume   260.15875507
_cell_formula_units_Z   2
loop_
 _symmetry_equiv_pos_site_id
 _symmetry_equiv_pos_as_xyz
  1  'x, y, z'
loop_
 _atom_site_type_symbol
 _atom_site_label
 _atom_site_symmetry_multiplicity
 _atom_site_fract_x
 _atom_site_fract_y
 _atom_site_fract_z
 _atom_site_occupancy
  La  La0  1  0.753321  0.246677  0.249988  1
  La  La1  1  0.246677  0.753324  0.750012  1
  Gd  Gd2  1  0.999987  0.999983  0.999991  1
  Gd  Gd3  1  0.000022  0.000013  0.500008  1
  Pd  Pd4  1  0.481360  0.518643  0.250007  1
  Pd  Pd5  1  0.518640  0.481360  0.749993  1
  S  S6  1  0.353995  0.646004  0.066660  1
  S  S7  1  0.095633  0.904368  0.249976  1
  S  S8  1  0.353948  0.646052  0.433293  1
  S  S9  1  0.646051  0.353950  0.566707  1
  S  S10  1  0.904366  0.095634  0.750024  1
  S  S11  1  0.646004  0.353997  0.933340  1
