# generated using pymatgen
data_Lu2Ta3(SiGe)2
_symmetry_space_group_name_H-M   'P 1'
_cell_length_a   6.84423101
_cell_length_b   7.01641001
_cell_length_c   13.45068700
_cell_angle_alpha   90.00000000
_cell_angle_beta   90.00000000
_cell_angle_gamma   89.99427360
_symmetry_Int_Tables_number   1
_chemical_formula_structural   Lu2Ta3(SiGe)2
_chemical_formula_sum   'Lu8 Ta12 Si8 Ge8'
_cell_volume   645.92795913
_cell_formula_units_Z   4
loop_
 _symmetry_equiv_pos_site_id
 _symmetry_equiv_pos_as_xyz
  1  'x, y, z'
loop_
 _atom_site_type_symbol
 _atom_site_label
 _atom_site_symmetry_multiplicity
 _atom_site_fract_x
 _atom_site_fract_y
 _atom_site_fract_z
 _atom_site_occupancy
  Lu  Lu0  1  0.495477  0.325227  0.096885  1
  Lu  Lu1  1  0.995466  0.174740  0.403129  1
  Lu  Lu2  1  0.504523  0.674773  0.596885  1
  Lu  Lu3  1  0.004534  0.825260  0.903129  1
  Lu  Lu4  1  0.504523  0.674773  0.903115  1
  Lu  Lu5  1  0.004534  0.825260  0.596871  1
  Lu  Lu6  1  0.495477  0.325227  0.403115  1
  Lu  Lu7  1  0.995466  0.174740  0.096871  1
  Ta  Ta8  1  0.839721  0.330563  0.628341  1
  Ta  Ta9  1  0.339707  0.169492  0.871661  1
  Ta  Ta10  1  0.160279  0.669437  0.128341  1
  Ta  Ta11  1  0.660293  0.830508  0.371661  1
  Ta  Ta12  1  0.160279  0.669437  0.371659  1
  Ta  Ta13  1  0.660293  0.830508  0.128339  1
  Ta  Ta14  1  0.839721  0.330563  0.871659  1
  Ta  Ta15  1  0.339707  0.169492  0.628339  1
  Ta  Ta16  1  0.664142  0.009764  0.750000  1
  Ta  Ta17  1  0.164147  0.490284  0.750000  1
  Ta  Ta18  1  0.335858  0.990236  0.250000  1
  Ta  Ta19  1  0.835853  0.509716  0.250000  1
  Si  Si20  1  0.542144  0.380922  0.750000  1
  Si  Si21  1  0.042153  0.119110  0.750000  1
  Si  Si22  1  0.457856  0.619078  0.250000  1
  Si  Si23  1  0.957847  0.880890  0.250000  1
  Si  Si24  1  0.798220  0.635751  0.750000  1
  Si  Si25  1  0.298217  0.864300  0.750000  1
  Si  Si26  1  0.201780  0.364249  0.250000  1
  Si  Si27  1  0.701783  0.135700  0.250000  1
  Ge  Ge28  1  0.678395  0.037017  0.540304  1
  Ge  Ge29  1  0.178423  0.463011  0.959697  1
  Ge  Ge30  1  0.321605  0.962983  0.040304  1
  Ge  Ge31  1  0.821577  0.536989  0.459697  1
  Ge  Ge32  1  0.321605  0.962983  0.459696  1
  Ge  Ge33  1  0.821577  0.536989  0.040303  1
  Ge  Ge34  1  0.678395  0.037017  0.959696  1
  Ge  Ge35  1  0.178423  0.463011  0.540303  1
