# generated using pymatgen
data_Ba2La3PrO8
_symmetry_space_group_name_H-M   'P 1'
_cell_length_a   7.42185814
_cell_length_b   7.44701905
_cell_length_c   7.44701900
_cell_angle_alpha   60.00000469
_cell_angle_beta   59.88779726
_cell_angle_gamma   59.88779547
_symmetry_Int_Tables_number   1
_chemical_formula_structural   Ba2La3PrO8
_chemical_formula_sum   'Ba2 La3 Pr1 O8'
_cell_volume   290.55206260
_cell_formula_units_Z   1
loop_
 _symmetry_equiv_pos_site_id
 _symmetry_equiv_pos_as_xyz
  1  'x, y, z'
loop_
 _atom_site_type_symbol
 _atom_site_label
 _atom_site_symmetry_multiplicity
 _atom_site_fract_x
 _atom_site_fract_y
 _atom_site_fract_z
 _atom_site_occupancy
  Ba  Ba0  1  0.500069  0.499977  0.499977  1
  Ba  Ba1  1  0.749931  0.750023  0.750023  1
  La  La2  1  0.125000  0.125000  0.125000  1
  La  La3  1  0.125000  0.625000  0.125000  1
  La  La4  1  0.125000  0.125000  0.625000  1
  Pr  Pr5  1  0.625000  0.125000  0.125000  1
  O  O6  1  0.357841  0.356288  0.929581  1
  O  O7  1  0.929686  0.356771  0.356771  1
  O  O8  1  0.357841  0.929581  0.356288  1
  O  O9  1  0.892159  0.893712  0.893712  1
  O  O10  1  0.357841  0.356288  0.356288  1
  O  O11  1  0.892159  0.320419  0.893712  1
  O  O12  1  0.320314  0.893229  0.893229  1
  O  O13  1  0.892159  0.893712  0.320419  1
