# generated using pymatgen
data_Ta3BeCo4P3W
_symmetry_space_group_name_H-M   'P 1'
_cell_length_a   3.54496500
_cell_length_b   6.03794225
_cell_length_c   6.90807716
_cell_angle_alpha   89.97136592
_cell_angle_beta   90.00000000
_cell_angle_gamma   90.00000000
_symmetry_Int_Tables_number   1
_chemical_formula_structural   Ta3BeCo4P3W
_chemical_formula_sum   'Ta3 Be1 Co4 P3 W1'
_cell_volume   147.86249571
_cell_formula_units_Z   1
loop_
 _symmetry_equiv_pos_site_id
 _symmetry_equiv_pos_as_xyz
  1  'x, y, z'
loop_
 _atom_site_type_symbol
 _atom_site_label
 _atom_site_symmetry_multiplicity
 _atom_site_fract_x
 _atom_site_fract_y
 _atom_site_fract_z
 _atom_site_occupancy
  Ta  Ta0  1  0.250000  0.030840  0.833423  1
  Ta  Ta1  1  0.250000  0.525005  0.675877  1
  Ta  Ta2  1  0.750000  0.467238  0.315792  1
  Be  Be3  1  0.250000  0.270895  0.123378  1
  Co  Co4  1  0.250000  0.144387  0.439148  1
  Co  Co5  1  0.250000  0.643737  0.062908  1
  Co  Co6  1  0.750000  0.853308  0.562767  1
  Co  Co7  1  0.750000  0.356808  0.939581  1
  P  P8  1  0.250000  0.777271  0.371845  1
  P  P9  1  0.750000  0.723355  0.885771  1
  P  P10  1  0.750000  0.223863  0.621200  1
  W  W11  1  0.750000  0.983291  0.168313  1
