# generated using pymatgen
data_PrNiBr
_symmetry_space_group_name_H-M   'P 1'
_cell_length_a   4.11236300
_cell_length_b   4.11236290
_cell_length_c   11.96927300
_cell_angle_alpha   90.00000000
_cell_angle_beta   90.00000000
_cell_angle_gamma   119.99999277
_symmetry_Int_Tables_number   1
_chemical_formula_structural   PrNiBr
_chemical_formula_sum   'Pr2 Ni2 Br2'
_cell_volume   175.29975594
_cell_formula_units_Z   2
loop_
 _symmetry_equiv_pos_site_id
 _symmetry_equiv_pos_as_xyz
  1  'x, y, z'
loop_
 _atom_site_type_symbol
 _atom_site_label
 _atom_site_symmetry_multiplicity
 _atom_site_fract_x
 _atom_site_fract_y
 _atom_site_fract_z
 _atom_site_occupancy
  Pr  Pr0  1  0.000000  0.000000  0.339512  1
  Pr  Pr1  1  0.000000  0.000000  0.660488  1
  Ni  Ni2  1  0.333333  0.666666  0.485621  1
  Ni  Ni3  1  0.666665  0.333333  0.514379  1
  Br  Br4  1  0.666665  0.333333  0.174912  1
  Br  Br5  1  0.333333  0.666666  0.825088  1
