# generated using pymatgen
data_Rb3U2Br10N
_symmetry_space_group_name_H-M   'P 1'
_cell_length_a   7.87521000
_cell_length_b   7.87521000
_cell_length_c   19.82998100
_cell_angle_alpha   90.00000000
_cell_angle_beta   90.00000000
_cell_angle_gamma   90.00000000
_symmetry_Int_Tables_number   1
_chemical_formula_structural   Rb3U2Br10N
_chemical_formula_sum   'Rb6 U4 Br20 N2'
_cell_volume   1229.83425399
_cell_formula_units_Z   2
loop_
 _symmetry_equiv_pos_site_id
 _symmetry_equiv_pos_as_xyz
  1  'x, y, z'
loop_
 _atom_site_type_symbol
 _atom_site_label
 _atom_site_symmetry_multiplicity
 _atom_site_fract_x
 _atom_site_fract_y
 _atom_site_fract_z
 _atom_site_occupancy
  Rb  Rb0  1  0.500000  0.500000  0.000000  1
  Rb  Rb1  1  0.000000  0.000000  0.500000  1
  Rb  Rb2  1  0.000000  0.500000  0.250000  1
  Rb  Rb3  1  0.500000  0.000000  0.750000  1
  Rb  Rb4  1  0.500000  0.000000  0.250000  1
  Rb  Rb5  1  0.000000  0.500000  0.750000  1
  U  U6  1  0.500000  0.500000  0.399103  1
  U  U7  1  0.000000  0.000000  0.899103  1
  U  U8  1  0.500000  0.500000  0.600897  1
  U  U9  1  0.000000  0.000000  0.100897  1
  Br  Br10  1  0.793403  0.692277  0.392270  1
  Br  Br11  1  0.206597  0.307723  0.392270  1
  Br  Br12  1  0.706597  0.192277  0.892270  1
  Br  Br13  1  0.293403  0.807723  0.892270  1
  Br  Br14  1  0.692277  0.206597  0.392270  1
  Br  Br15  1  0.307723  0.793403  0.392270  1
  Br  Br16  1  0.192277  0.293403  0.892270  1
  Br  Br17  1  0.807723  0.706597  0.892270  1
  Br  Br18  1  0.206597  0.307723  0.607730  1
  Br  Br19  1  0.793403  0.692277  0.607730  1
  Br  Br20  1  0.293403  0.807723  0.107730  1
  Br  Br21  1  0.706597  0.192277  0.107730  1
  Br  Br22  1  0.307723  0.793403  0.607730  1
  Br  Br23  1  0.692277  0.206597  0.607730  1
  Br  Br24  1  0.807723  0.706597  0.107730  1
  Br  Br25  1  0.192277  0.293403  0.107730  1
  Br  Br26  1  0.500000  0.500000  0.258427  1
  Br  Br27  1  0.000000  0.000000  0.758427  1
  Br  Br28  1  0.500000  0.500000  0.741573  1
  Br  Br29  1  0.000000  0.000000  0.241573  1
  N  N30  1  0.500000  0.500000  0.500000  1
  N  N31  1  0.000000  0.000000  0.000000  1
