# generated using pymatgen
data_Er6Mn4Al3Pt16
_symmetry_space_group_name_H-M   'P 1'
_cell_length_a   8.94472577
_cell_length_b   8.96735780
_cell_length_c   8.94472570
_cell_angle_alpha   59.91626735
_cell_angle_beta   60.16746071
_cell_angle_gamma   59.91626745
_symmetry_Int_Tables_number   1
_chemical_formula_structural   Er6Mn4Al3Pt16
_chemical_formula_sum   'Er6 Mn4 Al3 Pt16'
_cell_volume   507.31531032
_cell_formula_units_Z   1
loop_
 _symmetry_equiv_pos_site_id
 _symmetry_equiv_pos_as_xyz
  1  'x, y, z'
loop_
 _atom_site_type_symbol
 _atom_site_label
 _atom_site_symmetry_multiplicity
 _atom_site_fract_x
 _atom_site_fract_y
 _atom_site_fract_z
 _atom_site_occupancy
  Er  Er0  1  0.711078  0.711078  0.288922  1
  Er  Er1  1  0.286775  0.713225  0.286775  1
  Er  Er2  1  0.711078  0.288922  0.288922  1
  Er  Er3  1  0.288922  0.288922  0.711078  1
  Er  Er4  1  0.713225  0.286775  0.713225  1
  Er  Er5  1  0.288922  0.711078  0.711078  1
  Mn  Mn6  1  0.000000  0.000000  0.500000  1
  Mn  Mn7  1  0.000000  0.500000  0.500000  1
  Mn  Mn8  1  0.500000  0.500000  0.000000  1
  Mn  Mn9  1  0.500000  0.000000  0.000000  1
  Al  Al10  1  0.000000  0.000000  0.000000  1
  Al  Al11  1  0.500000  0.000000  0.500000  1
  Al  Al12  1  0.000000  0.500000  0.000000  1
  Pt  Pt13  1  0.882380  0.881001  0.355616  1
  Pt  Pt14  1  0.881001  0.355616  0.881001  1
  Pt  Pt15  1  0.355616  0.881001  0.882380  1
  Pt  Pt16  1  0.881001  0.882380  0.881001  1
  Pt  Pt17  1  0.117620  0.118999  0.644384  1
  Pt  Pt18  1  0.118999  0.644384  0.118999  1
  Pt  Pt19  1  0.644384  0.118999  0.117620  1
  Pt  Pt20  1  0.118999  0.117620  0.118999  1
  Pt  Pt21  1  0.667335  0.660735  0.011195  1
  Pt  Pt22  1  0.660735  0.011195  0.660735  1
  Pt  Pt23  1  0.011195  0.660735  0.667335  1
  Pt  Pt24  1  0.660735  0.667335  0.660735  1
  Pt  Pt25  1  0.332665  0.339265  0.988805  1
  Pt  Pt26  1  0.339265  0.988805  0.339265  1
  Pt  Pt27  1  0.988805  0.339265  0.332665  1
  Pt  Pt28  1  0.339265  0.332665  0.339265  1
