# generated using pymatgen
data_Ho2SnHgRh4
_symmetry_space_group_name_H-M   'P 1'
_cell_length_a   6.30080200
_cell_length_b   6.29764500
_cell_length_c   7.30892400
_cell_angle_alpha   90.00000000
_cell_angle_beta   89.99905429
_cell_angle_gamma   90.00000000
_symmetry_Int_Tables_number   1
_chemical_formula_structural   Ho2SnHgRh4
_chemical_formula_sum   'Ho4 Sn2 Hg2 Rh8'
_cell_volume   290.01966997
_cell_formula_units_Z   2
loop_
 _symmetry_equiv_pos_site_id
 _symmetry_equiv_pos_as_xyz
  1  'x, y, z'
loop_
 _atom_site_type_symbol
 _atom_site_label
 _atom_site_symmetry_multiplicity
 _atom_site_fract_x
 _atom_site_fract_y
 _atom_site_fract_z
 _atom_site_occupancy
  Ho  Ho0  1  0.750053  0.250026  0.000009  1
  Ho  Ho1  1  0.249947  0.749973  0.999991  1
  Ho  Ho2  1  0.749984  0.250036  0.499986  1
  Ho  Ho3  1  0.250017  0.749963  0.500014  1
  Sn  Sn4  1  0.750152  0.750047  0.499998  1
  Sn  Sn5  1  0.249848  0.249952  0.500002  1
  Hg  Hg6  1  0.250032  0.249955  0.000030  1
  Hg  Hg7  1  0.749969  0.750044  0.999970  1
  Rh  Rh8  1  0.499872  0.999939  0.260104  1
  Rh  Rh9  1  0.500029  0.500141  0.260072  1
  Rh  Rh10  1  0.000091  0.999929  0.260133  1
  Rh  Rh11  1  0.999867  0.500016  0.260038  1
  Rh  Rh12  1  0.999909  0.000071  0.739867  1
  Rh  Rh13  1  0.000133  0.499983  0.739962  1
  Rh  Rh14  1  0.500127  0.000061  0.739896  1
  Rh  Rh15  1  0.499970  0.499859  0.739928  1
