# generated using pymatgen
data_Ho3Er7(InBi)3
_symmetry_space_group_name_H-M   'P 1'
_cell_length_a   9.00253400
_cell_length_b   9.00253524
_cell_length_c   6.52369700
_cell_angle_alpha   90.00000000
_cell_angle_beta   90.00000000
_cell_angle_gamma   120.00000278
_symmetry_Int_Tables_number   1
_chemical_formula_structural   Ho3Er7(InBi)3
_chemical_formula_sum   'Ho3 Er7 In3 Bi3'
_cell_volume   457.88245380
_cell_formula_units_Z   1
loop_
 _symmetry_equiv_pos_site_id
 _symmetry_equiv_pos_as_xyz
  1  'x, y, z'
loop_
 _atom_site_type_symbol
 _atom_site_label
 _atom_site_symmetry_multiplicity
 _atom_site_fract_x
 _atom_site_fract_y
 _atom_site_fract_z
 _atom_site_occupancy
  Ho  Ho0  1  0.763682  0.763682  0.750000  1
  Ho  Ho1  1  0.236318  0.000000  0.750000  1
  Ho  Ho2  1  0.000000  0.236318  0.750000  1
  Er  Er3  1  0.666667  0.333333  0.007393  1
  Er  Er4  1  0.333333  0.666667  0.007393  1
  Er  Er5  1  0.333333  0.666667  0.492607  1
  Er  Er6  1  0.666667  0.333333  0.492607  1
  Er  Er7  1  0.238061  0.238061  0.250000  1
  Er  Er8  1  0.761939  0.000000  0.250000  1
  Er  Er9  1  0.000000  0.761939  0.250000  1
  In  In10  1  0.606620  0.606620  0.250000  1
  In  In11  1  0.393380  0.000000  0.250000  1
  In  In12  1  0.000000  0.393380  0.250000  1
  Bi  Bi13  1  0.396097  0.396097  0.750000  1
  Bi  Bi14  1  0.603903  0.000000  0.750000  1
  Bi  Bi15  1  0.000000  0.603903  0.750000  1
