# generated using pymatgen
data_Tb14Dy2MgHg3Rh4
_symmetry_space_group_name_H-M   'P 1'
_cell_length_a   9.65630249
_cell_length_b   9.66056058
_cell_length_c   9.66227918
_cell_angle_alpha   59.94593486
_cell_angle_beta   59.90688322
_cell_angle_gamma   59.92379509
_symmetry_Int_Tables_number   1
_chemical_formula_structural   Tb14Dy2MgHg3Rh4
_chemical_formula_sum   'Tb14 Dy2 Mg1 Hg3 Rh4'
_cell_volume   636.27302744
_cell_formula_units_Z   1
loop_
 _symmetry_equiv_pos_site_id
 _symmetry_equiv_pos_as_xyz
  1  'x, y, z'
loop_
 _atom_site_type_symbol
 _atom_site_label
 _atom_site_symmetry_multiplicity
 _atom_site_fract_x
 _atom_site_fract_y
 _atom_site_fract_z
 _atom_site_occupancy
  Tb  Tb0  1  0.062361  0.436794  0.437214  1
  Tb  Tb1  1  0.648360  0.047839  0.650414  1
  Tb  Tb2  1  0.813010  0.810990  0.189186  1
  Tb  Tb3  1  0.438633  0.063016  0.062691  1
  Tb  Tb4  1  0.438250  0.435844  0.061596  1
  Tb  Tb5  1  0.191382  0.190394  0.810176  1
  Tb  Tb6  1  0.814910  0.187659  0.187464  1
  Tb  Tb7  1  0.063955  0.437635  0.062019  1
  Tb  Tb8  1  0.438008  0.061546  0.436071  1
  Tb  Tb9  1  0.057956  0.646478  0.646592  1
  Tb  Tb10  1  0.192031  0.809611  0.809229  1
  Tb  Tb11  1  0.648398  0.650390  0.047524  1
  Tb  Tb12  1  0.191664  0.810363  0.190429  1
  Tb  Tb13  1  0.063640  0.062050  0.438033  1
  Dy  Dy14  1  0.812972  0.189472  0.810687  1
  Dy  Dy15  1  0.650712  0.652391  0.652723  1
  Mg  Mg16  1  0.716229  0.428603  0.428818  1
  Hg  Hg17  1  0.417869  0.412568  0.757644  1
  Hg  Hg18  1  0.417850  0.413129  0.413107  1
  Hg  Hg19  1  0.417801  0.757621  0.412620  1
  Rh  Rh20  1  0.858228  0.427570  0.854978  1
  Rh  Rh21  1  0.427158  0.856309  0.856477  1
  Rh  Rh22  1  0.858290  0.854970  0.428022  1
  Rh  Rh23  1  0.860332  0.856760  0.856288  1
