# generated using pymatgen
data_YLuAs4O9
_symmetry_space_group_name_H-M   'P 1'
_cell_length_a   6.68513511
_cell_length_b   7.48636604
_cell_length_c   9.81282776
_cell_angle_alpha   94.34280977
_cell_angle_beta   103.97747870
_cell_angle_gamma   104.99526006
_symmetry_Int_Tables_number   1
_chemical_formula_structural   YLuAs4O9
_chemical_formula_sum   'Y2 Lu2 As8 O18'
_cell_volume   455.30427106
_cell_formula_units_Z   2
loop_
 _symmetry_equiv_pos_site_id
 _symmetry_equiv_pos_as_xyz
  1  'x, y, z'
loop_
 _atom_site_type_symbol
 _atom_site_label
 _atom_site_symmetry_multiplicity
 _atom_site_fract_x
 _atom_site_fract_y
 _atom_site_fract_z
 _atom_site_occupancy
  Y  Y0  1  0.240810  0.938555  0.614002  1
  Y  Y1  1  0.759190  0.061445  0.385998  1
  Lu  Lu2  1  0.720369  0.527410  0.410738  1
  Lu  Lu3  1  0.279631  0.472590  0.589262  1
  As  As4  1  0.683597  0.772304  0.081302  1
  As  As5  1  0.316403  0.227696  0.918698  1
  As  As6  1  0.169262  0.750328  0.912205  1
  As  As7  1  0.830738  0.249672  0.087795  1
  As  As8  1  0.741350  0.913251  0.710166  1
  As  As9  1  0.258650  0.086749  0.289834  1
  As  As10  1  0.810153  0.353513  0.701169  1
  As  As11  1  0.189847  0.646487  0.298831  1
  O  O12  1  0.721637  0.743846  0.261718  1
  O  O13  1  0.278363  0.256154  0.738282  1
  O  O14  1  0.316315  0.978997  0.868445  1
  O  O15  1  0.683685  0.021003  0.131555  1
  O  O16  1  0.608711  0.327628  0.985306  1
  O  O17  1  0.391289  0.672372  0.014694  1
  O  O18  1  0.124982  0.641812  0.738074  1
  O  O19  1  0.875018  0.358188  0.261926  1
  O  O20  1  0.846600  0.873851  0.560583  1
  O  O21  1  0.153400  0.126149  0.439417  1
  O  O22  1  0.478989  0.762900  0.665537  1
  O  O23  1  0.521011  0.237100  0.334463  1
  O  O24  1  0.374182  0.531874  0.383103  1
  O  O25  1  0.625818  0.468126  0.616897  1
  O  O26  1  0.085695  0.665681  0.453456  1
  O  O27  1  0.914305  0.334319  0.546544  1
  O  O28  1  0.379058  0.900027  0.358888  1
  O  O29  1  0.620942  0.099973  0.641112  1
