# generated using pymatgen
data_Dy2Ga9RuPt2
_symmetry_space_group_name_H-M   'P 1'
_cell_length_a   7.63214717
_cell_length_b   7.63214680
_cell_length_c   9.49166500
_cell_angle_alpha   90.00000000
_cell_angle_beta   90.00000000
_cell_angle_gamma   119.75807941
_symmetry_Int_Tables_number   1
_chemical_formula_structural   Dy2Ga9RuPt2
_chemical_formula_sum   'Dy4 Ga18 Ru2 Pt4'
_cell_volume   479.97656522
_cell_formula_units_Z   2
loop_
 _symmetry_equiv_pos_site_id
 _symmetry_equiv_pos_as_xyz
  1  'x, y, z'
loop_
 _atom_site_type_symbol
 _atom_site_label
 _atom_site_symmetry_multiplicity
 _atom_site_fract_x
 _atom_site_fract_y
 _atom_site_fract_z
 _atom_site_occupancy
  Dy  Dy0  1  0.326455  0.002272  0.750292  1
  Dy  Dy1  1  0.673545  0.997728  0.250292  1
  Dy  Dy2  1  0.002272  0.326455  0.749708  1
  Dy  Dy3  1  0.997728  0.673545  0.249708  1
  Ga  Ga4  1  0.864168  0.864168  0.750000  1
  Ga  Ga5  1  0.135832  0.135832  0.250000  1
  Ga  Ga6  1  0.662109  0.667881  0.432305  1
  Ga  Ga7  1  0.337891  0.332119  0.932305  1
  Ga  Ga8  1  0.667881  0.662109  0.067695  1
  Ga  Ga9  1  0.332119  0.337891  0.567695  1
  Ga  Ga10  1  0.449775  0.660791  0.746798  1
  Ga  Ga11  1  0.550225  0.339209  0.246798  1
  Ga  Ga12  1  0.660791  0.449775  0.753202  1
  Ga  Ga13  1  0.339209  0.550225  0.253202  1
  Ga  Ga14  1  0.994242  0.335768  0.081879  1
  Ga  Ga15  1  0.005758  0.664232  0.581879  1
  Ga  Ga16  1  0.335768  0.994242  0.418121  1
  Ga  Ga17  1  0.664232  0.005758  0.918121  1
  Ga  Ga18  1  0.994488  0.658045  0.918552  1
  Ga  Ga19  1  0.005512  0.341955  0.418552  1
  Ga  Ga20  1  0.658045  0.994488  0.581448  1
  Ga  Ga21  1  0.341955  0.005512  0.081448  1
  Ru  Ru22  1  0.328338  0.671662  0.500000  1
  Ru  Ru23  1  0.671662  0.328338  0.000000  1
  Pt  Pt24  1  0.000310  0.999690  0.500000  1
  Pt  Pt25  1  0.999690  0.000310  0.000000  1
  Pt  Pt26  1  0.671622  0.328378  0.500000  1
  Pt  Pt27  1  0.328378  0.671622  0.000000  1
