# generated using pymatgen
data_Ho5ErAl24(Os3Ru)2
_symmetry_space_group_name_H-M   'P 1'
_cell_length_a   8.80467800
_cell_length_b   8.81381680
_cell_length_c   9.53845800
_cell_angle_alpha   90.00000000
_cell_angle_beta   90.00000000
_cell_angle_gamma   119.96571397
_symmetry_Int_Tables_number   1
_chemical_formula_structural   Ho5ErAl24(Os3Ru)2
_chemical_formula_sum   'Ho5 Er1 Al24 Os6 Ru2'
_cell_volume   641.26308613
_cell_formula_units_Z   1
loop_
 _symmetry_equiv_pos_site_id
 _symmetry_equiv_pos_as_xyz
  1  'x, y, z'
loop_
 _atom_site_type_symbol
 _atom_site_label
 _atom_site_symmetry_multiplicity
 _atom_site_fract_x
 _atom_site_fract_y
 _atom_site_fract_z
 _atom_site_occupancy
  Ho  Ho0  1  0.806128  0.193592  0.750000  1
  Ho  Ho1  1  0.193603  0.806583  0.250000  1
  Ho  Ho2  1  0.387540  0.193575  0.750000  1
  Ho  Ho3  1  0.612961  0.806583  0.250000  1
  Ho  Ho4  1  0.805891  0.611651  0.750000  1
  Er  Er5  1  0.195098  0.390145  0.250000  1
  Al  Al6  1  0.666512  0.333033  0.984826  1
  Al  Al7  1  0.333403  0.666830  0.015643  1
  Al  Al8  1  0.333403  0.666830  0.484357  1
  Al  Al9  1  0.666512  0.333033  0.515174  1
  Al  Al10  1  0.838415  0.162052  0.422959  1
  Al  Al11  1  0.161902  0.837916  0.576735  1
  Al  Al12  1  0.323625  0.162052  0.422958  1
  Al  Al13  1  0.161902  0.837916  0.923265  1
  Al  Al14  1  0.676005  0.837920  0.576736  1
  Al  Al15  1  0.838415  0.162052  0.077041  1
  Al  Al16  1  0.838075  0.676161  0.422935  1
  Al  Al17  1  0.676005  0.837920  0.923264  1
  Al  Al18  1  0.161785  0.323588  0.576372  1
  Al  Al19  1  0.323625  0.162052  0.077042  1
  Al  Al20  1  0.161785  0.323588  0.923628  1
  Al  Al21  1  0.838075  0.676161  0.077065  1
  Al  Al22  1  0.439134  0.560261  0.750000  1
  Al  Al23  1  0.560126  0.439557  0.250000  1
  Al  Al24  1  0.121111  0.560261  0.750000  1
  Al  Al25  1  0.879421  0.439558  0.250000  1
  Al  Al26  1  0.439419  0.878853  0.750000  1
  Al  Al27  1  0.560529  0.121073  0.250000  1
  Al  Al28  1  0.999661  0.999335  0.750000  1
  Al  Al29  1  0.001036  0.002093  0.250000  1
  Os  Os30  1  0.499180  0.499624  0.000458  1
  Os  Os31  1  0.000446  0.499615  0.000471  1
  Os  Os32  1  0.499180  0.499624  0.499542  1
  Os  Os33  1  0.500010  0.000029  0.000053  1
  Os  Os34  1  0.000446  0.499615  0.499529  1
  Os  Os35  1  0.500010  0.000029  0.499947  1
  Ru  Ru36  1  0.999812  0.999619  0.999888  1
  Ru  Ru37  1  0.999812  0.999619  0.500112  1
