# generated using pymatgen
data_Li2Ti(AsPd)3
_symmetry_space_group_name_H-M   'P 1'
_cell_length_a   6.56361738
_cell_length_b   6.56361855
_cell_length_c   3.83134600
_cell_angle_alpha   90.00000000
_cell_angle_beta   90.00000000
_cell_angle_gamma   117.70232588
_symmetry_Int_Tables_number   1
_chemical_formula_structural   Li2Ti(AsPd)3
_chemical_formula_sum   'Li2 Ti1 As3 Pd3'
_cell_volume   146.13865251
_cell_formula_units_Z   1
loop_
 _symmetry_equiv_pos_site_id
 _symmetry_equiv_pos_as_xyz
  1  'x, y, z'
loop_
 _atom_site_type_symbol
 _atom_site_label
 _atom_site_symmetry_multiplicity
 _atom_site_fract_x
 _atom_site_fract_y
 _atom_site_fract_z
 _atom_site_occupancy
  Li  Li0  1  0.585814  0.996151  0.000000  1
  Li  Li1  1  0.996151  0.585814  0.000000  1
  Ti  Ti2  1  0.405675  0.405675  0.000000  1
  As  As3  1  0.336722  0.650539  0.500000  1
  As  As4  1  0.650539  0.336722  0.500000  1
  As  As5  1  0.017638  0.017638  0.000000  1
  Pd  Pd6  1  0.256947  0.990195  0.500000  1
  Pd  Pd7  1  0.990195  0.256947  0.500000  1
  Pd  Pd8  1  0.760318  0.760318  0.500000  1
