# generated using pymatgen
data_Y2Er2TcB12Rh
_symmetry_space_group_name_H-M   'P 1'
_cell_length_a   3.66855000
_cell_length_b   9.12073602
_cell_length_c   11.51761311
_cell_angle_alpha   90.35222139
_cell_angle_beta   90.00000000
_cell_angle_gamma   90.00000000
_symmetry_Int_Tables_number   1
_chemical_formula_structural   Y2Er2TcB12Rh
_chemical_formula_sum   'Y4 Er4 Tc2 B24 Rh2'
_cell_volume   385.37062582
_cell_formula_units_Z   2
loop_
 _symmetry_equiv_pos_site_id
 _symmetry_equiv_pos_as_xyz
  1  'x, y, z'
loop_
 _atom_site_type_symbol
 _atom_site_label
 _atom_site_symmetry_multiplicity
 _atom_site_fract_x
 _atom_site_fract_y
 _atom_site_fract_z
 _atom_site_occupancy
  Y  Y0  1  0.500000  0.318741  0.411257  1
  Y  Y1  1  0.500000  0.681259  0.588743  1
  Y  Y2  1  0.500000  0.173935  0.916826  1
  Y  Y3  1  0.500000  0.826065  0.083174  1
  Er  Er4  1  0.500000  0.441787  0.126845  1
  Er  Er5  1  0.500000  0.558213  0.873155  1
  Er  Er6  1  0.500000  0.053864  0.628541  1
  Er  Er7  1  0.500000  0.946136  0.371459  1
  Tc  Tc8  1  0.500000  0.139399  0.180295  1
  Tc  Tc9  1  0.500000  0.860601  0.819705  1
  B  B10  1  0.000000  0.106681  0.471385  1
  B  B11  1  0.000000  0.893319  0.528615  1
  B  B12  1  0.000000  0.394596  0.970698  1
  B  B13  1  0.000000  0.605404  0.029302  1
  B  B14  1  0.000000  0.131924  0.314825  1
  B  B15  1  0.000000  0.868076  0.685175  1
  B  B16  1  0.000000  0.367920  0.816370  1
  B  B17  1  0.000000  0.632080  0.183630  1
  B  B18  1  0.000000  0.053576  0.067885  1
  B  B19  1  0.000000  0.946424  0.932115  1
  B  B20  1  0.000000  0.445185  0.566370  1
  B  B21  1  0.000000  0.554815  0.433630  1
  B  B22  1  0.000000  0.483919  0.287248  1
  B  B23  1  0.000000  0.516081  0.712752  1
  B  B24  1  0.000000  0.016321  0.786508  1
  B  B25  1  0.000000  0.983679  0.213492  1
  B  B26  1  0.000000  0.248852  0.081710  1
  B  B27  1  0.000000  0.751148  0.918290  1
  B  B28  1  0.000000  0.250185  0.579294  1
  B  B29  1  0.000000  0.749815  0.420706  1
  B  B30  1  0.000000  0.292951  0.234433  1
  B  B31  1  0.000000  0.707049  0.765567  1
  B  B32  1  0.000000  0.208318  0.734479  1
  B  B33  1  0.000000  0.791682  0.265521  1
  Rh  Rh34  1  0.500000  0.361572  0.679414  1
  Rh  Rh35  1  0.500000  0.638428  0.320586  1
