# generated using pymatgen
data_Y6Ta4Al12Os7
_symmetry_space_group_name_H-M   'P 1'
_cell_length_a   9.05368903
_cell_length_b   9.05368951
_cell_length_c   9.05368900
_cell_angle_alpha   60.00000550
_cell_angle_beta   60.00000378
_cell_angle_gamma   60.00000424
_symmetry_Int_Tables_number   1
_chemical_formula_structural   Y6Ta4Al12Os7
_chemical_formula_sum   'Y6 Ta4 Al12 Os7'
_cell_volume   524.76128734
_cell_formula_units_Z   1
loop_
 _symmetry_equiv_pos_site_id
 _symmetry_equiv_pos_as_xyz
  1  'x, y, z'
loop_
 _atom_site_type_symbol
 _atom_site_label
 _atom_site_symmetry_multiplicity
 _atom_site_fract_x
 _atom_site_fract_y
 _atom_site_fract_z
 _atom_site_occupancy
  Y  Y0  1  0.706518  0.706518  0.293482  1
  Y  Y1  1  0.293482  0.706518  0.293482  1
  Y  Y2  1  0.706518  0.293482  0.293482  1
  Y  Y3  1  0.293482  0.293482  0.706518  1
  Y  Y4  1  0.706518  0.293482  0.706518  1
  Y  Y5  1  0.293482  0.706518  0.706518  1
  Ta  Ta6  1  0.879332  0.879332  0.362003  1
  Ta  Ta7  1  0.879332  0.362003  0.879332  1
  Ta  Ta8  1  0.362003  0.879332  0.879332  1
  Ta  Ta9  1  0.879332  0.879332  0.879332  1
  Al  Al10  1  0.120521  0.120521  0.638436  1
  Al  Al11  1  0.120521  0.638436  0.120521  1
  Al  Al12  1  0.638436  0.120521  0.120521  1
  Al  Al13  1  0.120521  0.120521  0.120521  1
  Al  Al14  1  0.666681  0.666681  0.999960  1
  Al  Al15  1  0.666681  0.999960  0.666681  1
  Al  Al16  1  0.999960  0.666681  0.666681  1
  Al  Al17  1  0.666681  0.666681  0.666681  1
  Al  Al18  1  0.330632  0.330632  0.008103  1
  Al  Al19  1  0.330632  0.008103  0.330632  1
  Al  Al20  1  0.008103  0.330632  0.330632  1
  Al  Al21  1  0.330632  0.330632  0.330632  1
  Os  Os22  1  0.000000  0.000000  0.000000  1
  Os  Os23  1  0.995318  0.995318  0.504682  1
  Os  Os24  1  0.504682  0.995318  0.504682  1
  Os  Os25  1  0.995318  0.504682  0.504682  1
  Os  Os26  1  0.504682  0.504682  0.995318  1
  Os  Os27  1  0.995318  0.504682  0.995318  1
  Os  Os28  1  0.504682  0.995318  0.995318  1
