# generated using pymatgen
data_Tb5Y7Si11Ni
_symmetry_space_group_name_H-M   'P 1'
_cell_length_a   3.86556400
_cell_length_b   5.72485350
_cell_length_c   23.82185533
_cell_angle_alpha   82.73533011
_cell_angle_beta   90.00000000
_cell_angle_gamma   90.00000000
_symmetry_Int_Tables_number   1
_chemical_formula_structural   Tb5Y7Si11Ni
_chemical_formula_sum   'Tb5 Y7 Si11 Ni1'
_cell_volume   522.94077644
_cell_formula_units_Z   1
loop_
 _symmetry_equiv_pos_site_id
 _symmetry_equiv_pos_as_xyz
  1  'x, y, z'
loop_
 _atom_site_type_symbol
 _atom_site_label
 _atom_site_symmetry_multiplicity
 _atom_site_fract_x
 _atom_site_fract_y
 _atom_site_fract_z
 _atom_site_occupancy
  Tb  Tb0  1  0.750000  0.519963  0.220777  1
  Tb  Tb1  1  0.750000  0.167545  0.392478  1
  Tb  Tb2  1  0.750000  0.352655  0.559490  1
  Tb  Tb3  1  0.750000  0.996196  0.726983  1
  Tb  Tb4  1  0.750000  0.169897  0.893921  1
  Y  Y5  1  0.750000  0.357032  0.065444  1
  Y  Y6  1  0.250000  0.660815  0.940826  1
  Y  Y7  1  0.250000  0.469394  0.773787  1
  Y  Y8  1  0.250000  0.828282  0.606502  1
  Y  Y9  1  0.250000  0.643754  0.439043  1
  Y  Y10  1  0.250000  0.993863  0.272112  1
  Y  Y11  1  0.250000  0.837891  0.108102  1
  Si  Si12  1  0.750000  0.876791  0.013617  1
  Si  Si13  1  0.250000  0.148188  0.989373  1
  Si  Si14  1  0.750000  0.052438  0.178734  1
  Si  Si15  1  0.250000  0.955750  0.821572  1
  Si  Si16  1  0.750000  0.701597  0.344371  1
  Si  Si17  1  0.250000  0.291727  0.654092  1
  Si  Si18  1  0.750000  0.864186  0.511776  1
  Si  Si19  1  0.250000  0.132681  0.486858  1
  Si  Si20  1  0.750000  0.533862  0.679275  1
  Si  Si21  1  0.250000  0.461847  0.318443  1
  Si  Si22  1  0.750000  0.683451  0.846304  1
  Ni  Ni23  1  0.250000  0.300196  0.156117  1
