# generated using pymatgen
data_DyHo5B14OsW
_symmetry_space_group_name_H-M   'P 1'
_cell_length_a   8.10003311
_cell_length_b   8.10003321
_cell_length_c   9.38347100
_cell_angle_alpha   90.00000000
_cell_angle_beta   90.00000000
_cell_angle_gamma   155.09223947
_symmetry_Int_Tables_number   1
_chemical_formula_structural   DyHo5B14OsW
_chemical_formula_sum   'Dy1 Ho5 B14 Os1 W1'
_cell_volume   259.28825865
_cell_formula_units_Z   1
loop_
 _symmetry_equiv_pos_site_id
 _symmetry_equiv_pos_as_xyz
  1  'x, y, z'
loop_
 _atom_site_type_symbol
 _atom_site_label
 _atom_site_symmetry_multiplicity
 _atom_site_fract_x
 _atom_site_fract_y
 _atom_site_fract_z
 _atom_site_occupancy
  Dy  Dy0  1  0.754695  0.245305  0.750000  1
  Ho  Ho1  1  0.894027  0.105973  0.437537  1
  Ho  Ho2  1  0.107071  0.892929  0.558557  1
  Ho  Ho3  1  0.894027  0.105973  0.062463  1
  Ho  Ho4  1  0.107071  0.892929  0.941443  1
  Ho  Ho5  1  0.243334  0.756666  0.250000  1
  B  B6  1  0.726654  0.273346  0.464988  1
  B  B7  1  0.271831  0.728169  0.531558  1
  B  B8  1  0.726654  0.273346  0.035012  1
  B  B9  1  0.271831  0.728169  0.968442  1
  B  B10  1  0.632042  0.367958  0.150956  1
  B  B11  1  0.365162  0.634838  0.853141  1
  B  B12  1  0.632042  0.367958  0.349044  1
  B  B13  1  0.365162  0.634838  0.646859  1
  B  B14  1  0.521198  0.478802  0.096144  1
  B  B15  1  0.480366  0.519634  0.909408  1
  B  B16  1  0.521198  0.478802  0.403856  1
  B  B17  1  0.480366  0.519634  0.590592  1
  B  B18  1  0.457883  0.542117  0.250000  1
  B  B19  1  0.545636  0.454364  0.750000  1
  Os  Os20  1  0.054266  0.945734  0.250000  1
  W  W21  1  0.947486  0.052514  0.750000  1
