# generated using pymatgen
data_La10Sb8TeI
_symmetry_space_group_name_H-M   'P 1'
_cell_length_a   8.00851287
_cell_length_b   9.28568297
_cell_length_c   10.33023206
_cell_angle_alpha   102.85592043
_cell_angle_beta   97.44016470
_cell_angle_gamma   106.91740944
_symmetry_Int_Tables_number   1
_chemical_formula_structural   La10Sb8TeI
_chemical_formula_sum   'La10 Sb8 Te1 I1'
_cell_volume   700.82694004
_cell_formula_units_Z   1
loop_
 _symmetry_equiv_pos_site_id
 _symmetry_equiv_pos_as_xyz
  1  'x, y, z'
loop_
 _atom_site_type_symbol
 _atom_site_label
 _atom_site_symmetry_multiplicity
 _atom_site_fract_x
 _atom_site_fract_y
 _atom_site_fract_z
 _atom_site_occupancy
  La  La0  1  0.903589  0.545745  0.787925  1
  La  La1  1  0.697502  0.150573  0.399538  1
  La  La2  1  0.487624  0.755425  0.996431  1
  La  La3  1  0.692520  0.648747  0.410835  1
  La  La4  1  0.303761  0.353582  0.602616  1
  La  La5  1  0.112669  0.963147  0.201087  1
  La  La6  1  0.488787  0.236121  0.994914  1
  La  La7  1  0.304008  0.849361  0.599925  1
  La  La8  1  0.111435  0.444510  0.202986  1
  La  La9  1  0.898036  0.052689  0.803577  1
  Sb  Sb10  1  0.599812  0.201184  0.701359  1
  Sb  Sb11  1  0.399139  0.798727  0.298932  1
  Sb  Sb12  1  0.800242  0.099625  0.101580  1
  Sb  Sb13  1  0.201780  0.401546  0.900995  1
  Sb  Sb14  1  0.602162  0.701079  0.704242  1
  Sb  Sb15  1  0.405041  0.301906  0.300896  1
  Sb  Sb16  1  0.192614  0.897048  0.897519  1
  Sb  Sb17  1  0.000009  0.500422  0.495819  1
  Te  Te18  1  0.999570  0.998257  0.498458  1
  I  I19  1  0.799699  0.600307  0.100365  1
