# generated using pymatgen
data_Tb16InHg3Rh4
_symmetry_space_group_name_H-M   'P 1'
_cell_length_a   9.66259447
_cell_length_b   9.64345987
_cell_length_c   9.64345900
_cell_angle_alpha   59.99999956
_cell_angle_beta   60.06548497
_cell_angle_gamma   60.06548658
_symmetry_Int_Tables_number   1
_chemical_formula_structural   Tb16InHg3Rh4
_chemical_formula_sum   'Tb16 In1 Hg3 Rh4'
_cell_volume   636.02418999
_cell_formula_units_Z   1
loop_
 _symmetry_equiv_pos_site_id
 _symmetry_equiv_pos_as_xyz
  1  'x, y, z'
loop_
 _atom_site_type_symbol
 _atom_site_label
 _atom_site_symmetry_multiplicity
 _atom_site_fract_x
 _atom_site_fract_y
 _atom_site_fract_z
 _atom_site_occupancy
  Tb  Tb0  1  0.811381  0.809793  0.189413  1
  Tb  Tb1  1  0.811381  0.189413  0.809793  1
  Tb  Tb2  1  0.188427  0.188912  0.811330  1
  Tb  Tb3  1  0.649804  0.051245  0.649476  1
  Tb  Tb4  1  0.066531  0.061448  0.436011  1
  Tb  Tb5  1  0.437164  0.435896  0.063470  1
  Tb  Tb6  1  0.649804  0.649476  0.649476  1
  Tb  Tb7  1  0.811381  0.189413  0.189413  1
  Tb  Tb8  1  0.188427  0.811330  0.811330  1
  Tb  Tb9  1  0.052633  0.649122  0.649122  1
  Tb  Tb10  1  0.437164  0.063470  0.063470  1
  Tb  Tb11  1  0.437164  0.063470  0.435896  1
  Tb  Tb12  1  0.066531  0.436011  0.061448  1
  Tb  Tb13  1  0.649804  0.649476  0.051245  1
  Tb  Tb14  1  0.188427  0.811330  0.188912  1
  Tb  Tb15  1  0.066531  0.436011  0.436011  1
  In  In16  1  0.742143  0.419285  0.419285  1
  Hg  Hg17  1  0.415275  0.415282  0.415282  1
  Hg  Hg18  1  0.415275  0.415282  0.754159  1
  Hg  Hg19  1  0.415275  0.754159  0.415282  1
  Rh  Rh20  1  0.857253  0.427931  0.857409  1
  Rh  Rh21  1  0.857253  0.857409  0.857409  1
  Rh  Rh22  1  0.857253  0.857409  0.427931  1
  Rh  Rh23  1  0.427721  0.857427  0.857427  1
