# generated using pymatgen
data_ErLu15(In3Rh)2
_symmetry_space_group_name_H-M   'P 1'
_cell_length_a   10.24795100
_cell_length_b   10.24561925
_cell_length_c   6.89135600
_cell_angle_alpha   90.00548160
_cell_angle_beta   90.00000000
_cell_angle_gamma   120.00753197
_symmetry_Int_Tables_number   1
_chemical_formula_structural   ErLu15(In3Rh)2
_chemical_formula_sum   'Er1 Lu15 In6 Rh2'
_cell_volume   626.58154711
_cell_formula_units_Z   1
loop_
 _symmetry_equiv_pos_site_id
 _symmetry_equiv_pos_as_xyz
  1  'x, y, z'
loop_
 _atom_site_type_symbol
 _atom_site_label
 _atom_site_symmetry_multiplicity
 _atom_site_fract_x
 _atom_site_fract_y
 _atom_site_fract_z
 _atom_site_occupancy
  Er  Er0  1  0.531993  0.063985  0.524541  1
  Lu  Lu1  1  0.935200  0.467611  0.524963  1
  Lu  Lu2  1  0.532411  0.467611  0.524963  1
  Lu  Lu3  1  0.467123  0.934246  0.024751  1
  Lu  Lu4  1  0.065037  0.532624  0.025185  1
  Lu  Lu5  1  0.467588  0.532624  0.025185  1
  Lu  Lu6  1  0.177242  0.354483  0.729152  1
  Lu  Lu7  1  0.646113  0.822503  0.729397  1
  Lu  Lu8  1  0.176391  0.822503  0.729397  1
  Lu  Lu9  1  0.822993  0.645986  0.228972  1
  Lu  Lu10  1  0.354171  0.177461  0.227856  1
  Lu  Lu11  1  0.823289  0.177461  0.227856  1
  Lu  Lu12  1  0.666996  0.333989  0.903166  1
  Lu  Lu13  1  0.333015  0.666029  0.403119  1
  Lu  Lu14  1  0.000019  0.000039  0.508196  1
  Lu  Lu15  1  0.999964  0.999929  0.008400  1
  In  In16  1  0.837603  0.675207  0.769492  1
  In  In17  1  0.323961  0.161941  0.769415  1
  In  In18  1  0.837980  0.161941  0.769415  1
  In  In19  1  0.162225  0.324451  0.269316  1
  In  In20  1  0.675341  0.837919  0.269473  1
  In  In21  1  0.162577  0.837919  0.269473  1
  Rh  Rh22  1  0.667371  0.334741  0.296581  1
  Rh  Rh23  1  0.333398  0.666798  0.797415  1
