# generated using pymatgen
data_Ho3ErV4F28
_symmetry_space_group_name_H-M   'P 1'
_cell_length_a   5.48633502
_cell_length_b   8.76796547
_cell_length_c   11.74657245
_cell_angle_alpha   63.47680749
_cell_angle_beta   89.99262529
_cell_angle_gamma   89.99207041
_symmetry_Int_Tables_number   1
_chemical_formula_structural   Ho3ErV4F28
_chemical_formula_sum   'Ho3 Er1 V4 F28'
_cell_volume   505.58688639
_cell_formula_units_Z   1
loop_
 _symmetry_equiv_pos_site_id
 _symmetry_equiv_pos_as_xyz
  1  'x, y, z'
loop_
 _atom_site_type_symbol
 _atom_site_label
 _atom_site_symmetry_multiplicity
 _atom_site_fract_x
 _atom_site_fract_y
 _atom_site_fract_z
 _atom_site_occupancy
  Ho  Ho0  1  0.758243  0.807735  0.770493  1
  Ho  Ho1  1  0.258223  0.192221  0.729493  1
  Ho  Ho2  1  0.241740  0.191731  0.229576  1
  Er  Er3  1  0.741726  0.807712  0.270554  1
  V  V4  1  0.754505  0.273004  0.954808  1
  V  V5  1  0.254597  0.726866  0.544966  1
  V  V6  1  0.245474  0.726896  0.045610  1
  V  V7  1  0.745409  0.273452  0.454631  1
  F  F8  1  0.449742  0.704979  0.923764  1
  F  F9  1  0.949865  0.295074  0.576354  1
  F  F10  1  0.550011  0.295050  0.076410  1
  F  F11  1  0.049535  0.705202  0.423385  1
  F  F12  1  0.459230  0.283524  0.544523  1
  F  F13  1  0.959419  0.716527  0.955525  1
  F  F14  1  0.541152  0.716850  0.454881  1
  F  F15  1  0.040817  0.283454  0.044615  1
  F  F16  1  0.769169  0.507017  0.862223  1
  F  F17  1  0.269199  0.492987  0.637745  1
  F  F18  1  0.230848  0.492952  0.137871  1
  F  F19  1  0.730915  0.507545  0.362048  1
  F  F20  1  0.756296  0.041436  0.045303  1
  F  F21  1  0.256312  0.958519  0.454791  1
  F  F22  1  0.243698  0.958439  0.954873  1
  F  F23  1  0.743695  0.041716  0.545096  1
  F  F24  1  0.978186  0.730497  0.641269  1
  F  F25  1  0.477992  0.269476  0.858677  1
  F  F26  1  0.022032  0.269471  0.358613  1
  F  F27  1  0.522297  0.730770  0.141713  1
  F  F28  1  0.041750  0.748044  0.170448  1
  F  F29  1  0.542630  0.252217  0.329750  1
  F  F30  1  0.957274  0.252189  0.829788  1
  F  F31  1  0.457208  0.747796  0.670103  1
  F  F32  1  0.422951  0.972473  0.231402  1
  F  F33  1  0.921115  0.026147  0.268714  1
  F  F34  1  0.578354  0.027097  0.768754  1
  F  F35  1  0.078393  0.972932  0.731230  1
