# generated using pymatgen
data_Li2Tc3NiO8
_symmetry_space_group_name_H-M   'P 1'
_cell_length_a   5.75513552
_cell_length_b   5.75070965
_cell_length_c   10.20210311
_cell_angle_alpha   89.86793123
_cell_angle_beta   90.06366458
_cell_angle_gamma   119.97544517
_symmetry_Int_Tables_number   1
_chemical_formula_structural   Li2Tc3NiO8
_chemical_formula_sum   'Li4 Tc6 Ni2 O16'
_cell_volume   292.48499169
_cell_formula_units_Z   2
loop_
 _symmetry_equiv_pos_site_id
 _symmetry_equiv_pos_as_xyz
  1  'x, y, z'
loop_
 _atom_site_type_symbol
 _atom_site_label
 _atom_site_symmetry_multiplicity
 _atom_site_fract_x
 _atom_site_fract_y
 _atom_site_fract_z
 _atom_site_occupancy
  Li  Li0  1  0.333731  0.668043  0.886073  1
  Li  Li1  1  0.002877  0.002129  0.994149  1
  Li  Li2  1  0.997131  0.999236  0.494148  1
  Li  Li3  1  0.666258  0.334324  0.386079  1
  Tc  Tc4  1  0.189740  0.812846  0.211978  1
  Tc  Tc5  1  0.187567  0.371539  0.211477  1
  Tc  Tc6  1  0.631154  0.815093  0.211376  1
  Tc  Tc7  1  0.368866  0.183959  0.711380  1
  Tc  Tc8  1  0.810237  0.623062  0.711963  1
  Tc  Tc9  1  0.812434  0.183983  0.711489  1
  Ni  Ni10  1  0.331434  0.667740  0.495223  1
  Ni  Ni11  1  0.668550  0.336280  0.995229  1
  O  O12  1  0.158850  0.836981  0.609458  1
  O  O13  1  0.030734  0.515579  0.345710  1
  O  O14  1  0.335819  0.667160  0.074579  1
  O  O15  1  0.001939  0.999560  0.308044  1
  O  O16  1  0.998052  0.997624  0.808051  1
  O  O17  1  0.159702  0.322754  0.605873  1
  O  O18  1  0.485346  0.969945  0.346045  1
  O  O19  1  0.483791  0.517529  0.344488  1
  O  O20  1  0.325852  0.162538  0.109430  1
  O  O21  1  0.674159  0.836685  0.609433  1
  O  O22  1  0.514657  0.484577  0.846055  1
  O  O23  1  0.516172  0.033711  0.844496  1
  O  O24  1  0.664198  0.331369  0.574583  1
  O  O25  1  0.841161  0.678123  0.109457  1
  O  O26  1  0.969262  0.484862  0.845710  1
  O  O27  1  0.840326  0.163067  0.105864  1
