# generated using pymatgen
data_Pr4DyPb3
_symmetry_space_group_name_H-M   'P 1'
_cell_length_a   9.39260400
_cell_length_b   9.39260492
_cell_length_c   6.91619700
_cell_angle_alpha   89.99986559
_cell_angle_beta   89.99986662
_cell_angle_gamma   120.00013380
_symmetry_Int_Tables_number   1
_chemical_formula_structural   Pr4DyPb3
_chemical_formula_sum   'Pr8 Dy2 Pb6'
_cell_volume   528.40810301
_cell_formula_units_Z   2
loop_
 _symmetry_equiv_pos_site_id
 _symmetry_equiv_pos_as_xyz
  1  'x, y, z'
loop_
 _atom_site_type_symbol
 _atom_site_label
 _atom_site_symmetry_multiplicity
 _atom_site_fract_x
 _atom_site_fract_y
 _atom_site_fract_z
 _atom_site_occupancy
  Pr  Pr0  1  0.666654  0.333328  0.000001  1
  Pr  Pr1  1  0.333327  0.666653  0.000001  1
  Pr  Pr2  1  0.759321  0.759320  0.252180  1
  Pr  Pr3  1  0.240681  0.999999  0.252185  1
  Pr  Pr4  1  0.999999  0.240681  0.252185  1
  Pr  Pr5  1  0.240683  0.240682  0.747816  1
  Pr  Pr6  1  0.759317  0.000002  0.747816  1
  Pr  Pr7  1  0.000002  0.759317  0.747816  1
  Dy  Dy8  1  0.666672  0.333341  0.500000  1
  Dy  Dy9  1  0.333340  0.666672  0.500000  1
  Pb  Pb10  1  0.602721  0.000001  0.258167  1
  Pb  Pb11  1  0.000001  0.602720  0.258167  1
  Pb  Pb12  1  0.397278  0.397277  0.258174  1
  Pb  Pb13  1  0.397281  0.000001  0.741831  1
  Pb  Pb14  1  0.000000  0.397280  0.741831  1
  Pb  Pb15  1  0.602725  0.602724  0.741831  1
