# generated using pymatgen
data_Dy6Ho10Cd3AgIr4
_symmetry_space_group_name_H-M   'P 1'
_cell_length_a   9.60606218
_cell_length_b   9.60606243
_cell_length_c   9.60606163
_cell_angle_alpha   59.86157173
_cell_angle_beta   59.86156966
_cell_angle_gamma   59.86157568
_symmetry_Int_Tables_number   1
_chemical_formula_structural   Dy6Ho10Cd3AgIr4
_chemical_formula_sum   'Dy6 Ho10 Cd3 Ag1 Ir4'
_cell_volume   624.81983298
_cell_formula_units_Z   1
loop_
 _symmetry_equiv_pos_site_id
 _symmetry_equiv_pos_as_xyz
  1  'x, y, z'
loop_
 _atom_site_type_symbol
 _atom_site_label
 _atom_site_symmetry_multiplicity
 _atom_site_fract_x
 _atom_site_fract_y
 _atom_site_fract_z
 _atom_site_occupancy
  Dy  Dy0  1  0.186404  0.811615  0.811615  1
  Dy  Dy1  1  0.811613  0.187223  0.187223  1
  Dy  Dy2  1  0.811615  0.186404  0.811615  1
  Dy  Dy3  1  0.187223  0.811613  0.187223  1
  Dy  Dy4  1  0.811615  0.811615  0.186404  1
  Dy  Dy5  1  0.187223  0.187223  0.811613  1
  Ho  Ho6  1  0.598664  0.598664  0.598664  1
  Ho  Ho7  1  0.599903  0.599903  0.202448  1
  Ho  Ho8  1  0.599903  0.202448  0.599903  1
  Ho  Ho9  1  0.202448  0.599903  0.599903  1
  Ho  Ho10  1  0.060293  0.439155  0.439155  1
  Ho  Ho11  1  0.437676  0.060389  0.060389  1
  Ho  Ho12  1  0.439155  0.060293  0.439155  1
  Ho  Ho13  1  0.060389  0.437676  0.060389  1
  Ho  Ho14  1  0.439155  0.439155  0.060293  1
  Ho  Ho15  1  0.060389  0.060389  0.437676  1
  Cd  Cd16  1  0.831303  0.831303  0.508131  1
  Cd  Cd17  1  0.831303  0.508131  0.831303  1
  Cd  Cd18  1  0.508131  0.831303  0.831303  1
  Ag  Ag19  1  0.832901  0.832901  0.832901  1
  Ir  Ir20  1  0.391812  0.391812  0.391812  1
  Ir  Ir21  1  0.392657  0.392657  0.825568  1
  Ir  Ir22  1  0.392657  0.825568  0.392657  1
  Ir  Ir23  1  0.825568  0.392657  0.392657  1
