# generated using pymatgen
data_Tb2CdInRh2
_symmetry_space_group_name_H-M   'P 1'
_cell_length_a   4.22719900
_cell_length_b   7.19709176
_cell_length_c   8.61364000
_cell_angle_alpha   88.94598869
_cell_angle_beta   90.00000000
_cell_angle_gamma   90.00000000
_symmetry_Int_Tables_number   1
_chemical_formula_structural   Tb2CdInRh2
_chemical_formula_sum   'Tb4 Cd2 In2 Rh4'
_cell_volume   262.01307270
_cell_formula_units_Z   2
loop_
 _symmetry_equiv_pos_site_id
 _symmetry_equiv_pos_as_xyz
  1  'x, y, z'
loop_
 _atom_site_type_symbol
 _atom_site_label
 _atom_site_symmetry_multiplicity
 _atom_site_fract_x
 _atom_site_fract_y
 _atom_site_fract_z
 _atom_site_occupancy
  Tb  Tb0  1  0.250000  0.540592  0.176009  1
  Tb  Tb1  1  0.750000  0.459408  0.823991  1
  Tb  Tb2  1  0.250000  0.040689  0.320242  1
  Tb  Tb3  1  0.750000  0.959311  0.679758  1
  Cd  Cd4  1  0.250000  0.138236  0.937499  1
  Cd  Cd5  1  0.750000  0.861764  0.062501  1
  In  In6  1  0.250000  0.640730  0.561842  1
  In  In7  1  0.750000  0.359270  0.438158  1
  Rh  Rh8  1  0.750000  0.755777  0.378297  1
  Rh  Rh9  1  0.250000  0.244223  0.621703  1
  Rh  Rh10  1  0.750000  0.259262  0.132656  1
  Rh  Rh11  1  0.250000  0.740738  0.867344  1
