# generated using pymatgen
data_Ce4Al23Pd6
_symmetry_space_group_name_H-M   'P 1'
_cell_length_a   8.46845555
_cell_length_b   8.46845618
_cell_length_c   18.66560045
_cell_angle_alpha   67.44511963
_cell_angle_beta   67.44511856
_cell_angle_gamma   29.20842085
_symmetry_Int_Tables_number   1
_chemical_formula_structural   Ce4Al23Pd6
_chemical_formula_sum   'Ce4 Al23 Pd6'
_cell_volume   599.71401552
_cell_formula_units_Z   1
loop_
 _symmetry_equiv_pos_site_id
 _symmetry_equiv_pos_as_xyz
  1  'x, y, z'
loop_
 _atom_site_type_symbol
 _atom_site_label
 _atom_site_symmetry_multiplicity
 _atom_site_fract_x
 _atom_site_fract_y
 _atom_site_fract_z
 _atom_site_occupancy
  Ce  Ce0  1  0.732633  0.732633  0.720542  1
  Ce  Ce1  1  0.568245  0.568245  0.091478  1
  Ce  Ce2  1  0.431755  0.431755  0.908522  1
  Ce  Ce3  1  0.267367  0.267367  0.279458  1
  Al  Al4  1  0.859384  0.859384  0.349703  1
  Al  Al5  1  0.432693  0.432693  0.435417  1
  Al  Al6  1  0.916661  0.916661  0.185269  1
  Al  Al7  1  0.466394  0.466394  0.275357  1
  Al  Al8  1  0.735768  0.735768  0.551851  1
  Al  Al9  1  0.197236  0.197236  0.979132  1
  Al  Al10  1  0.914412  0.914412  0.781500  1
  Al  Al11  1  0.083339  0.083339  0.814731  1
  Al  Al12  1  0.382170  0.382170  0.095182  1
  Al  Al13  1  0.388277  0.388277  0.665440  1
  Al  Al14  1  0.567307  0.567307  0.564583  1
  Al  Al15  1  0.725428  0.725428  0.178820  1
  Al  Al16  1  0.264232  0.264232  0.448149  1
  Al  Al17  1  0.533606  0.533606  0.724643  1
  Al  Al18  1  0.000000  0.000000  0.000000  1
  Al  Al19  1  0.085588  0.085588  0.218500  1
  Al  Al20  1  0.617830  0.617830  0.904818  1
  Al  Al21  1  0.274572  0.274572  0.821180  1
  Al  Al22  1  0.802764  0.802764  0.020868  1
  Al  Al23  1  0.090663  0.090663  0.457068  1
  Al  Al24  1  0.909337  0.909337  0.542932  1
  Al  Al25  1  0.140616  0.140616  0.650297  1
  Al  Al26  1  0.611723  0.611723  0.334560  1
  Pd  Pd27  1  0.990514  0.990514  0.633470  1
  Pd  Pd28  1  0.228431  0.228431  0.101691  1
  Pd  Pd29  1  0.690587  0.690587  0.432105  1
  Pd  Pd30  1  0.771569  0.771569  0.898309  1
  Pd  Pd31  1  0.309413  0.309413  0.567895  1
  Pd  Pd32  1  0.009486  0.009486  0.366530  1
