# generated using pymatgen
data_BaPrGe4N7
_symmetry_space_group_name_H-M   'P 1'
_cell_length_a   6.45064500
_cell_length_b   6.45064523
_cell_length_c   10.55911900
_cell_angle_alpha   90.00000000
_cell_angle_beta   90.00000000
_cell_angle_gamma   119.99999367
_symmetry_Int_Tables_number   1
_chemical_formula_structural   BaPrGe4N7
_chemical_formula_sum   'Ba2 Pr2 Ge8 N14'
_cell_volume   380.50874588
_cell_formula_units_Z   2
loop_
 _symmetry_equiv_pos_site_id
 _symmetry_equiv_pos_as_xyz
  1  'x, y, z'
loop_
 _atom_site_type_symbol
 _atom_site_label
 _atom_site_symmetry_multiplicity
 _atom_site_fract_x
 _atom_site_fract_y
 _atom_site_fract_z
 _atom_site_occupancy
  Ba  Ba0  1  0.333333  0.666667  0.364957  1
  Ba  Ba1  1  0.666667  0.333333  0.864957  1
  Pr  Pr2  1  0.333333  0.666667  0.735740  1
  Pr  Pr3  1  0.666667  0.333333  0.235740  1
  Ge  Ge4  1  0.826238  0.652475  0.546177  1
  Ge  Ge5  1  0.173762  0.826238  0.046177  1
  Ge  Ge6  1  0.652475  0.826238  0.046177  1
  Ge  Ge7  1  0.347525  0.173762  0.546177  1
  Ge  Ge8  1  0.826238  0.173762  0.546177  1
  Ge  Ge9  1  0.173762  0.347525  0.046177  1
  Ge  Ge10  1  0.000000  0.000000  0.814871  1
  Ge  Ge11  1  0.000000  0.000000  0.314871  1
  N  N12  1  0.000000  0.000000  0.623745  1
  N  N13  1  0.000000  0.000000  0.123745  1
  N  N14  1  0.155186  0.310373  0.872371  1
  N  N15  1  0.844814  0.155186  0.372371  1
  N  N16  1  0.310373  0.155186  0.372371  1
  N  N17  1  0.689627  0.844814  0.872371  1
  N  N18  1  0.155186  0.844814  0.872371  1
  N  N19  1  0.844814  0.689627  0.372371  1
  N  N20  1  0.981191  0.490596  0.599649  1
  N  N21  1  0.490596  0.981191  0.099649  1
  N  N22  1  0.490596  0.509404  0.099649  1
  N  N23  1  0.509404  0.490596  0.599649  1
  N  N24  1  0.018809  0.509404  0.099649  1
  N  N25  1  0.509404  0.018809  0.599649  1
