# generated using pymatgen
data_Er5TmLu10(InRh)4
_symmetry_space_group_name_H-M   'P 1'
_cell_length_a   9.49994183
_cell_length_b   9.49953355
_cell_length_c   9.49953214
_cell_angle_alpha   60.02579248
_cell_angle_beta   59.98753688
_cell_angle_gamma   59.98753639
_symmetry_Int_Tables_number   1
_chemical_formula_structural   Er5TmLu10(InRh)4
_chemical_formula_sum   'Er5 Tm1 Lu10 In4 Rh4'
_cell_volume   606.19612848
_cell_formula_units_Z   1
loop_
 _symmetry_equiv_pos_site_id
 _symmetry_equiv_pos_as_xyz
  1  'x, y, z'
loop_
 _atom_site_type_symbol
 _atom_site_label
 _atom_site_symmetry_multiplicity
 _atom_site_fract_x
 _atom_site_fract_y
 _atom_site_fract_z
 _atom_site_occupancy
  Er  Er0  1  0.061823  0.062177  0.437994  1
  Er  Er1  1  0.438154  0.061951  0.438134  1
  Er  Er2  1  0.061823  0.437994  0.062177  1
  Er  Er3  1  0.049653  0.650102  0.650102  1
  Er  Er4  1  0.438154  0.438134  0.061951  1
  Tm  Tm5  1  0.650308  0.650199  0.650199  1
  Lu  Lu6  1  0.650338  0.048994  0.650359  1
  Lu  Lu7  1  0.188662  0.811538  0.188241  1
  Lu  Lu8  1  0.188662  0.188241  0.811538  1
  Lu  Lu9  1  0.811432  0.811440  0.188458  1
  Lu  Lu10  1  0.439160  0.060851  0.060851  1
  Lu  Lu11  1  0.811453  0.188526  0.188526  1
  Lu  Lu12  1  0.061186  0.438730  0.438730  1
  Lu  Lu13  1  0.811432  0.188458  0.811440  1
  Lu  Lu14  1  0.188300  0.811798  0.811798  1
  Lu  Lu15  1  0.650338  0.650359  0.048994  1
  In  In16  1  0.416768  0.416707  0.416707  1
  In  In17  1  0.749794  0.416767  0.416767  1
  In  In18  1  0.417029  0.749767  0.416367  1
  In  In19  1  0.417029  0.416367  0.749767  1
  Rh  Rh20  1  0.857479  0.858178  0.426190  1
  Rh  Rh21  1  0.856423  0.858452  0.858452  1
  Rh  Rh22  1  0.427121  0.858077  0.858077  1
  Rh  Rh23  1  0.857479  0.426190  0.858178  1
