# generated using pymatgen
data_Ba2CuSn4Au
_symmetry_space_group_name_H-M   'P 1'
_cell_length_a   10.18426084
_cell_length_b   10.18426146
_cell_length_c   4.80802300
_cell_angle_alpha   90.00000000
_cell_angle_beta   90.00000000
_cell_angle_gamma   152.11248960
_symmetry_Int_Tables_number   1
_chemical_formula_structural   Ba2CuSn4Au
_chemical_formula_sum   'Ba2 Cu1 Sn4 Au1'
_cell_volume   233.25311996
_cell_formula_units_Z   1
loop_
 _symmetry_equiv_pos_site_id
 _symmetry_equiv_pos_as_xyz
  1  'x, y, z'
loop_
 _atom_site_type_symbol
 _atom_site_label
 _atom_site_symmetry_multiplicity
 _atom_site_fract_x
 _atom_site_fract_y
 _atom_site_fract_z
 _atom_site_occupancy
  Ba  Ba0  1  0.390519  0.609481  0.250000  1
  Ba  Ba1  1  0.608971  0.391029  0.750000  1
  Cu  Cu2  1  0.179022  0.820978  0.250000  1
  Sn  Sn3  1  0.045498  0.954502  0.250000  1
  Sn  Sn4  1  0.962164  0.037836  0.750000  1
  Sn  Sn5  1  0.244370  0.755630  0.750000  1
  Sn  Sn6  1  0.746610  0.253390  0.250000  1
  Au  Au7  1  0.822845  0.177155  0.750000  1
