# generated using pymatgen
data_Pa2CuF12
_symmetry_space_group_name_H-M   'P 1'
_cell_length_a   5.68099891
_cell_length_b   6.09018889
_cell_length_c   7.85503870
_cell_angle_alpha   98.72231569
_cell_angle_beta   93.93613932
_cell_angle_gamma   89.05349371
_symmetry_Int_Tables_number   1
_chemical_formula_structural   Pa2CuF12
_chemical_formula_sum   'Pa2 Cu1 F12'
_cell_volume   267.98957525
_cell_formula_units_Z   1
loop_
 _symmetry_equiv_pos_site_id
 _symmetry_equiv_pos_as_xyz
  1  'x, y, z'
loop_
 _atom_site_type_symbol
 _atom_site_label
 _atom_site_symmetry_multiplicity
 _atom_site_fract_x
 _atom_site_fract_y
 _atom_site_fract_z
 _atom_site_occupancy
  Pa  Pa0  1  0.000000  0.000000  0.000000  1
  Pa  Pa1  1  0.500000  0.500000  0.500000  1
  Cu  Cu2  1  0.500000  0.500000  0.000000  1
  F  F3  1  0.623494  0.812726  0.598181  1
  F  F4  1  0.225456  0.285883  0.055452  1
  F  F5  1  0.115857  0.958088  0.756978  1
  F  F6  1  0.621886  0.525946  0.233497  1
  F  F7  1  0.183003  0.630849  0.419597  1
  F  F8  1  0.713556  0.220113  0.937034  1
  F  F9  1  0.884143  0.041912  0.243022  1
  F  F10  1  0.378114  0.474054  0.766503  1
  F  F11  1  0.816997  0.369151  0.580403  1
  F  F12  1  0.286444  0.779887  0.062966  1
  F  F13  1  0.376506  0.187274  0.401819  1
  F  F14  1  0.774544  0.714117  0.944548  1
