# generated using pymatgen
data_Tb2Sn5PdRh2
_symmetry_space_group_name_H-M   'P 1'
_cell_length_a   13.50565426
_cell_length_b   13.50565431
_cell_length_c   7.38503300
_cell_angle_alpha   90.00000000
_cell_angle_beta   90.00000000
_cell_angle_gamma   161.13921413
_symmetry_Int_Tables_number   1
_chemical_formula_structural   Tb2Sn5PdRh2
_chemical_formula_sum   'Tb4 Sn10 Pd2 Rh4'
_cell_volume   435.46060142
_cell_formula_units_Z   2
loop_
 _symmetry_equiv_pos_site_id
 _symmetry_equiv_pos_as_xyz
  1  'x, y, z'
loop_
 _atom_site_type_symbol
 _atom_site_label
 _atom_site_symmetry_multiplicity
 _atom_site_fract_x
 _atom_site_fract_y
 _atom_site_fract_z
 _atom_site_occupancy
  Tb  Tb0  1  0.174437  0.825563  0.753567  1
  Tb  Tb1  1  0.825563  0.174437  0.253567  1
  Tb  Tb2  1  0.475672  0.524328  0.736664  1
  Tb  Tb3  1  0.524328  0.475672  0.236664  1
  Sn  Sn4  1  0.879278  0.120722  0.726083  1
  Sn  Sn5  1  0.120722  0.879278  0.226083  1
  Sn  Sn6  1  0.704378  0.295622  0.049419  1
  Sn  Sn7  1  0.295622  0.704378  0.549419  1
  Sn  Sn8  1  0.598082  0.401918  0.617759  1
  Sn  Sn9  1  0.401918  0.598082  0.117759  1
  Sn  Sn10  1  0.951264  0.048736  0.399810  1
  Sn  Sn11  1  0.048736  0.951264  0.899810  1
  Sn  Sn12  1  0.289999  0.710001  0.977570  1
  Sn  Sn13  1  0.710001  0.289999  0.477570  1
  Pd  Pd14  1  0.049819  0.950181  0.516402  1
  Pd  Pd15  1  0.950181  0.049819  0.016402  1
  Rh  Rh16  1  0.776800  0.223200  0.767921  1
  Rh  Rh17  1  0.223200  0.776800  0.267921  1
  Rh  Rh18  1  0.394315  0.605685  0.482804  1
  Rh  Rh19  1  0.605685  0.394315  0.982804  1
