# generated using pymatgen
data_Dy4Y3Ho3Cd3Ru
_symmetry_space_group_name_H-M   'P 1'
_cell_length_a   9.60213800
_cell_length_b   9.60256145
_cell_length_c   9.83419900
_cell_angle_alpha   89.99999929
_cell_angle_beta   89.99859094
_cell_angle_gamma   120.00146380
_symmetry_Int_Tables_number   1
_chemical_formula_structural   Dy4Y3Ho3Cd3Ru
_chemical_formula_sum   'Dy8 Y6 Ho6 Cd6 Ru2'
_cell_volume   785.26864385
_cell_formula_units_Z   2
loop_
 _symmetry_equiv_pos_site_id
 _symmetry_equiv_pos_as_xyz
  1  'x, y, z'
loop_
 _atom_site_type_symbol
 _atom_site_label
 _atom_site_symmetry_multiplicity
 _atom_site_fract_x
 _atom_site_fract_y
 _atom_site_fract_z
 _atom_site_occupancy
  Dy  Dy0  1  0.209859  0.790139  0.439763  1
  Dy  Dy1  1  0.209859  0.419720  0.439763  1
  Dy  Dy2  1  0.580278  0.790139  0.439771  1
  Dy  Dy3  1  0.790144  0.209836  0.560193  1
  Dy  Dy4  1  0.790144  0.580308  0.560193  1
  Dy  Dy5  1  0.419717  0.209859  0.560231  1
  Dy  Dy6  1  0.790109  0.209839  0.939826  1
  Dy  Dy7  1  0.790109  0.580270  0.939826  1
  Y  Y8  1  0.541141  0.458817  0.249932  1
  Y  Y9  1  0.541141  0.082322  0.249932  1
  Y  Y10  1  0.917689  0.458844  0.249958  1
  Y  Y11  1  0.458799  0.541161  0.750081  1
  Y  Y12  1  0.458799  0.917640  0.750081  1
  Y  Y13  1  0.082405  0.541203  0.750055  1
  Ho  Ho14  1  0.999997  0.999999  0.500020  1
  Ho  Ho15  1  0.000046  0.000023  0.000012  1
  Ho  Ho16  1  0.419711  0.209855  0.939844  1
  Ho  Ho17  1  0.209950  0.790100  0.060195  1
  Ho  Ho18  1  0.209950  0.419850  0.060195  1
  Ho  Ho19  1  0.580140  0.790070  0.060210  1
  Cd  Cd20  1  0.885482  0.114523  0.249973  1
  Cd  Cd21  1  0.885482  0.770960  0.249973  1
  Cd  Cd22  1  0.229056  0.114529  0.249955  1
  Cd  Cd23  1  0.114541  0.885485  0.750040  1
  Cd  Cd24  1  0.114541  0.229054  0.750040  1
  Cd  Cd25  1  0.770948  0.885473  0.750031  1
  Ru  Ru26  1  0.333332  0.666666  0.249891  1
  Ru  Ru27  1  0.666630  0.333314  0.750017  1
