# generated using pymatgen
data_Sm4Y2NiBr10
_symmetry_space_group_name_H-M   'P 1'
_cell_length_a   7.38881915
_cell_length_b   9.33002670
_cell_length_c   9.33887261
_cell_angle_alpha   108.60010579
_cell_angle_beta   96.66064869
_cell_angle_gamma   105.61041488
_symmetry_Int_Tables_number   1
_chemical_formula_structural   Sm4Y2NiBr10
_chemical_formula_sum   'Sm4 Y2 Ni1 Br10'
_cell_volume   573.12403802
_cell_formula_units_Z   1
loop_
 _symmetry_equiv_pos_site_id
 _symmetry_equiv_pos_as_xyz
  1  'x, y, z'
loop_
 _atom_site_type_symbol
 _atom_site_label
 _atom_site_symmetry_multiplicity
 _atom_site_fract_x
 _atom_site_fract_y
 _atom_site_fract_z
 _atom_site_occupancy
  Sm  Sm0  1  0.875953  0.956676  0.246103  1
  Sm  Sm1  1  0.124047  0.043324  0.753897  1
  Sm  Sm2  1  0.027837  0.703239  0.905364  1
  Sm  Sm3  1  0.972163  0.296761  0.094636  1
  Y  Y4  1  0.643672  0.867744  0.825434  1
  Y  Y5  1  0.356328  0.132256  0.174566  1
  Ni  Ni6  1  0.000000  0.000000  0.000000  1
  Br  Br7  1  0.638879  0.548028  0.727324  1
  Br  Br8  1  0.361121  0.451972  0.272676  1
  Br  Br9  1  0.740592  0.913639  0.545657  1
  Br  Br10  1  0.259408  0.086361  0.454343  1
  Br  Br11  1  0.913391  0.632757  0.175128  1
  Br  Br12  1  0.086609  0.367243  0.824872  1
  Br  Br13  1  0.548278  0.174424  0.916403  1
  Br  Br14  1  0.451722  0.825576  0.083597  1
  Br  Br15  1  0.222517  0.742817  0.652515  1
  Br  Br16  1  0.777483  0.257183  0.347485  1
