# generated using pymatgen
data_Yb2Cr2C2N
_symmetry_space_group_name_H-M   'P 1'
_cell_length_a   5.37779169
_cell_length_b   5.37779130
_cell_length_c   5.55456237
_cell_angle_alpha   75.25986904
_cell_angle_beta   75.25987357
_cell_angle_gamma   37.11971646
_symmetry_Int_Tables_number   1
_chemical_formula_structural   Yb2Cr2C2N
_chemical_formula_sum   'Yb2 Cr2 C2 N1'
_cell_volume   93.38735963
_cell_formula_units_Z   1
loop_
 _symmetry_equiv_pos_site_id
 _symmetry_equiv_pos_as_xyz
  1  'x, y, z'
loop_
 _atom_site_type_symbol
 _atom_site_label
 _atom_site_symmetry_multiplicity
 _atom_site_fract_x
 _atom_site_fract_y
 _atom_site_fract_z
 _atom_site_occupancy
  Yb  Yb0  1  0.599522  0.599522  0.188030  1
  Yb  Yb1  1  0.400478  0.400478  0.811970  1
  Cr  Cr2  1  0.843080  0.843080  0.404326  1
  Cr  Cr3  1  0.156920  0.156920  0.595674  1
  C  C4  1  0.305493  0.305493  0.283558  1
  C  C5  1  0.694507  0.694507  0.716442  1
  N  N6  1  0.000000  0.000000  0.500000  1
