# generated using pymatgen
data_YEr5Zn23As
_symmetry_space_group_name_H-M   'P 1'
_cell_length_a   9.04140216
_cell_length_b   9.04068424
_cell_length_c   9.04068403
_cell_angle_alpha   60.00525847
_cell_angle_beta   59.99737056
_cell_angle_gamma   59.99737690
_symmetry_Int_Tables_number   1
_chemical_formula_structural   YEr5Zn23As
_chemical_formula_sum   'Y1 Er5 Zn23 As1'
_cell_volume   522.54463717
_cell_formula_units_Z   1
loop_
 _symmetry_equiv_pos_site_id
 _symmetry_equiv_pos_as_xyz
  1  'x, y, z'
loop_
 _atom_site_type_symbol
 _atom_site_label
 _atom_site_symmetry_multiplicity
 _atom_site_fract_x
 _atom_site_fract_y
 _atom_site_fract_z
 _atom_site_occupancy
  Y  Y0  1  0.715943  0.284057  0.284057  1
  Er  Er1  1  0.715442  0.284558  0.715632  1
  Er  Er2  1  0.715442  0.715632  0.284558  1
  Er  Er3  1  0.284200  0.715800  0.715800  1
  Er  Er4  1  0.284368  0.715632  0.284558  1
  Er  Er5  1  0.284368  0.284558  0.715632  1
  Zn  Zn6  1  0.622414  0.125386  0.125386  1
  Zn  Zn7  1  0.125768  0.622766  0.125700  1
  Zn  Zn8  1  0.125768  0.125700  0.622766  1
  Zn  Zn9  1  0.126815  0.125386  0.125386  1
  Zn  Zn10  1  0.377234  0.874232  0.874232  1
  Zn  Zn11  1  0.874614  0.377586  0.873185  1
  Zn  Zn12  1  0.874614  0.873185  0.377586  1
  Zn  Zn13  1  0.874300  0.874232  0.874232  1
  Zn  Zn14  1  0.499921  0.000079  0.000079  1
  Zn  Zn15  1  0.499719  0.999691  0.500281  1
  Zn  Zn16  1  0.499719  0.500281  0.999691  1
  Zn  Zn17  1  0.999921  0.500079  0.500079  1
  Zn  Zn18  1  0.000309  0.500281  0.999691  1
  Zn  Zn19  1  0.000309  0.999691  0.500281  1
  Zn  Zn20  1  0.000061  0.999939  0.999939  1
  Zn  Zn21  1  0.009721  0.330315  0.330315  1
  Zn  Zn22  1  0.330290  0.009111  0.330306  1
  Zn  Zn23  1  0.330290  0.330306  0.009111  1
  Zn  Zn24  1  0.329648  0.330315  0.330315  1
  Zn  Zn25  1  0.990889  0.669710  0.669710  1
  Zn  Zn26  1  0.669685  0.990279  0.670352  1
  Zn  Zn27  1  0.669685  0.670352  0.990279  1
  Zn  Zn28  1  0.669694  0.669710  0.669710  1
  As  As29  1  0.498847  0.501153  0.501153  1
