# generated using pymatgen
data_Er6Al24Os3Ru5
_symmetry_space_group_name_H-M   'P 1'
_cell_length_a   8.78910342
_cell_length_b   8.79795987
_cell_length_c   9.58093372
_cell_angle_alpha   89.93259476
_cell_angle_beta   89.96992334
_cell_angle_gamma   120.37286008
_symmetry_Int_Tables_number   1
_chemical_formula_structural   Er6Al24Os3Ru5
_chemical_formula_sum   'Er6 Al24 Os3 Ru5'
_cell_volume   639.17581692
_cell_formula_units_Z   1
loop_
 _symmetry_equiv_pos_site_id
 _symmetry_equiv_pos_as_xyz
  1  'x, y, z'
loop_
 _atom_site_type_symbol
 _atom_site_label
 _atom_site_symmetry_multiplicity
 _atom_site_fract_x
 _atom_site_fract_y
 _atom_site_fract_z
 _atom_site_occupancy
  Er  Er0  1  0.196432  0.388393  0.250247  1
  Er  Er1  1  0.803568  0.611607  0.749753  1
  Er  Er2  1  0.611037  0.804211  0.248531  1
  Er  Er3  1  0.388963  0.195789  0.751469  1
  Er  Er4  1  0.194974  0.806946  0.248618  1
  Er  Er5  1  0.805026  0.193054  0.751382  1
  Al  Al6  1  0.332973  0.665625  0.018664  1
  Al  Al7  1  0.667027  0.334375  0.981336  1
  Al  Al8  1  0.666541  0.333461  0.519472  1
  Al  Al9  1  0.333459  0.666539  0.480528  1
  Al  Al10  1  0.163001  0.325908  0.577528  1
  Al  Al11  1  0.836999  0.674092  0.422472  1
  Al  Al12  1  0.673809  0.836712  0.576655  1
  Al  Al13  1  0.836887  0.674091  0.077279  1
  Al  Al14  1  0.326191  0.163288  0.423345  1
  Al  Al15  1  0.163113  0.325909  0.922721  1
  Al  Al16  1  0.162392  0.837407  0.575803  1
  Al  Al17  1  0.326276  0.163324  0.076901  1
  Al  Al18  1  0.837608  0.162593  0.424197  1
  Al  Al19  1  0.673724  0.836676  0.923099  1
  Al  Al20  1  0.837663  0.162659  0.076119  1
  Al  Al21  1  0.162337  0.837341  0.923881  1
  Al  Al22  1  0.562545  0.123681  0.250698  1
  Al  Al23  1  0.437455  0.876319  0.749302  1
  Al  Al24  1  0.878004  0.438361  0.250204  1
  Al  Al25  1  0.121996  0.561639  0.749796  1
  Al  Al26  1  0.562020  0.438134  0.250192  1
  Al  Al27  1  0.437980  0.561866  0.749808  1
  Al  Al28  1  0.000480  0.999566  0.250012  1
  Al  Al29  1  0.999520  0.000434  0.749988  1
  Os  Os30  1  0.500000  0.000000  0.000000  1
  Os  Os31  1  0.500000  0.500000  0.000000  1
  Os  Os32  1  0.500000  0.500000  0.500000  1
  Ru  Ru33  1  0.000000  0.500000  0.000000  1
  Ru  Ru34  1  0.500000  0.000000  0.500000  1
  Ru  Ru35  1  0.000000  0.500000  0.500000  1
  Ru  Ru36  1  0.000000  0.000000  0.000000  1
  Ru  Ru37  1  0.000000  0.000000  0.500000  1
