# generated using pymatgen
data_Li5La6Cd18P
_symmetry_space_group_name_H-M   'P 1'
_cell_length_a   10.02009244
_cell_length_b   10.06580380
_cell_length_c   10.05566201
_cell_angle_alpha   60.03336746
_cell_angle_beta   59.87924939
_cell_angle_gamma   60.10230309
_symmetry_Int_Tables_number   1
_chemical_formula_structural   Li5La6Cd18P
_chemical_formula_sum   'Li5 La6 Cd18 P1'
_cell_volume   717.23483850
_cell_formula_units_Z   1
loop_
 _symmetry_equiv_pos_site_id
 _symmetry_equiv_pos_as_xyz
  1  'x, y, z'
loop_
 _atom_site_type_symbol
 _atom_site_label
 _atom_site_symmetry_multiplicity
 _atom_site_fract_x
 _atom_site_fract_y
 _atom_site_fract_z
 _atom_site_occupancy
  Li  Li0  1  0.000000  0.000000  0.500000  1
  Li  Li1  1  0.500000  0.000000  0.500000  1
  Li  Li2  1  0.500000  0.500000  0.000000  1
  Li  Li3  1  0.500000  0.000000  0.000000  1
  Li  Li4  1  0.500000  0.500000  0.500000  1
  La  La5  1  0.797713  0.790437  0.205938  1
  La  La6  1  0.203500  0.792446  0.208529  1
  La  La7  1  0.796496  0.207604  0.204425  1
  La  La8  1  0.202287  0.209563  0.794062  1
  La  La9  1  0.796500  0.207554  0.791471  1
  La  La10  1  0.203504  0.792396  0.795575  1
  Cd  Cd11  1  0.826143  0.836116  0.511287  1
  Cd  Cd12  1  0.822692  0.509564  0.833861  1
  Cd  Cd13  1  0.512403  0.829274  0.829163  1
  Cd  Cd14  1  0.826134  0.836099  0.826479  1
  Cd  Cd15  1  0.173857  0.163884  0.488713  1
  Cd  Cd16  1  0.177308  0.490436  0.166139  1
  Cd  Cd17  1  0.487597  0.170726  0.170837  1
  Cd  Cd18  1  0.173866  0.163901  0.173521  1
  Cd  Cd19  1  0.613371  0.622405  0.142702  1
  Cd  Cd20  1  0.618907  0.141590  0.619737  1
  Cd  Cd21  1  0.143443  0.624774  0.615894  1
  Cd  Cd22  1  0.613379  0.622380  0.621536  1
  Cd  Cd23  1  0.386629  0.377595  0.857298  1
  Cd  Cd24  1  0.381093  0.858410  0.380263  1
  Cd  Cd25  1  0.856557  0.375226  0.384106  1
  Cd  Cd26  1  0.386621  0.377620  0.378464  1
  Cd  Cd27  1  0.000000  0.500000  0.500000  1
  Cd  Cd28  1  0.000000  0.500000  0.000000  1
  P  P29  1  0.000000  0.000000  0.000000  1
