# generated using pymatgen
data_Th3MgGa2Os3
_symmetry_space_group_name_H-M   'P 1'
_cell_length_a   7.40236562
_cell_length_b   7.40236525
_cell_length_c   4.01667600
_cell_angle_alpha   90.00000000
_cell_angle_beta   90.00000000
_cell_angle_gamma   120.00337649
_symmetry_Int_Tables_number   1
_chemical_formula_structural   Th3MgGa2Os3
_chemical_formula_sum   'Th3 Mg1 Ga2 Os3'
_cell_volume   190.60035202
_cell_formula_units_Z   1
loop_
 _symmetry_equiv_pos_site_id
 _symmetry_equiv_pos_as_xyz
  1  'x, y, z'
loop_
 _atom_site_type_symbol
 _atom_site_label
 _atom_site_symmetry_multiplicity
 _atom_site_fract_x
 _atom_site_fract_y
 _atom_site_fract_z
 _atom_site_occupancy
  Th  Th0  1  0.399960  0.399960  0.500000  1
  Th  Th1  1  0.577464  0.005284  0.500000  1
  Th  Th2  1  0.005284  0.577464  0.500000  1
  Mg  Mg3  1  0.764442  0.764442  0.000000  1
  Ga  Ga4  1  0.233942  0.991224  0.000000  1
  Ga  Ga5  1  0.991224  0.233942  0.000000  1
  Os  Os6  1  0.672101  0.332083  0.000000  1
  Os  Os7  1  0.332083  0.672101  0.000000  1
  Os  Os8  1  0.023499  0.023499  0.500000  1
