# generated using pymatgen
data_MgSc3Al2(B2Ir5)2
_symmetry_space_group_name_H-M   'P 1'
_cell_length_a   9.46435638
_cell_length_b   9.46435638
_cell_length_c   2.99935400
_cell_angle_alpha   90.00000000
_cell_angle_beta   90.00000000
_cell_angle_gamma   90.28552401
_symmetry_Int_Tables_number   1
_chemical_formula_structural   MgSc3Al2(B2Ir5)2
_chemical_formula_sum   'Mg1 Sc3 Al2 B4 Ir10'
_cell_volume   268.66092424
_cell_formula_units_Z   1
loop_
 _symmetry_equiv_pos_site_id
 _symmetry_equiv_pos_as_xyz
  1  'x, y, z'
loop_
 _atom_site_type_symbol
 _atom_site_label
 _atom_site_symmetry_multiplicity
 _atom_site_fract_x
 _atom_site_fract_y
 _atom_site_fract_z
 _atom_site_occupancy
  Mg  Mg0  1  0.822705  0.322705  0.000000  1
  Sc  Sc1  1  0.174197  0.674197  0.000000  1
  Sc  Sc2  1  0.323839  0.177189  0.000000  1
  Sc  Sc3  1  0.677189  0.823839  0.000000  1
  Al  Al4  1  0.999924  0.000842  0.000000  1
  Al  Al5  1  0.500842  0.499924  0.000000  1
  B  B6  1  0.124445  0.374205  0.000000  1
  B  B7  1  0.374941  0.874941  0.000000  1
  B  B8  1  0.628405  0.128405  0.000000  1
  B  B9  1  0.874205  0.624445  0.000000  1
  Ir  Ir10  1  0.998629  0.498629  0.500000  1
  Ir  Ir11  1  0.072269  0.214771  0.500000  1
  Ir  Ir12  1  0.215389  0.929683  0.500000  1
  Ir  Ir13  1  0.284480  0.431480  0.500000  1
  Ir  Ir14  1  0.429683  0.715389  0.500000  1
  Ir  Ir15  1  0.500135  0.000135  0.500000  1
  Ir  Ir16  1  0.567903  0.284568  0.500000  1
  Ir  Ir17  1  0.714771  0.572269  0.500000  1
  Ir  Ir18  1  0.784568  0.067903  0.500000  1
  Ir  Ir19  1  0.931480  0.784480  0.500000  1
