# generated using pymatgen
data_Sm6Th2AlPd24
_symmetry_space_group_name_H-M   'P 1'
_cell_length_a   8.45572349
_cell_length_b   8.45572398
_cell_length_c   8.45572400
_cell_angle_alpha   90.03399507
_cell_angle_beta   90.03399507
_cell_angle_gamma   90.03399522
_symmetry_Int_Tables_number   1
_chemical_formula_structural   Sm6Th2AlPd24
_chemical_formula_sum   'Sm6 Th2 Al1 Pd24'
_cell_volume   604.57772199
_cell_formula_units_Z   1
loop_
 _symmetry_equiv_pos_site_id
 _symmetry_equiv_pos_as_xyz
  1  'x, y, z'
loop_
 _atom_site_type_symbol
 _atom_site_label
 _atom_site_symmetry_multiplicity
 _atom_site_fract_x
 _atom_site_fract_y
 _atom_site_fract_z
 _atom_site_occupancy
  Sm  Sm0  1  0.747801  0.747801  0.251603  1
  Sm  Sm1  1  0.747801  0.251603  0.747801  1
  Sm  Sm2  1  0.252199  0.252199  0.748397  1
  Sm  Sm3  1  0.252199  0.748397  0.252199  1
  Sm  Sm4  1  0.251603  0.747801  0.747801  1
  Sm  Sm5  1  0.748397  0.252199  0.252199  1
  Th  Th6  1  0.252779  0.252779  0.252779  1
  Th  Th7  1  0.747221  0.747221  0.747221  1
  Al  Al8  1  0.000000  0.000000  0.000000  1
  Pd  Pd9  1  0.260183  0.499304  0.001098  1
  Pd  Pd10  1  0.739817  0.500696  0.998902  1
  Pd  Pd11  1  0.001098  0.260183  0.499304  1
  Pd  Pd12  1  0.499304  0.260183  0.001098  1
  Pd  Pd13  1  0.998902  0.739817  0.500696  1
  Pd  Pd14  1  0.500696  0.739817  0.998902  1
  Pd  Pd15  1  0.499304  0.001098  0.260183  1
  Pd  Pd16  1  0.260183  0.001098  0.499304  1
  Pd  Pd17  1  0.500696  0.998902  0.739817  1
  Pd  Pd18  1  0.739817  0.998902  0.500696  1
  Pd  Pd19  1  0.001098  0.499304  0.260183  1
  Pd  Pd20  1  0.998902  0.500696  0.739817  1
  Pd  Pd21  1  0.253088  0.499248  0.499248  1
  Pd  Pd22  1  0.746912  0.500752  0.500752  1
  Pd  Pd23  1  0.499248  0.253088  0.499248  1
  Pd  Pd24  1  0.500752  0.746912  0.500752  1
  Pd  Pd25  1  0.499248  0.499248  0.253088  1
  Pd  Pd26  1  0.500752  0.500752  0.746912  1
  Pd  Pd27  1  0.290614  0.000118  0.000118  1
  Pd  Pd28  1  0.709386  0.999882  0.999882  1
  Pd  Pd29  1  0.000118  0.290614  0.000118  1
  Pd  Pd30  1  0.999882  0.709386  0.999882  1
  Pd  Pd31  1  0.000118  0.000118  0.290614  1
  Pd  Pd32  1  0.999882  0.999882  0.709386  1
