# generated using pymatgen
data_Tb6CeYAlPd24
_symmetry_space_group_name_H-M   'P 1'
_cell_length_a   8.37066578
_cell_length_b   8.37044634
_cell_length_c   8.37021108
_cell_angle_alpha   89.92050917
_cell_angle_beta   90.07800433
_cell_angle_gamma   90.07460133
_symmetry_Int_Tables_number   1
_chemical_formula_structural   Tb6CeYAlPd24
_chemical_formula_sum   'Tb6 Ce1 Y1 Al1 Pd24'
_cell_volume   586.46735287
_cell_formula_units_Z   1
loop_
 _symmetry_equiv_pos_site_id
 _symmetry_equiv_pos_as_xyz
  1  'x, y, z'
loop_
 _atom_site_type_symbol
 _atom_site_label
 _atom_site_symmetry_multiplicity
 _atom_site_fract_x
 _atom_site_fract_y
 _atom_site_fract_z
 _atom_site_occupancy
  Tb  Tb0  1  0.251412  0.251944  0.251942  1
  Tb  Tb1  1  0.747884  0.747788  0.747789  1
  Tb  Tb2  1  0.748056  0.748588  0.251942  1
  Tb  Tb3  1  0.748053  0.251947  0.748583  1
  Tb  Tb4  1  0.252211  0.252115  0.747789  1
  Tb  Tb5  1  0.252184  0.747816  0.747815  1
  Ce  Ce6  1  0.745619  0.254387  0.254378  1
  Y  Y7  1  0.252179  0.747821  0.252080  1
  Al  Al8  1  0.000541  0.999459  0.999501  1
  Pd  Pd9  1  0.259691  0.499785  0.999812  1
  Pd  Pd10  1  0.740330  0.498610  0.001915  1
  Pd  Pd11  1  0.998093  0.259670  0.498599  1
  Pd  Pd12  1  0.501388  0.259669  0.001913  1
  Pd  Pd13  1  0.000131  0.740308  0.499856  1
  Pd  Pd14  1  0.500214  0.740308  0.999812  1
  Pd  Pd15  1  0.501427  0.001935  0.259668  1
  Pd  Pd16  1  0.259691  0.999868  0.499856  1
  Pd  Pd17  1  0.500174  0.999835  0.740305  1
  Pd  Pd18  1  0.740330  0.001909  0.498597  1
  Pd  Pd19  1  0.998065  0.498573  0.259669  1
  Pd  Pd20  1  0.000164  0.499826  0.740305  1
  Pd  Pd21  1  0.252935  0.499900  0.499967  1
  Pd  Pd22  1  0.746832  0.498625  0.498617  1
  Pd  Pd23  1  0.501374  0.253168  0.498617  1
  Pd  Pd24  1  0.500100  0.747065  0.499968  1
  Pd  Pd25  1  0.501415  0.498585  0.253165  1
  Pd  Pd26  1  0.500062  0.499938  0.747060  1
  Pd  Pd27  1  0.289153  0.999944  0.999906  1
  Pd  Pd28  1  0.711243  0.000532  0.000543  1
  Pd  Pd29  1  0.999469  0.288756  0.000543  1
  Pd  Pd30  1  0.000056  0.710847  0.999906  1
  Pd  Pd31  1  0.999442  0.000557  0.288748  1
  Pd  Pd32  1  0.000081  0.999919  0.710835  1
