# generated using pymatgen
data_Tb7ErMg2(SiB4)4
_symmetry_space_group_name_H-M   'P 1'
_cell_length_a   7.18368308
_cell_length_b   7.18368708
_cell_length_c   7.88230800
_cell_angle_alpha   90.00006098
_cell_angle_beta   89.99997749
_cell_angle_gamma   89.98258081
_symmetry_Int_Tables_number   1
_chemical_formula_structural   Tb7ErMg2(SiB4)4
_chemical_formula_sum   'Tb7 Er1 Mg2 Si4 B16'
_cell_volume   406.76909751
_cell_formula_units_Z   1
loop_
 _symmetry_equiv_pos_site_id
 _symmetry_equiv_pos_as_xyz
  1  'x, y, z'
loop_
 _atom_site_type_symbol
 _atom_site_label
 _atom_site_symmetry_multiplicity
 _atom_site_fract_x
 _atom_site_fract_y
 _atom_site_fract_z
 _atom_site_occupancy
  Tb  Tb0  1  0.317078  0.817077  0.765976  1
  Tb  Tb1  1  0.317139  0.817142  0.233936  1
  Tb  Tb2  1  0.816979  0.683010  0.233826  1
  Tb  Tb3  1  0.816947  0.682913  0.766102  1
  Tb  Tb4  1  0.683048  0.183047  0.766160  1
  Tb  Tb5  1  0.182910  0.316944  0.766103  1
  Tb  Tb6  1  0.183007  0.316976  0.233826  1
  Er  Er7  1  0.682923  0.182923  0.232184  1
  Mg  Mg8  1  0.999644  0.000177  0.499713  1
  Mg  Mg9  1  0.500178  0.499633  0.499723  1
  Si  Si10  1  0.115020  0.615019  0.499839  1
  Si  Si11  1  0.884137  0.384137  0.499164  1
  Si  Si12  1  0.385535  0.115539  0.499341  1
  Si  Si13  1  0.615541  0.885537  0.499342  1
  B  B14  1  0.173384  0.040076  0.000214  1
  B  B15  1  0.826244  0.960464  0.000435  1
  B  B16  1  0.959695  0.173740  0.000287  1
  B  B17  1  0.326576  0.539767  0.000226  1
  B  B18  1  0.039766  0.826575  0.000227  1
  B  B19  1  0.673739  0.459695  0.000287  1
  B  B20  1  0.540076  0.673385  0.000210  1
  B  B21  1  0.460463  0.326245  0.000437  1
  B  B22  1  0.089605  0.589605  0.000129  1
  B  B23  1  0.910284  0.410285  0.000114  1
  B  B24  1  0.410579  0.089771  0.000509  1
  B  B25  1  0.589771  0.910580  0.000508  1
  B  B26  1  0.999344  0.000319  0.161688  1
  B  B27  1  0.999950  0.000123  0.838903  1
  B  B28  1  0.500123  0.499951  0.838905  1
  B  B29  1  0.500316  0.499345  0.161686  1
