# generated using pymatgen
data_AcYb2(ZnPd)4
_symmetry_space_group_name_H-M   'P 1'
_cell_length_a   8.31194776
_cell_length_b   8.31194870
_cell_length_c   8.31194700
_cell_angle_alpha   151.26286040
_cell_angle_beta   126.94295162
_cell_angle_gamma   61.45465234
_symmetry_Int_Tables_number   1
_chemical_formula_structural   AcYb2(ZnPd)4
_chemical_formula_sum   'Ac1 Yb2 Zn4 Pd4'
_cell_volume   218.85638457
_cell_formula_units_Z   1
loop_
 _symmetry_equiv_pos_site_id
 _symmetry_equiv_pos_as_xyz
  1  'x, y, z'
loop_
 _atom_site_type_symbol
 _atom_site_label
 _atom_site_symmetry_multiplicity
 _atom_site_fract_x
 _atom_site_fract_y
 _atom_site_fract_z
 _atom_site_occupancy
  Ac  Ac0  1  0.500000  0.000000  0.500000  1
  Yb  Yb1  1  0.871973  0.871973  0.000000  1
  Yb  Yb2  1  0.128027  0.128027  0.000000  1
  Zn  Zn3  1  0.477537  0.676495  0.801036  1
  Zn  Zn4  1  0.875461  0.676501  0.198964  1
  Zn  Zn5  1  0.124539  0.323499  0.801036  1
  Zn  Zn6  1  0.522463  0.323505  0.198964  1
  Pd  Pd7  1  0.277957  0.777957  0.500000  1
  Pd  Pd8  1  0.722043  0.222043  0.500000  1
  Pd  Pd9  1  0.816000  0.500000  0.316000  1
  Pd  Pd10  1  0.184000  0.500000  0.684000  1
