# generated using pymatgen
data_PrNd(Th2In5)2
_symmetry_space_group_name_H-M   'P 1'
_cell_length_a   6.63585641
_cell_length_b   6.63585740
_cell_length_c   10.42002200
_cell_angle_alpha   90.00000000
_cell_angle_beta   90.00000000
_cell_angle_gamma   102.44900896
_symmetry_Int_Tables_number   1
_chemical_formula_structural   PrNd(Th2In5)2
_chemical_formula_sum   'Pr1 Nd1 Th4 In10'
_cell_volume   448.05329972
_cell_formula_units_Z   1
loop_
 _symmetry_equiv_pos_site_id
 _symmetry_equiv_pos_as_xyz
  1  'x, y, z'
loop_
 _atom_site_type_symbol
 _atom_site_label
 _atom_site_symmetry_multiplicity
 _atom_site_fract_x
 _atom_site_fract_y
 _atom_site_fract_z
 _atom_site_occupancy
  Pr  Pr0  1  0.870141  0.870141  0.250000  1
  Nd  Nd1  1  0.130304  0.130304  0.750000  1
  Th  Th2  1  0.706213  0.294113  0.000059  1
  Th  Th3  1  0.706213  0.294113  0.499941  1
  Th  Th4  1  0.294113  0.706213  0.000059  1
  Th  Th5  1  0.294113  0.706213  0.499941  1
  In  In6  1  0.513650  0.513650  0.750000  1
  In  In7  1  0.485727  0.485727  0.250000  1
  In  In8  1  0.806683  0.806683  0.549837  1
  In  In9  1  0.193689  0.193689  0.452544  1
  In  In10  1  0.806683  0.806683  0.950163  1
  In  In11  1  0.193689  0.193689  0.047456  1
  In  In12  1  0.995426  0.571419  0.750000  1
  In  In13  1  0.426502  0.005434  0.250000  1
  In  In14  1  0.005434  0.426502  0.250000  1
  In  In15  1  0.571419  0.995426  0.750000  1
