# generated using pymatgen
data_HfP4SeO14
_symmetry_space_group_name_H-M   'P 1'
_cell_length_a   4.97087154
_cell_length_b   7.18314182
_cell_length_c   8.31512604
_cell_angle_alpha   91.60698513
_cell_angle_beta   92.96914958
_cell_angle_gamma   105.94275886
_symmetry_Int_Tables_number   1
_chemical_formula_structural   HfP4SeO14
_chemical_formula_sum   'Hf1 P4 Se1 O14'
_cell_volume   284.82428698
_cell_formula_units_Z   1
loop_
 _symmetry_equiv_pos_site_id
 _symmetry_equiv_pos_as_xyz
  1  'x, y, z'
loop_
 _atom_site_type_symbol
 _atom_site_label
 _atom_site_symmetry_multiplicity
 _atom_site_fract_x
 _atom_site_fract_y
 _atom_site_fract_z
 _atom_site_occupancy
  Hf  Hf0  1  0.500000  0.500000  0.500000  1
  P  P1  1  0.518160  0.133806  0.768403  1
  P  P2  1  0.119615  0.752083  0.697750  1
  P  P3  1  0.880385  0.247917  0.302250  1
  P  P4  1  0.481840  0.866194  0.231597  1
  Se  Se5  1  0.000000  0.000000  0.000000  1
  O  O6  1  0.368242  0.166143  0.920386  1
  O  O7  1  0.041471  0.761977  0.874487  1
  O  O8  1  0.787047  0.071395  0.803923  1
  O  O9  1  0.298241  0.612949  0.674680  1
  O  O10  1  0.580472  0.309586  0.664176  1
  O  O11  1  0.304665  0.965243  0.655076  1
  O  O12  1  0.866805  0.705482  0.577012  1
  O  O13  1  0.133195  0.294518  0.422988  1
  O  O14  1  0.695335  0.034757  0.344924  1
  O  O15  1  0.419528  0.690414  0.335824  1
  O  O16  1  0.701759  0.387051  0.325320  1
  O  O17  1  0.212953  0.928605  0.196077  1
  O  O18  1  0.958529  0.238023  0.125513  1
  O  O19  1  0.631758  0.833857  0.079614  1
