# generated using pymatgen
data_Er3Tm2(Cd2Ni)2
_symmetry_space_group_name_H-M   'P 1'
_cell_length_a   3.53389100
_cell_length_b   7.82765200
_cell_length_c   18.09885800
_cell_angle_alpha   90.00000000
_cell_angle_beta   90.00000000
_cell_angle_gamma   90.00000000
_symmetry_Int_Tables_number   1
_chemical_formula_structural   Er3Tm2(Cd2Ni)2
_chemical_formula_sum   'Er6 Tm4 Cd8 Ni4'
_cell_volume   500.65185798
_cell_formula_units_Z   2
loop_
 _symmetry_equiv_pos_site_id
 _symmetry_equiv_pos_as_xyz
  1  'x, y, z'
loop_
 _atom_site_type_symbol
 _atom_site_label
 _atom_site_symmetry_multiplicity
 _atom_site_fract_x
 _atom_site_fract_y
 _atom_site_fract_z
 _atom_site_occupancy
  Er  Er0  1  0.000000  0.500000  0.500000  1
  Er  Er1  1  0.000000  0.000000  0.000000  1
  Er  Er2  1  0.000000  0.748724  0.279009  1
  Er  Er3  1  0.000000  0.251276  0.720991  1
  Er  Er4  1  0.000000  0.751276  0.779009  1
  Er  Er5  1  0.000000  0.248724  0.220991  1
  Tm  Tm6  1  0.000000  0.614859  0.088560  1
  Tm  Tm7  1  0.000000  0.385141  0.911440  1
  Tm  Tm8  1  0.000000  0.885141  0.588560  1
  Tm  Tm9  1  0.000000  0.114859  0.411440  1
  Cd  Cd10  1  0.500000  0.710066  0.931394  1
  Cd  Cd11  1  0.500000  0.289934  0.068606  1
  Cd  Cd12  1  0.500000  0.789934  0.431394  1
  Cd  Cd13  1  0.500000  0.210066  0.568606  1
  Cd  Cd14  1  0.500000  0.570059  0.650992  1
  Cd  Cd15  1  0.500000  0.429941  0.349008  1
  Cd  Cd16  1  0.500000  0.929941  0.150992  1
  Cd  Cd17  1  0.500000  0.070059  0.849008  1
  Ni  Ni18  1  0.500000  0.529501  0.195871  1
  Ni  Ni19  1  0.500000  0.470499  0.804129  1
  Ni  Ni20  1  0.500000  0.970499  0.695871  1
  Ni  Ni21  1  0.500000  0.029501  0.304129  1
