# generated using pymatgen
data_Fe3Co3W6C
_symmetry_space_group_name_H-M   'P 1'
_cell_length_a   7.71781342
_cell_length_b   7.71781262
_cell_length_c   7.72006100
_cell_angle_alpha   59.99035833
_cell_angle_beta   59.99036179
_cell_angle_gamma   59.99256192
_symmetry_Int_Tables_number   1
_chemical_formula_structural   Fe3Co3W6C
_chemical_formula_sum   'Fe6 Co6 W12 C2'
_cell_volume   325.09218710
_cell_formula_units_Z   2
loop_
 _symmetry_equiv_pos_site_id
 _symmetry_equiv_pos_as_xyz
  1  'x, y, z'
loop_
 _atom_site_type_symbol
 _atom_site_label
 _atom_site_symmetry_multiplicity
 _atom_site_fract_x
 _atom_site_fract_y
 _atom_site_fract_z
 _atom_site_occupancy
  Fe  Fe0  1  0.327871  0.327871  0.016893  1
  Fe  Fe1  1  0.123208  0.123208  0.625289  1
  Fe  Fe2  1  0.922129  0.922129  0.922637  1
  Fe  Fe3  1  0.125000  0.625000  0.120902  1
  Fe  Fe4  1  0.126792  0.126792  0.121705  1
  Fe  Fe5  1  0.625000  0.125000  0.120902  1
  Co  Co6  1  0.919372  0.242974  0.918867  1
  Co  Co7  1  0.330628  0.007026  0.331212  1
  Co  Co8  1  0.330908  0.330908  0.331153  1
  Co  Co9  1  0.007026  0.330628  0.331212  1
  Co  Co10  1  0.919092  0.919092  0.242970  1
  Co  Co11  1  0.242974  0.919372  0.918867  1
  W  W12  1  0.302519  0.696761  0.698385  1
  W  W13  1  0.301782  0.301782  0.698602  1
  W  W14  1  0.551497  0.949327  0.551016  1
  W  W15  1  0.949327  0.551497  0.551016  1
  W  W16  1  0.553239  0.947481  0.947666  1
  W  W17  1  0.698503  0.300673  0.301840  1
  W  W18  1  0.947481  0.553239  0.947666  1
  W  W19  1  0.300673  0.698503  0.301840  1
  W  W20  1  0.552014  0.552014  0.948550  1
  W  W21  1  0.696761  0.302519  0.698385  1
  W  W22  1  0.697986  0.697986  0.302578  1
  W  W23  1  0.948218  0.948218  0.552165  1
  C  C24  1  0.750213  0.750213  0.748629  1
  C  C25  1  0.499787  0.499787  0.499054  1
