# generated using pymatgen
data_LaYCu2(AsH)2
_symmetry_space_group_name_H-M   'P 1'
_cell_length_a   3.99747400
_cell_length_b   3.99747400
_cell_length_c   7.87812000
_cell_angle_alpha   90.00000000
_cell_angle_beta   90.00000000
_cell_angle_gamma   90.00000000
_symmetry_Int_Tables_number   1
_chemical_formula_structural   LaYCu2(AsH)2
_chemical_formula_sum   'La1 Y1 Cu2 As2 H2'
_cell_volume   125.89076922
_cell_formula_units_Z   1
loop_
 _symmetry_equiv_pos_site_id
 _symmetry_equiv_pos_as_xyz
  1  'x, y, z'
loop_
 _atom_site_type_symbol
 _atom_site_label
 _atom_site_symmetry_multiplicity
 _atom_site_fract_x
 _atom_site_fract_y
 _atom_site_fract_z
 _atom_site_occupancy
  La  La0  1  0.000000  0.500000  0.832672  1
  Y  Y1  1  0.500000  0.000000  0.173240  1
  Cu  Cu2  1  0.500000  0.500000  0.492606  1
  Cu  Cu3  1  0.000000  0.000000  0.492606  1
  As  As4  1  0.000000  0.500000  0.299328  1
  As  As5  1  0.500000  0.000000  0.686435  1
  H  H6  1  0.000000  0.000000  0.011556  1
  H  H7  1  0.500000  0.500000  0.011556  1
