# generated using pymatgen
data_TbNd3DySn3
_symmetry_space_group_name_H-M   'P 1'
_cell_length_a   9.19072700
_cell_length_b   9.19072806
_cell_length_c   6.71582000
_cell_angle_alpha   90.00000000
_cell_angle_beta   90.00000000
_cell_angle_gamma   119.99999977
_symmetry_Int_Tables_number   1
_chemical_formula_structural   TbNd3DySn3
_chemical_formula_sum   'Tb2 Nd6 Dy2 Sn6'
_cell_volume   491.28042781
_cell_formula_units_Z   2
loop_
 _symmetry_equiv_pos_site_id
 _symmetry_equiv_pos_as_xyz
  1  'x, y, z'
loop_
 _atom_site_type_symbol
 _atom_site_label
 _atom_site_symmetry_multiplicity
 _atom_site_fract_x
 _atom_site_fract_y
 _atom_site_fract_z
 _atom_site_occupancy
  Tb  Tb0  1  0.333333  0.666667  0.000000  1
  Tb  Tb1  1  0.666667  0.333333  0.500000  1
  Nd  Nd2  1  0.241438  0.000000  0.250000  1
  Nd  Nd3  1  0.241438  0.241438  0.750000  1
  Nd  Nd4  1  0.000000  0.758562  0.750000  1
  Nd  Nd5  1  0.000000  0.241438  0.250000  1
  Nd  Nd6  1  0.758562  0.758562  0.250000  1
  Nd  Nd7  1  0.758562  0.000000  0.750000  1
  Dy  Dy8  1  0.666667  0.333333  0.000000  1
  Dy  Dy9  1  0.333333  0.666667  0.500000  1
  Sn  Sn10  1  0.602183  0.000000  0.250000  1
  Sn  Sn11  1  0.602183  0.602183  0.750000  1
  Sn  Sn12  1  0.000000  0.397817  0.750000  1
  Sn  Sn13  1  0.000000  0.602183  0.250000  1
  Sn  Sn14  1  0.397817  0.397817  0.250000  1
  Sn  Sn15  1  0.397817  0.000000  0.750000  1
