# generated using pymatgen
data_Lu10AlGeSb4
_symmetry_space_group_name_H-M   'P 1'
_cell_length_a   8.72118900
_cell_length_b   8.71356632
_cell_length_c   6.27645800
_cell_angle_alpha   90.00000000
_cell_angle_beta   90.00000000
_cell_angle_gamma   119.97110518
_symmetry_Int_Tables_number   1
_chemical_formula_structural   Lu10AlGeSb4
_chemical_formula_sum   'Lu10 Al1 Ge1 Sb4'
_cell_volume   413.18379016
_cell_formula_units_Z   1
loop_
 _symmetry_equiv_pos_site_id
 _symmetry_equiv_pos_as_xyz
  1  'x, y, z'
loop_
 _atom_site_type_symbol
 _atom_site_label
 _atom_site_symmetry_multiplicity
 _atom_site_fract_x
 _atom_site_fract_y
 _atom_site_fract_z
 _atom_site_occupancy
  Lu  Lu0  1  0.682802  0.341693  0.999482  1
  Lu  Lu1  1  0.317198  0.658892  0.999482  1
  Lu  Lu2  1  0.317198  0.658892  0.500518  1
  Lu  Lu3  1  0.682802  0.341693  0.500518  1
  Lu  Lu4  1  0.767082  0.754993  0.750000  1
  Lu  Lu5  1  0.232918  0.987913  0.750000  1
  Lu  Lu6  1  0.000000  0.244678  0.750000  1
  Lu  Lu7  1  0.232812  0.244369  0.250000  1
  Lu  Lu8  1  0.767188  0.011558  0.250000  1
  Lu  Lu9  1  0.000000  0.754206  0.250000  1
  Al  Al10  1  0.000000  0.397975  0.250000  1
  Ge  Ge11  1  0.000000  0.604246  0.750000  1
  Sb  Sb12  1  0.394011  0.388330  0.750000  1
  Sb  Sb13  1  0.605989  0.994317  0.750000  1
  Sb  Sb14  1  0.606414  0.611330  0.250000  1
  Sb  Sb15  1  0.393586  0.004915  0.250000  1
