# generated using pymatgen
data_La17Mg3(IrRu)6
_symmetry_space_group_name_H-M   'P 1'
_cell_length_a   11.19611427
_cell_length_b   11.19299086
_cell_length_c   6.51205317
_cell_angle_alpha   89.87599784
_cell_angle_beta   90.13540243
_cell_angle_gamma   89.97751906
_symmetry_Int_Tables_number   1
_chemical_formula_structural   La17Mg3(IrRu)6
_chemical_formula_sum   'La17 Mg3 Ir6 Ru6'
_cell_volume   816.07325575
_cell_formula_units_Z   1
loop_
 _symmetry_equiv_pos_site_id
 _symmetry_equiv_pos_as_xyz
  1  'x, y, z'
loop_
 _atom_site_type_symbol
 _atom_site_label
 _atom_site_symmetry_multiplicity
 _atom_site_fract_x
 _atom_site_fract_y
 _atom_site_fract_z
 _atom_site_occupancy
  La  La0  1  0.282241  0.086924  0.387543  1
  La  La1  1  0.283309  0.915083  0.884082  1
  La  La2  1  0.719038  0.084646  0.888962  1
  La  La3  1  0.719443  0.912995  0.392062  1
  La  La4  1  0.587723  0.787630  0.885413  1
  La  La5  1  0.589278  0.203037  0.380637  1
  La  La6  1  0.412754  0.797351  0.381888  1
  La  La7  1  0.413782  0.212354  0.884934  1
  La  La8  1  0.202451  0.412375  0.618344  1
  La  La9  1  0.212298  0.586572  0.114938  1
  La  La10  1  0.787482  0.412506  0.114988  1
  La  La11  1  0.796756  0.588815  0.619220  1
  La  La12  1  0.913961  0.718439  0.110559  1
  La  La13  1  0.911998  0.280480  0.607544  1
  La  La14  1  0.085874  0.717979  0.612389  1
  La  La15  1  0.083531  0.282666  0.115807  1
  La  La16  1  0.500376  0.499691  0.499970  1
  Mg  Mg17  1  0.000287  0.000052  0.499955  1
  Mg  Mg18  1  0.000307  0.000029  0.000027  1
  Mg  Mg19  1  0.499837  0.500131  0.000043  1
  Ir  Ir20  1  0.149893  0.149255  0.751263  1
  Ir  Ir21  1  0.150256  0.851153  0.248216  1
  Ir  Ir22  1  0.652295  0.347233  0.748925  1
  Ir  Ir23  1  0.652410  0.652064  0.251676  1
  Ir  Ir24  1  0.346168  0.347075  0.251380  1
  Ir  Ir25  1  0.347277  0.653107  0.748171  1
  Ru  Ru26  1  0.849420  0.151563  0.247926  1
  Ru  Ru27  1  0.849805  0.848422  0.753164  1
  Ru  Ru28  1  0.499296  0.000126  0.116376  1
  Ru  Ru29  1  0.499056  0.999845  0.620247  1
  Ru  Ru30  1  0.000882  0.499870  0.883516  1
  Ru  Ru31  1  0.000516  0.500534  0.379836  1
