# generated using pymatgen
data_Ba4CrGa2(Se3F2)2
_symmetry_space_group_name_H-M   'P 1'
_cell_length_a   6.50722000
_cell_length_b   13.83313800
_cell_length_c   18.87648500
_cell_angle_alpha   90.00000000
_cell_angle_beta   90.00000000
_cell_angle_gamma   90.00000000
_symmetry_Int_Tables_number   1
_chemical_formula_structural   Ba4CrGa2(Se3F2)2
_chemical_formula_sum   'Ba16 Cr4 Ga8 Se24 F16'
_cell_volume   1699.17193652
_cell_formula_units_Z   4
loop_
 _symmetry_equiv_pos_site_id
 _symmetry_equiv_pos_as_xyz
  1  'x, y, z'
loop_
 _atom_site_type_symbol
 _atom_site_label
 _atom_site_symmetry_multiplicity
 _atom_site_fract_x
 _atom_site_fract_y
 _atom_site_fract_z
 _atom_site_occupancy
  Ba  Ba0  1  0.269512  0.748849  0.072211  1
  Ba  Ba1  1  0.230488  0.248849  0.427789  1
  Ba  Ba2  1  0.730488  0.251151  0.572211  1
  Ba  Ba3  1  0.769512  0.751151  0.927789  1
  Ba  Ba4  1  0.730488  0.251151  0.927789  1
  Ba  Ba5  1  0.769512  0.751151  0.572211  1
  Ba  Ba6  1  0.269512  0.748849  0.427789  1
  Ba  Ba7  1  0.230488  0.248849  0.072211  1
  Ba  Ba8  1  0.757210  0.000348  0.072282  1
  Ba  Ba9  1  0.742790  0.500348  0.427718  1
  Ba  Ba10  1  0.242790  0.999652  0.572282  1
  Ba  Ba11  1  0.257210  0.499652  0.927718  1
  Ba  Ba12  1  0.242790  0.999652  0.927718  1
  Ba  Ba13  1  0.257210  0.499652  0.572282  1
  Ba  Ba14  1  0.757210  0.000348  0.427718  1
  Ba  Ba15  1  0.742790  0.500348  0.072282  1
  Cr  Cr16  1  0.497869  0.124324  0.250000  1
  Cr  Cr17  1  0.002131  0.624324  0.250000  1
  Cr  Cr18  1  0.502131  0.875676  0.750000  1
  Cr  Cr19  1  0.997869  0.375676  0.750000  1
  Ga  Ga20  1  0.658115  0.797999  0.250000  1
  Ga  Ga21  1  0.841885  0.297999  0.250000  1
  Ga  Ga22  1  0.341885  0.202001  0.750000  1
  Ga  Ga23  1  0.158115  0.702001  0.750000  1
  Ga  Ga24  1  0.155708  0.950018  0.250000  1
  Ga  Ga25  1  0.344292  0.450018  0.250000  1
  Ga  Ga26  1  0.844292  0.049982  0.750000  1
  Ga  Ga27  1  0.655708  0.549982  0.750000  1
  Se  Se28  1  0.285674  0.029539  0.353577  1
  Se  Se29  1  0.214326  0.529539  0.146423  1
  Se  Se30  1  0.714326  0.970461  0.853577  1
  Se  Se31  1  0.785674  0.470461  0.646423  1
  Se  Se32  1  0.714326  0.970461  0.646423  1
  Se  Se33  1  0.785674  0.470461  0.853577  1
  Se  Se34  1  0.285674  0.029539  0.146423  1
  Se  Se35  1  0.214326  0.529539  0.353577  1
  Se  Se36  1  0.791315  0.719446  0.146469  1
  Se  Se37  1  0.708685  0.219446  0.353531  1
  Se  Se38  1  0.208685  0.280554  0.646469  1
  Se  Se39  1  0.291315  0.780554  0.853531  1
  Se  Se40  1  0.208685  0.280554  0.853531  1
  Se  Se41  1  0.291315  0.780554  0.646469  1
  Se  Se42  1  0.791315  0.719446  0.353531  1
  Se  Se43  1  0.708685  0.219446  0.146469  1
  Se  Se44  1  0.282866  0.784279  0.250000  1
  Se  Se45  1  0.217134  0.284279  0.250000  1
  Se  Se46  1  0.717134  0.215721  0.750000  1
  Se  Se47  1  0.782866  0.715721  0.750000  1
  Se  Se48  1  0.780506  0.964234  0.250000  1
  Se  Se49  1  0.719494  0.464234  0.250000  1
  Se  Se50  1  0.219494  0.035766  0.750000  1
  Se  Se51  1  0.280506  0.535766  0.750000  1
  F  F52  1  0.012200  0.875467  0.005052  1
  F  F53  1  0.487800  0.375467  0.494948  1
  F  F54  1  0.987800  0.124533  0.505052  1
  F  F55  1  0.512200  0.624533  0.994948  1
  F  F56  1  0.987800  0.124533  0.994948  1
  F  F57  1  0.512200  0.624533  0.505052  1
  F  F58  1  0.012200  0.875467  0.494948  1
  F  F59  1  0.487800  0.375467  0.005052  1
  F  F60  1  0.013448  0.626125  0.996143  1
  F  F61  1  0.486552  0.126125  0.503857  1
  F  F62  1  0.986552  0.373875  0.496143  1
  F  F63  1  0.513448  0.873875  0.003857  1
  F  F64  1  0.986552  0.373875  0.003857  1
  F  F65  1  0.513448  0.873875  0.496143  1
  F  F66  1  0.013448  0.626125  0.503857  1
  F  F67  1  0.486552  0.126125  0.996143  1
