# generated using pymatgen
data_HoGa(ReO4)6
_symmetry_space_group_name_H-M   'P 1'
_cell_length_a   10.40551400
_cell_length_b   10.40551396
_cell_length_c   5.74274600
_cell_angle_alpha   90.00000000
_cell_angle_beta   90.00000000
_cell_angle_gamma   119.99999375
_symmetry_Int_Tables_number   1
_chemical_formula_structural   HoGa(ReO4)6
_chemical_formula_sum   'Ho1 Ga1 Re6 O24'
_cell_volume   538.48962631
_cell_formula_units_Z   1
loop_
 _symmetry_equiv_pos_site_id
 _symmetry_equiv_pos_as_xyz
  1  'x, y, z'
loop_
 _atom_site_type_symbol
 _atom_site_label
 _atom_site_symmetry_multiplicity
 _atom_site_fract_x
 _atom_site_fract_y
 _atom_site_fract_z
 _atom_site_occupancy
  Ho  Ho0  1  0.666667  0.333333  0.750000  1
  Ga  Ga1  1  0.333333  0.666667  0.250000  1
  Re  Re2  1  0.115653  0.424823  0.750000  1
  Re  Re3  1  0.384455  0.276927  0.250000  1
  Re  Re4  1  0.575177  0.690829  0.750000  1
  Re  Re5  1  0.892471  0.615545  0.250000  1
  Re  Re6  1  0.309171  0.884347  0.750000  1
  Re  Re7  1  0.723073  0.107529  0.250000  1
  O  O8  1  0.464275  0.638508  0.491580  1
  O  O9  1  0.361492  0.825767  0.491580  1
  O  O10  1  0.807260  0.721756  0.250000  1
  O  O11  1  0.120674  0.815311  0.750000  1
  O  O12  1  0.278244  0.085504  0.250000  1
  O  O13  1  0.184689  0.305363  0.750000  1
  O  O14  1  0.501348  0.338746  0.002091  1
  O  O15  1  0.914496  0.192740  0.250000  1
  O  O16  1  0.083251  0.730580  0.250000  1
  O  O17  1  0.174233  0.535725  0.008420  1
  O  O18  1  0.174233  0.535725  0.491580  1
  O  O19  1  0.923453  0.320855  0.750000  1
  O  O20  1  0.269420  0.352672  0.250000  1
  O  O21  1  0.679145  0.602598  0.750000  1
  O  O22  1  0.837399  0.498652  0.497909  1
  O  O23  1  0.397402  0.076547  0.750000  1
  O  O24  1  0.661254  0.162601  0.002091  1
  O  O25  1  0.464275  0.638508  0.008420  1
  O  O26  1  0.361492  0.825767  0.008420  1
  O  O27  1  0.661254  0.162601  0.497909  1
  O  O28  1  0.501348  0.338746  0.497909  1
  O  O29  1  0.837399  0.498652  0.002091  1
  O  O30  1  0.694637  0.879326  0.750000  1
  O  O31  1  0.647328  0.916749  0.250000  1
