# generated using pymatgen
data_HfZr11(Ga2Sn)4
_symmetry_space_group_name_H-M   'P 1'
_cell_length_a   5.78505700
_cell_length_b   8.85665401
_cell_length_c   9.45544500
_cell_angle_alpha   90.00000000
_cell_angle_beta   90.00000000
_cell_angle_gamma   89.99613440
_symmetry_Int_Tables_number   1
_chemical_formula_structural   HfZr11(Ga2Sn)4
_chemical_formula_sum   'Hf1 Zr11 Ga8 Sn4'
_cell_volume   484.46152649
_cell_formula_units_Z   1
loop_
 _symmetry_equiv_pos_site_id
 _symmetry_equiv_pos_as_xyz
  1  'x, y, z'
loop_
 _atom_site_type_symbol
 _atom_site_label
 _atom_site_symmetry_multiplicity
 _atom_site_fract_x
 _atom_site_fract_y
 _atom_site_fract_z
 _atom_site_occupancy
  Hf  Hf0  1  0.500000  0.750000  0.122433  1
  Zr  Zr1  1  0.000000  0.750000  0.121963  1
  Zr  Zr2  1  0.500000  0.250000  0.878160  1
  Zr  Zr3  1  0.000000  0.250000  0.877913  1
  Zr  Zr4  1  0.749882  0.470761  0.609302  1
  Zr  Zr5  1  0.249942  0.529624  0.390370  1
  Zr  Zr6  1  0.750058  0.970376  0.390370  1
  Zr  Zr7  1  0.250118  0.029239  0.609302  1
  Zr  Zr8  1  0.750254  0.374302  0.199870  1
  Zr  Zr9  1  0.249966  0.625913  0.800550  1
  Zr  Zr10  1  0.750034  0.874087  0.800550  1
  Zr  Zr11  1  0.249746  0.125698  0.199870  1
  Ga  Ga12  1  0.000000  0.750000  0.569543  1
  Ga  Ga13  1  0.500000  0.250000  0.430476  1
  Ga  Ga14  1  0.000000  0.250000  0.430514  1
  Ga  Ga15  1  0.500000  0.750000  0.569491  1
  Ga  Ga16  1  0.749942  0.136723  0.645046  1
  Ga  Ga17  1  0.251101  0.862706  0.354190  1
  Ga  Ga18  1  0.748899  0.637294  0.354190  1
  Ga  Ga19  1  0.250058  0.363277  0.645046  1
  Sn  Sn20  1  0.749419  0.051119  0.085811  1
  Sn  Sn21  1  0.250713  0.947943  0.914615  1
  Sn  Sn22  1  0.749287  0.552057  0.914615  1
  Sn  Sn23  1  0.250581  0.448881  0.085811  1
