# generated using pymatgen
data_Cs8PuBi4
_symmetry_space_group_name_H-M   'P 1'
_cell_length_a   12.95157974
_cell_length_b   12.95157986
_cell_length_c   12.95158100
_cell_angle_alpha   59.99999963
_cell_angle_beta   59.99999934
_cell_angle_gamma   60.00000428
_symmetry_Int_Tables_number   1
_chemical_formula_structural   Cs8PuBi4
_chemical_formula_sum   'Cs16 Pu2 Bi8'
_cell_volume   1536.21955911
_cell_formula_units_Z   2
loop_
 _symmetry_equiv_pos_site_id
 _symmetry_equiv_pos_as_xyz
  1  'x, y, z'
loop_
 _atom_site_type_symbol
 _atom_site_label
 _atom_site_symmetry_multiplicity
 _atom_site_fract_x
 _atom_site_fract_y
 _atom_site_fract_z
 _atom_site_occupancy
  Cs  Cs0  1  0.625000  0.125000  0.625000  1
  Cs  Cs1  1  0.625000  0.625000  0.125000  1
  Cs  Cs2  1  0.125000  0.625000  0.625000  1
  Cs  Cs3  1  0.625000  0.625000  0.625000  1
  Cs  Cs4  1  0.026484  0.026484  0.473516  1
  Cs  Cs5  1  0.776484  0.223516  0.223516  1
  Cs  Cs6  1  0.223516  0.776484  0.776484  1
  Cs  Cs7  1  0.776484  0.776484  0.223516  1
  Cs  Cs8  1  0.776484  0.223516  0.776484  1
  Cs  Cs9  1  0.223516  0.776484  0.223516  1
  Cs  Cs10  1  0.473516  0.026484  0.473516  1
  Cs  Cs11  1  0.473516  0.026484  0.026484  1
  Cs  Cs12  1  0.026484  0.473516  0.473516  1
  Cs  Cs13  1  0.026484  0.473516  0.026484  1
  Cs  Cs14  1  0.223516  0.223516  0.776484  1
  Cs  Cs15  1  0.473516  0.473516  0.026484  1
  Pu  Pu16  1  0.750000  0.750000  0.750000  1
  Pu  Pu17  1  0.500000  0.500000  0.500000  1
  Bi  Bi18  1  0.399597  0.801208  0.399597  1
  Bi  Bi19  1  0.850403  0.850403  0.448792  1
  Bi  Bi20  1  0.448792  0.850403  0.850403  1
  Bi  Bi21  1  0.850403  0.850403  0.850403  1
  Bi  Bi22  1  0.801208  0.399597  0.399597  1
  Bi  Bi23  1  0.399597  0.399597  0.399597  1
  Bi  Bi24  1  0.399597  0.399597  0.801208  1
  Bi  Bi25  1  0.850403  0.448792  0.850403  1
