# generated using pymatgen
data_Lu6TlNi2
_symmetry_space_group_name_H-M   'P 1'
_cell_length_a   8.24001679
_cell_length_b   8.24001715
_cell_length_c   8.24001720
_cell_angle_alpha   112.54921615
_cell_angle_beta   109.89577949
_cell_angle_gamma   106.03430456
_symmetry_Int_Tables_number   1
_chemical_formula_structural   Lu6TlNi2
_chemical_formula_sum   'Lu12 Tl2 Ni4'
_cell_volume   429.28854742
_cell_formula_units_Z   2
loop_
 _symmetry_equiv_pos_site_id
 _symmetry_equiv_pos_as_xyz
  1  'x, y, z'
loop_
 _atom_site_type_symbol
 _atom_site_label
 _atom_site_symmetry_multiplicity
 _atom_site_fract_x
 _atom_site_fract_y
 _atom_site_fract_z
 _atom_site_occupancy
  Lu  Lu0  1  0.673900  0.866982  0.193081  1
  Lu  Lu1  1  0.326100  0.519182  0.193081  1
  Lu  Lu2  1  0.816365  0.792030  0.608395  1
  Lu  Lu3  1  0.183635  0.792030  0.975666  1
  Lu  Lu4  1  0.816365  0.207970  0.024334  1
  Lu  Lu5  1  0.183635  0.207970  0.391605  1
  Lu  Lu6  1  0.673900  0.480818  0.806919  1
  Lu  Lu7  1  0.326100  0.133018  0.806919  1
  Lu  Lu8  1  0.558537  0.264751  0.293785  1
  Lu  Lu9  1  0.441463  0.735249  0.706215  1
  Lu  Lu10  1  0.029034  0.735249  0.293785  1
  Lu  Lu11  1  0.970966  0.264751  0.706215  1
  Tl  Tl12  1  0.000000  0.500000  0.500000  1
  Tl  Tl13  1  0.500000  0.000000  0.500000  1
  Ni  Ni14  1  0.350180  0.500000  0.850180  1
  Ni  Ni15  1  0.649820  0.500000  0.149820  1
  Ni  Ni16  1  0.875137  0.875137  0.000000  1
  Ni  Ni17  1  0.124863  0.124863  0.000000  1
