# generated using pymatgen
data_LiTb6Ti(MnC6)2
_symmetry_space_group_name_H-M   'P 1'
_cell_length_a   8.22443400
_cell_length_b   8.22443319
_cell_length_c   5.05592600
_cell_angle_alpha   90.00000000
_cell_angle_beta   90.00000000
_cell_angle_gamma   119.99999412
_symmetry_Int_Tables_number   1
_chemical_formula_structural   LiTb6Ti(MnC6)2
_chemical_formula_sum   'Li1 Tb6 Ti1 Mn2 C12'
_cell_volume   296.17156713
_cell_formula_units_Z   1
loop_
 _symmetry_equiv_pos_site_id
 _symmetry_equiv_pos_as_xyz
  1  'x, y, z'
loop_
 _atom_site_type_symbol
 _atom_site_label
 _atom_site_symmetry_multiplicity
 _atom_site_fract_x
 _atom_site_fract_y
 _atom_site_fract_z
 _atom_site_occupancy
  Li  Li0  1  0.000000  0.000000  0.500000  1
  Tb  Tb1  1  0.620180  0.683673  0.747812  1
  Tb  Tb2  1  0.936509  0.620180  0.252188  1
  Tb  Tb3  1  0.683673  0.063491  0.252188  1
  Tb  Tb4  1  0.316327  0.936509  0.747812  1
  Tb  Tb5  1  0.063491  0.379820  0.747812  1
  Tb  Tb6  1  0.379820  0.316327  0.252188  1
  Ti  Ti7  1  0.000000  0.000000  0.000000  1
  Mn  Mn8  1  0.666667  0.333333  0.744125  1
  Mn  Mn9  1  0.333333  0.666667  0.255875  1
  C  C10  1  0.967161  0.759825  0.766973  1
  C  C11  1  0.207337  0.967161  0.233027  1
  C  C12  1  0.759825  0.792663  0.233027  1
  C  C13  1  0.240175  0.207337  0.766973  1
  C  C14  1  0.792663  0.032839  0.766973  1
  C  C15  1  0.032839  0.240175  0.233027  1
  C  C16  1  0.860903  0.570978  0.751171  1
  C  C17  1  0.289925  0.860903  0.248829  1
  C  C18  1  0.570978  0.710075  0.248829  1
  C  C19  1  0.429022  0.289925  0.751171  1
  C  C20  1  0.139097  0.429022  0.248829  1
  C  C21  1  0.710075  0.139097  0.751171  1
