# generated using pymatgen
data_Ba6MgMn2Ni2O15
_symmetry_space_group_name_H-M   'P 1'
_cell_length_a   7.26897326
_cell_length_b   7.26897643
_cell_length_c   7.26896716
_cell_angle_alpha   88.53528675
_cell_angle_beta   88.53523775
_cell_angle_gamma   88.53516387
_symmetry_Int_Tables_number   1
_chemical_formula_structural   Ba6MgMn2Ni2O15
_chemical_formula_sum   'Ba6 Mg1 Mn2 Ni2 O15'
_cell_volume   383.70743723
_cell_formula_units_Z   1
loop_
 _symmetry_equiv_pos_site_id
 _symmetry_equiv_pos_as_xyz
  1  'x, y, z'
loop_
 _atom_site_type_symbol
 _atom_site_label
 _atom_site_symmetry_multiplicity
 _atom_site_fract_x
 _atom_site_fract_y
 _atom_site_fract_z
 _atom_site_occupancy
  Ba  Ba0  1  0.331315  0.668689  0.000000  1
  Ba  Ba1  1  0.000000  0.331317  0.668689  1
  Ba  Ba2  1  0.668687  0.000001  0.331316  1
  Ba  Ba3  1  0.145593  0.854410  0.499998  1
  Ba  Ba4  1  0.499998  0.145594  0.854411  1
  Ba  Ba5  1  0.854408  0.500000  0.145592  1
  Mg  Mg6  1  0.499997  0.499994  0.499995  1
  Mn  Mn7  1  0.293146  0.293146  0.293145  1
  Mn  Mn8  1  0.706856  0.706857  0.706856  1
  Ni  Ni9  1  0.095066  0.095065  0.095067  1
  Ni  Ni10  1  0.904934  0.904933  0.904934  1
  O  O11  1  0.141619  0.000000  0.858380  1
  O  O12  1  0.858380  0.141621  0.000000  1
  O  O13  1  0.999998  0.858381  0.141619  1
  O  O14  1  0.034932  0.192369  0.328567  1
  O  O15  1  0.328565  0.034932  0.192367  1
  O  O16  1  0.192366  0.328568  0.034932  1
  O  O17  1  0.807627  0.965072  0.671420  1
  O  O18  1  0.671418  0.807631  0.965070  1
  O  O19  1  0.965068  0.671420  0.807629  1
  O  O20  1  0.369802  0.233394  0.532735  1
  O  O21  1  0.532737  0.369799  0.233395  1
  O  O22  1  0.233399  0.532736  0.369802  1
  O  O23  1  0.766612  0.630204  0.467268  1
  O  O24  1  0.467269  0.766608  0.630203  1
  O  O25  1  0.630206  0.467266  0.766609  1
