# generated using pymatgen
data_PrZnHgPd3
_symmetry_space_group_name_H-M   'P 1'
_cell_length_a   5.59211915
_cell_length_b   5.59211930
_cell_length_c   5.28166256
_cell_angle_alpha   58.03573897
_cell_angle_beta   58.03574093
_cell_angle_gamma   59.99999412
_symmetry_Int_Tables_number   1
_chemical_formula_structural   PrZnHgPd3
_chemical_formula_sum   'Pr1 Zn1 Hg1 Pd3'
_cell_volume   113.20224687
_cell_formula_units_Z   1
loop_
 _symmetry_equiv_pos_site_id
 _symmetry_equiv_pos_as_xyz
  1  'x, y, z'
loop_
 _atom_site_type_symbol
 _atom_site_label
 _atom_site_symmetry_multiplicity
 _atom_site_fract_x
 _atom_site_fract_y
 _atom_site_fract_z
 _atom_site_occupancy
  Pr  Pr0  1  0.247263  0.247263  0.258210  1
  Zn  Zn1  1  0.627388  0.627388  0.117838  1
  Hg  Hg2  1  0.994104  0.994104  0.017689  1
  Pd  Pd3  1  0.627666  0.125913  0.618755  1
  Pd  Pd4  1  0.125913  0.627666  0.618755  1
  Pd  Pd5  1  0.627666  0.627666  0.618755  1
