# generated using pymatgen
data_Ba2SrTcN4
_symmetry_space_group_name_H-M   'P 1'
_cell_length_a   11.16499597
_cell_length_b   10.77475804
_cell_length_c   8.15689179
_cell_angle_alpha   70.74271172
_cell_angle_beta   65.65097610
_cell_angle_gamma   43.60631229
_symmetry_Int_Tables_number   1
_chemical_formula_structural   Ba2SrTcN4
_chemical_formula_sum   'Ba8 Sr4 Tc4 N16'
_cell_volume   615.82136343
_cell_formula_units_Z   4
loop_
 _symmetry_equiv_pos_site_id
 _symmetry_equiv_pos_as_xyz
  1  'x, y, z'
loop_
 _atom_site_type_symbol
 _atom_site_label
 _atom_site_symmetry_multiplicity
 _atom_site_fract_x
 _atom_site_fract_y
 _atom_site_fract_z
 _atom_site_occupancy
  Ba  Ba0  1  0.567072  0.932928  0.932928  1
  Ba  Ba1  1  0.932928  0.567072  0.567072  1
  Ba  Ba2  1  0.317072  0.682928  0.682928  1
  Ba  Ba3  1  0.113667  0.113667  0.886333  1
  Ba  Ba4  1  0.136333  0.136333  0.363667  1
  Ba  Ba5  1  0.363667  0.363667  0.136333  1
  Ba  Ba6  1  0.682928  0.317072  0.317072  1
  Ba  Ba7  1  0.886333  0.886333  0.113667  1
  Sr  Sr8  1  0.341141  0.341141  0.658859  1
  Sr  Sr9  1  0.908859  0.908859  0.591141  1
  Sr  Sr10  1  0.658859  0.658859  0.341141  1
  Sr  Sr11  1  0.591141  0.591141  0.908859  1
  Tc  Tc12  1  0.488085  0.011915  0.488085  1
  Tc  Tc13  1  0.011915  0.488085  0.011915  1
  Tc  Tc14  1  0.761915  0.238085  0.761915  1
  Tc  Tc15  1  0.238085  0.761915  0.238085  1
  N  N16  1  0.015068  0.647121  0.836112  1
  N  N17  1  0.708274  0.272839  0.000966  1
  N  N18  1  0.647121  0.015068  0.501699  1
  N  N19  1  0.501699  0.836112  0.647121  1
  N  N20  1  0.234932  0.602879  0.413888  1
  N  N21  1  0.748301  0.413888  0.602879  1
  N  N22  1  0.000966  0.017923  0.708274  1
  N  N23  1  0.541726  0.977161  0.249034  1
  N  N24  1  0.413888  0.748301  0.234932  1
  N  N25  1  0.977161  0.541726  0.232077  1
  N  N26  1  0.272839  0.708274  0.017923  1
  N  N27  1  0.836112  0.501699  0.015068  1
  N  N28  1  0.232077  0.249034  0.977161  1
  N  N29  1  0.602879  0.234932  0.748301  1
  N  N30  1  0.249034  0.232077  0.541726  1
  N  N31  1  0.017923  0.000966  0.272839  1
