# generated using pymatgen
data_CaTa3Nb2(B2Ru5)2
_symmetry_space_group_name_H-M   'P 1'
_cell_length_a   9.54420596
_cell_length_b   9.53253373
_cell_length_c   3.04544800
_cell_angle_alpha   90.00000000
_cell_angle_beta   90.00000000
_cell_angle_gamma   90.54371063
_symmetry_Int_Tables_number   1
_chemical_formula_structural   CaTa3Nb2(B2Ru5)2
_chemical_formula_sum   'Ca1 Ta3 Nb2 B4 Ru10'
_cell_volume   277.06380044
_cell_formula_units_Z   1
loop_
 _symmetry_equiv_pos_site_id
 _symmetry_equiv_pos_as_xyz
  1  'x, y, z'
loop_
 _atom_site_type_symbol
 _atom_site_label
 _atom_site_symmetry_multiplicity
 _atom_site_fract_x
 _atom_site_fract_y
 _atom_site_fract_z
 _atom_site_occupancy
  Ca  Ca0  1  0.824182  0.675732  0.000000  1
  Ta  Ta1  1  0.677106  0.174882  0.000000  1
  Ta  Ta2  1  0.503523  0.501796  0.000000  1
  Ta  Ta3  1  0.998732  0.995889  0.000000  1
  Nb  Nb4  1  0.178085  0.322197  0.000000  1
  Nb  Nb5  1  0.324904  0.824192  0.000000  1
  B  B6  1  0.618656  0.881081  0.000000  1
  B  B7  1  0.376524  0.123464  0.000000  1
  B  B8  1  0.123481  0.618870  0.000000  1
  B  B9  1  0.881735  0.376582  0.000000  1
  Ru  Ru10  1  0.554135  0.727230  0.500000  1
  Ru  Ru11  1  0.427113  0.284137  0.500000  1
  Ru  Ru12  1  0.085264  0.782737  0.500000  1
  Ru  Ru13  1  0.930202  0.214225  0.500000  1
  Ru  Ru14  1  0.284824  0.568361  0.500000  1
  Ru  Ru15  1  0.716442  0.411780  0.500000  1
  Ru  Ru16  1  0.216331  0.073966  0.500000  1
  Ru  Ru17  1  0.772829  0.947334  0.500000  1
  Ru  Ru18  1  0.495615  0.006599  0.500000  1
  Ru  Ru19  1  0.010318  0.488943  0.500000  1
