# generated using pymatgen
data_Nb8Ga3SbTe16
_symmetry_space_group_name_H-M   'P 1'
_cell_length_a   8.11760252
_cell_length_b   6.64342687
_cell_length_c   15.88141539
_cell_angle_alpha   73.26317322
_cell_angle_beta   89.96643265
_cell_angle_gamma   89.86771682
_symmetry_Int_Tables_number   1
_chemical_formula_structural   Nb8Ga3SbTe16
_chemical_formula_sum   'Nb8 Ga3 Sb1 Te16'
_cell_volume   820.18000033
_cell_formula_units_Z   1
loop_
 _symmetry_equiv_pos_site_id
 _symmetry_equiv_pos_as_xyz
  1  'x, y, z'
loop_
 _atom_site_type_symbol
 _atom_site_label
 _atom_site_symmetry_multiplicity
 _atom_site_fract_x
 _atom_site_fract_y
 _atom_site_fract_z
 _atom_site_occupancy
  Nb  Nb0  1  0.035699  0.642708  0.249989  1
  Nb  Nb1  1  0.535690  0.357156  0.250015  1
  Nb  Nb2  1  0.969287  0.359004  0.750073  1
  Nb  Nb3  1  0.465344  0.645106  0.749939  1
  Nb  Nb4  1  0.785285  0.855087  0.749924  1
  Nb  Nb5  1  0.281368  0.140786  0.750124  1
  Nb  Nb6  1  0.213599  0.142684  0.250129  1
  Nb  Nb7  1  0.713717  0.857745  0.249887  1
  Ga  Ga8  1  0.125369  0.749913  0.749951  1
  Ga  Ga9  1  0.374571  0.749881  0.249892  1
  Ga  Ga10  1  0.874835  0.249962  0.250089  1
  Sb  Sb11  1  0.625305  0.250017  0.750016  1
  Te  Te12  1  0.986774  0.877548  0.371475  1
  Te  Te13  1  0.487007  0.122457  0.128588  1
  Te  Te14  1  0.011828  0.124123  0.627041  1
  Te  Te15  1  0.504176  0.863341  0.876990  1
  Te  Te16  1  0.762295  0.622274  0.128684  1
  Te  Te17  1  0.262096  0.377513  0.371395  1
  Te  Te18  1  0.239141  0.376051  0.872999  1
  Te  Te19  1  0.746784  0.636448  0.623010  1
  Te  Te20  1  0.487529  0.955223  0.371263  1
  Te  Te21  1  0.987375  0.045110  0.128597  1
  Te  Te22  1  0.503595  0.038512  0.623002  1
  Te  Te23  1  0.011330  0.954370  0.873010  1
  Te  Te24  1  0.261940  0.544275  0.128582  1
  Te  Te25  1  0.762029  0.455521  0.371390  1
  Te  Te26  1  0.746830  0.462039  0.876923  1
  Te  Te27  1  0.239202  0.545143  0.627025  1
