# generated using pymatgen
data_Rb2Ti2Pb2O7
_symmetry_space_group_name_H-M   'P 1'
_cell_length_a   6.09876600
_cell_length_b   6.09876575
_cell_length_c   8.43906200
_cell_angle_alpha   90.00000000
_cell_angle_beta   90.00000000
_cell_angle_gamma   120.00000135
_symmetry_Int_Tables_number   1
_chemical_formula_structural   Rb2Ti2Pb2O7
_chemical_formula_sum   'Rb2 Ti2 Pb2 O7'
_cell_volume   271.83709884
_cell_formula_units_Z   1
loop_
 _symmetry_equiv_pos_site_id
 _symmetry_equiv_pos_as_xyz
  1  'x, y, z'
loop_
 _atom_site_type_symbol
 _atom_site_label
 _atom_site_symmetry_multiplicity
 _atom_site_fract_x
 _atom_site_fract_y
 _atom_site_fract_z
 _atom_site_occupancy
  Rb  Rb0  1  0.666667  0.333333  0.916984  1
  Rb  Rb1  1  0.333333  0.666667  0.083016  1
  Ti  Ti2  1  0.000000  0.000000  0.279200  1
  Ti  Ti3  1  0.000000  0.000000  0.720800  1
  Pb  Pb4  1  0.333333  0.666667  0.633934  1
  Pb  Pb5  1  0.666667  0.333333  0.366066  1
  O  O6  1  0.820838  0.148032  0.210453  1
  O  O7  1  0.179162  0.851968  0.789547  1
  O  O8  1  0.327194  0.179162  0.210453  1
  O  O9  1  0.000000  0.000000  0.500000  1
  O  O10  1  0.148032  0.327194  0.789547  1
  O  O11  1  0.851968  0.672806  0.210453  1
  O  O12  1  0.672806  0.820838  0.789547  1
