# generated using pymatgen
data_Ca12MnFeN10
_symmetry_space_group_name_H-M   'P 1'
_cell_length_a   6.24372600
_cell_length_b   6.24372571
_cell_length_c   12.31296600
_cell_angle_alpha   90.00000000
_cell_angle_beta   90.00000000
_cell_angle_gamma   120.00000152
_symmetry_Int_Tables_number   1
_chemical_formula_structural   Ca12MnFeN10
_chemical_formula_sum   'Ca12 Mn1 Fe1 N10'
_cell_volume   415.70089337
_cell_formula_units_Z   1
loop_
 _symmetry_equiv_pos_site_id
 _symmetry_equiv_pos_as_xyz
  1  'x, y, z'
loop_
 _atom_site_type_symbol
 _atom_site_label
 _atom_site_symmetry_multiplicity
 _atom_site_fract_x
 _atom_site_fract_y
 _atom_site_fract_z
 _atom_site_occupancy
  Ca  Ca0  1  0.000000  0.395648  0.879084  1
  Ca  Ca1  1  0.604352  0.604352  0.879084  1
  Ca  Ca2  1  0.603803  0.000000  0.117551  1
  Ca  Ca3  1  0.395648  0.000000  0.620916  1
  Ca  Ca4  1  0.396197  0.396197  0.382449  1
  Ca  Ca5  1  0.603803  0.000000  0.382449  1
  Ca  Ca6  1  0.396197  0.396197  0.117551  1
  Ca  Ca7  1  0.000000  0.603803  0.117551  1
  Ca  Ca8  1  0.000000  0.395648  0.620916  1
  Ca  Ca9  1  0.604352  0.604352  0.620916  1
  Ca  Ca10  1  0.395648  0.000000  0.879084  1
  Ca  Ca11  1  0.000000  0.603803  0.382449  1
  Mn  Mn12  1  0.000000  0.000000  0.250000  1
  Fe  Fe13  1  0.000000  0.000000  0.750000  1
  N  N14  1  0.712038  0.000000  0.750000  1
  N  N15  1  0.287962  0.287962  0.750000  1
  N  N16  1  0.285676  0.000000  0.250000  1
  N  N17  1  0.666667  0.333333  0.501201  1
  N  N18  1  0.333333  0.666667  0.998799  1
  N  N19  1  0.333333  0.666667  0.501201  1
  N  N20  1  0.666667  0.333333  0.998799  1
  N  N21  1  0.714324  0.714324  0.250000  1
  N  N22  1  0.000000  0.285676  0.250000  1
  N  N23  1  0.000000  0.712038  0.750000  1
