# generated using pymatgen
data_La5NiSn2
_symmetry_space_group_name_H-M   'P 1'
_cell_length_a   8.36802000
_cell_length_b   9.39066700
_cell_length_c   12.72427500
_cell_angle_alpha   90.00000000
_cell_angle_beta   90.00000000
_cell_angle_gamma   90.00000000
_symmetry_Int_Tables_number   1
_chemical_formula_structural   La5NiSn2
_chemical_formula_sum   'La20 Ni4 Sn8'
_cell_volume   999.88993452
_cell_formula_units_Z   4
loop_
 _symmetry_equiv_pos_site_id
 _symmetry_equiv_pos_as_xyz
  1  'x, y, z'
loop_
 _atom_site_type_symbol
 _atom_site_label
 _atom_site_symmetry_multiplicity
 _atom_site_fract_x
 _atom_site_fract_y
 _atom_site_fract_z
 _atom_site_occupancy
  La  La0  1  0.160933  0.750000  0.205835  1
  La  La1  1  0.660933  0.250000  0.294165  1
  La  La2  1  0.839067  0.250000  0.794165  1
  La  La3  1  0.339067  0.750000  0.705835  1
  La  La4  1  0.438745  0.750000  0.997873  1
  La  La5  1  0.938745  0.250000  0.502127  1
  La  La6  1  0.561255  0.250000  0.002127  1
  La  La7  1  0.061255  0.750000  0.497873  1
  La  La8  1  0.629839  0.750000  0.305217  1
  La  La9  1  0.129839  0.250000  0.194783  1
  La  La10  1  0.370161  0.250000  0.694783  1
  La  La11  1  0.870161  0.750000  0.805217  1
  La  La12  1  0.812236  0.966541  0.072732  1
  La  La13  1  0.312236  0.033459  0.427268  1
  La  La14  1  0.187764  0.466541  0.927268  1
  La  La15  1  0.687764  0.533459  0.572732  1
  La  La16  1  0.187764  0.033459  0.927268  1
  La  La17  1  0.687764  0.966541  0.572732  1
  La  La18  1  0.812236  0.533459  0.072732  1
  La  La19  1  0.312236  0.466541  0.427268  1
  Ni  Ni20  1  0.422210  0.750000  0.490094  1
  Ni  Ni21  1  0.922210  0.250000  0.009906  1
  Ni  Ni22  1  0.577790  0.250000  0.509906  1
  Ni  Ni23  1  0.077790  0.750000  0.990094  1
  Sn  Sn24  1  0.931029  0.992660  0.327755  1
  Sn  Sn25  1  0.431029  0.007340  0.172245  1
  Sn  Sn26  1  0.068971  0.492660  0.672245  1
  Sn  Sn27  1  0.568971  0.507340  0.827755  1
  Sn  Sn28  1  0.068971  0.007340  0.672245  1
  Sn  Sn29  1  0.568971  0.992660  0.827755  1
  Sn  Sn30  1  0.931029  0.507340  0.327755  1
  Sn  Sn31  1  0.431029  0.492660  0.172245  1
