# generated using pymatgen
data_Dy5TmAl17Si7Os8
_symmetry_space_group_name_H-M   'P 1'
_cell_length_a   8.68542025
_cell_length_b   8.67413976
_cell_length_c   9.47431200
_cell_angle_alpha   90.00000000
_cell_angle_beta   90.00000000
_cell_angle_gamma   120.12484013
_symmetry_Int_Tables_number   1
_chemical_formula_structural   Dy5TmAl17Si7Os8
_chemical_formula_sum   'Dy5 Tm1 Al17 Si7 Os8'
_cell_volume   617.37332417
_cell_formula_units_Z   1
loop_
 _symmetry_equiv_pos_site_id
 _symmetry_equiv_pos_as_xyz
  1  'x, y, z'
loop_
 _atom_site_type_symbol
 _atom_site_label
 _atom_site_symmetry_multiplicity
 _atom_site_fract_x
 _atom_site_fract_y
 _atom_site_fract_z
 _atom_site_occupancy
  Dy  Dy0  1  0.192250  0.387180  0.250000  1
  Dy  Dy1  1  0.807369  0.615044  0.750000  1
  Dy  Dy2  1  0.611839  0.807811  0.250000  1
  Dy  Dy3  1  0.387070  0.190809  0.750000  1
  Dy  Dy4  1  0.802862  0.191281  0.750000  1
  Tm  Tm5  1  0.196716  0.804287  0.250000  1
  Al  Al6  1  0.164459  0.329880  0.577889  1
  Al  Al7  1  0.834552  0.671331  0.420688  1
  Al  Al8  1  0.671101  0.834934  0.577397  1
  Al  Al9  1  0.834552  0.671331  0.079312  1
  Al  Al10  1  0.329534  0.165538  0.421953  1
  Al  Al11  1  0.164459  0.329880  0.922111  1
  Al  Al12  1  0.163722  0.834321  0.575803  1
  Al  Al13  1  0.329534  0.165538  0.078047  1
  Al  Al14  1  0.835354  0.164223  0.421456  1
  Al  Al15  1  0.671101  0.834934  0.922603  1
  Al  Al16  1  0.835354  0.164223  0.078544  1
  Al  Al17  1  0.163722  0.834321  0.924197  1
  Al  Al18  1  0.125840  0.565806  0.750000  1
  Al  Al19  1  0.564797  0.434845  0.250000  1
  Al  Al20  1  0.438626  0.566573  0.750000  1
  Al  Al21  1  0.000553  0.998304  0.250000  1
  Al  Al22  1  0.999872  0.000974  0.750000  1
  Si  Si23  1  0.333156  0.664897  0.039466  1
  Si  Si24  1  0.666433  0.335847  0.960354  1
  Si  Si25  1  0.666433  0.335847  0.539646  1
  Si  Si26  1  0.333156  0.664897  0.460534  1
  Si  Si27  1  0.563986  0.124006  0.250000  1
  Si  Si28  1  0.436136  0.872945  0.750000  1
  Si  Si29  1  0.875083  0.435549  0.250000  1
  Os  Os30  1  0.500530  0.000940  0.001330  1
  Os  Os31  1  0.998553  0.499825  0.006905  1
  Os  Os32  1  0.500530  0.000940  0.498670  1
  Os  Os33  1  0.500588  0.500136  0.000328  1
  Os  Os34  1  0.998553  0.499825  0.493095  1
  Os  Os35  1  0.500588  0.500136  0.499672  1
  Os  Os36  1  0.000518  0.000420  0.999939  1
  Os  Os37  1  0.000518  0.000420  0.500061  1
