# generated using pymatgen
data_LiLaInPt3
_symmetry_space_group_name_H-M   'P 1'
_cell_length_a   5.54744878
_cell_length_b   5.54744938
_cell_length_c   5.29628420
_cell_angle_alpha   58.41845415
_cell_angle_beta   58.41845798
_cell_angle_gamma   59.99998350
_symmetry_Int_Tables_number   1
_chemical_formula_structural   LiLaInPt3
_chemical_formula_sum   'Li1 La1 In1 Pt3'
_cell_volume   112.41814981
_cell_formula_units_Z   1
loop_
 _symmetry_equiv_pos_site_id
 _symmetry_equiv_pos_as_xyz
  1  'x, y, z'
loop_
 _atom_site_type_symbol
 _atom_site_label
 _atom_site_symmetry_multiplicity
 _atom_site_fract_x
 _atom_site_fract_y
 _atom_site_fract_z
 _atom_site_occupancy
  Li  Li0  1  0.621309  0.621309  0.136075  1
  La  La1  1  0.004689  0.004689  0.985933  1
  In  In2  1  0.256139  0.256139  0.231584  1
  Pt  Pt3  1  0.622256  0.123353  0.632136  1
  Pt  Pt4  1  0.123353  0.622256  0.632136  1
  Pt  Pt5  1  0.622256  0.622256  0.632136  1
