# generated using pymatgen
data_Hf7ScOs8
_symmetry_space_group_name_H-M   'P 1'
_cell_length_a   6.47571300
_cell_length_b   4.60491200
_cell_length_c   9.19341900
_cell_angle_alpha   89.99967650
_cell_angle_beta   90.00100865
_cell_angle_gamma   90.00065945
_symmetry_Int_Tables_number   1
_chemical_formula_structural   Hf7ScOs8
_chemical_formula_sum   'Hf7 Sc1 Os8'
_cell_volume   274.14856822
_cell_formula_units_Z   1
loop_
 _symmetry_equiv_pos_site_id
 _symmetry_equiv_pos_as_xyz
  1  'x, y, z'
loop_
 _atom_site_type_symbol
 _atom_site_label
 _atom_site_symmetry_multiplicity
 _atom_site_fract_x
 _atom_site_fract_y
 _atom_site_fract_z
 _atom_site_occupancy
  Hf  Hf0  1  0.000043  0.749986  0.125014  1
  Hf  Hf1  1  0.500099  0.249999  0.372551  1
  Hf  Hf2  1  0.000048  0.250011  0.373961  1
  Hf  Hf3  1  0.999907  0.749983  0.625010  1
  Hf  Hf4  1  0.499844  0.750005  0.625014  1
  Hf  Hf5  1  0.999956  0.250017  0.876029  1
  Hf  Hf6  1  0.500017  0.249989  0.877435  1
  Sc  Sc7  1  0.499979  0.750048  0.125009  1
  Os  Os8  1  0.752515  0.250007  0.125012  1
  Os  Os9  1  0.248907  0.749996  0.376598  1
  Os  Os10  1  0.749657  0.250022  0.625009  1
  Os  Os11  1  0.248864  0.749998  0.873395  1
  Os  Os12  1  0.248875  0.249983  0.124958  1
  Os  Os13  1  0.750548  0.749991  0.376323  1
  Os  Os14  1  0.250294  0.249981  0.624989  1
  Os  Os15  1  0.750445  0.749992  0.873694  1
