# generated using pymatgen
data_Sr7Yb5(TmSn2)8
_symmetry_space_group_name_H-M   'P 1'
_cell_length_a   8.00567974
_cell_length_b   8.52618428
_cell_length_c   16.24440000
_cell_angle_alpha   90.01471003
_cell_angle_beta   89.89384177
_cell_angle_gamma   89.99998694
_symmetry_Int_Tables_number   1
_chemical_formula_structural   Sr7Yb5(TmSn2)8
_chemical_formula_sum   'Sr7 Yb5 Tm8 Sn16'
_cell_volume   1108.80670350
_cell_formula_units_Z   1
loop_
 _symmetry_equiv_pos_site_id
 _symmetry_equiv_pos_as_xyz
  1  'x, y, z'
loop_
 _atom_site_type_symbol
 _atom_site_label
 _atom_site_symmetry_multiplicity
 _atom_site_fract_x
 _atom_site_fract_y
 _atom_site_fract_z
 _atom_site_occupancy
  Sr  Sr0  1  0.503619  0.681509  0.594425  1
  Sr  Sr1  1  0.004138  0.819745  0.905485  1
  Sr  Sr2  1  0.496311  0.319631  0.094184  1
  Sr  Sr3  1  0.995190  0.180285  0.407619  1
  Sr  Sr4  1  0.494446  0.319650  0.407072  1
  Sr  Sr5  1  0.996005  0.180556  0.094004  1
  Sr  Sr6  1  0.503994  0.680642  0.904603  1
  Yb  Yb7  1  0.004673  0.812621  0.594854  1
  Yb  Yb8  1  0.834192  0.508415  0.749181  1
  Yb  Yb9  1  0.334440  0.990707  0.748770  1
  Yb  Yb10  1  0.166115  0.492482  0.250526  1
  Yb  Yb11  1  0.666119  0.008333  0.250417  1
  Tm  Tm12  1  0.673321  0.166908  0.621845  1
  Tm  Tm13  1  0.171813  0.332119  0.876633  1
  Tm  Tm14  1  0.328751  0.831832  0.122270  1
  Tm  Tm15  1  0.829071  0.669874  0.378613  1
  Tm  Tm16  1  0.327499  0.832421  0.378183  1
  Tm  Tm17  1  0.828387  0.668038  0.122459  1
  Tm  Tm18  1  0.672520  0.167285  0.876516  1
  Tm  Tm19  1  0.171245  0.332465  0.622338  1
  Sn  Sn20  1  0.663940  0.959256  0.461038  1
  Sn  Sn21  1  0.163926  0.540475  0.040338  1
  Sn  Sn22  1  0.336494  0.040907  0.958736  1
  Sn  Sn23  1  0.836315  0.463738  0.542300  1
  Sn  Sn24  1  0.330116  0.036320  0.542411  1
  Sn  Sn25  1  0.836002  0.459036  0.958722  1
  Sn  Sn26  1  0.664087  0.959267  0.040063  1
  Sn  Sn27  1  0.162875  0.544628  0.461206  1
  Sn  Sn28  1  0.468630  0.368124  0.749222  1
  Sn  Sn29  1  0.970046  0.131277  0.748716  1
  Sn  Sn30  1  0.532027  0.633074  0.250368  1
  Sn  Sn31  1  0.031533  0.867906  0.250120  1
  Sn  Sn32  1  0.718647  0.882032  0.747464  1
  Sn  Sn33  1  0.211963  0.617774  0.748268  1
  Sn  Sn34  1  0.285636  0.116545  0.250321  1
  Sn  Sn35  1  0.785914  0.384126  0.250711  1
