# generated using pymatgen
data_Lu4Sc4IrPt3
_symmetry_space_group_name_H-M   'P 1'
_cell_length_a   4.50430600
_cell_length_b   6.91478313
_cell_length_c   8.38719084
_cell_angle_alpha   89.57656205
_cell_angle_beta   90.00000000
_cell_angle_gamma   90.00000000
_symmetry_Int_Tables_number   1
_chemical_formula_structural   Lu4Sc4IrPt3
_chemical_formula_sum   'Lu4 Sc4 Ir1 Pt3'
_cell_volume   261.22282119
_cell_formula_units_Z   1
loop_
 _symmetry_equiv_pos_site_id
 _symmetry_equiv_pos_as_xyz
  1  'x, y, z'
loop_
 _atom_site_type_symbol
 _atom_site_label
 _atom_site_symmetry_multiplicity
 _atom_site_fract_x
 _atom_site_fract_y
 _atom_site_fract_z
 _atom_site_occupancy
  Lu  Lu0  1  0.250000  0.021614  0.669598  1
  Lu  Lu1  1  0.250000  0.522870  0.826831  1
  Lu  Lu2  1  0.750000  0.983238  0.329849  1
  Lu  Lu3  1  0.750000  0.474622  0.176068  1
  Sc  Sc4  1  0.250000  0.142038  0.070634  1
  Sc  Sc5  1  0.250000  0.640321  0.428497  1
  Sc  Sc6  1  0.750000  0.858981  0.930913  1
  Sc  Sc7  1  0.750000  0.355251  0.566681  1
  Ir  Ir8  1  0.250000  0.252989  0.392310  1
  Pt  Pt9  1  0.250000  0.752405  0.106254  1
  Pt  Pt10  1  0.750000  0.745344  0.609677  1
  Pt  Pt11  1  0.750000  0.250329  0.892686  1
