# generated using pymatgen
data_YNb3(PO4)6
_symmetry_space_group_name_H-M   'P 1'
_cell_length_a   8.93370054
_cell_length_b   9.00549700
_cell_length_c   12.51014200
_cell_angle_alpha   90.00000000
_cell_angle_beta   90.19271791
_cell_angle_gamma   90.00000000
_symmetry_Int_Tables_number   1
_chemical_formula_structural   YNb3(PO4)6
_chemical_formula_sum   'Y2 Nb6 P12 O48'
_cell_volume   1006.46542219
_cell_formula_units_Z   2
loop_
 _symmetry_equiv_pos_site_id
 _symmetry_equiv_pos_as_xyz
  1  'x, y, z'
loop_
 _atom_site_type_symbol
 _atom_site_label
 _atom_site_symmetry_multiplicity
 _atom_site_fract_x
 _atom_site_fract_y
 _atom_site_fract_z
 _atom_site_occupancy
  Y  Y0  1  0.749123  0.966456  0.376952  1
  Y  Y1  1  0.249123  0.533544  0.876952  1
  Nb  Nb2  1  0.749575  0.465172  0.116222  1
  Nb  Nb3  1  0.747897  0.034518  0.885176  1
  Nb  Nb4  1  0.751420  0.534512  0.616386  1
  Nb  Nb5  1  0.249575  0.034828  0.616222  1
  Nb  Nb6  1  0.251420  0.965488  0.116386  1
  Nb  Nb7  1  0.247897  0.465482  0.385176  1
  P  P8  1  0.538387  0.751855  0.004405  1
  P  P9  1  0.971535  0.257140  0.506341  1
  P  P10  1  0.471535  0.242860  0.006341  1
  P  P11  1  0.038387  0.748145  0.504405  1
  P  P12  1  0.612018  0.595611  0.352132  1
  P  P13  1  0.902143  0.120838  0.135838  1
  P  P14  1  0.874994  0.389354  0.852353  1
  P  P15  1  0.601862  0.885137  0.646213  1
  P  P16  1  0.402143  0.379162  0.635838  1
  P  P17  1  0.112018  0.904389  0.852132  1
  P  P18  1  0.101862  0.614863  0.146213  1
  P  P19  1  0.374994  0.110646  0.352353  1
  O  O20  1  0.928664  0.594595  0.142880  1
  O  O21  1  0.543115  0.106827  0.351099  1
  O  O22  1  0.574280  0.404385  0.640087  1
  O  O23  1  0.941248  0.940069  0.849053  1
  O  O24  1  0.043115  0.393173  0.851099  1
  O  O25  1  0.428664  0.905405  0.642880  1
  O  O26  1  0.441248  0.559931  0.349053  1
  O  O27  1  0.074280  0.095615  0.140087  1
  O  O28  1  0.953716  0.823641  0.415617  1
  O  O29  1  0.577584  0.328206  0.084048  1
  O  O30  1  0.566647  0.140816  0.933429  1
  O  O31  1  0.930246  0.661568  0.580245  1
  O  O32  1  0.077584  0.171794  0.584048  1
  O  O33  1  0.453716  0.676359  0.915617  1
  O  O34  1  0.430246  0.838432  0.080245  1
  O  O35  1  0.066647  0.359184  0.433429  1
  O  O36  1  0.685708  0.491550  0.267154  1
  O  O37  1  0.822548  0.020187  0.212556  1
  O  O38  1  0.809501  0.499882  0.766991  1
  O  O39  1  0.658295  0.964828  0.749827  1
  O  O40  1  0.322548  0.479813  0.712556  1
  O  O41  1  0.185708  0.008450  0.767154  1
  O  O42  1  0.158295  0.535172  0.249827  1
  O  O43  1  0.309501  0.000118  0.266991  1
  O  O44  1  0.677724  0.554098  0.463191  1
  O  O45  1  0.849706  0.092522  0.019733  1
  O  O46  1  0.811100  0.438588  0.962645  1
  O  O47  1  0.676007  0.946922  0.548624  1
  O  O48  1  0.349706  0.407478  0.519733  1
  O  O49  1  0.177724  0.945902  0.963191  1
  O  O50  1  0.176007  0.553078  0.048624  1
  O  O51  1  0.311100  0.061412  0.462645  1
  O  O52  1  0.625792  0.638154  0.075759  1
  O  O53  1  0.877352  0.157403  0.438425  1
  O  O54  1  0.873212  0.360203  0.576972  1
  O  O55  1  0.661008  0.858643  0.960977  1
  O  O56  1  0.377352  0.342597  0.938425  1
  O  O57  1  0.125792  0.861846  0.575759  1
  O  O58  1  0.161008  0.641357  0.460977  1
  O  O59  1  0.373212  0.139797  0.076972  1
  O  O60  1  0.635146  0.757109  0.326223  1
  O  O61  1  0.873144  0.288675  0.158786  1
  O  O62  1  0.813442  0.231738  0.824651  1
  O  O63  1  0.635858  0.715925  0.659013  1
  O  O64  1  0.373144  0.211325  0.658786  1
  O  O65  1  0.135146  0.742891  0.826223  1
  O  O66  1  0.135858  0.784075  0.159013  1
  O  O67  1  0.313442  0.268262  0.324651  1
