# generated using pymatgen
data_LuThTcB6
_symmetry_space_group_name_H-M   'P 1'
_cell_length_a   3.74275600
_cell_length_b   9.18910700
_cell_length_c   11.62389700
_cell_angle_alpha   90.00000000
_cell_angle_beta   90.00000000
_cell_angle_gamma   90.00000000
_symmetry_Int_Tables_number   1
_chemical_formula_structural   LuThTcB6
_chemical_formula_sum   'Lu4 Th4 Tc4 B24'
_cell_volume   399.77586978
_cell_formula_units_Z   4
loop_
 _symmetry_equiv_pos_site_id
 _symmetry_equiv_pos_as_xyz
  1  'x, y, z'
loop_
 _atom_site_type_symbol
 _atom_site_label
 _atom_site_symmetry_multiplicity
 _atom_site_fract_x
 _atom_site_fract_y
 _atom_site_fract_z
 _atom_site_occupancy
  Lu  Lu0  1  0.000000  0.945090  0.372551  1
  Lu  Lu1  1  0.000000  0.054910  0.627449  1
  Lu  Lu2  1  0.000000  0.445090  0.127449  1
  Lu  Lu3  1  0.000000  0.554910  0.872551  1
  Th  Th4  1  0.000000  0.322395  0.414223  1
  Th  Th5  1  0.000000  0.677605  0.585777  1
  Th  Th6  1  0.000000  0.822395  0.085777  1
  Th  Th7  1  0.000000  0.177605  0.914223  1
  Tc  Tc8  1  0.000000  0.640222  0.319066  1
  Tc  Tc9  1  0.000000  0.359778  0.680934  1
  Tc  Tc10  1  0.000000  0.140222  0.180934  1
  Tc  Tc11  1  0.000000  0.859778  0.819066  1
  B  B12  1  0.500000  0.556691  0.429498  1
  B  B13  1  0.500000  0.443309  0.570502  1
  B  B14  1  0.500000  0.056691  0.070502  1
  B  B15  1  0.500000  0.943309  0.929498  1
  B  B16  1  0.500000  0.751239  0.416949  1
  B  B17  1  0.500000  0.248761  0.583051  1
  B  B18  1  0.500000  0.251239  0.083051  1
  B  B19  1  0.500000  0.748761  0.916949  1
  B  B20  1  0.500000  0.792048  0.266572  1
  B  B21  1  0.500000  0.207952  0.733428  1
  B  B22  1  0.500000  0.292048  0.233428  1
  B  B23  1  0.500000  0.707952  0.766572  1
  B  B24  1  0.500000  0.630100  0.185263  1
  B  B25  1  0.500000  0.369900  0.814737  1
  B  B26  1  0.500000  0.130100  0.314737  1
  B  B27  1  0.500000  0.869900  0.685263  1
  B  B28  1  0.500000  0.984917  0.214791  1
  B  B29  1  0.500000  0.015083  0.785209  1
  B  B30  1  0.500000  0.484917  0.285209  1
  B  B31  1  0.500000  0.515083  0.714791  1
  B  B32  1  0.500000  0.600851  0.027560  1
  B  B33  1  0.500000  0.399149  0.972440  1
  B  B34  1  0.500000  0.100851  0.472440  1
  B  B35  1  0.500000  0.899149  0.527560  1
