# generated using pymatgen
data_Er10Al5GeC8
_symmetry_space_group_name_H-M   'P 1'
_cell_length_a   10.74951200
_cell_length_b   10.74951200
_cell_length_c   3.49275300
_cell_angle_alpha   90.00000000
_cell_angle_beta   90.00000000
_cell_angle_gamma   90.00000000
_symmetry_Int_Tables_number   1
_chemical_formula_structural   Er10Al5GeC8
_chemical_formula_sum   'Er10 Al5 Ge1 C8'
_cell_volume   403.59462343
_cell_formula_units_Z   1
loop_
 _symmetry_equiv_pos_site_id
 _symmetry_equiv_pos_as_xyz
  1  'x, y, z'
loop_
 _atom_site_type_symbol
 _atom_site_label
 _atom_site_symmetry_multiplicity
 _atom_site_fract_x
 _atom_site_fract_y
 _atom_site_fract_z
 _atom_site_occupancy
  Er  Er0  1  0.549725  0.726902  0.500000  1
  Er  Er1  1  0.450275  0.273098  0.500000  1
  Er  Er2  1  0.051392  0.768922  0.500000  1
  Er  Er3  1  0.948608  0.231078  0.500000  1
  Er  Er4  1  0.273098  0.549725  0.500000  1
  Er  Er5  1  0.726902  0.450275  0.500000  1
  Er  Er6  1  0.231078  0.051392  0.500000  1
  Er  Er7  1  0.768922  0.948608  0.500000  1
  Er  Er8  1  0.500000  0.000000  0.000000  1
  Er  Er9  1  0.000000  0.500000  0.000000  1
  Al  Al10  1  0.709662  0.197219  0.000000  1
  Al  Al11  1  0.290338  0.802781  0.000000  1
  Al  Al12  1  0.197219  0.290338  0.000000  1
  Al  Al13  1  0.802781  0.709662  0.000000  1
  Al  Al14  1  0.000000  0.000000  0.000000  1
  Ge  Ge15  1  0.500000  0.500000  0.000000  1
  C  C16  1  0.629091  0.132069  0.500000  1
  C  C17  1  0.370909  0.867931  0.500000  1
  C  C18  1  0.132069  0.370909  0.500000  1
  C  C19  1  0.867931  0.629091  0.500000  1
  C  C20  1  0.164067  0.660550  0.000000  1
  C  C21  1  0.835933  0.339450  0.000000  1
  C  C22  1  0.660550  0.835933  0.000000  1
  C  C23  1  0.339450  0.164067  0.000000  1
