# generated using pymatgen
data_CePr4Dy(SiPt5)2
_symmetry_space_group_name_H-M   'P 1'
_cell_length_a   8.40525962
_cell_length_b   8.38652666
_cell_length_c   8.38652635
_cell_angle_alpha   127.12926771
_cell_angle_beta   126.34107324
_cell_angle_gamma   78.63318418
_symmetry_Int_Tables_number   1
_chemical_formula_structural   CePr4Dy(SiPt5)2
_chemical_formula_sum   'Ce1 Pr4 Dy1 Si2 Pt10'
_cell_volume   367.59290519
_cell_formula_units_Z   1
loop_
 _symmetry_equiv_pos_site_id
 _symmetry_equiv_pos_as_xyz
  1  'x, y, z'
loop_
 _atom_site_type_symbol
 _atom_site_label
 _atom_site_symmetry_multiplicity
 _atom_site_fract_x
 _atom_site_fract_y
 _atom_site_fract_z
 _atom_site_occupancy
  Ce  Ce0  1  0.778575  0.050481  0.728095  1
  Pr  Pr1  1  0.613589  0.250522  0.363067  1
  Pr  Pr2  1  0.169869  0.450687  0.719182  1
  Pr  Pr3  1  0.384893  0.748987  0.635906  1
  Pr  Pr4  1  0.229575  0.949528  0.280048  1
  Dy  Dy5  1  0.823709  0.549716  0.273992  1
  Si  Si6  1  0.214411  0.251511  0.962900  1
  Si  Si7  1  0.789574  0.749990  0.039584  1
  Pt  Pt8  1  0.164759  0.904871  0.856879  1
  Pt  Pt9  1  0.827895  0.093309  0.130802  1
  Pt  Pt10  1  0.460464  0.196111  0.866214  1
  Pt  Pt11  1  0.549932  0.404794  0.742473  1
  Pt  Pt12  1  0.827895  0.697094  0.734586  1
  Pt  Pt13  1  0.460464  0.594252  0.264354  1
  Pt  Pt14  1  0.549932  0.807459  0.145138  1
  Pt  Pt15  1  0.164759  0.307880  0.259888  1
  Pt  Pt16  1  0.994851  0.998130  0.500172  1
  Pt  Pt17  1  0.994851  0.494679  0.996721  1
