# generated using pymatgen
data_Y8Sc12Si15Au
_symmetry_space_group_name_H-M   'P 1'
_cell_length_a   7.13244649
_cell_length_b   7.38836064
_cell_length_c   14.08030934
_cell_angle_alpha   89.92137113
_cell_angle_beta   89.68465732
_cell_angle_gamma   90.16068369
_symmetry_Int_Tables_number   1
_chemical_formula_structural   Y8Sc12Si15Au
_chemical_formula_sum   'Y8 Sc12 Si15 Au1'
_cell_volume   741.97641519
_cell_formula_units_Z   1
loop_
 _symmetry_equiv_pos_site_id
 _symmetry_equiv_pos_as_xyz
  1  'x, y, z'
loop_
 _atom_site_type_symbol
 _atom_site_label
 _atom_site_symmetry_multiplicity
 _atom_site_fract_x
 _atom_site_fract_y
 _atom_site_fract_z
 _atom_site_occupancy
  Y  Y0  1  0.012306  0.175099  0.097553  1
  Y  Y1  1  0.987407  0.825331  0.903465  1
  Y  Y2  1  0.487218  0.676448  0.903279  1
  Y  Y3  1  0.988002  0.828394  0.597806  1
  Y  Y4  1  0.512124  0.324095  0.096689  1
  Y  Y5  1  0.010561  0.173754  0.399734  1
  Y  Y6  1  0.510479  0.324552  0.400724  1
  Y  Y7  1  0.491236  0.676082  0.599167  1
  Sc  Sc8  1  0.162581  0.501097  0.751081  1
  Sc  Sc9  1  0.837790  0.498740  0.250735  1
  Sc  Sc10  1  0.338141  0.000369  0.249278  1
  Sc  Sc11  1  0.663744  0.996615  0.750924  1
  Sc  Sc12  1  0.337884  0.176081  0.625742  1
  Sc  Sc13  1  0.666926  0.823478  0.373701  1
  Sc  Sc14  1  0.169071  0.673601  0.373503  1
  Sc  Sc15  1  0.670255  0.824045  0.125139  1
  Sc  Sc16  1  0.828061  0.325523  0.625346  1
  Sc  Sc17  1  0.328731  0.175374  0.875878  1
  Sc  Sc18  1  0.830044  0.322450  0.875805  1
  Sc  Sc19  1  0.169545  0.676891  0.125128  1
  Si  Si20  1  0.035149  0.119569  0.750611  1
  Si  Si21  1  0.966425  0.883184  0.249351  1
  Si  Si22  1  0.466640  0.616457  0.248460  1
  Si  Si23  1  0.534942  0.384151  0.752263  1
  Si  Si24  1  0.284725  0.874754  0.750768  1
  Si  Si25  1  0.713345  0.127104  0.248939  1
  Si  Si26  1  0.214655  0.371885  0.248167  1
  Si  Si27  1  0.786845  0.626563  0.752477  1
  Si  Si28  1  0.835644  0.537438  0.459360  1
  Si  Si29  1  0.341404  0.963040  0.460027  1
  Si  Si30  1  0.844005  0.535708  0.039021  1
  Si  Si31  1  0.657397  0.036234  0.538036  1
  Si  Si32  1  0.155487  0.464200  0.961439  1
  Si  Si33  1  0.656554  0.035105  0.960851  1
  Si  Si34  1  0.343300  0.964156  0.039406  1
  Au  Au35  1  0.161378  0.462436  0.540146  1
