# generated using pymatgen
data_Sc5Re2BC6
_symmetry_space_group_name_H-M   'P 1'
_cell_length_a   7.90120051
_cell_length_b   7.90120100
_cell_length_c   3.21588400
_cell_angle_alpha   90.00000000
_cell_angle_beta   90.00000000
_cell_angle_gamma   120.58365273
_symmetry_Int_Tables_number   1
_chemical_formula_structural   Sc5Re2BC6
_chemical_formula_sum   'Sc5 Re2 B1 C6'
_cell_volume   172.83545321
_cell_formula_units_Z   1
loop_
 _symmetry_equiv_pos_site_id
 _symmetry_equiv_pos_as_xyz
  1  'x, y, z'
loop_
 _atom_site_type_symbol
 _atom_site_label
 _atom_site_symmetry_multiplicity
 _atom_site_fract_x
 _atom_site_fract_y
 _atom_site_fract_z
 _atom_site_occupancy
  Sc  Sc0  1  0.086475  0.333448  0.500000  1
  Sc  Sc1  1  0.333448  0.086475  0.500000  1
  Sc  Sc2  1  0.500000  0.500000  0.000000  1
  Sc  Sc3  1  0.913525  0.666552  0.500000  1
  Sc  Sc4  1  0.666552  0.913525  0.500000  1
  Re  Re5  1  0.715053  0.284947  0.000000  1
  Re  Re6  1  0.284947  0.715053  0.000000  1
  B  B7  1  0.000000  0.000000  0.000000  1
  C  C8  1  0.000000  0.500000  0.000000  1
  C  C9  1  0.500000  0.000000  0.000000  1
  C  C10  1  0.187599  0.187599  0.000000  1
  C  C11  1  0.812401  0.812401  0.000000  1
  C  C12  1  0.620141  0.379859  0.500000  1
  C  C13  1  0.379859  0.620141  0.500000  1
