# generated using pymatgen
data_NdDy9(InBi)3
_symmetry_space_group_name_H-M   'P 1'
_cell_length_a   6.64749300
_cell_length_b   9.09641293
_cell_length_c   9.08307095
_cell_angle_alpha   119.98977328
_cell_angle_beta   89.99977183
_cell_angle_gamma   89.99996823
_symmetry_Int_Tables_number   1
_chemical_formula_structural   NdDy9(InBi)3
_chemical_formula_sum   'Nd1 Dy9 In3 Bi3'
_cell_volume   475.70327267
_cell_formula_units_Z   1
loop_
 _symmetry_equiv_pos_site_id
 _symmetry_equiv_pos_as_xyz
  1  'x, y, z'
loop_
 _atom_site_type_symbol
 _atom_site_label
 _atom_site_symmetry_multiplicity
 _atom_site_fract_x
 _atom_site_fract_y
 _atom_site_fract_z
 _atom_site_occupancy
  Nd  Nd0  1  0.249989  0.007646  0.767843  1
  Dy  Dy1  1  0.502494  0.338707  0.672205  1
  Dy  Dy2  1  0.502447  0.656772  0.324637  1
  Dy  Dy3  1  0.997557  0.656777  0.324640  1
  Dy  Dy4  1  0.997506  0.338704  0.672204  1
  Dy  Dy5  1  0.749998  0.247535  0.009546  1
  Dy  Dy6  1  0.750001  0.752548  0.763149  1
  Dy  Dy7  1  0.750001  0.998889  0.231683  1
  Dy  Dy8  1  0.250000  0.756435  0.998386  1
  Dy  Dy9  1  0.250000  0.244352  0.234355  1
  In  In10  1  0.750001  0.604365  0.001347  1
  In  In11  1  0.749999  0.392706  0.397874  1
  In  In12  1  0.250001  0.401805  0.999896  1
  Bi  Bi13  1  0.749997  0.997067  0.608227  1
  Bi  Bi14  1  0.250002  0.604009  0.603346  1
  Bi  Bi15  1  0.250001  0.001685  0.390666  1
