# generated using pymatgen
data_HfSc2O5
_symmetry_space_group_name_H-M   'P 1'
_cell_length_a   5.60877398
_cell_length_b   5.60877339
_cell_length_c   10.55744900
_cell_angle_alpha   90.00000000
_cell_angle_beta   90.00000000
_cell_angle_gamma   138.75921318
_symmetry_Int_Tables_number   1
_chemical_formula_structural   HfSc2O5
_chemical_formula_sum   'Hf2 Sc4 O10'
_cell_volume   218.94167475
_cell_formula_units_Z   2
loop_
 _symmetry_equiv_pos_site_id
 _symmetry_equiv_pos_as_xyz
  1  'x, y, z'
loop_
 _atom_site_type_symbol
 _atom_site_label
 _atom_site_symmetry_multiplicity
 _atom_site_fract_x
 _atom_site_fract_y
 _atom_site_fract_z
 _atom_site_occupancy
  Hf  Hf0  1  0.815626  0.184374  0.250000  1
  Hf  Hf1  1  0.184374  0.815626  0.750000  1
  Sc  Sc2  1  0.861487  0.138513  0.940447  1
  Sc  Sc3  1  0.861487  0.138513  0.559553  1
  Sc  Sc4  1  0.138513  0.861487  0.059553  1
  Sc  Sc5  1  0.138513  0.861487  0.440447  1
  O  O6  1  0.699925  0.300075  0.420802  1
  O  O7  1  0.699925  0.300075  0.079198  1
  O  O8  1  0.300075  0.699925  0.579198  1
  O  O9  1  0.300075  0.699925  0.920802  1
  O  O10  1  0.749736  0.250264  0.750000  1
  O  O11  1  0.954078  0.045922  0.116295  1
  O  O12  1  0.954078  0.045922  0.383705  1
  O  O13  1  0.250264  0.749736  0.250000  1
  O  O14  1  0.045922  0.954078  0.883705  1
  O  O15  1  0.045922  0.954078  0.616295  1
