# generated using pymatgen
data_Nd19HoSi15Rh
_symmetry_space_group_name_H-M   'P 1'
_cell_length_a   7.79582844
_cell_length_b   7.92884276
_cell_length_c   15.12313851
_cell_angle_alpha   89.68531411
_cell_angle_beta   89.54709403
_cell_angle_gamma   89.95218218
_symmetry_Int_Tables_number   1
_chemical_formula_structural   Nd19HoSi15Rh
_chemical_formula_sum   'Nd19 Ho1 Si15 Rh1'
_cell_volume   934.74629736
_cell_formula_units_Z   1
loop_
 _symmetry_equiv_pos_site_id
 _symmetry_equiv_pos_as_xyz
  1  'x, y, z'
loop_
 _atom_site_type_symbol
 _atom_site_label
 _atom_site_symmetry_multiplicity
 _atom_site_fract_x
 _atom_site_fract_y
 _atom_site_fract_z
 _atom_site_occupancy
  Nd  Nd0  1  0.812681  0.332371  0.615085  1
  Nd  Nd1  1  0.456343  0.686232  0.897688  1
  Nd  Nd2  1  0.957886  0.814766  0.897732  1
  Nd  Nd3  1  0.185366  0.682478  0.120540  1
  Nd  Nd4  1  0.691467  0.818790  0.120908  1
  Nd  Nd5  1  0.307123  0.178444  0.877801  1
  Nd  Nd6  1  0.187362  0.678370  0.380250  1
  Nd  Nd7  1  0.043428  0.188161  0.103336  1
  Nd  Nd8  1  0.312420  0.180416  0.622171  1
  Nd  Nd9  1  0.858005  0.490858  0.260203  1
  Nd  Nd10  1  0.364527  0.007021  0.253412  1
  Nd  Nd11  1  0.535754  0.315290  0.398043  1
  Nd  Nd12  1  0.810508  0.317789  0.878178  1
  Nd  Nd13  1  0.964420  0.814652  0.599777  1
  Nd  Nd14  1  0.459288  0.686824  0.603342  1
  Nd  Nd15  1  0.041461  0.185698  0.399672  1
  Nd  Nd16  1  0.693071  0.812808  0.384310  1
  Nd  Nd17  1  0.638765  0.993755  0.748129  1
  Nd  Nd18  1  0.544107  0.311998  0.102739  1
  Ho  Ho19  1  0.137172  0.510713  0.747932  1
  Si  Si20  1  0.479260  0.602554  0.246164  1
  Si  Si21  1  0.251934  0.378237  0.247493  1
  Si  Si22  1  0.512884  0.403036  0.751090  1
  Si  Si23  1  0.631083  0.025476  0.958270  1
  Si  Si24  1  0.016294  0.104411  0.748634  1
  Si  Si25  1  0.752109  0.620591  0.750008  1
  Si  Si26  1  0.751118  0.119924  0.248740  1
  Si  Si27  1  0.364933  0.969915  0.461387  1
  Si  Si28  1  0.981825  0.901201  0.248709  1
  Si  Si29  1  0.365187  0.974561  0.041309  1
  Si  Si30  1  0.635015  0.025266  0.542269  1
  Si  Si31  1  0.133623  0.475808  0.956024  1
  Si  Si32  1  0.145071  0.476322  0.544244  1
  Si  Si33  1  0.866527  0.525597  0.038962  1
  Si  Si34  1  0.244477  0.871756  0.750631  1
  Rh  Rh35  1  0.867503  0.517913  0.454821  1
