# generated using pymatgen
data_ErLu11In2Fe3
_symmetry_space_group_name_H-M   'P 1'
_cell_length_a   8.18260069
_cell_length_b   8.18260163
_cell_length_c   8.18990827
_cell_angle_alpha   108.48547892
_cell_angle_beta   108.48548191
_cell_angle_gamma   111.42635220
_symmetry_Int_Tables_number   1
_chemical_formula_structural   ErLu11In2Fe3
_chemical_formula_sum   'Er1 Lu11 In2 Fe3'
_cell_volume   421.92866532
_cell_formula_units_Z   1
loop_
 _symmetry_equiv_pos_site_id
 _symmetry_equiv_pos_as_xyz
  1  'x, y, z'
loop_
 _atom_site_type_symbol
 _atom_site_label
 _atom_site_symmetry_multiplicity
 _atom_site_fract_x
 _atom_site_fract_y
 _atom_site_fract_z
 _atom_site_occupancy
  Er  Er0  1  0.306781  0.306781  0.613563  1
  Lu  Lu1  1  0.692179  0.692179  0.384357  1
  Lu  Lu2  1  0.692718  0.307819  0.000537  1
  Lu  Lu3  1  0.307819  0.692718  0.000537  1
  Lu  Lu4  1  0.190964  0.427379  0.235479  1
  Lu  Lu5  1  0.810063  0.573408  0.764150  1
  Lu  Lu6  1  0.190742  0.954086  0.764150  1
  Lu  Lu7  1  0.954086  0.190742  0.764150  1
  Lu  Lu8  1  0.808100  0.044516  0.235479  1
  Lu  Lu9  1  0.044516  0.808100  0.235479  1
  Lu  Lu10  1  0.427379  0.190964  0.235479  1
  Lu  Lu11  1  0.573408  0.810063  0.764150  1
  In  In12  1  0.999916  0.499940  0.499856  1
  In  In13  1  0.499940  0.999916  0.499856  1
  Fe  Fe14  1  0.384422  0.384422  0.001364  1
  Fe  Fe15  1  0.616942  0.616942  0.001364  1
  Fe  Fe16  1  0.000025  0.000025  0.000049  1
