# generated using pymatgen
data_Ba2Zr(TeS)2
_symmetry_space_group_name_H-M   'P 1'
_cell_length_a   9.52288193
_cell_length_b   9.52288248
_cell_length_c   9.52288267
_cell_angle_alpha   149.16725384
_cell_angle_beta   149.16726056
_cell_angle_gamma   44.16517335
_symmetry_Int_Tables_number   1
_chemical_formula_structural   Ba2Zr(TeS)2
_chemical_formula_sum   'Ba2 Zr1 Te2 S2'
_cell_volume   226.19907191
_cell_formula_units_Z   1
loop_
 _symmetry_equiv_pos_site_id
 _symmetry_equiv_pos_as_xyz
  1  'x, y, z'
loop_
 _atom_site_type_symbol
 _atom_site_label
 _atom_site_symmetry_multiplicity
 _atom_site_fract_x
 _atom_site_fract_y
 _atom_site_fract_z
 _atom_site_occupancy
  Ba  Ba0  1  0.631638  0.631638  0.000000  1
  Ba  Ba1  1  0.368362  0.368362  0.000000  1
  Zr  Zr2  1  0.000000  0.000000  0.000000  1
  Te  Te3  1  0.832353  0.832353  0.000000  1
  Te  Te4  1  0.167647  0.167647  0.000000  1
  S  S5  1  0.500000  0.000000  0.500000  1
  S  S6  1  0.000000  0.500000  0.500000  1
