# generated using pymatgen
data_Sm4Ho6Si7Rh
_symmetry_space_group_name_H-M   'P 1'
_cell_length_a   7.54883300
_cell_length_b   7.72911332
_cell_length_c   14.75390000
_cell_angle_alpha   89.73078173
_cell_angle_beta   90.00000000
_cell_angle_gamma   90.00000000
_symmetry_Int_Tables_number   1
_chemical_formula_structural   Sm4Ho6Si7Rh
_chemical_formula_sum   'Sm8 Ho12 Si14 Rh2'
_cell_volume   860.81838501
_cell_formula_units_Z   2
loop_
 _symmetry_equiv_pos_site_id
 _symmetry_equiv_pos_as_xyz
  1  'x, y, z'
loop_
 _atom_site_type_symbol
 _atom_site_label
 _atom_site_symmetry_multiplicity
 _atom_site_fract_x
 _atom_site_fract_y
 _atom_site_fract_z
 _atom_site_occupancy
  Sm  Sm0  1  0.974609  0.816974  0.097383  1
  Sm  Sm1  1  0.474609  0.683026  0.402617  1
  Sm  Sm2  1  0.526598  0.324553  0.899366  1
  Sm  Sm3  1  0.026598  0.175447  0.600634  1
  Sm  Sm4  1  0.026139  0.185059  0.902078  1
  Sm  Sm5  1  0.526139  0.314941  0.597922  1
  Sm  Sm6  1  0.475020  0.680301  0.100832  1
  Sm  Sm7  1  0.975020  0.819699  0.399168  1
  Ho  Ho8  1  0.649912  0.993743  0.251295  1
  Ho  Ho9  1  0.149912  0.506257  0.248705  1
  Ho  Ho10  1  0.847576  0.491928  0.754245  1
  Ho  Ho11  1  0.347576  0.008072  0.745755  1
  Ho  Ho12  1  0.679695  0.809831  0.882416  1
  Ho  Ho13  1  0.179695  0.690169  0.617584  1
  Ho  Ho14  1  0.819458  0.333503  0.118899  1
  Ho  Ho15  1  0.319458  0.166497  0.381101  1
  Ho  Ho16  1  0.321132  0.179412  0.123304  1
  Ho  Ho17  1  0.821132  0.320588  0.376696  1
  Ho  Ho18  1  0.177051  0.675153  0.879550  1
  Ho  Ho19  1  0.677051  0.824847  0.620450  1
  Si  Si20  1  0.765246  0.623699  0.250050  1
  Si  Si21  1  0.265246  0.876301  0.249950  1
  Si  Si22  1  0.732537  0.119481  0.751952  1
  Si  Si23  1  0.232537  0.380519  0.748048  1
  Si  Si24  1  0.024407  0.111461  0.247703  1
  Si  Si25  1  0.524407  0.388539  0.252297  1
  Si  Si26  1  0.469140  0.611694  0.747828  1
  Si  Si27  1  0.969140  0.888306  0.752172  1
  Si  Si28  1  0.642833  0.031008  0.040706  1
  Si  Si29  1  0.142833  0.468992  0.459294  1
  Si  Si30  1  0.152774  0.470766  0.042391  1
  Si  Si31  1  0.652774  0.029234  0.457609  1
  Si  Si32  1  0.356049  0.969482  0.961151  1
  Si  Si33  1  0.856049  0.530518  0.538849  1
  Rh  Rh34  1  0.859820  0.523213  0.956667  1
  Rh  Rh35  1  0.359820  0.976787  0.543333  1
