# generated using pymatgen
data_Ho16MgCd3Ir3Pd
_symmetry_space_group_name_H-M   'P 1'
_cell_length_a   9.61075311
_cell_length_b   9.61075333
_cell_length_c   9.61075226
_cell_angle_alpha   60.16218272
_cell_angle_beta   60.16218917
_cell_angle_gamma   60.16218445
_symmetry_Int_Tables_number   1
_chemical_formula_structural   Ho16MgCd3Ir3Pd
_chemical_formula_sum   'Ho16 Mg1 Cd3 Ir3 Pd1'
_cell_volume   630.01318415
_cell_formula_units_Z   1
loop_
 _symmetry_equiv_pos_site_id
 _symmetry_equiv_pos_as_xyz
  1  'x, y, z'
loop_
 _atom_site_type_symbol
 _atom_site_label
 _atom_site_symmetry_multiplicity
 _atom_site_fract_x
 _atom_site_fract_y
 _atom_site_fract_z
 _atom_site_occupancy
  Ho  Ho0  1  0.598026  0.598026  0.598026  1
  Ho  Ho1  1  0.602562  0.602562  0.200152  1
  Ho  Ho2  1  0.602562  0.200152  0.602562  1
  Ho  Ho3  1  0.200152  0.602562  0.602562  1
  Ho  Ho4  1  0.053528  0.441156  0.441156  1
  Ho  Ho5  1  0.437742  0.061418  0.061418  1
  Ho  Ho6  1  0.441156  0.053528  0.441156  1
  Ho  Ho7  1  0.061418  0.437742  0.061418  1
  Ho  Ho8  1  0.441156  0.441156  0.053528  1
  Ho  Ho9  1  0.061418  0.061418  0.437742  1
  Ho  Ho10  1  0.189254  0.813716  0.813716  1
  Ho  Ho11  1  0.815053  0.187244  0.187244  1
  Ho  Ho12  1  0.813716  0.189254  0.813716  1
  Ho  Ho13  1  0.187244  0.815053  0.187244  1
  Ho  Ho14  1  0.813716  0.813716  0.189254  1
  Ho  Ho15  1  0.187244  0.187244  0.815053  1
  Mg  Mg16  1  0.826220  0.826220  0.826220  1
  Cd  Cd17  1  0.831280  0.831280  0.504645  1
  Cd  Cd18  1  0.831280  0.504645  0.831280  1
  Cd  Cd19  1  0.504645  0.831280  0.831280  1
  Ir  Ir20  1  0.391962  0.391962  0.823727  1
  Ir  Ir21  1  0.391962  0.823727  0.391962  1
  Ir  Ir22  1  0.823727  0.391962  0.391962  1
  Pd  Pd23  1  0.392980  0.392980  0.392980  1
