# generated using pymatgen
data_PrNd5(PBr3)2
_symmetry_space_group_name_H-M   'P 1'
_cell_length_a   10.31583472
_cell_length_b   10.31716078
_cell_length_c   10.31716101
_cell_angle_alpha   109.47578267
_cell_angle_beta   109.46885851
_cell_angle_gamma   109.47423630
_symmetry_Int_Tables_number   1
_chemical_formula_structural   PrNd5(PBr3)2
_chemical_formula_sum   'Pr2 Nd10 P4 Br12'
_cell_volume   845.23005633
_cell_formula_units_Z   2
loop_
 _symmetry_equiv_pos_site_id
 _symmetry_equiv_pos_as_xyz
  1  'x, y, z'
loop_
 _atom_site_type_symbol
 _atom_site_label
 _atom_site_symmetry_multiplicity
 _atom_site_fract_x
 _atom_site_fract_y
 _atom_site_fract_z
 _atom_site_occupancy
  Pr  Pr0  1  0.263776  0.013927  0.027762  1
  Pr  Pr1  1  0.236224  0.263986  0.750151  1
  Nd  Nd2  1  0.470847  0.485534  0.235506  1
  Nd  Nd3  1  0.749221  0.235333  0.263975  1
  Nd  Nd4  1  0.750779  0.014755  0.486112  1
  Nd  Nd5  1  0.235332  0.471420  0.486088  1
  Nd  Nd6  1  0.264668  0.750756  0.236088  1
  Nd  Nd7  1  0.029153  0.264659  0.014687  1
  Nd  Nd8  1  0.014541  0.029223  0.264549  1
  Nd  Nd9  1  0.485459  0.750008  0.014682  1
  Nd  Nd10  1  0.485371  0.235526  0.470819  1
  Nd  Nd11  1  0.014629  0.485447  0.750155  1
  P  P12  1  0.250113  0.250998  0.250987  1
  P  P13  1  0.500835  0.000036  0.250993  1
  P  P14  1  0.999165  0.250158  0.499201  1
  P  P15  1  0.249887  0.500874  0.000885  1
  Br  Br16  1  0.250166  0.753699  0.743321  1
  Br  Br17  1  0.512155  0.507224  0.755083  1
  Br  Br18  1  0.987845  0.742928  0.995068  1
  Br  Br19  1  0.744803  0.249930  0.755099  1
  Br  Br20  1  0.991064  0.987732  0.743324  1
  Br  Br21  1  0.249834  0.993155  0.503533  1
  Br  Br22  1  0.755197  0.510295  0.505127  1
  Br  Br23  1  0.508936  0.252260  0.996666  1
  Br  Br24  1  0.755084  0.744942  0.250043  1
  Br  Br25  1  0.744916  0.994960  0.989859  1
  Br  Br26  1  0.994938  0.505130  0.250045  1
  Br  Br27  1  0.505062  0.755107  0.510191  1
