# generated using pymatgen
data_SmDyFe3P7Ru9
_symmetry_space_group_name_H-M   'P 1'
_cell_length_a   9.30838000
_cell_length_b   9.30837989
_cell_length_c   3.85855800
_cell_angle_alpha   90.00000000
_cell_angle_beta   90.00000000
_cell_angle_gamma   119.99999328
_symmetry_Int_Tables_number   1
_chemical_formula_structural   SmDyFe3P7Ru9
_chemical_formula_sum   'Sm1 Dy1 Fe3 P7 Ru9'
_cell_volume   289.53688488
_cell_formula_units_Z   1
loop_
 _symmetry_equiv_pos_site_id
 _symmetry_equiv_pos_as_xyz
  1  'x, y, z'
loop_
 _atom_site_type_symbol
 _atom_site_label
 _atom_site_symmetry_multiplicity
 _atom_site_fract_x
 _atom_site_fract_y
 _atom_site_fract_z
 _atom_site_occupancy
  Sm  Sm0  1  0.333333  0.666667  0.000000  1
  Dy  Dy1  1  0.000000  0.000000  0.500000  1
  Fe  Fe2  1  0.933737  0.490274  0.000000  1
  Fe  Fe3  1  0.509726  0.443462  0.000000  1
  Fe  Fe4  1  0.556538  0.066263  0.000000  1
  P  P5  1  0.970926  0.745902  0.000000  1
  P  P6  1  0.254098  0.225024  0.000000  1
  P  P7  1  0.774976  0.029074  0.000000  1
  P  P8  1  0.061370  0.447464  0.500000  1
  P  P9  1  0.552536  0.613906  0.500000  1
  P  P10  1  0.386094  0.938630  0.500000  1
  P  P11  1  0.666667  0.333333  0.000000  1
  Ru  Ru12  1  0.727639  0.754504  0.000000  1
  Ru  Ru13  1  0.245496  0.973136  0.000000  1
  Ru  Ru14  1  0.026864  0.272361  0.000000  1
  Ru  Ru15  1  0.102913  0.719240  0.500000  1
  Ru  Ru16  1  0.280760  0.383674  0.500000  1
  Ru  Ru17  1  0.616326  0.897087  0.500000  1
  Ru  Ru18  1  0.754994  0.537658  0.500000  1
  Ru  Ru19  1  0.462342  0.217336  0.500000  1
  Ru  Ru20  1  0.782664  0.245006  0.500000  1
