# generated using pymatgen
data_Tb2Lu3Si4
_symmetry_space_group_name_H-M   'P 1'
_cell_length_a   7.29722700
_cell_length_b   7.59850600
_cell_length_c   14.40161300
_cell_angle_alpha   90.00000000
_cell_angle_beta   90.00000000
_cell_angle_gamma   90.00000000
_symmetry_Int_Tables_number   1
_chemical_formula_structural   Tb2Lu3Si4
_chemical_formula_sum   'Tb8 Lu12 Si16'
_cell_volume   798.54097092
_cell_formula_units_Z   4
loop_
 _symmetry_equiv_pos_site_id
 _symmetry_equiv_pos_as_xyz
  1  'x, y, z'
loop_
 _atom_site_type_symbol
 _atom_site_label
 _atom_site_symmetry_multiplicity
 _atom_site_fract_x
 _atom_site_fract_y
 _atom_site_fract_z
 _atom_site_occupancy
  Tb  Tb0  1  0.013591  0.176191  0.097475  1
  Tb  Tb1  1  0.986409  0.823809  0.902525  1
  Tb  Tb2  1  0.486409  0.676191  0.902525  1
  Tb  Tb3  1  0.986409  0.823809  0.597475  1
  Tb  Tb4  1  0.513591  0.323809  0.097475  1
  Tb  Tb5  1  0.013591  0.176191  0.402525  1
  Tb  Tb6  1  0.513591  0.323809  0.402525  1
  Tb  Tb7  1  0.486409  0.676191  0.597475  1
  Lu  Lu8  1  0.162004  0.508213  0.750000  1
  Lu  Lu9  1  0.837996  0.491787  0.250000  1
  Lu  Lu10  1  0.337996  0.008213  0.250000  1
  Lu  Lu11  1  0.662004  0.991787  0.750000  1
  Lu  Lu12  1  0.329751  0.177469  0.623531  1
  Lu  Lu13  1  0.670249  0.822531  0.376469  1
  Lu  Lu14  1  0.170249  0.677469  0.376469  1
  Lu  Lu15  1  0.670249  0.822531  0.123531  1
  Lu  Lu16  1  0.829751  0.322531  0.623531  1
  Lu  Lu17  1  0.329751  0.177469  0.876469  1
  Lu  Lu18  1  0.829751  0.322531  0.876469  1
  Lu  Lu19  1  0.170249  0.677469  0.123531  1
  Si  Si20  1  0.034376  0.111893  0.750000  1
  Si  Si21  1  0.965624  0.888107  0.250000  1
  Si  Si22  1  0.465624  0.611893  0.250000  1
  Si  Si23  1  0.534376  0.388107  0.750000  1
  Si  Si24  1  0.282428  0.871695  0.750000  1
  Si  Si25  1  0.717572  0.128305  0.250000  1
  Si  Si26  1  0.217572  0.371695  0.250000  1
  Si  Si27  1  0.782428  0.628305  0.750000  1
  Si  Si28  1  0.158659  0.466781  0.539044  1
  Si  Si29  1  0.841341  0.533219  0.460956  1
  Si  Si30  1  0.341341  0.966781  0.460956  1
  Si  Si31  1  0.841341  0.533219  0.039044  1
  Si  Si32  1  0.658659  0.033219  0.539044  1
  Si  Si33  1  0.158659  0.466781  0.960956  1
  Si  Si34  1  0.658659  0.033219  0.960956  1
  Si  Si35  1  0.341341  0.966781  0.039044  1
