# generated using pymatgen
data_Tb12Nd4Cd4Co3Ni
_symmetry_space_group_name_H-M   'P 1'
_cell_length_a   9.60850090
_cell_length_b   9.61360030
_cell_length_c   9.61360007
_cell_angle_alpha   59.99549736
_cell_angle_beta   59.99317419
_cell_angle_gamma   59.99317853
_symmetry_Int_Tables_number   1
_chemical_formula_structural   Tb12Nd4Cd4Co3Ni
_chemical_formula_sum   'Tb12 Nd4 Cd4 Co3 Ni1'
_cell_volume   627.84605862
_cell_formula_units_Z   1
loop_
 _symmetry_equiv_pos_site_id
 _symmetry_equiv_pos_as_xyz
  1  'x, y, z'
loop_
 _atom_site_type_symbol
 _atom_site_label
 _atom_site_symmetry_multiplicity
 _atom_site_fract_x
 _atom_site_fract_y
 _atom_site_fract_z
 _atom_site_occupancy
  Tb  Tb0  1  0.593586  0.598172  0.598172  1
  Tb  Tb1  1  0.594356  0.598208  0.209812  1
  Tb  Tb2  1  0.594356  0.209812  0.598208  1
  Tb  Tb3  1  0.212342  0.596101  0.596101  1
  Tb  Tb4  1  0.066849  0.437021  0.437021  1
  Tb  Tb5  1  0.436394  0.062881  0.062881  1
  Tb  Tb6  1  0.437725  0.062079  0.437865  1
  Tb  Tb7  1  0.065818  0.437163  0.057910  1
  Tb  Tb8  1  0.437725  0.437865  0.062079  1
  Tb  Tb9  1  0.065818  0.057910  0.437163  1
  Tb  Tb10  1  0.190669  0.808675  0.808675  1
  Tb  Tb11  1  0.806057  0.192307  0.192307  1
  Nd  Nd12  1  0.809899  0.189160  0.812546  1
  Nd  Nd13  1  0.188222  0.810993  0.189083  1
  Nd  Nd14  1  0.809899  0.812546  0.189160  1
  Nd  Nd15  1  0.188222  0.189083  0.810993  1
  Cd  Cd16  1  0.831902  0.828492  0.828492  1
  Cd  Cd17  1  0.828642  0.831757  0.510461  1
  Cd  Cd18  1  0.828642  0.510461  0.831757  1
  Cd  Cd19  1  0.509436  0.829218  0.829218  1
  Co  Co20  1  0.395381  0.389623  0.389623  1
  Co  Co21  1  0.391083  0.393884  0.826203  1
  Co  Co22  1  0.391083  0.826203  0.393884  1
  Ni  Ni23  1  0.825892  0.390389  0.390389  1
