# generated using pymatgen
data_Dy9Lu3In20
_symmetry_space_group_name_H-M   'P 1'
_cell_length_a   6.53000615
_cell_length_b   10.36638800
_cell_length_c   12.18680938
_cell_angle_alpha   90.00000000
_cell_angle_beta   90.04822676
_cell_angle_gamma   90.00000000
_symmetry_Int_Tables_number   1
_chemical_formula_structural   Dy9Lu3In20
_chemical_formula_sum   'Dy9 Lu3 In20'
_cell_volume   824.95624457
_cell_formula_units_Z   1
loop_
 _symmetry_equiv_pos_site_id
 _symmetry_equiv_pos_as_xyz
  1  'x, y, z'
loop_
 _atom_site_type_symbol
 _atom_site_label
 _atom_site_symmetry_multiplicity
 _atom_site_fract_x
 _atom_site_fract_y
 _atom_site_fract_z
 _atom_site_occupancy
  Dy  Dy0  1  0.851637  0.250000  0.444970  1
  Dy  Dy1  1  0.890190  0.491158  0.141470  1
  Dy  Dy2  1  0.609252  0.007904  0.641943  1
  Dy  Dy3  1  0.110219  0.990657  0.858907  1
  Dy  Dy4  1  0.389733  0.508233  0.358816  1
  Dy  Dy5  1  0.110219  0.509343  0.858907  1
  Dy  Dy6  1  0.389733  0.991767  0.358816  1
  Dy  Dy7  1  0.890190  0.008842  0.141470  1
  Dy  Dy8  1  0.609252  0.492096  0.641943  1
  Lu  Lu9  1  0.349705  0.750000  0.053692  1
  Lu  Lu10  1  0.150182  0.750000  0.553866  1
  Lu  Lu11  1  0.650464  0.250000  0.946655  1
  In  In12  1  0.612865  0.750000  0.504805  1
  In  In13  1  0.886646  0.750000  0.005163  1
  In  In14  1  0.384340  0.250000  0.495985  1
  In  In15  1  0.113155  0.250000  0.994171  1
  In  In16  1  0.650036  0.750000  0.243039  1
  In  In17  1  0.849655  0.750000  0.743421  1
  In  In18  1  0.349898  0.250000  0.757614  1
  In  In19  1  0.153320  0.250000  0.254944  1
  In  In20  1  0.124587  0.750000  0.281348  1
  In  In21  1  0.375944  0.750000  0.781368  1
  In  In22  1  0.875726  0.250000  0.719346  1
  In  In23  1  0.624211  0.250000  0.216269  1
  In  In24  1  0.874488  0.544257  0.401088  1
  In  In25  1  0.625075  0.956674  0.901210  1
  In  In26  1  0.124652  0.042877  0.599669  1
  In  In27  1  0.375208  0.457008  0.098568  1
  In  In28  1  0.124652  0.457123  0.599669  1
  In  In29  1  0.375208  0.042992  0.098568  1
  In  In30  1  0.874488  0.955743  0.401088  1
  In  In31  1  0.625075  0.543326  0.901210  1
