# generated using pymatgen
data_Pr3Nd2Nb2O12
_symmetry_space_group_name_H-M   'P 1'
_cell_length_a   7.13656415
_cell_length_b   7.13656479
_cell_length_c   7.79353728
_cell_angle_alpha   73.97718221
_cell_angle_beta   73.97718610
_cell_angle_gamma   50.73752958
_symmetry_Int_Tables_number   1
_chemical_formula_structural   Pr3Nd2Nb2O12
_chemical_formula_sum   'Pr3 Nd2 Nb2 O12'
_cell_volume   292.63401926
_cell_formula_units_Z   1
loop_
 _symmetry_equiv_pos_site_id
 _symmetry_equiv_pos_as_xyz
  1  'x, y, z'
loop_
 _atom_site_type_symbol
 _atom_site_label
 _atom_site_symmetry_multiplicity
 _atom_site_fract_x
 _atom_site_fract_y
 _atom_site_fract_z
 _atom_site_occupancy
  Pr  Pr0  1  0.691326  0.691326  0.171371  1
  Pr  Pr1  1  0.308674  0.308674  0.828629  1
  Pr  Pr2  1  0.000000  0.000000  0.500000  1
  Nd  Nd3  1  0.304819  0.304819  0.360862  1
  Nd  Nd4  1  0.695181  0.695181  0.639138  1
  Nb  Nb5  1  0.766540  0.233460  0.000000  1
  Nb  Nb6  1  0.233460  0.766540  0.000000  1
  O  O7  1  0.094297  0.593210  0.575709  1
  O  O8  1  0.999443  0.999443  0.189877  1
  O  O9  1  0.406790  0.905703  0.424291  1
  O  O10  1  0.499971  0.499971  0.178301  1
  O  O11  1  0.101873  0.576129  0.081323  1
  O  O12  1  0.905703  0.406790  0.424291  1
  O  O13  1  0.000557  0.000557  0.810123  1
  O  O14  1  0.593210  0.094296  0.575709  1
  O  O15  1  0.500029  0.500029  0.821699  1
  O  O16  1  0.576129  0.101873  0.081323  1
  O  O17  1  0.423871  0.898127  0.918677  1
  O  O18  1  0.898127  0.423871  0.918677  1
