# generated using pymatgen
data_DyHoCoNi3B4
_symmetry_space_group_name_H-M   'P 1'
_cell_length_a   4.91129825
_cell_length_b   4.94410467
_cell_length_c   6.91679256
_cell_angle_alpha   58.98146246
_cell_angle_beta   59.27070257
_cell_angle_gamma   63.33095260
_symmetry_Int_Tables_number   1
_chemical_formula_structural   DyHoCoNi3B4
_chemical_formula_sum   'Dy1 Ho1 Co1 Ni3 B4'
_cell_volume   119.73855851
_cell_formula_units_Z   1
loop_
 _symmetry_equiv_pos_site_id
 _symmetry_equiv_pos_as_xyz
  1  'x, y, z'
loop_
 _atom_site_type_symbol
 _atom_site_label
 _atom_site_symmetry_multiplicity
 _atom_site_fract_x
 _atom_site_fract_y
 _atom_site_fract_z
 _atom_site_occupancy
  Dy  Dy0  1  0.872204  0.117988  0.759304  1
  Ho  Ho1  1  0.120896  0.875809  0.255028  1
  Co  Co2  1  0.466115  0.281150  0.201049  1
  Ni  Ni3  1  0.729166  0.531086  0.298728  1
  Ni  Ni4  1  0.535443  0.728021  0.793094  1
  Ni  Ni5  1  0.275707  0.470188  0.698741  1
  B  B6  1  0.165797  0.495688  0.022044  1
  B  B7  1  0.494440  0.849560  0.472330  1
  B  B8  1  0.842064  0.486620  0.980631  1
  B  B9  1  0.498168  0.163891  0.519052  1
