# generated using pymatgen
data_YVP6Pd20Pb
_symmetry_space_group_name_H-M   'P 1'
_cell_length_a   8.64801988
_cell_length_b   8.64893490
_cell_length_c   8.64919302
_cell_angle_alpha   59.99959716
_cell_angle_beta   60.00324727
_cell_angle_gamma   60.00692391
_symmetry_Int_Tables_number   1
_chemical_formula_structural   YVP6Pd20Pb
_chemical_formula_sum   'Y1 V1 P6 Pd20 Pb1'
_cell_volume   457.47983401
_cell_formula_units_Z   1
loop_
 _symmetry_equiv_pos_site_id
 _symmetry_equiv_pos_as_xyz
  1  'x, y, z'
loop_
 _atom_site_type_symbol
 _atom_site_label
 _atom_site_symmetry_multiplicity
 _atom_site_fract_x
 _atom_site_fract_y
 _atom_site_fract_z
 _atom_site_occupancy
  Y  Y0  1  0.750004  0.749991  0.749975  1
  V  V1  1  0.999986  0.000001  0.000001  1
  P  P2  1  0.739284  0.260711  0.260769  1
  P  P3  1  0.260736  0.739280  0.739223  1
  P  P4  1  0.260743  0.739263  0.260792  1
  P  P5  1  0.739260  0.260749  0.739205  1
  P  P6  1  0.260742  0.260747  0.739263  1
  P  P7  1  0.739249  0.739243  0.260768  1
  Pd  Pd8  1  0.384059  0.384068  0.384064  1
  Pd  Pd9  1  0.614332  0.614328  0.614336  1
  Pd  Pd10  1  0.384055  0.384049  0.847833  1
  Pd  Pd11  1  0.384047  0.847844  0.384041  1
  Pd  Pd12  1  0.614354  0.614338  0.156987  1
  Pd  Pd13  1  0.614341  0.157008  0.614330  1
  Pd  Pd14  1  0.847833  0.384053  0.384055  1
  Pd  Pd15  1  0.157019  0.614333  0.614336  1
  Pd  Pd16  1  0.346354  0.997273  0.997331  1
  Pd  Pd17  1  0.659049  0.997313  0.997269  1
  Pd  Pd18  1  0.997290  0.346300  0.659075  1
  Pd  Pd19  1  0.997302  0.659107  0.346319  1
  Pd  Pd20  1  0.997263  0.346339  0.997301  1
  Pd  Pd21  1  0.659117  0.997284  0.346341  1
  Pd  Pd22  1  0.997287  0.659096  0.997266  1
  Pd  Pd23  1  0.346316  0.997282  0.659087  1
  Pd  Pd24  1  0.997276  0.997262  0.346335  1
  Pd  Pd25  1  0.997292  0.997313  0.659088  1
  Pd  Pd26  1  0.659032  0.346367  0.997299  1
  Pd  Pd27  1  0.346354  0.659027  0.997312  1
  Pb  Pb28  1  0.250021  0.250032  0.249999  1
