# generated using pymatgen
data_SrCe(TcO4)6
_symmetry_space_group_name_H-M   'P 1'
_cell_length_a   9.89822600
_cell_length_b   9.89822809
_cell_length_c   6.29544000
_cell_angle_alpha   90.00000000
_cell_angle_beta   90.00000000
_cell_angle_gamma   119.99999971
_symmetry_Int_Tables_number   1
_chemical_formula_structural   SrCe(TcO4)6
_chemical_formula_sum   'Sr1 Ce1 Tc6 O24'
_cell_volume   534.16022329
_cell_formula_units_Z   1
loop_
 _symmetry_equiv_pos_site_id
 _symmetry_equiv_pos_as_xyz
  1  'x, y, z'
loop_
 _atom_site_type_symbol
 _atom_site_label
 _atom_site_symmetry_multiplicity
 _atom_site_fract_x
 _atom_site_fract_y
 _atom_site_fract_z
 _atom_site_occupancy
  Sr  Sr0  1  0.333333  0.666667  0.250000  1
  Ce  Ce1  1  0.666667  0.333333  0.750000  1
  Tc  Tc2  1  0.622655  0.706196  0.750000  1
  Tc  Tc3  1  0.394778  0.289679  0.250000  1
  Tc  Tc4  1  0.083541  0.377345  0.750000  1
  Tc  Tc5  1  0.894901  0.605222  0.250000  1
  Tc  Tc6  1  0.293804  0.916459  0.750000  1
  Tc  Tc7  1  0.710321  0.105099  0.250000  1
  O  O8  1  0.946576  0.444094  0.750000  1
  O  O9  1  0.028833  0.542299  0.250000  1
  O  O10  1  0.497520  0.053424  0.750000  1
  O  O11  1  0.513465  0.971167  0.250000  1
  O  O12  1  0.555906  0.502480  0.750000  1
  O  O13  1  0.457701  0.486535  0.250000  1
  O  O14  1  0.821504  0.812262  0.750000  1
  O  O15  1  0.196454  0.181197  0.250000  1
  O  O16  1  0.990758  0.178496  0.750000  1
  O  O17  1  0.984741  0.803546  0.250000  1
  O  O18  1  0.187738  0.009242  0.750000  1
  O  O19  1  0.818803  0.015259  0.250000  1
  O  O20  1  0.552383  0.755325  0.972520  1
  O  O21  1  0.470631  0.246767  0.022333  1
  O  O22  1  0.202943  0.447617  0.972520  1
  O  O23  1  0.470631  0.246767  0.477667  1
  O  O24  1  0.776137  0.529369  0.022333  1
  O  O25  1  0.552383  0.755325  0.527480  1
  O  O26  1  0.244675  0.797057  0.972520  1
  O  O27  1  0.776137  0.529369  0.477667  1
  O  O28  1  0.753233  0.223863  0.022333  1
  O  O29  1  0.202943  0.447617  0.527480  1
  O  O30  1  0.753233  0.223863  0.477667  1
  O  O31  1  0.244675  0.797057  0.527480  1
