# generated using pymatgen
data_NaSrSnPt2
_symmetry_space_group_name_H-M   'P 1'
_cell_length_a   5.85548783
_cell_length_b   5.85548794
_cell_length_c   8.22877284
_cell_angle_alpha   80.06732582
_cell_angle_beta   80.06732935
_cell_angle_gamma   61.88927530
_symmetry_Int_Tables_number   1
_chemical_formula_structural   NaSrSnPt2
_chemical_formula_sum   'Na2 Sr2 Sn2 Pt4'
_cell_volume   243.77161686
_cell_formula_units_Z   2
loop_
 _symmetry_equiv_pos_site_id
 _symmetry_equiv_pos_as_xyz
  1  'x, y, z'
loop_
 _atom_site_type_symbol
 _atom_site_label
 _atom_site_symmetry_multiplicity
 _atom_site_fract_x
 _atom_site_fract_y
 _atom_site_fract_z
 _atom_site_occupancy
  Na  Na0  1  0.778937  0.523817  0.837863  1
  Na  Na1  1  0.476183  0.221063  0.662137  1
  Sr  Sr2  1  0.221138  0.484992  0.134955  1
  Sr  Sr3  1  0.515008  0.778862  0.365045  1
  Sn  Sn4  1  0.110471  0.889529  0.750000  1
  Sn  Sn5  1  0.873781  0.126219  0.250000  1
  Pt  Pt6  1  0.011604  0.725246  0.496938  1
  Pt  Pt7  1  0.274754  0.988396  0.003062  1
  Pt  Pt8  1  0.007557  0.269432  0.496869  1
  Pt  Pt9  1  0.730568  0.992443  0.003131  1
