# generated using pymatgen
data_Ca11Pr8LuSn16
_symmetry_space_group_name_H-M   'P 1'
_cell_length_a   7.98405081
_cell_length_b   8.53818010
_cell_length_c   16.12133070
_cell_angle_alpha   90.08504591
_cell_angle_beta   90.02036040
_cell_angle_gamma   89.95222178
_symmetry_Int_Tables_number   1
_chemical_formula_structural   Ca11Pr8LuSn16
_chemical_formula_sum   'Ca11 Pr8 Lu1 Sn16'
_cell_volume   1098.97758272
_cell_formula_units_Z   1
loop_
 _symmetry_equiv_pos_site_id
 _symmetry_equiv_pos_as_xyz
  1  'x, y, z'
loop_
 _atom_site_type_symbol
 _atom_site_label
 _atom_site_symmetry_multiplicity
 _atom_site_fract_x
 _atom_site_fract_y
 _atom_site_fract_z
 _atom_site_occupancy
  Ca  Ca0  1  0.831788  0.672801  0.623781  1
  Ca  Ca1  1  0.667247  0.172960  0.376432  1
  Ca  Ca2  1  0.167131  0.327560  0.122204  1
  Ca  Ca3  1  0.667439  0.171840  0.122437  1
  Ca  Ca4  1  0.167333  0.327179  0.376540  1
  Ca  Ca5  1  0.332966  0.827501  0.623738  1
  Ca  Ca6  1  0.833199  0.673333  0.877938  1
  Ca  Ca7  1  0.161287  0.501437  0.749943  1
  Ca  Ca8  1  0.663763  0.998371  0.749727  1
  Ca  Ca9  1  0.838270  0.496869  0.250029  1
  Ca  Ca10  1  0.338270  0.002181  0.249403  1
  Pr  Pr11  1  0.494718  0.317349  0.904229  1
  Pr  Pr12  1  0.993406  0.185451  0.595949  1
  Pr  Pr13  1  0.506531  0.685629  0.403492  1
  Pr  Pr14  1  0.005573  0.813541  0.096664  1
  Pr  Pr15  1  0.506644  0.684839  0.095657  1
  Pr  Pr16  1  0.006421  0.814051  0.403786  1
  Pr  Pr17  1  0.493314  0.315373  0.596442  1
  Pr  Pr18  1  0.993732  0.185762  0.905389  1
  Lu  Lu19  1  0.334267  0.825753  0.875409  1
  Sn  Sn20  1  0.324818  0.031593  0.034475  1
  Sn  Sn21  1  0.828921  0.465627  0.461796  1
  Sn  Sn22  1  0.670778  0.966604  0.538672  1
  Sn  Sn23  1  0.177626  0.540161  0.959955  1
  Sn  Sn24  1  0.663550  0.963953  0.958855  1
  Sn  Sn25  1  0.170556  0.534337  0.538984  1
  Sn  Sn26  1  0.329764  0.034303  0.461739  1
  Sn  Sn27  1  0.829083  0.465406  0.038097  1
  Sn  Sn28  1  0.531438  0.606524  0.752338  1
  Sn  Sn29  1  0.038460  0.894450  0.754533  1
  Sn  Sn30  1  0.465601  0.397630  0.249408  1
  Sn  Sn31  1  0.965914  0.101302  0.249921  1
  Sn  Sn32  1  0.289875  0.139503  0.752573  1
  Sn  Sn33  1  0.787895  0.359068  0.750764  1
  Sn  Sn34  1  0.711326  0.857263  0.249346  1
  Sn  Sn35  1  0.211097  0.642498  0.249358  1
