# generated using pymatgen
data_Ba2CuSn4Au
_symmetry_space_group_name_H-M   'P 1'
_cell_length_a   10.20431708
_cell_length_b   10.20431742
_cell_length_c   4.79896600
_cell_angle_alpha   90.00000000
_cell_angle_beta   90.00000000
_cell_angle_gamma   152.21185589
_symmetry_Int_Tables_number   1
_chemical_formula_structural   Ba2CuSn4Au
_chemical_formula_sum   'Ba2 Cu1 Sn4 Au1'
_cell_volume   232.96527437
_cell_formula_units_Z   1
loop_
 _symmetry_equiv_pos_site_id
 _symmetry_equiv_pos_as_xyz
  1  'x, y, z'
loop_
 _atom_site_type_symbol
 _atom_site_label
 _atom_site_symmetry_multiplicity
 _atom_site_fract_x
 _atom_site_fract_y
 _atom_site_fract_z
 _atom_site_occupancy
  Ba  Ba0  1  0.390911  0.609089  0.250000  1
  Ba  Ba1  1  0.608915  0.391085  0.750000  1
  Cu  Cu2  1  0.178529  0.821471  0.250000  1
  Sn  Sn3  1  0.045080  0.954920  0.250000  1
  Sn  Sn4  1  0.961872  0.038128  0.750000  1
  Sn  Sn5  1  0.244813  0.755187  0.750000  1
  Sn  Sn6  1  0.746841  0.253159  0.250000  1
  Au  Au7  1  0.823040  0.176960  0.750000  1
