# generated using pymatgen
data_DyHo23Te12
_symmetry_space_group_name_H-M   'P 1'
_cell_length_a   4.04809600
_cell_length_b   11.48726002
_cell_length_c   22.12139904
_cell_angle_alpha   89.99335510
_cell_angle_beta   90.00000000
_cell_angle_gamma   90.00000000
_symmetry_Int_Tables_number   1
_chemical_formula_structural   DyHo23Te12
_chemical_formula_sum   'Dy1 Ho23 Te12'
_cell_volume   1028.67892359
_cell_formula_units_Z   1
loop_
 _symmetry_equiv_pos_site_id
 _symmetry_equiv_pos_as_xyz
  1  'x, y, z'
loop_
 _atom_site_type_symbol
 _atom_site_label
 _atom_site_symmetry_multiplicity
 _atom_site_fract_x
 _atom_site_fract_y
 _atom_site_fract_z
 _atom_site_occupancy
  Dy  Dy0  1  0.250000  0.887166  0.483085  1
  Ho  Ho1  1  0.250000  0.151535  0.391395  1
  Ho  Ho2  1  0.750000  0.848448  0.608623  1
  Ho  Ho3  1  0.750000  0.651579  0.108585  1
  Ho  Ho4  1  0.250000  0.348401  0.891402  1
  Ho  Ho5  1  0.250000  0.455613  0.339913  1
  Ho  Ho6  1  0.750000  0.544368  0.660091  1
  Ho  Ho7  1  0.750000  0.955616  0.160076  1
  Ho  Ho8  1  0.250000  0.044421  0.839925  1
  Ho  Ho9  1  0.250000  0.734660  0.233225  1
  Ho  Ho10  1  0.750000  0.265334  0.766780  1
  Ho  Ho11  1  0.750000  0.234610  0.266757  1
  Ho  Ho12  1  0.250000  0.765386  0.733250  1
  Ho  Ho13  1  0.250000  0.115786  0.034246  1
  Ho  Ho14  1  0.750000  0.884238  0.965756  1
  Ho  Ho15  1  0.750000  0.615758  0.465745  1
  Ho  Ho16  1  0.250000  0.384158  0.534245  1
  Ho  Ho17  1  0.250000  0.415172  0.146572  1
  Ho  Ho18  1  0.750000  0.584803  0.853439  1
  Ho  Ho19  1  0.750000  0.915191  0.353359  1
  Ho  Ho20  1  0.250000  0.084850  0.646566  1
  Ho  Ho21  1  0.250000  0.612897  0.983006  1
  Ho  Ho22  1  0.750000  0.387079  0.016985  1
  Ho  Ho23  1  0.750000  0.112993  0.517027  1
  Te  Te24  1  0.250000  0.850735  0.068863  1
  Te  Te25  1  0.750000  0.149283  0.931135  1
  Te  Te26  1  0.750000  0.350775  0.431152  1
  Te  Te27  1  0.250000  0.649213  0.568878  1
  Te  Te28  1  0.250000  0.711701  0.372604  1
  Te  Te29  1  0.750000  0.288216  0.627331  1
  Te  Te30  1  0.750000  0.211786  0.127340  1
  Te  Te31  1  0.250000  0.788223  0.872662  1
  Te  Te32  1  0.250000  0.020511  0.260777  1
  Te  Te33  1  0.750000  0.979485  0.739212  1
  Te  Te34  1  0.750000  0.520519  0.239205  1
  Te  Te35  1  0.250000  0.479493  0.760789  1
