# generated using pymatgen
data_Sm5GaTe4
_symmetry_space_group_name_H-M   'P 1'
_cell_length_a   7.66752582
_cell_length_b   7.66752547
_cell_length_c   10.83162309
_cell_angle_alpha   61.82737075
_cell_angle_beta   61.82737220
_cell_angle_gamma   33.40788868
_symmetry_Int_Tables_number   1
_chemical_formula_structural   Sm5GaTe4
_chemical_formula_sum   'Sm5 Ga1 Te4'
_cell_volume   305.06367185
_cell_formula_units_Z   1
loop_
 _symmetry_equiv_pos_site_id
 _symmetry_equiv_pos_as_xyz
  1  'x, y, z'
loop_
 _atom_site_type_symbol
 _atom_site_label
 _atom_site_symmetry_multiplicity
 _atom_site_fract_x
 _atom_site_fract_y
 _atom_site_fract_z
 _atom_site_occupancy
  Sm  Sm0  1  0.000000  0.000000  0.500000  1
  Sm  Sm1  1  0.587747  0.587747  0.091593  1
  Sm  Sm2  1  0.187637  0.187637  0.723373  1
  Sm  Sm3  1  0.812363  0.812363  0.276627  1
  Sm  Sm4  1  0.412253  0.412253  0.908407  1
  Ga  Ga5  1  0.000000  0.000000  0.000000  1
  Te  Te6  1  0.607268  0.607268  0.590874  1
  Te  Te7  1  0.195591  0.195591  0.196173  1
  Te  Te8  1  0.804409  0.804409  0.803827  1
  Te  Te9  1  0.392732  0.392732  0.409126  1
