# generated using pymatgen
data_Pr3Sn2HgPt3
_symmetry_space_group_name_H-M   'P 1'
_cell_length_a   7.76451323
_cell_length_b   7.87287447
_cell_length_c   4.05944900
_cell_angle_alpha   90.00000000
_cell_angle_beta   90.00000000
_cell_angle_gamma   120.46273598
_symmetry_Int_Tables_number   1
_chemical_formula_structural   Pr3Sn2HgPt3
_chemical_formula_sum   'Pr3 Sn2 Hg1 Pt3'
_cell_volume   213.89532627
_cell_formula_units_Z   1
loop_
 _symmetry_equiv_pos_site_id
 _symmetry_equiv_pos_as_xyz
  1  'x, y, z'
loop_
 _atom_site_type_symbol
 _atom_site_label
 _atom_site_symmetry_multiplicity
 _atom_site_fract_x
 _atom_site_fract_y
 _atom_site_fract_z
 _atom_site_occupancy
  Pr  Pr0  1  0.600486  0.593595  0.000000  1
  Pr  Pr1  1  0.399514  0.993109  0.000000  1
  Pr  Pr2  1  0.000000  0.418145  0.000000  1
  Sn  Sn3  1  0.252877  0.254483  0.500000  1
  Sn  Sn4  1  0.747123  0.001606  0.500000  1
  Hg  Hg5  1  0.000000  0.739464  0.500000  1
  Pt  Pt6  1  0.655620  0.319307  0.500000  1
  Pt  Pt7  1  0.000000  0.016604  0.000000  1
  Pt  Pt8  1  0.344380  0.663688  0.500000  1
