# generated using pymatgen
data_NdEuMnGa6
_symmetry_space_group_name_H-M   'P 1'
_cell_length_a   6.29075916
_cell_length_b   6.29075916
_cell_length_c   6.29075900
_cell_angle_alpha   59.99999559
_cell_angle_beta   59.99999559
_cell_angle_gamma   59.99999402
_symmetry_Int_Tables_number   1
_chemical_formula_structural   NdEuMnGa6
_chemical_formula_sum   'Nd1 Eu1 Mn1 Ga6'
_cell_volume   176.03301144
_cell_formula_units_Z   1
loop_
 _symmetry_equiv_pos_site_id
 _symmetry_equiv_pos_as_xyz
  1  'x, y, z'
loop_
 _atom_site_type_symbol
 _atom_site_label
 _atom_site_symmetry_multiplicity
 _atom_site_fract_x
 _atom_site_fract_y
 _atom_site_fract_z
 _atom_site_occupancy
  Nd  Nd0  1  0.250000  0.250000  0.250000  1
  Eu  Eu1  1  0.750000  0.750000  0.750000  1
  Mn  Mn2  1  0.500000  0.500000  0.500000  1
  Ga  Ga3  1  0.780686  0.780686  0.219314  1
  Ga  Ga4  1  0.219314  0.780686  0.219314  1
  Ga  Ga5  1  0.780686  0.219314  0.219314  1
  Ga  Ga6  1  0.219314  0.219314  0.780686  1
  Ga  Ga7  1  0.780686  0.219314  0.780686  1
  Ga  Ga8  1  0.219314  0.780686  0.780686  1
