# generated using pymatgen
data_Y3Ta5(Co4P3)4
_symmetry_space_group_name_H-M   'P 1'
_cell_length_a   12.01870600
_cell_length_b   12.05375271
_cell_length_c   3.66109200
_cell_angle_alpha   90.00000000
_cell_angle_beta   90.00000000
_cell_angle_gamma   119.90387152
_symmetry_Int_Tables_number   1
_chemical_formula_structural   Y3Ta5(Co4P3)4
_chemical_formula_sum   'Y3 Ta5 Co16 P12'
_cell_volume   459.77052898
_cell_formula_units_Z   1
loop_
 _symmetry_equiv_pos_site_id
 _symmetry_equiv_pos_as_xyz
  1  'x, y, z'
loop_
 _atom_site_type_symbol
 _atom_site_label
 _atom_site_symmetry_multiplicity
 _atom_site_fract_x
 _atom_site_fract_y
 _atom_site_fract_z
 _atom_site_occupancy
  Y  Y0  1  0.821737  0.000000  0.500000  1
  Y  Y1  1  0.333389  0.667643  0.000000  1
  Y  Y2  1  0.665747  0.332357  0.000000  1
  Ta  Ta3  1  0.999473  0.818705  0.500000  1
  Ta  Ta4  1  0.180768  0.181295  0.500000  1
  Ta  Ta5  1  0.442144  0.000000  0.000000  1
  Ta  Ta6  1  0.000811  0.446297  0.000000  1
  Ta  Ta7  1  0.554513  0.553703  0.000000  1
  Co  Co8  1  0.272251  0.000000  0.500000  1
  Co  Co9  1  0.006057  0.280105  0.500000  1
  Co  Co10  1  0.725952  0.719895  0.500000  1
  Co  Co11  1  0.629665  0.803437  0.000000  1
  Co  Co12  1  0.188962  0.823501  0.000000  1
  Co  Co13  1  0.176619  0.366338  0.000000  1
  Co  Co14  1  0.365461  0.176499  0.000000  1
  Co  Co15  1  0.810281  0.633662  0.000000  1
  Co  Co16  1  0.826228  0.196563  0.000000  1
  Co  Co17  1  0.517753  0.873948  0.500000  1
  Co  Co18  1  0.123859  0.647051  0.500000  1
  Co  Co19  1  0.353110  0.478582  0.500000  1
  Co  Co20  1  0.476809  0.352949  0.500000  1
  Co  Co21  1  0.874528  0.521418  0.500000  1
  Co  Co22  1  0.643805  0.126052  0.500000  1
  Co  Co23  1  0.005598  0.000000  0.000000  1
  P  P24  1  0.175393  0.000000  0.000000  1
  P  P25  1  0.005158  0.174773  0.000000  1
  P  P26  1  0.830386  0.825227  0.000000  1
  P  P27  1  0.523535  0.690058  0.500000  1
  P  P28  1  0.308851  0.833010  0.500000  1
  P  P29  1  0.168421  0.480719  0.500000  1
  P  P30  1  0.475842  0.166990  0.500000  1
  P  P31  1  0.687701  0.519281  0.500000  1
  P  P32  1  0.833477  0.309942  0.500000  1
  P  P33  1  0.644741  0.000000  0.000000  1
  P  P34  1  0.000277  0.649579  0.000000  1
  P  P35  1  0.350698  0.350421  0.000000  1
