# generated using pymatgen
data_Tb2Th3PPb3
_symmetry_space_group_name_H-M   'P 1'
_cell_length_a   9.48206900
_cell_length_b   9.48206683
_cell_length_c   6.73922000
_cell_angle_alpha   90.00000000
_cell_angle_beta   90.00000000
_cell_angle_gamma   119.99999709
_symmetry_Int_Tables_number   1
_chemical_formula_structural   Tb2Th3PPb3
_chemical_formula_sum   'Tb4 Th6 P2 Pb6'
_cell_volume   524.74269556
_cell_formula_units_Z   2
loop_
 _symmetry_equiv_pos_site_id
 _symmetry_equiv_pos_as_xyz
  1  'x, y, z'
loop_
 _atom_site_type_symbol
 _atom_site_label
 _atom_site_symmetry_multiplicity
 _atom_site_fract_x
 _atom_site_fract_y
 _atom_site_fract_z
 _atom_site_occupancy
  Tb  Tb0  1  0.666667  0.333333  0.500000  1
  Tb  Tb1  1  0.333333  0.666667  0.500000  1
  Tb  Tb2  1  0.333333  0.666667  0.000000  1
  Tb  Tb3  1  0.666667  0.333333  0.000000  1
  Th  Th4  1  0.758205  0.758205  0.250000  1
  Th  Th5  1  0.241795  0.000000  0.250000  1
  Th  Th6  1  0.000000  0.241795  0.250000  1
  Th  Th7  1  0.241795  0.241795  0.750000  1
  Th  Th8  1  0.758205  0.000000  0.750000  1
  Th  Th9  1  0.000000  0.758205  0.750000  1
  P  P10  1  0.000000  0.000000  0.500000  1
  P  P11  1  0.000000  0.000000  0.000000  1
  Pb  Pb12  1  0.399896  0.399896  0.250000  1
  Pb  Pb13  1  0.600104  0.000000  0.250000  1
  Pb  Pb14  1  0.000000  0.600104  0.250000  1
  Pb  Pb15  1  0.600104  0.600104  0.750000  1
  Pb  Pb16  1  0.399896  0.000000  0.750000  1
  Pb  Pb17  1  0.000000  0.399896  0.750000  1
