# generated using pymatgen
data_Y2NbCr2Co9As7
_symmetry_space_group_name_H-M   'P 1'
_cell_length_a   3.78429700
_cell_length_b   9.48390058
_cell_length_c   9.47589857
_cell_angle_alpha   119.78549414
_cell_angle_beta   90.00000000
_cell_angle_gamma   90.00000000
_symmetry_Int_Tables_number   1
_chemical_formula_structural   Y2NbCr2Co9As7
_chemical_formula_sum   'Y2 Nb1 Cr2 Co9 As7'
_cell_volume   295.16028268
_cell_formula_units_Z   1
loop_
 _symmetry_equiv_pos_site_id
 _symmetry_equiv_pos_as_xyz
  1  'x, y, z'
loop_
 _atom_site_type_symbol
 _atom_site_label
 _atom_site_symmetry_multiplicity
 _atom_site_fract_x
 _atom_site_fract_y
 _atom_site_fract_z
 _atom_site_occupancy
  Y  Y0  1  0.000000  0.665546  0.330792  1
  Y  Y1  1  0.500000  0.332271  0.665009  1
  Nb  Nb2  1  0.500000  0.102367  0.883332  1
  Cr  Cr3  1  0.500000  0.774708  0.890297  1
  Cr  Cr4  1  0.500000  0.123513  0.224389  1
  Co  Co5  1  0.000000  0.573366  0.939633  1
  Co  Co6  1  0.000000  0.368543  0.427845  1
  Co  Co7  1  0.000000  0.061062  0.630678  1
  Co  Co8  1  0.000000  0.878730  0.162402  1
  Co  Co9  1  0.000000  0.280173  0.124665  1
  Co  Co10  1  0.000000  0.838454  0.719529  1
  Co  Co11  1  0.500000  0.949528  0.383081  1
  Co  Co12  1  0.500000  0.438025  0.054147  1
  Co  Co13  1  0.500000  0.614046  0.565227  1
  As  As14  1  0.000000  0.994476  0.004560  1
  As  As15  1  0.500000  0.710944  0.118227  1
  As  As16  1  0.500000  0.412026  0.291871  1
  As  As17  1  0.500000  0.877455  0.584700  1
  As  As18  1  0.000000  0.584426  0.698492  1
  As  As19  1  0.000000  0.113178  0.413739  1
  As  As20  1  0.000000  0.307166  0.887384  1
