# generated using pymatgen
data_Ce2NpOs3
_symmetry_space_group_name_H-M   'P 1'
_cell_length_a   5.30631313
_cell_length_b   5.30631291
_cell_length_c   5.30631490
_cell_angle_alpha   65.89274803
_cell_angle_beta   65.89275299
_cell_angle_gamma   65.89274643
_symmetry_Int_Tables_number   1
_chemical_formula_structural   Ce2NpOs3
_chemical_formula_sum   'Ce2 Np1 Os3'
_cell_volume   119.13454575
_cell_formula_units_Z   1
loop_
 _symmetry_equiv_pos_site_id
 _symmetry_equiv_pos_as_xyz
  1  'x, y, z'
loop_
 _atom_site_type_symbol
 _atom_site_label
 _atom_site_symmetry_multiplicity
 _atom_site_fract_x
 _atom_site_fract_y
 _atom_site_fract_z
 _atom_site_occupancy
  Ce  Ce0  1  0.620533  0.620533  0.620533  1
  Ce  Ce1  1  0.379467  0.379467  0.379467  1
  Np  Np2  1  0.000000  0.000000  0.000000  1
  Os  Os3  1  0.000000  0.500000  0.000000  1
  Os  Os4  1  0.500000  0.000000  0.000000  1
  Os  Os5  1  0.000000  0.000000  0.500000  1
