# generated using pymatgen
data_Cs8Sb(OsBr8)3
_symmetry_space_group_name_H-M   'P 1'
_cell_length_a   13.61594700
_cell_length_b   13.61594668
_cell_length_c   13.61720652
_cell_angle_alpha   131.41743857
_cell_angle_beta   131.41743538
_cell_angle_gamma   71.14843254
_symmetry_Int_Tables_number   1
_chemical_formula_structural   Cs8Sb(OsBr8)3
_chemical_formula_sum   'Cs8 Sb1 Os3 Br24'
_cell_volume   1389.96905672
_cell_formula_units_Z   1
loop_
 _symmetry_equiv_pos_site_id
 _symmetry_equiv_pos_as_xyz
  1  'x, y, z'
loop_
 _atom_site_type_symbol
 _atom_site_label
 _atom_site_symmetry_multiplicity
 _atom_site_fract_x
 _atom_site_fract_y
 _atom_site_fract_z
 _atom_site_occupancy
  Cs  Cs0  1  0.120094  0.633921  0.998868  1
  Cs  Cs1  1  0.366079  0.879906  0.001132  1
  Cs  Cs2  1  0.635052  0.633922  0.513827  1
  Cs  Cs3  1  0.366078  0.364948  0.486173  1
  Cs  Cs4  1  0.878775  0.364948  0.998869  1
  Cs  Cs5  1  0.878776  0.879906  0.513827  1
  Cs  Cs6  1  0.120094  0.121224  0.486173  1
  Cs  Cs7  1  0.635052  0.121225  0.001131  1
  Sb  Sb8  1  0.000000  0.000000  0.000000  1
  Os  Os9  1  0.750000  0.250000  0.500000  1
  Os  Os10  1  0.500000  0.500000  0.000000  1
  Os  Os11  1  0.250000  0.750000  0.500000  1
  Br  Br12  1  0.252347  0.999773  0.252573  1
  Br  Br13  1  0.000227  0.747653  0.747427  1
  Br  Br14  1  0.251096  0.975176  0.724073  1
  Br  Br15  1  0.748968  0.473221  0.724248  1
  Br  Br16  1  0.472976  0.748897  0.724072  1
  Br  Br17  1  0.127279  0.127280  0.999999  1
  Br  Br18  1  0.499893  0.723629  0.223732  1
  Br  Br19  1  0.862848  0.362848  0.499996  1
  Br  Br20  1  0.000226  0.252801  0.252573  1
  Br  Br21  1  0.386538  0.386538  0.000002  1
  Br  Br22  1  0.613462  0.613462  0.999998  1
  Br  Br23  1  0.499897  0.276160  0.776269  1
  Br  Br24  1  0.276371  0.500107  0.776268  1
  Br  Br25  1  0.526779  0.251032  0.275752  1
  Br  Br26  1  0.363168  0.863168  0.500001  1
  Br  Br27  1  0.637152  0.137152  0.500004  1
  Br  Br28  1  0.251103  0.527024  0.275928  1
  Br  Br29  1  0.136832  0.636832  0.499999  1
  Br  Br30  1  0.024824  0.748904  0.275927  1
  Br  Br31  1  0.975282  0.251028  0.724249  1
  Br  Br32  1  0.747199  0.999774  0.747427  1
  Br  Br33  1  0.723840  0.500103  0.223731  1
  Br  Br34  1  0.748972  0.024718  0.275751  1
  Br  Br35  1  0.872720  0.872721  0.000001  1
