# generated using pymatgen
data_CsPuTeO6
_symmetry_space_group_name_H-M   'P 1'
_cell_length_a   7.68093802
_cell_length_b   7.68093781
_cell_length_c   7.68093731
_cell_angle_alpha   118.94953298
_cell_angle_beta   121.97183054
_cell_angle_gamma   89.22412048
_symmetry_Int_Tables_number   1
_chemical_formula_structural   CsPuTeO6
_chemical_formula_sum   'Cs2 Pu2 Te2 O12'
_cell_volume   317.88177342
_cell_formula_units_Z   2
loop_
 _symmetry_equiv_pos_site_id
 _symmetry_equiv_pos_as_xyz
  1  'x, y, z'
loop_
 _atom_site_type_symbol
 _atom_site_label
 _atom_site_symmetry_multiplicity
 _atom_site_fract_x
 _atom_site_fract_y
 _atom_site_fract_z
 _atom_site_occupancy
  Cs  Cs0  1  0.376721  0.626721  0.750000  1
  Cs  Cs1  1  0.623279  0.373279  0.250000  1
  Pu  Pu2  1  0.000000  0.000000  0.500000  1
  Pu  Pu3  1  0.000000  0.500000  0.000000  1
  Te  Te4  1  0.000000  0.000000  0.000000  1
  Te  Te5  1  0.500000  0.000000  0.500000  1
  O  O6  1  0.314257  0.064257  0.250000  1
  O  O7  1  0.932119  0.682119  0.250000  1
  O  O8  1  0.331054  0.700538  0.271385  1
  O  O9  1  0.929153  0.059670  0.228615  1
  O  O10  1  0.331054  0.059670  0.630517  1
  O  O11  1  0.929153  0.700538  0.869483  1
  O  O12  1  0.685743  0.935743  0.750000  1
  O  O13  1  0.067881  0.317881  0.750000  1
  O  O14  1  0.668946  0.299462  0.728615  1
  O  O15  1  0.070847  0.940330  0.771385  1
  O  O16  1  0.668946  0.940330  0.369483  1
  O  O17  1  0.070847  0.299462  0.130517  1
