# generated using pymatgen
data_Er5(RhO6)2
_symmetry_space_group_name_H-M   'P 1'
_cell_length_a   6.79737781
_cell_length_b   6.79737871
_cell_length_c   7.21889963
_cell_angle_alpha   74.49782134
_cell_angle_beta   74.49782064
_cell_angle_gamma   51.29759353
_symmetry_Int_Tables_number   1
_chemical_formula_structural   Er5(RhO6)2
_chemical_formula_sum   'Er5 Rh2 O12'
_cell_volume   248.59545655
_cell_formula_units_Z   1
loop_
 _symmetry_equiv_pos_site_id
 _symmetry_equiv_pos_as_xyz
  1  'x, y, z'
loop_
 _atom_site_type_symbol
 _atom_site_label
 _atom_site_symmetry_multiplicity
 _atom_site_fract_x
 _atom_site_fract_y
 _atom_site_fract_z
 _atom_site_occupancy
  Er  Er0  1  0.301676  0.301676  0.360528  1
  Er  Er1  1  0.698324  0.698324  0.639472  1
  Er  Er2  1  0.309443  0.309443  0.828093  1
  Er  Er3  1  0.690557  0.690557  0.171907  1
  Er  Er4  1  0.000000  0.000000  0.500000  1
  Rh  Rh5  1  0.753249  0.246751  0.000000  1
  Rh  Rh6  1  0.246751  0.753249  0.000000  1
  O  O7  1  0.901683  0.433284  0.914633  1
  O  O8  1  0.433284  0.901683  0.914633  1
  O  O9  1  0.098317  0.566716  0.085367  1
  O  O10  1  0.566716  0.098317  0.085367  1
  O  O11  1  0.097063  0.598349  0.573057  1
  O  O12  1  0.598349  0.097063  0.573057  1
  O  O13  1  0.902937  0.401651  0.426943  1
  O  O14  1  0.401651  0.902937  0.426943  1
  O  O15  1  0.000555  0.000555  0.814595  1
  O  O16  1  0.999445  0.999445  0.185405  1
  O  O17  1  0.500214  0.500214  0.806679  1
  O  O18  1  0.499786  0.499786  0.193321  1
