# generated using pymatgen
data_Tb5Nd5Bi6
_symmetry_space_group_name_H-M   'P 1'
_cell_length_a   6.52201400
_cell_length_b   9.35212899
_cell_length_c   9.36549854
_cell_angle_alpha   119.95278882
_cell_angle_beta   90.00012254
_cell_angle_gamma   89.99975543
_symmetry_Int_Tables_number   1
_chemical_formula_structural   Tb5Nd5Bi6
_chemical_formula_sum   'Tb5 Nd5 Bi6'
_cell_volume   494.94866634
_cell_formula_units_Z   1
loop_
 _symmetry_equiv_pos_site_id
 _symmetry_equiv_pos_as_xyz
  1  'x, y, z'
loop_
 _atom_site_type_symbol
 _atom_site_label
 _atom_site_symmetry_multiplicity
 _atom_site_fract_x
 _atom_site_fract_y
 _atom_site_fract_z
 _atom_site_occupancy
  Tb  Tb0  1  0.500087  0.333196  0.665503  1
  Tb  Tb1  1  0.500087  0.667693  0.334497  1
  Tb  Tb2  1  0.999911  0.667691  0.334495  1
  Tb  Tb3  1  0.999911  0.333196  0.665505  1
  Tb  Tb4  1  0.749999  0.247924  0.000000  1
  Nd  Nd5  1  0.750003  0.753973  0.754766  1
  Nd  Nd6  1  0.750003  0.999208  0.245234  1
  Nd  Nd7  1  0.250001  0.751516  0.000000  1
  Nd  Nd8  1  0.249999  0.245472  0.244401  1
  Nd  Nd9  1  0.249999  0.001070  0.755599  1
  Bi  Bi10  1  0.749998  0.604537  0.000000  1
  Bi  Bi11  1  0.749999  0.390415  0.387645  1
  Bi  Bi12  1  0.749999  0.002770  0.612355  1
  Bi  Bi13  1  0.250000  0.392086  0.000000  1
  Bi  Bi14  1  0.250000  0.608461  0.607670  1
  Bi  Bi15  1  0.250000  0.000791  0.392330  1
