# generated using pymatgen
data_Tb9Y7MgCo4Hg3
_symmetry_space_group_name_H-M   'P 1'
_cell_length_a   9.53343661
_cell_length_b   9.52197797
_cell_length_c   9.51210800
_cell_angle_alpha   60.03428276
_cell_angle_beta   60.07397982
_cell_angle_gamma   60.17847965
_symmetry_Int_Tables_number   1
_chemical_formula_structural   Tb9Y7MgCo4Hg3
_chemical_formula_sum   'Tb9 Y7 Mg1 Co4 Hg3'
_cell_volume   611.89445785
_cell_formula_units_Z   1
loop_
 _symmetry_equiv_pos_site_id
 _symmetry_equiv_pos_as_xyz
  1  'x, y, z'
loop_
 _atom_site_type_symbol
 _atom_site_label
 _atom_site_symmetry_multiplicity
 _atom_site_fract_x
 _atom_site_fract_y
 _atom_site_fract_z
 _atom_site_occupancy
  Tb  Tb0  1  0.347176  0.344963  0.344858  1
  Tb  Tb1  1  0.347176  0.344963  0.963002  1
  Tb  Tb2  1  0.347573  0.962074  0.345176  1
  Tb  Tb3  1  0.952385  0.349911  0.348852  1
  Tb  Tb4  1  0.808746  0.189439  0.190754  1
  Tb  Tb5  1  0.185330  0.812545  0.813828  1
  Tb  Tb6  1  0.185330  0.812545  0.188297  1
  Tb  Tb7  1  0.808746  0.189439  0.811061  1
  Tb  Tb8  1  0.186018  0.187661  0.813160  1
  Y  Y9  1  0.808799  0.810451  0.190376  1
  Y  Y10  1  0.937959  0.561420  0.562153  1
  Y  Y11  1  0.561090  0.938395  0.937680  1
  Y  Y12  1  0.561090  0.938395  0.562836  1
  Y  Y13  1  0.937959  0.561420  0.938469  1
  Y  Y14  1  0.561302  0.562555  0.938072  1
  Y  Y15  1  0.937112  0.939358  0.561766  1
  Mg  Mg16  1  0.285711  0.571194  0.571548  1
  Co  Co17  1  0.138520  0.142608  0.141349  1
  Co  Co18  1  0.138520  0.142608  0.577523  1
  Co  Co19  1  0.140850  0.576733  0.141208  1
  Co  Co20  1  0.576286  0.143473  0.140120  1
  Hg  Hg21  1  0.582104  0.585758  0.585101  1
  Hg  Hg22  1  0.582104  0.585758  0.247038  1
  Hg  Hg23  1  0.582111  0.246336  0.585777  1
