# generated using pymatgen
data_Dy9Tm(IrPt2)2
_symmetry_space_group_name_H-M   'P 1'
_cell_length_a   11.06862600
_cell_length_b   11.06862600
_cell_length_c   6.32305700
_cell_angle_alpha   90.00000000
_cell_angle_beta   90.00000000
_cell_angle_gamma   90.00000000
_symmetry_Int_Tables_number   1
_chemical_formula_structural   Dy9Tm(IrPt2)2
_chemical_formula_sum   'Dy18 Tm2 Ir4 Pt8'
_cell_volume   774.66605003
_cell_formula_units_Z   2
loop_
 _symmetry_equiv_pos_site_id
 _symmetry_equiv_pos_as_xyz
  1  'x, y, z'
loop_
 _atom_site_type_symbol
 _atom_site_label
 _atom_site_symmetry_multiplicity
 _atom_site_fract_x
 _atom_site_fract_y
 _atom_site_fract_z
 _atom_site_occupancy
  Dy  Dy0  1  0.294065  0.087496  0.375040  1
  Dy  Dy1  1  0.294065  0.912504  0.875040  1
  Dy  Dy2  1  0.705935  0.087496  0.875040  1
  Dy  Dy3  1  0.705935  0.912504  0.375040  1
  Dy  Dy4  1  0.587656  0.794804  0.874519  1
  Dy  Dy5  1  0.587656  0.205196  0.374519  1
  Dy  Dy6  1  0.412344  0.794804  0.374519  1
  Dy  Dy7  1  0.412344  0.205196  0.874519  1
  Dy  Dy8  1  0.205196  0.412344  0.625481  1
  Dy  Dy9  1  0.205196  0.587656  0.125481  1
  Dy  Dy10  1  0.794804  0.412344  0.125481  1
  Dy  Dy11  1  0.794804  0.587656  0.625481  1
  Dy  Dy12  1  0.912504  0.705935  0.124960  1
  Dy  Dy13  1  0.912504  0.294065  0.624960  1
  Dy  Dy14  1  0.087496  0.705935  0.624960  1
  Dy  Dy15  1  0.087496  0.294065  0.124960  1
  Dy  Dy16  1  0.500000  0.500000  0.000000  1
  Dy  Dy17  1  0.500000  0.500000  0.500000  1
  Tm  Tm18  1  0.000000  0.000000  0.500000  1
  Tm  Tm19  1  0.000000  0.000000  0.000000  1
  Ir  Ir20  1  0.500000  0.000000  0.121189  1
  Ir  Ir21  1  0.500000  0.000000  0.621189  1
  Ir  Ir22  1  0.000000  0.500000  0.878811  1
  Ir  Ir23  1  0.000000  0.500000  0.378811  1
  Pt  Pt24  1  0.848100  0.151900  0.250000  1
  Pt  Pt25  1  0.848100  0.848100  0.750000  1
  Pt  Pt26  1  0.151900  0.151900  0.750000  1
  Pt  Pt27  1  0.151900  0.848100  0.250000  1
  Pt  Pt28  1  0.653718  0.346282  0.750000  1
  Pt  Pt29  1  0.653718  0.653718  0.250000  1
  Pt  Pt30  1  0.346282  0.346282  0.250000  1
  Pt  Pt31  1  0.346282  0.653718  0.750000  1
