# generated using pymatgen
data_NdPuF7
_symmetry_space_group_name_H-M   'P 1'
_cell_length_a   6.08035800
_cell_length_b   6.40596836
_cell_length_c   8.69246014
_cell_angle_alpha   103.04656095
_cell_angle_beta   90.00000000
_cell_angle_gamma   90.00000000
_symmetry_Int_Tables_number   1
_chemical_formula_structural   NdPuF7
_chemical_formula_sum   'Nd2 Pu2 F14'
_cell_volume   329.83668015
_cell_formula_units_Z   2
loop_
 _symmetry_equiv_pos_site_id
 _symmetry_equiv_pos_as_xyz
  1  'x, y, z'
loop_
 _atom_site_type_symbol
 _atom_site_label
 _atom_site_symmetry_multiplicity
 _atom_site_fract_x
 _atom_site_fract_y
 _atom_site_fract_z
 _atom_site_occupancy
  Nd  Nd0  1  0.700735  0.654481  0.686384  1
  Nd  Nd1  1  0.200735  0.345519  0.313616  1
  Pu  Pu2  1  0.706516  0.811341  0.226214  1
  Pu  Pu3  1  0.206516  0.188659  0.773786  1
  F  F4  1  0.913377  0.473592  0.482250  1
  F  F5  1  0.413377  0.526408  0.517750  1
  F  F6  1  0.432086  0.925881  0.764714  1
  F  F7  1  0.932086  0.074119  0.235286  1
  F  F8  1  0.946988  0.951097  0.758012  1
  F  F9  1  0.446988  0.048903  0.241987  1
  F  F10  1  0.981712  0.454928  0.789816  1
  F  F11  1  0.481712  0.545072  0.210184  1
  F  F12  1  0.698809  0.761389  0.973949  1
  F  F13  1  0.198809  0.238611  0.026051  1
  F  F14  1  0.702013  0.865239  0.479790  1
  F  F15  1  0.202013  0.134761  0.520210  1
  F  F16  1  0.494124  0.393514  0.787759  1
  F  F17  1  0.994124  0.606486  0.212241  1
