# generated using pymatgen
data_NdDy11(SiAu)12
_symmetry_space_group_name_H-M   'P 1'
_cell_length_a   4.33151300
_cell_length_b   7.52988106
_cell_length_c   22.38772900
_cell_angle_alpha   89.99291591
_cell_angle_beta   90.00000000
_cell_angle_gamma   90.00000000
_symmetry_Int_Tables_number   1
_chemical_formula_structural   NdDy11(SiAu)12
_chemical_formula_sum   'Nd1 Dy11 Si12 Au12'
_cell_volume   730.19318645
_cell_formula_units_Z   1
loop_
 _symmetry_equiv_pos_site_id
 _symmetry_equiv_pos_as_xyz
  1  'x, y, z'
loop_
 _atom_site_type_symbol
 _atom_site_label
 _atom_site_symmetry_multiplicity
 _atom_site_fract_x
 _atom_site_fract_y
 _atom_site_fract_z
 _atom_site_occupancy
  Nd  Nd0  1  0.250000  0.771952  0.497470  1
  Dy  Dy1  1  0.250000  0.724613  0.329765  1
  Dy  Dy2  1  0.750000  0.261809  0.668321  1
  Dy  Dy3  1  0.750000  0.218440  0.164695  1
  Dy  Dy4  1  0.250000  0.767512  0.836113  1
  Dy  Dy5  1  0.250000  0.780849  0.165737  1
  Dy  Dy6  1  0.750000  0.233163  0.835303  1
  Dy  Dy7  1  0.750000  0.270597  0.330261  1
  Dy  Dy8  1  0.250000  0.737000  0.669683  1
  Dy  Dy9  1  0.250000  0.724510  0.000192  1
  Dy  Dy10  1  0.750000  0.273969  0.002466  1
  Dy  Dy11  1  0.750000  0.226462  0.500452  1
  Si  Si12  1  0.250000  0.089059  0.077322  1
  Si  Si13  1  0.750000  0.912581  0.929656  1
  Si  Si14  1  0.750000  0.584862  0.410096  1
  Si  Si15  1  0.250000  0.413689  0.574128  1
  Si  Si16  1  0.250000  0.089169  0.248991  1
  Si  Si17  1  0.750000  0.914413  0.757956  1
  Si  Si18  1  0.750000  0.588982  0.236872  1
  Si  Si19  1  0.250000  0.412118  0.752994  1
  Si  Si20  1  0.250000  0.089059  0.409122  1
  Si  Si21  1  0.750000  0.913105  0.584481  1
  Si  Si22  1  0.750000  0.589750  0.098257  1
  Si  Si23  1  0.250000  0.411364  0.914035  1
  Au  Au24  1  0.250000  0.420263  0.238073  1
  Au  Au25  1  0.750000  0.581066  0.757463  1
  Au  Au26  1  0.750000  0.919130  0.259078  1
  Au  Au27  1  0.250000  0.080360  0.743360  1
  Au  Au28  1  0.250000  0.416552  0.425078  1
  Au  Au29  1  0.750000  0.579779  0.585764  1
  Au  Au30  1  0.750000  0.915944  0.069401  1
  Au  Au31  1  0.250000  0.081054  0.926907  1
  Au  Au32  1  0.250000  0.422545  0.092855  1
  Au  Au33  1  0.750000  0.580642  0.911494  1
  Au  Au34  1  0.750000  0.920627  0.400034  1
  Au  Au35  1  0.250000  0.083014  0.596130  1
