# generated using pymatgen
data_LaLu5(BiO7)2
_symmetry_space_group_name_H-M   'P 1'
_cell_length_a   6.49738354
_cell_length_b   6.48146068
_cell_length_c   7.61508500
_cell_angle_alpha   107.04530310
_cell_angle_beta   89.85246993
_cell_angle_gamma   99.12700504
_symmetry_Int_Tables_number   1
_chemical_formula_structural   LaLu5(BiO7)2
_chemical_formula_sum   'La1 Lu5 Bi2 O14'
_cell_volume   302.39392775
_cell_formula_units_Z   1
loop_
 _symmetry_equiv_pos_site_id
 _symmetry_equiv_pos_as_xyz
  1  'x, y, z'
loop_
 _atom_site_type_symbol
 _atom_site_label
 _atom_site_symmetry_multiplicity
 _atom_site_fract_x
 _atom_site_fract_y
 _atom_site_fract_z
 _atom_site_occupancy
  La  La0  1  0.255759  0.518581  0.381460  1
  Lu  Lu1  1  0.467857  0.007654  0.250113  1
  Lu  Lu2  1  0.536858  0.992468  0.749905  1
  Lu  Lu3  1  0.277685  0.539257  0.883384  1
  Lu  Lu4  1  0.725593  0.463444  0.113420  1
  Lu  Lu5  1  0.725433  0.469228  0.616877  1
  Bi  Bi6  1  0.996974  0.002301  0.502332  1
  Bi  Bi7  1  0.999519  0.996996  0.998281  1
  O  O8  1  0.460945  0.657386  0.155661  1
  O  O9  1  0.551486  0.344769  0.832197  1
  O  O10  1  0.304053  0.919287  0.949083  1
  O  O11  1  0.697141  0.082539  0.048836  1
  O  O12  1  0.302043  0.935740  0.519533  1
  O  O13  1  0.695096  0.076564  0.489222  1
  O  O14  1  0.556983  0.360038  0.343570  1
  O  O15  1  0.464114  0.638730  0.667289  1
  O  O16  1  0.926481  0.660885  0.962243  1
  O  O17  1  0.078514  0.335601  0.036646  1
  O  O18  1  0.061315  0.356356  0.629692  1
  O  O19  1  0.915961  0.655404  0.372419  1
  O  O20  1  0.866236  0.893390  0.723087  1
  O  O21  1  0.133953  0.093384  0.274753  1
