# generated using pymatgen
data_Tb2Hg(SeO5)2
_symmetry_space_group_name_H-M   'P 1'
_cell_length_a   6.03077414
_cell_length_b   6.19553091
_cell_length_c   6.56186800
_cell_angle_alpha   103.15389793
_cell_angle_beta   77.85743093
_cell_angle_gamma   106.85013690
_symmetry_Int_Tables_number   1
_chemical_formula_structural   Tb2Hg(SeO5)2
_chemical_formula_sum   'Tb2 Hg1 Se2 O10'
_cell_volume   225.73493395
_cell_formula_units_Z   1
loop_
 _symmetry_equiv_pos_site_id
 _symmetry_equiv_pos_as_xyz
  1  'x, y, z'
loop_
 _atom_site_type_symbol
 _atom_site_label
 _atom_site_symmetry_multiplicity
 _atom_site_fract_x
 _atom_site_fract_y
 _atom_site_fract_z
 _atom_site_occupancy
  Tb  Tb0  1  0.188969  0.805192  0.402090  1
  Tb  Tb1  1  0.811031  0.194808  0.597910  1
  Hg  Hg2  1  0.000000  0.000000  0.000000  1
  Se  Se3  1  0.374124  0.646847  0.769583  1
  Se  Se4  1  0.625876  0.353153  0.230417  1
  O  O5  1  0.484481  0.872162  0.639700  1
  O  O6  1  0.515519  0.127838  0.360300  1
  O  O7  1  0.127122  0.524388  0.657488  1
  O  O8  1  0.872878  0.475612  0.342512  1
  O  O9  1  0.552475  0.482498  0.737509  1
  O  O10  1  0.447525  0.517502  0.262491  1
  O  O11  1  0.295769  0.747614  0.022183  1
  O  O12  1  0.704231  0.252386  0.977817  1
  O  O13  1  0.985383  0.006027  0.311013  1
  O  O14  1  0.014617  0.993973  0.688987  1
