# generated using pymatgen
data_Sm4Re3Tc2Os3
_symmetry_space_group_name_H-M   'P 1'
_cell_length_a   5.44256413
_cell_length_b   5.36314786
_cell_length_c   9.23746500
_cell_angle_alpha   90.00000000
_cell_angle_beta   90.00000000
_cell_angle_gamma   122.12900843
_symmetry_Int_Tables_number   1
_chemical_formula_structural   Sm4Re3Tc2Os3
_chemical_formula_sum   'Sm4 Re3 Tc2 Os3'
_cell_volume   228.34107638
_cell_formula_units_Z   1
loop_
 _symmetry_equiv_pos_site_id
 _symmetry_equiv_pos_as_xyz
  1  'x, y, z'
loop_
 _atom_site_type_symbol
 _atom_site_label
 _atom_site_symmetry_multiplicity
 _atom_site_fract_x
 _atom_site_fract_y
 _atom_site_fract_z
 _atom_site_occupancy
  Sm  Sm0  1  0.333308  0.668553  0.436790  1
  Sm  Sm1  1  0.668909  0.334477  0.561518  1
  Sm  Sm2  1  0.668909  0.334477  0.938482  1
  Sm  Sm3  1  0.333308  0.668553  0.063210  1
  Re  Re4  1  0.162143  0.316428  0.750000  1
  Re  Re5  1  0.335602  0.177533  0.250000  1
  Re  Re6  1  0.828994  0.675499  0.250000  1
  Tc  Tc7  1  0.174148  0.818262  0.750000  1
  Tc  Tc8  1  0.657085  0.821285  0.750000  1
  Os  Os9  1  0.007718  0.001874  0.001661  1
  Os  Os10  1  0.822157  0.181184  0.250000  1
  Os  Os11  1  0.007718  0.001874  0.498339  1
