# generated using pymatgen
data_Tb2Y2Al4RuPt3
_symmetry_space_group_name_H-M   'P 1'
_cell_length_a   4.38068400
_cell_length_b   6.88787976
_cell_length_c   7.85422235
_cell_angle_alpha   89.92382978
_cell_angle_beta   90.00000000
_cell_angle_gamma   90.00000000
_symmetry_Int_Tables_number   1
_chemical_formula_structural   Tb2Y2Al4RuPt3
_chemical_formula_sum   'Tb2 Y2 Al4 Ru1 Pt3'
_cell_volume   236.99014758
_cell_formula_units_Z   1
loop_
 _symmetry_equiv_pos_site_id
 _symmetry_equiv_pos_as_xyz
  1  'x, y, z'
loop_
 _atom_site_type_symbol
 _atom_site_label
 _atom_site_symmetry_multiplicity
 _atom_site_fract_x
 _atom_site_fract_y
 _atom_site_fract_z
 _atom_site_occupancy
  Tb  Tb0  1  0.250000  0.031713  0.677930  1
  Tb  Tb1  1  0.750000  0.979071  0.318747  1
  Y  Y2  1  0.250000  0.528979  0.818296  1
  Y  Y3  1  0.750000  0.469801  0.186246  1
  Al  Al4  1  0.250000  0.147552  0.063735  1
  Al  Al5  1  0.250000  0.638865  0.435035  1
  Al  Al6  1  0.750000  0.854915  0.936238  1
  Al  Al7  1  0.750000  0.354544  0.562104  1
  Ru  Ru8  1  0.250000  0.265097  0.385225  1
  Pt  Pt9  1  0.250000  0.775261  0.116204  1
  Pt  Pt10  1  0.750000  0.727383  0.617464  1
  Pt  Pt11  1  0.750000  0.226821  0.882775  1
