# generated using pymatgen
data_Ta4TcMo2Rh
_symmetry_space_group_name_H-M   'P 1'
_cell_length_a   6.41237900
_cell_length_b   6.41178400
_cell_length_c   6.44231600
_cell_angle_alpha   90.00012481
_cell_angle_beta   89.99819035
_cell_angle_gamma   90.00021446
_symmetry_Int_Tables_number   1
_chemical_formula_structural   Ta4TcMo2Rh
_chemical_formula_sum   'Ta8 Tc2 Mo4 Rh2'
_cell_volume   264.87446342
_cell_formula_units_Z   2
loop_
 _symmetry_equiv_pos_site_id
 _symmetry_equiv_pos_as_xyz
  1  'x, y, z'
loop_
 _atom_site_type_symbol
 _atom_site_label
 _atom_site_symmetry_multiplicity
 _atom_site_fract_x
 _atom_site_fract_y
 _atom_site_fract_z
 _atom_site_occupancy
  Ta  Ta0  1  0.999902  0.500017  0.254076  1
  Ta  Ta1  1  0.999889  0.000002  0.254079  1
  Ta  Ta2  1  0.499906  0.499981  0.254092  1
  Ta  Ta3  1  0.499894  0.999996  0.254091  1
  Ta  Ta4  1  0.500095  0.500018  0.745908  1
  Ta  Ta5  1  0.500107  0.000004  0.745909  1
  Ta  Ta6  1  0.000098  0.499981  0.745923  1
  Ta  Ta7  1  0.000110  0.999998  0.745920  1
  Tc  Tc8  1  0.249984  0.749998  0.499995  1
  Tc  Tc9  1  0.750016  0.250000  0.500005  1
  Mo  Mo10  1  0.249995  0.249998  0.999997  1
  Mo  Mo11  1  0.750004  0.750000  0.000003  1
  Mo  Mo12  1  0.250012  0.249999  0.499995  1
  Mo  Mo13  1  0.749989  0.749999  0.500005  1
  Rh  Rh14  1  0.749967  0.249993  0.000001  1
  Rh  Rh15  1  0.250034  0.750005  0.999999  1
