# generated using pymatgen
data_Ca3Y(SiPt2)4
_symmetry_space_group_name_H-M   'P 1'
_cell_length_a   5.54675638
_cell_length_b   6.95664400
_cell_length_c   7.42562080
_cell_angle_alpha   90.00000000
_cell_angle_beta   90.08034745
_cell_angle_gamma   90.00000000
_symmetry_Int_Tables_number   1
_chemical_formula_structural   Ca3Y(SiPt2)4
_chemical_formula_sum   'Ca3 Y1 Si4 Pt8'
_cell_volume   286.53073355
_cell_formula_units_Z   1
loop_
 _symmetry_equiv_pos_site_id
 _symmetry_equiv_pos_as_xyz
  1  'x, y, z'
loop_
 _atom_site_type_symbol
 _atom_site_label
 _atom_site_symmetry_multiplicity
 _atom_site_fract_x
 _atom_site_fract_y
 _atom_site_fract_z
 _atom_site_occupancy
  Ca  Ca0  1  0.372526  0.750000  0.022945  1
  Ca  Ca1  1  0.128687  0.750000  0.523310  1
  Ca  Ca2  1  0.626722  0.250000  0.977873  1
  Y  Y3  1  0.870420  0.250000  0.475420  1
  Si  Si4  1  0.628156  0.750000  0.375053  1
  Si  Si5  1  0.871790  0.750000  0.876229  1
  Si  Si6  1  0.370510  0.250000  0.626772  1
  Si  Si7  1  0.128713  0.250000  0.123300  1
  Pt  Pt8  1  0.900356  0.551508  0.175629  1
  Pt  Pt9  1  0.606301  0.948233  0.669581  1
  Pt  Pt10  1  0.095019  0.052925  0.826412  1
  Pt  Pt11  1  0.399563  0.446997  0.327927  1
  Pt  Pt12  1  0.095019  0.447075  0.826412  1
  Pt  Pt13  1  0.399563  0.053003  0.327927  1
  Pt  Pt14  1  0.900356  0.948492  0.175629  1
  Pt  Pt15  1  0.606301  0.551767  0.669581  1
