# generated using pymatgen
data_Ho3U(Ga3Ir)6
_symmetry_space_group_name_H-M   'P 1'
_cell_length_a   7.60899925
_cell_length_b   7.61829573
_cell_length_c   9.45032100
_cell_angle_alpha   90.00000000
_cell_angle_beta   90.00000000
_cell_angle_gamma   119.92470540
_symmetry_Int_Tables_number   1
_chemical_formula_structural   Ho3U(Ga3Ir)6
_chemical_formula_sum   'Ho3 U1 Ga18 Ir6'
_cell_volume   474.77907298
_cell_formula_units_Z   1
loop_
 _symmetry_equiv_pos_site_id
 _symmetry_equiv_pos_as_xyz
  1  'x, y, z'
loop_
 _atom_site_type_symbol
 _atom_site_label
 _atom_site_symmetry_multiplicity
 _atom_site_fract_x
 _atom_site_fract_y
 _atom_site_fract_z
 _atom_site_occupancy
  Ho  Ho0  1  0.996988  0.668666  0.750000  1
  Ho  Ho1  1  0.003318  0.331505  0.250000  1
  Ho  Ho2  1  0.668111  0.996428  0.750000  1
  U  U3  1  0.331552  0.002342  0.250000  1
  Ga  Ga4  1  0.126766  0.126849  0.750000  1
  Ga  Ga5  1  0.871358  0.871807  0.250000  1
  Ga  Ga6  1  0.998664  0.334093  0.581380  1
  Ga  Ga7  1  0.999715  0.664365  0.419179  1
  Ga  Ga8  1  0.999715  0.664365  0.080821  1
  Ga  Ga9  1  0.334137  0.998745  0.918922  1
  Ga  Ga10  1  0.998664  0.334093  0.918620  1
  Ga  Ga11  1  0.667337  0.001357  0.080810  1
  Ga  Ga12  1  0.667337  0.001357  0.419190  1
  Ga  Ga13  1  0.334137  0.998745  0.581078  1
  Ga  Ga14  1  0.332074  0.333484  0.065695  1
  Ga  Ga15  1  0.668020  0.668034  0.933368  1
  Ga  Ga16  1  0.668020  0.668034  0.566632  1
  Ga  Ga17  1  0.332074  0.333484  0.434305  1
  Ga  Ga18  1  0.339669  0.546930  0.750000  1
  Ga  Ga19  1  0.660720  0.454894  0.250000  1
  Ga  Ga20  1  0.547043  0.339628  0.750000  1
  Ga  Ga21  1  0.454221  0.659965  0.250000  1
  Ir  Ir22  1  0.670955  0.328108  0.499144  1
  Ir  Ir23  1  0.328482  0.672170  0.498882  1
  Ir  Ir24  1  0.328482  0.672170  0.001118  1
  Ir  Ir25  1  0.670955  0.328108  0.000856  1
  Ir  Ir26  1  0.000742  0.000137  0.498957  1
  Ir  Ir27  1  0.000742  0.000137  0.001043  1
