# generated using pymatgen
data_EuCo4P3Ru
_symmetry_space_group_name_H-M   'P 1'
_cell_length_a   3.69895300
_cell_length_b   10.50371000
_cell_length_c   11.88372100
_cell_angle_alpha   90.00000000
_cell_angle_beta   90.00000000
_cell_angle_gamma   90.00000000
_symmetry_Int_Tables_number   1
_chemical_formula_structural   EuCo4P3Ru
_chemical_formula_sum   'Eu4 Co16 P12 Ru4'
_cell_volume   461.71499884
_cell_formula_units_Z   4
loop_
 _symmetry_equiv_pos_site_id
 _symmetry_equiv_pos_as_xyz
  1  'x, y, z'
loop_
 _atom_site_type_symbol
 _atom_site_label
 _atom_site_symmetry_multiplicity
 _atom_site_fract_x
 _atom_site_fract_y
 _atom_site_fract_z
 _atom_site_occupancy
  Eu  Eu0  1  0.250000  0.587605  0.704099  1
  Eu  Eu1  1  0.250000  0.912395  0.204099  1
  Eu  Eu2  1  0.750000  0.412395  0.295901  1
  Eu  Eu3  1  0.750000  0.087605  0.795901  1
  Co  Co4  1  0.250000  0.408128  0.491709  1
  Co  Co5  1  0.250000  0.091872  0.991709  1
  Co  Co6  1  0.750000  0.591872  0.508291  1
  Co  Co7  1  0.750000  0.908128  0.008291  1
  Co  Co8  1  0.250000  0.218541  0.174954  1
  Co  Co9  1  0.250000  0.281459  0.674954  1
  Co  Co10  1  0.750000  0.781459  0.825046  1
  Co  Co11  1  0.750000  0.718541  0.325046  1
  Co  Co12  1  0.250000  0.887141  0.700714  1
  Co  Co13  1  0.250000  0.612859  0.200714  1
  Co  Co14  1  0.750000  0.112859  0.299286  1
  Co  Co15  1  0.750000  0.387141  0.799286  1
  Co  Co16  1  0.250000  0.465627  0.933095  1
  Co  Co17  1  0.250000  0.034373  0.433095  1
  Co  Co18  1  0.750000  0.534373  0.066905  1
  Co  Co19  1  0.750000  0.965627  0.566905  1
  P  P20  1  0.250000  0.418727  0.111804  1
  P  P21  1  0.250000  0.081273  0.611804  1
  P  P22  1  0.750000  0.581273  0.888196  1
  P  P23  1  0.750000  0.918727  0.388196  1
  P  P24  1  0.250000  0.275254  0.865730  1
  P  P25  1  0.250000  0.224746  0.365730  1
  P  P26  1  0.750000  0.724746  0.134270  1
  P  P27  1  0.750000  0.775254  0.634270  1
  P  P28  1  0.250000  0.597178  0.390795  1
  P  P29  1  0.250000  0.902822  0.890795  1
  P  P30  1  0.750000  0.402822  0.609205  1
  P  P31  1  0.750000  0.097178  0.109205  1
  Ru  Ru32  1  0.250000  0.715186  0.990813  1
  Ru  Ru33  1  0.250000  0.784814  0.490813  1
  Ru  Ru34  1  0.750000  0.284814  0.009187  1
  Ru  Ru35  1  0.750000  0.215186  0.509187  1
