# generated using pymatgen
data_BaCrCoAs2
_symmetry_space_group_name_H-M   'P 1'
_cell_length_a   7.14448891
_cell_length_b   7.14448913
_cell_length_c   7.14448911
_cell_angle_alpha   147.36684003
_cell_angle_beta   147.36684629
_cell_angle_gamma   46.82091757
_symmetry_Int_Tables_number   1
_chemical_formula_structural   BaCrCoAs2
_chemical_formula_sum   'Ba1 Cr1 Co1 As2'
_cell_volume   105.65902275
_cell_formula_units_Z   1
loop_
 _symmetry_equiv_pos_site_id
 _symmetry_equiv_pos_as_xyz
  1  'x, y, z'
loop_
 _atom_site_type_symbol
 _atom_site_label
 _atom_site_symmetry_multiplicity
 _atom_site_fract_x
 _atom_site_fract_y
 _atom_site_fract_z
 _atom_site_occupancy
  Ba  Ba0  1  0.000000  0.000000  0.000000  1
  Cr  Cr1  1  0.750000  0.250000  0.500000  1
  Co  Co2  1  0.250000  0.750000  0.500000  1
  As  As3  1  0.649537  0.649537  0.000000  1
  As  As4  1  0.350463  0.350463  0.000000  1
