# generated using pymatgen
data_Dy7Er8Lu(CdPt)4
_symmetry_space_group_name_H-M   'P 1'
_cell_length_a   9.64264233
_cell_length_b   9.64264335
_cell_length_c   9.62305300
_cell_angle_alpha   60.06718670
_cell_angle_beta   60.06718323
_cell_angle_gamma   60.14210578
_symmetry_Int_Tables_number   1
_chemical_formula_structural   Dy7Er8Lu(CdPt)4
_chemical_formula_sum   'Dy7 Er8 Lu1 Cd4 Pt4'
_cell_volume   634.00913705
_cell_formula_units_Z   1
loop_
 _symmetry_equiv_pos_site_id
 _symmetry_equiv_pos_as_xyz
  1  'x, y, z'
loop_
 _atom_site_type_symbol
 _atom_site_label
 _atom_site_symmetry_multiplicity
 _atom_site_fract_x
 _atom_site_fract_y
 _atom_site_fract_z
 _atom_site_occupancy
  Dy  Dy0  1  0.812131  0.812131  0.187869  1
  Dy  Dy1  1  0.936948  0.563189  0.564398  1
  Dy  Dy2  1  0.563189  0.936948  0.935464  1
  Dy  Dy3  1  0.563189  0.936948  0.564398  1
  Dy  Dy4  1  0.936948  0.563188  0.935464  1
  Dy  Dy5  1  0.565198  0.565198  0.934802  1
  Dy  Dy6  1  0.937456  0.937456  0.562543  1
  Er  Er7  1  0.351505  0.351505  0.351473  1
  Er  Er8  1  0.351505  0.351505  0.945519  1
  Er  Er9  1  0.353271  0.941536  0.352598  1
  Er  Er10  1  0.941536  0.353271  0.352598  1
  Er  Er11  1  0.811648  0.190021  0.188013  1
  Er  Er12  1  0.190021  0.811648  0.810318  1
  Er  Er13  1  0.190021  0.811648  0.188013  1
  Er  Er14  1  0.811648  0.190021  0.810318  1
  Lu  Lu15  1  0.189024  0.189024  0.810976  1
  Cd  Cd16  1  0.580496  0.580496  0.582588  1
  Cd  Cd17  1  0.580496  0.580496  0.256419  1
  Cd  Cd18  1  0.580322  0.255037  0.582319  1
  Cd  Cd19  1  0.255037  0.580322  0.582319  1
  Pt  Pt20  1  0.142706  0.142706  0.144113  1
  Pt  Pt21  1  0.142706  0.142706  0.570477  1
  Pt  Pt22  1  0.143354  0.569651  0.143498  1
  Pt  Pt23  1  0.569651  0.143354  0.143498  1
