# generated using pymatgen
data_Tb3Ho(Lu4Bi3)4
_symmetry_space_group_name_H-M   'P 1'
_cell_length_a   8.17741614
_cell_length_b   9.38803300
_cell_length_c   11.86662620
_cell_angle_alpha   90.00000000
_cell_angle_beta   90.02115878
_cell_angle_gamma   90.00000000
_symmetry_Int_Tables_number   1
_chemical_formula_structural   Tb3Ho(Lu4Bi3)4
_chemical_formula_sum   'Tb3 Ho1 Lu16 Bi12'
_cell_volume   910.99908195
_cell_formula_units_Z   1
loop_
 _symmetry_equiv_pos_site_id
 _symmetry_equiv_pos_as_xyz
  1  'x, y, z'
loop_
 _atom_site_type_symbol
 _atom_site_label
 _atom_site_symmetry_multiplicity
 _atom_site_fract_x
 _atom_site_fract_y
 _atom_site_fract_z
 _atom_site_occupancy
  Tb  Tb0  1  0.812892  0.250000  0.281941  1
  Tb  Tb1  1  0.686971  0.750000  0.781843  1
  Tb  Tb2  1  0.186977  0.750000  0.718097  1
  Ho  Ho3  1  0.312929  0.250000  0.217962  1
  Lu  Lu4  1  0.352532  0.750000  0.218378  1
  Lu  Lu5  1  0.852431  0.750000  0.281640  1
  Lu  Lu6  1  0.647460  0.250000  0.781651  1
  Lu  Lu7  1  0.147576  0.250000  0.718400  1
  Lu  Lu8  1  0.693086  0.567311  0.060162  1
  Lu  Lu9  1  0.193033  0.932751  0.439820  1
  Lu  Lu10  1  0.306922  0.067308  0.939885  1
  Lu  Lu11  1  0.807009  0.432775  0.560130  1
  Lu  Lu12  1  0.306922  0.432692  0.939885  1
  Lu  Lu13  1  0.807009  0.067225  0.560130  1
  Lu  Lu14  1  0.693086  0.932689  0.060162  1
  Lu  Lu15  1  0.193033  0.567249  0.439820  1
  Lu  Lu16  1  0.476325  0.250000  0.489105  1
  Lu  Lu17  1  0.976432  0.250000  0.010881  1
  Lu  Lu18  1  0.523634  0.750000  0.510794  1
  Lu  Lu19  1  0.023656  0.750000  0.989236  1
  Bi  Bi20  1  0.403799  0.750000  0.959914  1
  Bi  Bi21  1  0.903731  0.750000  0.540072  1
  Bi  Bi22  1  0.595860  0.250000  0.040375  1
  Bi  Bi23  1  0.096451  0.250000  0.459787  1
  Bi  Bi24  1  0.565451  0.994032  0.325956  1
  Bi  Bi25  1  0.066031  0.505905  0.173935  1
  Bi  Bi26  1  0.434351  0.493851  0.673960  1
  Bi  Bi27  1  0.934289  0.006199  0.826114  1
  Bi  Bi28  1  0.434351  0.006149  0.673960  1
  Bi  Bi29  1  0.934289  0.493801  0.826114  1
  Bi  Bi30  1  0.565451  0.505968  0.325956  1
  Bi  Bi31  1  0.066031  0.994095  0.173935  1
