# generated using pymatgen
data_Li3Y5Pt4
_symmetry_space_group_name_H-M   'P 1'
_cell_length_a   4.07455800
_cell_length_b   7.19880466
_cell_length_c   8.79199399
_cell_angle_alpha   88.80670084
_cell_angle_beta   90.00000000
_cell_angle_gamma   90.00000000
_symmetry_Int_Tables_number   1
_chemical_formula_structural   Li3Y5Pt4
_chemical_formula_sum   'Li3 Y5 Pt4'
_cell_volume   257.83037377
_cell_formula_units_Z   1
loop_
 _symmetry_equiv_pos_site_id
 _symmetry_equiv_pos_as_xyz
  1  'x, y, z'
loop_
 _atom_site_type_symbol
 _atom_site_label
 _atom_site_symmetry_multiplicity
 _atom_site_fract_x
 _atom_site_fract_y
 _atom_site_fract_z
 _atom_site_occupancy
  Li  Li0  1  0.250000  0.373428  0.555173  1
  Li  Li1  1  0.250000  0.850413  0.928737  1
  Li  Li2  1  0.750000  0.624264  0.449074  1
  Y  Y3  1  0.250000  0.943870  0.339234  1
  Y  Y4  1  0.250000  0.479782  0.193992  1
  Y  Y5  1  0.750000  0.040281  0.670022  1
  Y  Y6  1  0.750000  0.555586  0.818773  1
  Y  Y7  1  0.750000  0.128249  0.055780  1
  Pt  Pt8  1  0.250000  0.264933  0.864377  1
  Pt  Pt9  1  0.250000  0.749209  0.625574  1
  Pt  Pt10  1  0.750000  0.747807  0.127697  1
  Pt  Pt11  1  0.750000  0.242178  0.371568  1
