# generated using pymatgen
data_Y6Al24CoRu7
_symmetry_space_group_name_H-M   'P 1'
_cell_length_a   8.79316700
_cell_length_b   8.79316625
_cell_length_c   9.52905300
_cell_angle_alpha   90.00000000
_cell_angle_beta   90.00000000
_cell_angle_gamma   119.99999154
_symmetry_Int_Tables_number   1
_chemical_formula_structural   Y6Al24CoRu7
_chemical_formula_sum   'Y6 Al24 Co1 Ru7'
_cell_volume   638.07395341
_cell_formula_units_Z   1
loop_
 _symmetry_equiv_pos_site_id
 _symmetry_equiv_pos_as_xyz
  1  'x, y, z'
loop_
 _atom_site_type_symbol
 _atom_site_label
 _atom_site_symmetry_multiplicity
 _atom_site_fract_x
 _atom_site_fract_y
 _atom_site_fract_z
 _atom_site_occupancy
  Y  Y0  1  0.193346  0.386691  0.250053  1
  Y  Y1  1  0.806654  0.613309  0.749947  1
  Y  Y2  1  0.613309  0.806654  0.250053  1
  Y  Y3  1  0.386691  0.193346  0.749947  1
  Y  Y4  1  0.193346  0.806654  0.250053  1
  Y  Y5  1  0.806654  0.193346  0.749947  1
  Al  Al6  1  0.333333  0.666667  0.015510  1
  Al  Al7  1  0.666667  0.333333  0.984490  1
  Al  Al8  1  0.666667  0.333333  0.516499  1
  Al  Al9  1  0.333333  0.666667  0.483501  1
  Al  Al10  1  0.161809  0.323618  0.577822  1
  Al  Al11  1  0.838191  0.676382  0.422178  1
  Al  Al12  1  0.676382  0.838191  0.577822  1
  Al  Al13  1  0.840062  0.680125  0.076496  1
  Al  Al14  1  0.323618  0.161809  0.422178  1
  Al  Al15  1  0.159938  0.319875  0.923504  1
  Al  Al16  1  0.161809  0.838191  0.577822  1
  Al  Al17  1  0.319875  0.159938  0.076496  1
  Al  Al18  1  0.838191  0.161809  0.422178  1
  Al  Al19  1  0.680125  0.840062  0.923504  1
  Al  Al20  1  0.840062  0.159938  0.076496  1
  Al  Al21  1  0.159938  0.840062  0.923504  1
  Al  Al22  1  0.560997  0.121994  0.249548  1
  Al  Al23  1  0.439003  0.878006  0.750452  1
  Al  Al24  1  0.878006  0.439003  0.249548  1
  Al  Al25  1  0.121994  0.560997  0.750452  1
  Al  Al26  1  0.560997  0.439003  0.249548  1
  Al  Al27  1  0.439003  0.560997  0.750452  1
  Al  Al28  1  0.000000  0.000000  0.243932  1
  Al  Al29  1  0.000000  0.000000  0.756068  1
  Co  Co30  1  0.000000  0.000000  0.000000  1
  Ru  Ru31  1  0.500000  0.000000  0.000000  1
  Ru  Ru32  1  0.000000  0.500000  0.000000  1
  Ru  Ru33  1  0.500000  0.000000  0.500000  1
  Ru  Ru34  1  0.500000  0.500000  0.000000  1
  Ru  Ru35  1  0.000000  0.500000  0.500000  1
  Ru  Ru36  1  0.500000  0.500000  0.500000  1
  Ru  Ru37  1  0.000000  0.000000  0.500000  1
