# generated using pymatgen
data_K16LuPaSb8
_symmetry_space_group_name_H-M   'P 1'
_cell_length_a   11.71464287
_cell_length_b   11.71464243
_cell_length_c   11.71464200
_cell_angle_alpha   59.99999556
_cell_angle_beta   59.99999682
_cell_angle_gamma   59.99999662
_symmetry_Int_Tables_number   1
_chemical_formula_structural   K16LuPaSb8
_chemical_formula_sum   'K16 Lu1 Pa1 Sb8'
_cell_volume   1136.76862250
_cell_formula_units_Z   1
loop_
 _symmetry_equiv_pos_site_id
 _symmetry_equiv_pos_as_xyz
  1  'x, y, z'
loop_
 _atom_site_type_symbol
 _atom_site_label
 _atom_site_symmetry_multiplicity
 _atom_site_fract_x
 _atom_site_fract_y
 _atom_site_fract_z
 _atom_site_occupancy
  K  K0  1  0.621007  0.136978  0.621007  1
  K  K1  1  0.621007  0.621007  0.136978  1
  K  K2  1  0.136978  0.621007  0.621007  1
  K  K3  1  0.621007  0.621007  0.621007  1
  K  K4  1  0.034078  0.034078  0.465922  1
  K  K5  1  0.774733  0.225267  0.225267  1
  K  K6  1  0.225267  0.774733  0.774733  1
  K  K7  1  0.774733  0.774733  0.225267  1
  K  K8  1  0.774733  0.225267  0.774733  1
  K  K9  1  0.225267  0.774733  0.225267  1
  K  K10  1  0.465922  0.034078  0.465922  1
  K  K11  1  0.465922  0.034078  0.034078  1
  K  K12  1  0.034078  0.465922  0.465922  1
  K  K13  1  0.034078  0.465922  0.034078  1
  K  K14  1  0.225267  0.225267  0.774733  1
  K  K15  1  0.465922  0.465922  0.034078  1
  Lu  Lu16  1  0.500000  0.500000  0.500000  1
  Pa  Pa17  1  0.750000  0.750000  0.750000  1
  Sb  Sb18  1  0.394721  0.815838  0.394721  1
  Sb  Sb19  1  0.853503  0.853503  0.439493  1
  Sb  Sb20  1  0.439493  0.853503  0.853503  1
  Sb  Sb21  1  0.853503  0.853503  0.853503  1
  Sb  Sb22  1  0.815838  0.394721  0.394721  1
  Sb  Sb23  1  0.394721  0.394721  0.394721  1
  Sb  Sb24  1  0.394721  0.394721  0.815838  1
  Sb  Sb25  1  0.853503  0.439493  0.853503  1
