# generated using pymatgen
data_CaLu3Al15(SiRh2)3
_symmetry_space_group_name_H-M   'P 1'
_cell_length_a   7.50772979
_cell_length_b   7.45850105
_cell_length_c   9.38109330
_cell_angle_alpha   89.94406395
_cell_angle_beta   89.92616303
_cell_angle_gamma   119.72296623
_symmetry_Int_Tables_number   1
_chemical_formula_structural   CaLu3Al15(SiRh2)3
_chemical_formula_sum   'Ca1 Lu3 Al15 Si3 Rh6'
_cell_volume   456.19316446
_cell_formula_units_Z   1
loop_
 _symmetry_equiv_pos_site_id
 _symmetry_equiv_pos_as_xyz
  1  'x, y, z'
loop_
 _atom_site_type_symbol
 _atom_site_label
 _atom_site_symmetry_multiplicity
 _atom_site_fract_x
 _atom_site_fract_y
 _atom_site_fract_z
 _atom_site_occupancy
  Ca  Ca0  1  0.993979  0.664806  0.247237  1
  Lu  Lu1  1  0.006376  0.343573  0.755170  1
  Lu  Lu2  1  0.677564  0.003129  0.247025  1
  Lu  Lu3  1  0.316340  0.988642  0.749826  1
  Al  Al4  1  0.128666  0.127517  0.249615  1
  Al  Al5  1  0.871678  0.872364  0.749306  1
  Al  Al6  1  0.339768  0.002465  0.422079  1
  Al  Al7  1  0.001290  0.330756  0.428807  1
  Al  Al8  1  0.665914  0.002745  0.576755  1
  Al  Al9  1  0.662045  0.998859  0.921038  1
  Al  Al10  1  0.339659  0.002347  0.077823  1
  Al  Al11  1  0.332353  0.329991  0.557602  1
  Al  Al12  1  0.663934  0.668881  0.444802  1
  Al  Al13  1  0.663519  0.668424  0.056552  1
  Al  Al14  1  0.335346  0.330785  0.943142  1
  Al  Al15  1  0.340804  0.553123  0.250058  1
  Al  Al16  1  0.661210  0.448376  0.750608  1
  Al  Al17  1  0.547894  0.341786  0.249715  1
  Al  Al18  1  0.455142  0.658031  0.749807  1
  Si  Si19  1  0.002005  0.327696  0.077630  1
  Si  Si20  1  0.996514  0.671289  0.927418  1
  Si  Si21  1  0.997647  0.664936  0.568152  1
  Rh  Rh22  1  0.689340  0.336384  0.000116  1
  Rh  Rh23  1  0.309863  0.662057  0.994788  1
  Rh  Rh24  1  0.318909  0.670191  0.505143  1
  Rh  Rh25  1  0.679565  0.335196  0.501032  1
  Rh  Rh26  1  0.001054  0.001383  0.997352  1
  Rh  Rh27  1  0.001626  0.994265  0.501401  1
