# generated using pymatgen
data_Ho4MnTc6Os
_symmetry_space_group_name_H-M   'P 1'
_cell_length_a   5.27611955
_cell_length_b   5.27723961
_cell_length_c   9.06476402
_cell_angle_alpha   90.00584301
_cell_angle_beta   89.99267689
_cell_angle_gamma   120.04713295
_symmetry_Int_Tables_number   1
_chemical_formula_structural   Ho4MnTc6Os
_chemical_formula_sum   'Ho4 Mn1 Tc6 Os1'
_cell_volume   218.47518228
_cell_formula_units_Z   1
loop_
 _symmetry_equiv_pos_site_id
 _symmetry_equiv_pos_as_xyz
  1  'x, y, z'
loop_
 _atom_site_type_symbol
 _atom_site_label
 _atom_site_symmetry_multiplicity
 _atom_site_fract_x
 _atom_site_fract_y
 _atom_site_fract_z
 _atom_site_occupancy
  Ho  Ho0  1  0.666589  0.333362  0.562787  1
  Ho  Ho1  1  0.333411  0.666638  0.437213  1
  Ho  Ho2  1  0.333386  0.666650  0.064947  1
  Ho  Ho3  1  0.666614  0.333350  0.935053  1
  Mn  Mn4  1  0.000000  0.000000  0.000000  1
  Tc  Tc5  1  0.169350  0.338701  0.753089  1
  Tc  Tc6  1  0.169283  0.830715  0.753091  1
  Tc  Tc7  1  0.661277  0.830652  0.753094  1
  Tc  Tc8  1  0.830650  0.661299  0.246911  1
  Tc  Tc9  1  0.830717  0.169285  0.246909  1
  Tc  Tc10  1  0.338723  0.169348  0.246906  1
  Os  Os11  1  0.000000  0.000000  0.500000  1
