# generated using pymatgen
data_Sm8Si13Ge
_symmetry_space_group_name_H-M   'P 1'
_cell_length_a   7.43089766
_cell_length_b   7.43089809
_cell_length_c   11.57066221
_cell_angle_alpha   90.00796371
_cell_angle_beta   90.00796489
_cell_angle_gamma   134.33603652
_symmetry_Int_Tables_number   1
_chemical_formula_structural   Sm8Si13Ge
_chemical_formula_sum   'Sm8 Si13 Ge1'
_cell_volume   456.98364250
_cell_formula_units_Z   1
loop_
 _symmetry_equiv_pos_site_id
 _symmetry_equiv_pos_as_xyz
  1  'x, y, z'
loop_
 _atom_site_type_symbol
 _atom_site_label
 _atom_site_symmetry_multiplicity
 _atom_site_fract_x
 _atom_site_fract_y
 _atom_site_fract_z
 _atom_site_occupancy
  Sm  Sm0  1  0.494137  0.987814  0.378018  1
  Sm  Sm1  1  0.988995  0.493633  0.621468  1
  Sm  Sm2  1  0.506367  0.011005  0.878532  1
  Sm  Sm3  1  0.012186  0.505863  0.121982  1
  Sm  Sm4  1  0.997549  0.002451  0.250000  1
  Sm  Sm5  1  0.001848  0.998152  0.750000  1
  Sm  Sm6  1  0.497392  0.497218  0.497680  1
  Sm  Sm7  1  0.502782  0.502608  0.002320  1
  Si  Si8  1  0.917263  0.090260  0.994207  1
  Si  Si9  1  0.088241  0.915970  0.005582  1
  Si  Si10  1  0.084030  0.911759  0.494418  1
  Si  Si11  1  0.909740  0.082737  0.505793  1
  Si  Si12  1  0.577602  0.913803  0.128761  1
  Si  Si13  1  0.917883  0.577518  0.872778  1
  Si  Si14  1  0.422482  0.082117  0.627222  1
  Si  Si15  1  0.086197  0.422398  0.371239  1
  Si  Si16  1  0.444353  0.127192  0.140639  1
  Si  Si17  1  0.133459  0.446508  0.857766  1
  Si  Si18  1  0.553492  0.866541  0.642234  1
  Si  Si19  1  0.872808  0.555647  0.359361  1
  Si  Si20  1  0.432010  0.567990  0.250000  1
  Ge  Ge21  1  0.559183  0.440817  0.750000  1
