# generated using pymatgen
data_CaPr5YFeI12
_symmetry_space_group_name_H-M   'P 1'
_cell_length_a   10.11487370
_cell_length_b   10.00645507
_cell_length_c   10.01425663
_cell_angle_alpha   107.06120713
_cell_angle_beta   106.68542396
_cell_angle_gamma   107.22197908
_symmetry_Int_Tables_number   1
_chemical_formula_structural   CaPr5YFeI12
_chemical_formula_sum   'Ca1 Pr5 Y1 Fe1 I12'
_cell_volume   844.34758269
_cell_formula_units_Z   1
loop_
 _symmetry_equiv_pos_site_id
 _symmetry_equiv_pos_as_xyz
  1  'x, y, z'
loop_
 _atom_site_type_symbol
 _atom_site_label
 _atom_site_symmetry_multiplicity
 _atom_site_fract_x
 _atom_site_fract_y
 _atom_site_fract_z
 _atom_site_occupancy
  Ca  Ca0  1  0.000272  0.999579  0.999826  1
  Pr  Pr1  1  0.525624  0.596208  0.792680  1
  Pr  Pr2  1  0.191701  0.473904  0.399130  1
  Pr  Pr3  1  0.475639  0.403939  0.208050  1
  Pr  Pr4  1  0.598347  0.793774  0.526282  1
  Pr  Pr5  1  0.405494  0.206908  0.474862  1
  Y  Y6  1  0.798772  0.526417  0.598632  1
  Fe  Fe7  1  0.500697  0.500792  0.500425  1
  I  I8  1  0.729357  0.192184  0.575160  1
  I  I9  1  0.958700  0.873786  0.655986  1
  I  I10  1  0.574331  0.726897  0.182608  1
  I  I11  1  0.118999  0.341767  0.037979  1
  I  I12  1  0.660724  0.962824  0.884475  1
  I  I13  1  0.880717  0.652642  0.950970  1
  I  I14  1  0.040398  0.115892  0.342458  1
  I  I15  1  0.817970  0.429267  0.284120  1
  I  I16  1  0.339760  0.037412  0.115544  1
  I  I17  1  0.277516  0.819192  0.427317  1
  I  I18  1  0.179034  0.573413  0.726007  1
  I  I19  1  0.425947  0.273203  0.817489  1
