# generated using pymatgen
data_Th3PtRh4
_symmetry_space_group_name_H-M   'P 1'
_cell_length_a   7.12269700
_cell_length_b   7.12269678
_cell_length_c   3.87405400
_cell_angle_alpha   90.00000000
_cell_angle_beta   90.00000000
_cell_angle_gamma   120.00000568
_symmetry_Int_Tables_number   1
_chemical_formula_structural   Th3PtRh4
_chemical_formula_sum   'Th3 Pt1 Rh4'
_cell_volume   170.21005143
_cell_formula_units_Z   1
loop_
 _symmetry_equiv_pos_site_id
 _symmetry_equiv_pos_as_xyz
  1  'x, y, z'
loop_
 _atom_site_type_symbol
 _atom_site_label
 _atom_site_symmetry_multiplicity
 _atom_site_fract_x
 _atom_site_fract_y
 _atom_site_fract_z
 _atom_site_occupancy
  Th  Th0  1  0.649702  0.992620  0.500000  1
  Th  Th1  1  0.007380  0.657082  0.500000  1
  Th  Th2  1  0.342918  0.350298  0.500000  1
  Pt  Pt3  1  0.666667  0.333333  0.000000  1
  Rh  Rh4  1  0.227429  0.001532  0.000000  1
  Rh  Rh5  1  0.998468  0.225897  0.000000  1
  Rh  Rh6  1  0.774103  0.772571  0.000000  1
  Rh  Rh7  1  0.333333  0.666667  0.000000  1
