# generated using pymatgen
data_Zr5Pb3S
_symmetry_space_group_name_H-M   'P 1'
_cell_length_a   8.69992900
_cell_length_b   8.69992880
_cell_length_c   6.09949800
_cell_angle_alpha   90.00000000
_cell_angle_beta   90.00000000
_cell_angle_gamma   120.00000458
_symmetry_Int_Tables_number   1
_chemical_formula_structural   Zr5Pb3S
_chemical_formula_sum   'Zr10 Pb6 S2'
_cell_volume   399.81226371
_cell_formula_units_Z   2
loop_
 _symmetry_equiv_pos_site_id
 _symmetry_equiv_pos_as_xyz
  1  'x, y, z'
loop_
 _atom_site_type_symbol
 _atom_site_label
 _atom_site_symmetry_multiplicity
 _atom_site_fract_x
 _atom_site_fract_y
 _atom_site_fract_z
 _atom_site_occupancy
  Zr  Zr0  1  0.666667  0.333333  0.500000  1
  Zr  Zr1  1  0.333333  0.666667  0.500000  1
  Zr  Zr2  1  0.333333  0.666667  0.000000  1
  Zr  Zr3  1  0.666667  0.333333  0.000000  1
  Zr  Zr4  1  0.753424  0.753424  0.250000  1
  Zr  Zr5  1  0.246576  0.000000  0.250000  1
  Zr  Zr6  1  0.000000  0.246576  0.250000  1
  Zr  Zr7  1  0.246576  0.246576  0.750000  1
  Zr  Zr8  1  0.753424  0.000000  0.750000  1
  Zr  Zr9  1  0.000000  0.753424  0.750000  1
  Pb  Pb10  1  0.399250  0.399250  0.250000  1
  Pb  Pb11  1  0.600750  0.000000  0.250000  1
  Pb  Pb12  1  0.000000  0.600750  0.250000  1
  Pb  Pb13  1  0.600750  0.600750  0.750000  1
  Pb  Pb14  1  0.399250  0.000000  0.750000  1
  Pb  Pb15  1  0.000000  0.399250  0.750000  1
  S  S16  1  0.000000  0.000000  0.500000  1
  S  S17  1  0.000000  0.000000  0.000000  1
