# generated using pymatgen
data_U2PtS4
_symmetry_space_group_name_H-M   'P 1'
_cell_length_a   8.44432489
_cell_length_b   7.77713280
_cell_length_c   6.72479389
_cell_angle_alpha   70.79952168
_cell_angle_beta   60.43053439
_cell_angle_gamma   48.76994489
_symmetry_Int_Tables_number   1
_chemical_formula_structural   U2PtS4
_chemical_formula_sum   'U4 Pt2 S8'
_cell_volume   288.87704996
_cell_formula_units_Z   2
loop_
 _symmetry_equiv_pos_site_id
 _symmetry_equiv_pos_as_xyz
  1  'x, y, z'
loop_
 _atom_site_type_symbol
 _atom_site_label
 _atom_site_symmetry_multiplicity
 _atom_site_fract_x
 _atom_site_fract_y
 _atom_site_fract_z
 _atom_site_occupancy
  U  U0  1  0.420028  0.522331  0.185442  1
  U  U1  1  0.872199  0.185442  0.522331  1
  U  U2  1  0.064558  0.377801  0.829972  1
  U  U3  1  0.727669  0.829972  0.377801  1
  Pt  Pt4  1  0.238644  0.261356  0.261356  1
  Pt  Pt5  1  0.988644  0.011356  0.011356  1
  S  S6  1  0.695780  0.559702  0.240765  1
  S  S7  1  0.503752  0.240765  0.559702  1
  S  S8  1  0.009235  0.746248  0.554220  1
  S  S9  1  0.690298  0.554220  0.746248  1
  S  S10  1  0.140929  0.582077  0.015926  1
  S  S11  1  0.261068  0.015926  0.582077  1
  S  S12  1  0.667923  0.109071  0.988932  1
  S  S13  1  0.234074  0.988932  0.109071  1
