# generated using pymatgen
data_SrHo(Si7Ir3)2
_symmetry_space_group_name_H-M   'P 1'
_cell_length_a   8.06818854
_cell_length_b   8.06819014
_cell_length_c   8.06818987
_cell_angle_alpha   56.71525565
_cell_angle_beta   56.71524695
_cell_angle_gamma   56.71525272
_symmetry_Int_Tables_number   1
_chemical_formula_structural   SrHo(Si7Ir3)2
_chemical_formula_sum   'Sr1 Ho1 Si14 Ir6'
_cell_volume   343.20883970
_cell_formula_units_Z   1
loop_
 _symmetry_equiv_pos_site_id
 _symmetry_equiv_pos_as_xyz
  1  'x, y, z'
loop_
 _atom_site_type_symbol
 _atom_site_label
 _atom_site_symmetry_multiplicity
 _atom_site_fract_x
 _atom_site_fract_y
 _atom_site_fract_z
 _atom_site_occupancy
  Sr  Sr0  1  0.500000  0.500000  0.500000  1
  Ho  Ho1  1  0.000000  0.000000  0.000000  1
  Si  Si2  1  0.063934  0.850605  0.673368  1
  Si  Si3  1  0.673368  0.063934  0.850605  1
  Si  Si4  1  0.850605  0.673368  0.063934  1
  Si  Si5  1  0.172506  0.350450  0.565401  1
  Si  Si6  1  0.565401  0.172506  0.350450  1
  Si  Si7  1  0.350450  0.565401  0.172506  1
  Si  Si8  1  0.936066  0.149395  0.326632  1
  Si  Si9  1  0.326632  0.936066  0.149395  1
  Si  Si10  1  0.149395  0.326632  0.936066  1
  Si  Si11  1  0.827494  0.649550  0.434599  1
  Si  Si12  1  0.434599  0.827494  0.649550  1
  Si  Si13  1  0.649550  0.434599  0.827494  1
  Si  Si14  1  0.750037  0.750037  0.750037  1
  Si  Si15  1  0.249963  0.249963  0.249963  1
  Ir  Ir16  1  0.066315  0.753828  0.426979  1
  Ir  Ir17  1  0.426979  0.066315  0.753828  1
  Ir  Ir18  1  0.753828  0.426979  0.066315  1
  Ir  Ir19  1  0.933685  0.246172  0.573021  1
  Ir  Ir20  1  0.573021  0.933685  0.246172  1
  Ir  Ir21  1  0.246172  0.573021  0.933685  1
