# generated using pymatgen
data_Ta5Fe18NiP12
_symmetry_space_group_name_H-M   'P 1'
_cell_length_a   11.68980300
_cell_length_b   11.68980380
_cell_length_c   3.61394300
_cell_angle_alpha   90.00000000
_cell_angle_beta   90.00000000
_cell_angle_gamma   120.00000056
_symmetry_Int_Tables_number   1
_chemical_formula_structural   Ta5Fe18NiP12
_chemical_formula_sum   'Ta5 Fe18 Ni1 P12'
_cell_volume   427.68728815
_cell_formula_units_Z   1
loop_
 _symmetry_equiv_pos_site_id
 _symmetry_equiv_pos_as_xyz
  1  'x, y, z'
loop_
 _atom_site_type_symbol
 _atom_site_label
 _atom_site_symmetry_multiplicity
 _atom_site_fract_x
 _atom_site_fract_y
 _atom_site_fract_z
 _atom_site_occupancy
  Ta  Ta0  1  0.666667  0.333333  0.000000  1
  Ta  Ta1  1  0.333333  0.666667  0.000000  1
  Ta  Ta2  1  0.187818  0.187818  0.500000  1
  Ta  Ta3  1  0.812182  0.000000  0.500000  1
  Ta  Ta4  1  0.000000  0.812182  0.500000  1
  Fe  Fe5  1  0.819226  0.193174  0.000000  1
  Fe  Fe6  1  0.806826  0.626051  0.000000  1
  Fe  Fe7  1  0.373949  0.180774  0.000000  1
  Fe  Fe8  1  0.193174  0.819226  0.000000  1
  Fe  Fe9  1  0.626051  0.806826  0.000000  1
  Fe  Fe10  1  0.180774  0.373949  0.000000  1
  Fe  Fe11  1  0.555892  0.555892  0.000000  1
  Fe  Fe12  1  0.444108  0.000000  0.000000  1
  Fe  Fe13  1  0.000000  0.444108  0.000000  1
  Fe  Fe14  1  0.639738  0.127270  0.500000  1
  Fe  Fe15  1  0.872730  0.512469  0.500000  1
  Fe  Fe16  1  0.487531  0.360262  0.500000  1
  Fe  Fe17  1  0.127270  0.639738  0.500000  1
  Fe  Fe18  1  0.512469  0.872730  0.500000  1
  Fe  Fe19  1  0.360262  0.487531  0.500000  1
  Fe  Fe20  1  0.718144  0.718144  0.500000  1
  Fe  Fe21  1  0.281856  0.000000  0.500000  1
  Fe  Fe22  1  0.000000  0.281856  0.500000  1
  Ni  Ni23  1  0.000000  0.000000  0.000000  1
  P  P24  1  0.365874  0.365874  0.000000  1
  P  P25  1  0.634126  0.000000  0.000000  1
  P  P26  1  0.000000  0.634126  0.000000  1
  P  P27  1  0.831290  0.312787  0.500000  1
  P  P28  1  0.687213  0.518504  0.500000  1
  P  P29  1  0.481496  0.168710  0.500000  1
  P  P30  1  0.312787  0.831290  0.500000  1
  P  P31  1  0.518504  0.687213  0.500000  1
  P  P32  1  0.168710  0.481496  0.500000  1
  P  P33  1  0.821218  0.821218  0.000000  1
  P  P34  1  0.178782  0.000000  0.000000  1
  P  P35  1  0.000000  0.178782  0.000000  1
