# generated using pymatgen
data_Ho4Tm4B24Ir3Ru
_symmetry_space_group_name_H-M   'P 1'
_cell_length_a   3.62420700
_cell_length_b   9.13652212
_cell_length_c   11.47001116
_cell_angle_alpha   90.01886998
_cell_angle_beta   90.00000000
_cell_angle_gamma   90.00000000
_symmetry_Int_Tables_number   1
_chemical_formula_structural   Ho4Tm4B24Ir3Ru
_chemical_formula_sum   'Ho4 Tm4 B24 Ir3 Ru1'
_cell_volume   379.80241489
_cell_formula_units_Z   1
loop_
 _symmetry_equiv_pos_site_id
 _symmetry_equiv_pos_as_xyz
  1  'x, y, z'
loop_
 _atom_site_type_symbol
 _atom_site_label
 _atom_site_symmetry_multiplicity
 _atom_site_fract_x
 _atom_site_fract_y
 _atom_site_fract_z
 _atom_site_occupancy
  Ho  Ho0  1  0.000000  0.320091  0.413544  1
  Ho  Ho1  1  0.000000  0.680906  0.587767  1
  Ho  Ho2  1  0.000000  0.820348  0.084753  1
  Ho  Ho3  1  0.000000  0.177882  0.913175  1
  Tm  Tm4  1  0.000000  0.943959  0.373822  1
  Tm  Tm5  1  0.000000  0.054338  0.627196  1
  Tm  Tm6  1  0.000000  0.444014  0.125997  1
  Tm  Tm7  1  0.000000  0.557791  0.873940  1
  B  B8  1  0.500000  0.554169  0.434581  1
  B  B9  1  0.500000  0.445978  0.565568  1
  B  B10  1  0.500000  0.053875  0.065637  1
  B  B11  1  0.500000  0.945573  0.933567  1
  B  B12  1  0.500000  0.750435  0.420789  1
  B  B13  1  0.500000  0.249587  0.579363  1
  B  B14  1  0.500000  0.250093  0.079249  1
  B  B15  1  0.500000  0.751061  0.919711  1
  B  B16  1  0.500000  0.793219  0.264571  1
  B  B17  1  0.500000  0.206921  0.734796  1
  B  B18  1  0.500000  0.293589  0.235436  1
  B  B19  1  0.500000  0.707770  0.765451  1
  B  B20  1  0.500000  0.631390  0.183424  1
  B  B21  1  0.500000  0.368730  0.816475  1
  B  B22  1  0.500000  0.131857  0.316503  1
  B  B23  1  0.500000  0.868678  0.684696  1
  B  B24  1  0.500000  0.981582  0.213661  1
  B  B25  1  0.500000  0.016933  0.786318  1
  B  B26  1  0.500000  0.481690  0.286118  1
  B  B27  1  0.500000  0.518284  0.714185  1
  B  B28  1  0.500000  0.607472  0.029621  1
  B  B29  1  0.500000  0.392161  0.970693  1
  B  B30  1  0.500000  0.107610  0.470581  1
  B  B31  1  0.500000  0.892432  0.529073  1
  Ir  Ir32  1  0.000000  0.638357  0.321226  1
  Ir  Ir33  1  0.000000  0.361857  0.679122  1
  Ir  Ir34  1  0.000000  0.137862  0.178651  1
  Ru  Ru35  1  0.000000  0.861505  0.820736  1
