# generated using pymatgen
data_Yb7HfAs6
_symmetry_space_group_name_H-M   'P 1'
_cell_length_a   7.50556671
_cell_length_b   7.63293823
_cell_length_c   7.63293857
_cell_angle_alpha   109.80678238
_cell_angle_beta   109.13353991
_cell_angle_gamma   109.13353685
_symmetry_Int_Tables_number   1
_chemical_formula_structural   Yb7HfAs6
_chemical_formula_sum   'Yb7 Hf1 As6'
_cell_volume   338.01662696
_cell_formula_units_Z   1
loop_
 _symmetry_equiv_pos_site_id
 _symmetry_equiv_pos_as_xyz
  1  'x, y, z'
loop_
 _atom_site_type_symbol
 _atom_site_label
 _atom_site_symmetry_multiplicity
 _atom_site_fract_x
 _atom_site_fract_y
 _atom_site_fract_z
 _atom_site_occupancy
  Yb  Yb0  1  0.501352  0.001414  0.645470  1
  Yb  Yb1  1  0.366958  0.361366  0.364666  1
  Yb  Yb2  1  0.002292  0.135334  0.496700  1
  Yb  Yb3  1  0.855883  0.854530  0.855944  1
  Yb  Yb4  1  0.999938  0.644056  0.498586  1
  Yb  Yb5  1  0.634031  0.500000  0.000000  1
  Yb  Yb6  1  0.505592  0.003300  0.138634  1
  Hf  Hf7  1  0.126303  0.500000  0.000000  1
  As  As8  1  0.892319  0.262952  0.119843  1
  As  As9  1  0.129367  0.856891  0.237048  1
  As  As10  1  0.364277  0.620808  0.758534  1
  As  As11  1  0.243469  0.137726  0.879192  1
  As  As12  1  0.772476  0.380157  0.643109  1
  As  As13  1  0.605743  0.741466  0.362274  1
