# generated using pymatgen
data_HoLu5(ScAu5)2
_symmetry_space_group_name_H-M   'P 1'
_cell_length_a   7.80187418
_cell_length_b   7.79188130
_cell_length_c   7.79840323
_cell_angle_alpha   66.81349135
_cell_angle_beta   66.76119395
_cell_angle_gamma   66.63085845
_symmetry_Int_Tables_number   1
_chemical_formula_structural   HoLu5(ScAu5)2
_chemical_formula_sum   'Ho1 Lu5 Sc2 Au10'
_cell_volume   383.73880348
_cell_formula_units_Z   1
loop_
 _symmetry_equiv_pos_site_id
 _symmetry_equiv_pos_as_xyz
  1  'x, y, z'
loop_
 _atom_site_type_symbol
 _atom_site_label
 _atom_site_symmetry_multiplicity
 _atom_site_fract_x
 _atom_site_fract_y
 _atom_site_fract_z
 _atom_site_occupancy
  Ho  Ho0  1  0.807067  0.383743  0.106716  1
  Lu  Lu1  1  0.893738  0.193766  0.615018  1
  Lu  Lu2  1  0.614727  0.893147  0.193737  1
  Lu  Lu3  1  0.193020  0.612443  0.892477  1
  Lu  Lu4  1  0.106150  0.808598  0.386946  1
  Lu  Lu5  1  0.384529  0.108164  0.806848  1
  Sc  Sc6  1  0.662303  0.661245  0.661450  1
  Sc  Sc7  1  0.338691  0.338545  0.338045  1
  Au  Au8  1  0.004613  0.992563  0.998048  1
  Au  Au9  1  0.497063  0.504028  0.499530  1
  Au  Au10  1  0.811419  0.815072  0.813331  1
  Au  Au11  1  0.190306  0.185410  0.187972  1
  Au  Au12  1  0.936813  0.553261  0.314877  1
  Au  Au13  1  0.314939  0.934254  0.553518  1
  Au  Au14  1  0.551628  0.314121  0.934096  1
  Au  Au15  1  0.065571  0.449171  0.683145  1
  Au  Au16  1  0.683912  0.062956  0.450693  1
  Au  Au17  1  0.443511  0.689511  0.063552  1
