# generated using pymatgen
data_Hf2Zr2(Pd3Pt)3
_symmetry_space_group_name_H-M   'P 1'
_cell_length_a   5.69205100
_cell_length_b   5.69693480
_cell_length_c   9.32418509
_cell_angle_alpha   89.62943513
_cell_angle_beta   90.00000000
_cell_angle_gamma   119.97164003
_symmetry_Int_Tables_number   1
_chemical_formula_structural   Hf2Zr2(Pd3Pt)3
_chemical_formula_sum   'Hf2 Zr2 Pd9 Pt3'
_cell_volume   261.91687737
_cell_formula_units_Z   1
loop_
 _symmetry_equiv_pos_site_id
 _symmetry_equiv_pos_as_xyz
  1  'x, y, z'
loop_
 _atom_site_type_symbol
 _atom_site_label
 _atom_site_symmetry_multiplicity
 _atom_site_fract_x
 _atom_site_fract_y
 _atom_site_fract_z
 _atom_site_occupancy
  Hf  Hf0  1  0.666648  0.333295  0.749512  1
  Hf  Hf1  1  0.333352  0.666705  0.250488  1
  Zr  Zr2  1  0.000000  0.000000  0.500000  1
  Zr  Zr3  1  0.000000  0.000000  0.000000  1
  Pd  Pd4  1  0.169307  0.338613  0.750059  1
  Pd  Pd5  1  0.830572  0.169664  0.249083  1
  Pd  Pd6  1  0.339092  0.169664  0.249083  1
  Pd  Pd7  1  0.660908  0.830336  0.750917  1
  Pd  Pd8  1  0.000000  0.500000  0.000000  1
  Pd  Pd9  1  0.500000  0.500000  0.000000  1
  Pd  Pd10  1  0.500000  0.000000  0.500000  1
  Pd  Pd11  1  0.830693  0.661387  0.249941  1
  Pd  Pd12  1  0.169428  0.830336  0.750917  1
  Pt  Pt13  1  0.500000  0.000000  0.000000  1
  Pt  Pt14  1  0.500000  0.500000  0.500000  1
  Pt  Pt15  1  0.000000  0.500000  0.500000  1
