# generated using pymatgen
data_ZnHg2(PO3)4
_symmetry_space_group_name_H-M   'P 1'
_cell_length_a   5.29232693
_cell_length_b   7.47018463
_cell_length_c   10.30627807
_cell_angle_alpha   109.18895962
_cell_angle_beta   109.39358753
_cell_angle_gamma   113.36925455
_symmetry_Int_Tables_number   1
_chemical_formula_structural   ZnHg2(PO3)4
_chemical_formula_sum   'Zn1 Hg2 P4 O12'
_cell_volume   298.80299067
_cell_formula_units_Z   1
loop_
 _symmetry_equiv_pos_site_id
 _symmetry_equiv_pos_as_xyz
  1  'x, y, z'
loop_
 _atom_site_type_symbol
 _atom_site_label
 _atom_site_symmetry_multiplicity
 _atom_site_fract_x
 _atom_site_fract_y
 _atom_site_fract_z
 _atom_site_occupancy
  Zn  Zn0  1  0.000000  0.000000  0.000000  1
  Hg  Hg1  1  0.561572  0.664621  0.473551  1
  Hg  Hg2  1  0.438428  0.335379  0.526449  1
  P  P3  1  0.303065  0.816289  0.232496  1
  P  P4  1  0.729906  0.335646  0.084159  1
  P  P5  1  0.270094  0.664354  0.915841  1
  P  P6  1  0.696935  0.183711  0.767504  1
  O  O7  1  0.598896  0.900807  0.389842  1
  O  O8  1  0.341564  0.689072  0.088711  1
  O  O9  1  0.752783  0.005376  0.776344  1
  O  O10  1  0.988572  0.612851  0.207511  1
  O  O11  1  0.111189  0.782924  0.877451  1
  O  O12  1  0.565427  0.711676  0.908382  1
  O  O13  1  0.434573  0.288324  0.091618  1
  O  O14  1  0.888811  0.217076  0.122549  1
  O  O15  1  0.011428  0.387149  0.792489  1
  O  O16  1  0.247217  0.994624  0.223656  1
  O  O17  1  0.658436  0.310928  0.911289  1
  O  O18  1  0.401104  0.099193  0.610158  1
