# generated using pymatgen
data_Hf11U(MoIr)6
_symmetry_space_group_name_H-M   'P 1'
_cell_length_a   4.65791600
_cell_length_b   6.59417200
_cell_length_c   13.97678300
_cell_angle_alpha   90.00000000
_cell_angle_beta   90.00012709
_cell_angle_gamma   90.00000000
_symmetry_Int_Tables_number   1
_chemical_formula_structural   Hf11U(MoIr)6
_chemical_formula_sum   'Hf11 U1 Mo6 Ir6'
_cell_volume   429.29827726
_cell_formula_units_Z   1
loop_
 _symmetry_equiv_pos_site_id
 _symmetry_equiv_pos_as_xyz
  1  'x, y, z'
loop_
 _atom_site_type_symbol
 _atom_site_label
 _atom_site_symmetry_multiplicity
 _atom_site_fract_x
 _atom_site_fract_y
 _atom_site_fract_z
 _atom_site_occupancy
  Hf  Hf0  1  0.500001  0.744666  0.000000  1
  Hf  Hf1  1  0.999994  0.251894  0.173366  1
  Hf  Hf2  1  0.999996  0.749071  0.169037  1
  Hf  Hf3  1  0.499995  0.251561  0.336233  1
  Hf  Hf4  1  0.499996  0.751966  0.334828  1
  Hf  Hf5  1  0.000000  0.251615  0.500000  1
  Hf  Hf6  1  0.000000  0.751607  0.500000  1
  Hf  Hf7  1  0.500004  0.251561  0.663767  1
  Hf  Hf8  1  0.500003  0.751966  0.665172  1
  Hf  Hf9  1  0.000006  0.251894  0.826634  1
  Hf  Hf10  1  0.000004  0.749071  0.830963  1
  U  U11  1  0.500001  0.243781  0.000000  1
  Mo  Mo12  1  0.000000  0.480096  0.000000  1
  Mo  Mo13  1  0.499996  0.008725  0.160275  1
  Mo  Mo14  1  0.999996  0.502542  0.333180  1
  Mo  Mo15  1  0.500000  0.999084  0.500000  1
  Mo  Mo16  1  0.000004  0.502542  0.666820  1
  Mo  Mo17  1  0.500005  0.008725  0.839725  1
  Ir  Ir18  1  0.000000  0.990386  0.000000  1
  Ir  Ir19  1  0.499996  0.501727  0.166584  1
  Ir  Ir20  1  0.999996  0.001882  0.332151  1
  Ir  Ir21  1  0.500000  0.500030  0.500000  1
  Ir  Ir22  1  0.000004  0.001882  0.667849  1
  Ir  Ir23  1  0.500005  0.501727  0.833416  1
