# generated using pymatgen
data_BaEu2CuSe4
_symmetry_space_group_name_H-M   'P 1'
_cell_length_a   4.36164200
_cell_length_b   7.39967954
_cell_length_c   14.64642300
_cell_angle_alpha   90.00000000
_cell_angle_beta   90.00000000
_cell_angle_gamma   72.85936172
_symmetry_Int_Tables_number   1
_chemical_formula_structural   BaEu2CuSe4
_chemical_formula_sum   'Ba2 Eu4 Cu2 Se8'
_cell_volume   451.71391616
_cell_formula_units_Z   2
loop_
 _symmetry_equiv_pos_site_id
 _symmetry_equiv_pos_as_xyz
  1  'x, y, z'
loop_
 _atom_site_type_symbol
 _atom_site_label
 _atom_site_symmetry_multiplicity
 _atom_site_fract_x
 _atom_site_fract_y
 _atom_site_fract_z
 _atom_site_occupancy
  Ba  Ba0  1  0.893308  0.213385  0.250000  1
  Ba  Ba1  1  0.106692  0.786614  0.750000  1
  Eu  Eu2  1  0.633678  0.732646  0.059955  1
  Eu  Eu3  1  0.633678  0.732646  0.440045  1
  Eu  Eu4  1  0.366321  0.267354  0.559955  1
  Eu  Eu5  1  0.366321  0.267354  0.940045  1
  Cu  Cu6  1  0.160612  0.678774  0.250000  1
  Cu  Cu7  1  0.839387  0.321227  0.750000  1
  Se  Se8  1  0.000000  0.000000  0.000000  1
  Se  Se9  1  0.267667  0.464662  0.119155  1
  Se  Se10  1  0.562991  0.874020  0.250000  1
  Se  Se11  1  0.267667  0.464662  0.380845  1
  Se  Se12  1  0.000000  0.000000  0.500000  1
  Se  Se13  1  0.732332  0.535338  0.619155  1
  Se  Se14  1  0.437008  0.125980  0.750000  1
  Se  Se15  1  0.732332  0.535338  0.880845  1
