# generated using pymatgen
data_Tb9Dy(Tm5Pb8)2
_symmetry_space_group_name_H-M   'P 1'
_cell_length_a   8.17220226
_cell_length_b   8.24960748
_cell_length_c   15.56683300
_cell_angle_alpha   90.05116584
_cell_angle_beta   90.05114567
_cell_angle_gamma   90.30141519
_symmetry_Int_Tables_number   1
_chemical_formula_structural   Tb9Dy(Tm5Pb8)2
_chemical_formula_sum   'Tb9 Dy1 Tm10 Pb16'
_cell_volume   1049.46099109
_cell_formula_units_Z   1
loop_
 _symmetry_equiv_pos_site_id
 _symmetry_equiv_pos_as_xyz
  1  'x, y, z'
loop_
 _atom_site_type_symbol
 _atom_site_label
 _atom_site_symmetry_multiplicity
 _atom_site_fract_x
 _atom_site_fract_y
 _atom_site_fract_z
 _atom_site_occupancy
  Tb  Tb0  1  0.875159  0.658726  0.879264  1
  Tb  Tb1  1  0.535117  0.322066  0.901408  1
  Tb  Tb2  1  0.034307  0.176738  0.598332  1
  Tb  Tb3  1  0.465606  0.677286  0.401390  1
  Tb  Tb4  1  0.964346  0.824654  0.100273  1
  Tb  Tb5  1  0.466026  0.676738  0.098831  1
  Tb  Tb6  1  0.965469  0.823401  0.401008  1
  Tb  Tb7  1  0.534071  0.322365  0.598327  1
  Tb  Tb8  1  0.034988  0.175994  0.900816  1
  Dy  Dy9  1  0.206751  0.505349  0.749391  1
  Tm  Tm10  1  0.373837  0.842418  0.877745  1
  Tm  Tm11  1  0.873819  0.657387  0.621540  1
  Tm  Tm12  1  0.626331  0.157229  0.377930  1
  Tm  Tm13  1  0.125612  0.343040  0.121689  1
  Tm  Tm14  1  0.625130  0.157444  0.123079  1
  Tm  Tm15  1  0.125643  0.342199  0.377942  1
  Tm  Tm16  1  0.374167  0.842855  0.621422  1
  Tm  Tm17  1  0.706022  0.995030  0.749601  1
  Tm  Tm18  1  0.793467  0.494110  0.250490  1
  Tm  Tm19  1  0.293290  0.004987  0.249999  1
  Pb  Pb20  1  0.284488  0.036227  0.043032  1
  Pb  Pb21  1  0.784995  0.464039  0.456724  1
  Pb  Pb22  1  0.715039  0.963179  0.542535  1
  Pb  Pb23  1  0.218633  0.534068  0.956959  1
  Pb  Pb24  1  0.713724  0.966330  0.957724  1
  Pb  Pb25  1  0.214881  0.535862  0.542491  1
  Pb  Pb26  1  0.284837  0.036944  0.456896  1
  Pb  Pb27  1  0.784356  0.463092  0.044777  1
  Pb  Pb28  1  0.569337  0.627522  0.749268  1
  Pb  Pb29  1  0.069406  0.874968  0.749017  1
  Pb  Pb30  1  0.430774  0.373011  0.250428  1
  Pb  Pb31  1  0.931378  0.126860  0.249942  1
  Pb  Pb32  1  0.346048  0.153587  0.749762  1
  Pb  Pb33  1  0.845840  0.344718  0.749516  1
  Pb  Pb34  1  0.653538  0.844970  0.250297  1
  Pb  Pb35  1  0.153570  0.654609  0.250154  1
