# generated using pymatgen
data_Mn2Bi6IrO18
_symmetry_space_group_name_H-M   'P 1'
_cell_length_a   9.08647400
_cell_length_b   9.08647373
_cell_length_c   5.21087900
_cell_angle_alpha   90.00000000
_cell_angle_beta   90.00000000
_cell_angle_gamma   120.00000099
_symmetry_Int_Tables_number   1
_chemical_formula_structural   Mn2Bi6IrO18
_chemical_formula_sum   'Mn2 Bi6 Ir1 O18'
_cell_volume   372.59101651
_cell_formula_units_Z   1
loop_
 _symmetry_equiv_pos_site_id
 _symmetry_equiv_pos_as_xyz
  1  'x, y, z'
loop_
 _atom_site_type_symbol
 _atom_site_label
 _atom_site_symmetry_multiplicity
 _atom_site_fract_x
 _atom_site_fract_y
 _atom_site_fract_z
 _atom_site_occupancy
  Mn  Mn0  1  0.333333  0.666667  0.003139  1
  Mn  Mn1  1  0.666667  0.333333  0.996861  1
  Bi  Bi2  1  0.000000  0.385912  0.500000  1
  Bi  Bi3  1  0.294144  0.294144  0.000000  1
  Bi  Bi4  1  0.000000  0.705856  0.000000  1
  Bi  Bi5  1  0.614088  0.614088  0.500000  1
  Bi  Bi6  1  0.385912  0.000000  0.500000  1
  Bi  Bi7  1  0.705856  0.000000  0.000000  1
  Ir  Ir8  1  0.000000  0.000000  0.500000  1
  O  O9  1  0.080774  0.199892  0.718341  1
  O  O10  1  0.230606  0.463916  0.215641  1
  O  O11  1  0.135497  0.601217  0.787123  1
  O  O12  1  0.398783  0.534279  0.787123  1
  O  O13  1  0.233311  0.769394  0.215641  1
  O  O14  1  0.119117  0.919226  0.718341  1
  O  O15  1  0.536084  0.766689  0.215641  1
  O  O16  1  0.199892  0.080774  0.281659  1
  O  O17  1  0.465721  0.864503  0.787123  1
  O  O18  1  0.800108  0.880883  0.718341  1
  O  O19  1  0.463916  0.230606  0.784359  1
  O  O20  1  0.601217  0.135497  0.212877  1
  O  O21  1  0.534279  0.398783  0.212877  1
  O  O22  1  0.769394  0.233311  0.784359  1
  O  O23  1  0.919226  0.119117  0.281659  1
  O  O24  1  0.766689  0.536084  0.784359  1
  O  O25  1  0.864503  0.465721  0.212877  1
  O  O26  1  0.880883  0.800108  0.281659  1
