# generated using pymatgen
data_SrAcV2O6
_symmetry_space_group_name_H-M   'P 1'
_cell_length_a   5.60155342
_cell_length_b   7.99602543
_cell_length_c   5.63894714
_cell_angle_alpha   89.98630537
_cell_angle_beta   89.59517713
_cell_angle_gamma   90.00205640
_symmetry_Int_Tables_number   1
_chemical_formula_structural   SrAcV2O6
_chemical_formula_sum   'Sr2 Ac2 V4 O12'
_cell_volume   252.56305330
_cell_formula_units_Z   2
loop_
 _symmetry_equiv_pos_site_id
 _symmetry_equiv_pos_as_xyz
  1  'x, y, z'
loop_
 _atom_site_type_symbol
 _atom_site_label
 _atom_site_symmetry_multiplicity
 _atom_site_fract_x
 _atom_site_fract_y
 _atom_site_fract_z
 _atom_site_occupancy
  Sr  Sr0  1  0.009264  0.249940  0.499274  1
  Sr  Sr1  1  0.506420  0.250053  0.002236  1
  Ac  Ac2  1  0.992987  0.750124  0.499145  1
  Ac  Ac3  1  0.491707  0.749828  0.999363  1
  V  V4  1  0.999670  0.494154  0.000276  1
  V  V5  1  0.500667  0.494973  0.498095  1
  V  V6  1  0.500648  0.005046  0.498115  1
  V  V7  1  0.999786  0.005844  0.000157  1
  O  O8  1  0.997530  0.250050  0.954955  1
  O  O9  1  0.497235  0.249962  0.547315  1
  O  O10  1  0.999728  0.750018  0.041127  1
  O  O11  1  0.501461  0.749989  0.454899  1
  O  O12  1  0.754129  0.016181  0.279241  1
  O  O13  1  0.264795  0.484558  0.235839  1
  O  O14  1  0.754002  0.484000  0.279132  1
  O  O15  1  0.265413  0.015404  0.235462  1
  O  O16  1  0.247075  0.526309  0.723410  1
  O  O17  1  0.734955  0.971279  0.764394  1
  O  O18  1  0.247147  0.973652  0.723289  1
  O  O19  1  0.735382  0.528635  0.764271  1
