# generated using pymatgen
data_Pr7Nd3Si5Sn
_symmetry_space_group_name_H-M   'P 1'
_cell_length_a   7.88426954
_cell_length_b   7.88286037
_cell_length_c   9.11197487
_cell_angle_alpha   115.53280189
_cell_angle_beta   115.49178885
_cell_angle_gamma   90.25720612
_symmetry_Int_Tables_number   1
_chemical_formula_structural   Pr7Nd3Si5Sn
_chemical_formula_sum   'Pr7 Nd3 Si5 Sn1'
_cell_volume   448.53443507
_cell_formula_units_Z   1
loop_
 _symmetry_equiv_pos_site_id
 _symmetry_equiv_pos_as_xyz
  1  'x, y, z'
loop_
 _atom_site_type_symbol
 _atom_site_label
 _atom_site_symmetry_multiplicity
 _atom_site_fract_x
 _atom_site_fract_y
 _atom_site_fract_z
 _atom_site_occupancy
  Pr  Pr0  1  0.309996  0.456260  0.283921  1
  Pr  Pr1  1  0.828138  0.310191  0.284163  1
  Pr  Pr2  1  0.455874  0.973573  0.284001  1
  Pr  Pr3  1  0.044817  0.190139  0.716663  1
  Pr  Pr4  1  0.671926  0.526117  0.716019  1
  Pr  Pr5  1  0.190286  0.672265  0.716075  1
  Pr  Pr6  1  0.525938  0.043837  0.715965  1
  Nd  Nd7  1  0.513903  0.513817  0.028044  1
  Nd  Nd8  1  0.987038  0.987064  0.973705  1
  Nd  Nd9  1  0.972340  0.826840  0.281578  1
  Si  Si10  1  0.248182  0.247780  0.497827  1
  Si  Si11  1  0.616161  0.884323  0.000364  1
  Si  Si12  1  0.385067  0.115359  0.000313  1
  Si  Si13  1  0.884564  0.385532  0.000502  1
  Si  Si14  1  0.115003  0.616080  0.000486  1
  Sn  Sn15  1  0.750767  0.750825  0.500375  1
