# generated using pymatgen
data_Y2AlCoRu
_symmetry_space_group_name_H-M   'P 1'
_cell_length_a   5.51934082
_cell_length_b   5.51934099
_cell_length_c   5.51934047
_cell_angle_alpha   136.94077384
_cell_angle_beta   118.80743347
_cell_angle_gamma   77.73018890
_symmetry_Int_Tables_number   1
_chemical_formula_structural   Y2AlCoRu
_chemical_formula_sum   'Y2 Al1 Co1 Ru1'
_cell_volume   97.81390309
_cell_formula_units_Z   1
loop_
 _symmetry_equiv_pos_site_id
 _symmetry_equiv_pos_as_xyz
  1  'x, y, z'
loop_
 _atom_site_type_symbol
 _atom_site_label
 _atom_site_symmetry_multiplicity
 _atom_site_fract_x
 _atom_site_fract_y
 _atom_site_fract_z
 _atom_site_occupancy
  Y  Y0  1  0.286006  0.792553  0.493452  1
  Y  Y1  1  0.700899  0.207447  0.493452  1
  Al  Al2  1  0.993822  0.000000  0.993822  1
  Co  Co3  1  0.726710  0.500000  0.226710  1
  Ru  Ru4  1  0.292563  0.500000  0.792563  1
