# generated using pymatgen
data_Dy6YHo13Pt16
_symmetry_space_group_name_H-M   'P 1'
_cell_length_a   7.47279715
_cell_length_b   7.55251701
_cell_length_c   14.73395201
_cell_angle_alpha   90.00503601
_cell_angle_beta   90.00572310
_cell_angle_gamma   90.00993609
_symmetry_Int_Tables_number   1
_chemical_formula_structural   Dy6YHo13Pt16
_chemical_formula_sum   'Dy6 Y1 Ho13 Pt16'
_cell_volume   831.56106440
_cell_formula_units_Z   1
loop_
 _symmetry_equiv_pos_site_id
 _symmetry_equiv_pos_as_xyz
  1  'x, y, z'
loop_
 _atom_site_type_symbol
 _atom_site_label
 _atom_site_symmetry_multiplicity
 _atom_site_fract_x
 _atom_site_fract_y
 _atom_site_fract_z
 _atom_site_occupancy
  Dy  Dy0  1  0.497899  0.680033  0.093036  1
  Dy  Dy1  1  0.502145  0.319975  0.593042  1
  Dy  Dy2  1  0.002157  0.180073  0.906974  1
  Dy  Dy3  1  0.002041  0.179829  0.592974  1
  Dy  Dy4  1  0.502083  0.319999  0.906954  1
  Dy  Dy5  1  0.497881  0.680100  0.406964  1
  Y  Y6  1  0.998182  0.820102  0.092934  1
  Ho  Ho7  1  0.681185  0.988334  0.250083  1
  Ho  Ho8  1  0.181050  0.511642  0.250094  1
  Ho  Ho9  1  0.818848  0.488346  0.749991  1
  Ho  Ho10  1  0.318903  0.011640  0.750049  1
  Ho  Ho11  1  0.656362  0.832509  0.622255  1
  Ho  Ho12  1  0.156375  0.667525  0.877735  1
  Ho  Ho13  1  0.843736  0.332419  0.377806  1
  Ho  Ho14  1  0.343624  0.167532  0.122228  1
  Ho  Ho15  1  0.343496  0.167403  0.377805  1
  Ho  Ho16  1  0.843718  0.332394  0.122217  1
  Ho  Ho17  1  0.156231  0.667679  0.622190  1
  Ho  Ho18  1  0.656385  0.832452  0.877779  1
  Ho  Ho19  1  0.997671  0.819802  0.406812  1
  Pt  Pt20  1  0.816179  0.642486  0.250522  1
  Pt  Pt21  1  0.316181  0.857525  0.250172  1
  Pt  Pt22  1  0.683780  0.142521  0.749951  1
  Pt  Pt23  1  0.183764  0.357499  0.749957  1
  Pt  Pt24  1  0.546671  0.386803  0.250035  1
  Pt  Pt25  1  0.046584  0.113303  0.250257  1
  Pt  Pt26  1  0.953417  0.886685  0.749976  1
  Pt  Pt27  1  0.453419  0.613281  0.749965  1
  Pt  Pt28  1  0.816844  0.532823  0.541888  1
  Pt  Pt29  1  0.316954  0.967460  0.957947  1
  Pt  Pt30  1  0.683818  0.032189  0.457909  1
  Pt  Pt31  1  0.183373  0.467104  0.041925  1
  Pt  Pt32  1  0.183052  0.467864  0.457891  1
  Pt  Pt33  1  0.682712  0.032966  0.041893  1
  Pt  Pt34  1  0.316656  0.967312  0.541892  1
  Pt  Pt35  1  0.816624  0.532394  0.957892  1
