# generated using pymatgen
data_DyEr7(ScGa5)4
_symmetry_space_group_name_H-M   'P 1'
_cell_length_a   5.98450613
_cell_length_b   9.45359706
_cell_length_c   11.29817300
_cell_angle_alpha   90.00282430
_cell_angle_beta   90.01179519
_cell_angle_gamma   90.00574500
_symmetry_Int_Tables_number   1
_chemical_formula_structural   DyEr7(ScGa5)4
_chemical_formula_sum   'Dy1 Er7 Sc4 Ga20'
_cell_volume   639.19535732
_cell_formula_units_Z   1
loop_
 _symmetry_equiv_pos_site_id
 _symmetry_equiv_pos_as_xyz
  1  'x, y, z'
loop_
 _atom_site_type_symbol
 _atom_site_label
 _atom_site_symmetry_multiplicity
 _atom_site_fract_x
 _atom_site_fract_y
 _atom_site_fract_z
 _atom_site_occupancy
  Dy  Dy0  1  0.609031  0.509959  0.852248  1
  Er  Er1  1  0.890974  0.509896  0.352272  1
  Er  Er2  1  0.609006  0.990127  0.852274  1
  Er  Er3  1  0.109123  0.010012  0.647671  1
  Er  Er4  1  0.390853  0.489990  0.148037  1
  Er  Er5  1  0.109061  0.490026  0.647520  1
  Er  Er6  1  0.390899  0.009937  0.147836  1
  Er  Er7  1  0.890983  0.990027  0.352251  1
  Sc  Sc8  1  0.849046  0.750096  0.074208  1
  Sc  Sc9  1  0.650987  0.750022  0.574078  1
  Sc  Sc10  1  0.150694  0.250020  0.925936  1
  Sc  Sc11  1  0.349072  0.249986  0.425744  1
  Ga  Ga12  1  0.876891  0.050176  0.089589  1
  Ga  Ga13  1  0.623240  0.449582  0.589127  1
  Ga  Ga14  1  0.122711  0.550346  0.910567  1
  Ga  Ga15  1  0.376764  0.949781  0.410427  1
  Ga  Ga16  1  0.123182  0.949907  0.910468  1
  Ga  Ga17  1  0.376783  0.550245  0.410452  1
  Ga  Ga18  1  0.876964  0.449697  0.089757  1
  Ga  Ga19  1  0.623299  0.050210  0.589565  1
  Ga  Ga20  1  0.165012  0.750002  0.248324  1
  Ga  Ga21  1  0.334808  0.750353  0.748156  1
  Ga  Ga22  1  0.835333  0.249601  0.751411  1
  Ga  Ga23  1  0.664927  0.249962  0.251724  1
  Ga  Ga24  1  0.380285  0.750176  0.004205  1
  Ga  Ga25  1  0.119401  0.750013  0.504140  1
  Ga  Ga26  1  0.619408  0.249532  0.996428  1
  Ga  Ga27  1  0.880613  0.249938  0.495799  1
  Ga  Ga28  1  0.605167  0.749989  0.295652  1
  Ga  Ga29  1  0.895490  0.750498  0.795563  1
  Ga  Ga30  1  0.394850  0.249912  0.704259  1
  Ga  Ga31  1  0.105143  0.249984  0.204311  1
