# generated using pymatgen
data_Ce2Dy6Si12IrRh3
_symmetry_space_group_name_H-M   'P 1'
_cell_length_a   8.18498000
_cell_length_b   8.18498070
_cell_length_c   8.02512800
_cell_angle_alpha   90.00000000
_cell_angle_beta   90.00000000
_cell_angle_gamma   119.99998907
_symmetry_Int_Tables_number   1
_chemical_formula_structural   Ce2Dy6Si12IrRh3
_chemical_formula_sum   'Ce2 Dy6 Si12 Ir1 Rh3'
_cell_volume   465.60531589
_cell_formula_units_Z   1
loop_
 _symmetry_equiv_pos_site_id
 _symmetry_equiv_pos_as_xyz
  1  'x, y, z'
loop_
 _atom_site_type_symbol
 _atom_site_label
 _atom_site_symmetry_multiplicity
 _atom_site_fract_x
 _atom_site_fract_y
 _atom_site_fract_z
 _atom_site_occupancy
  Ce  Ce0  1  0.000000  0.000000  0.249045  1
  Ce  Ce1  1  0.000000  0.000000  0.750253  1
  Dy  Dy2  1  0.507853  0.492147  0.250296  1
  Dy  Dy3  1  0.507853  0.015708  0.250296  1
  Dy  Dy4  1  0.984292  0.492147  0.250296  1
  Dy  Dy5  1  0.491227  0.508773  0.749739  1
  Dy  Dy6  1  0.491227  0.982454  0.749739  1
  Dy  Dy7  1  0.017546  0.508773  0.749739  1
  Si  Si8  1  0.166658  0.833342  0.500061  1
  Si  Si9  1  0.166658  0.333317  0.500061  1
  Si  Si10  1  0.666683  0.833342  0.500061  1
  Si  Si11  1  0.832451  0.167549  0.499119  1
  Si  Si12  1  0.832451  0.664901  0.499119  1
  Si  Si13  1  0.335099  0.167549  0.499119  1
  Si  Si14  1  0.832672  0.167328  0.000591  1
  Si  Si15  1  0.832672  0.665343  0.000591  1
  Si  Si16  1  0.334657  0.167328  0.000591  1
  Si  Si17  1  0.167251  0.832749  0.998790  1
  Si  Si18  1  0.167251  0.334503  0.998790  1
  Si  Si19  1  0.665497  0.832749  0.998790  1
  Ir  Ir20  1  0.333333  0.666667  0.471102  1
  Rh  Rh21  1  0.666667  0.333333  0.532219  1
  Rh  Rh22  1  0.666667  0.333333  0.967225  1
  Rh  Rh23  1  0.333333  0.666667  0.034366  1
