# generated using pymatgen
data_Ti6VAs6Ru5
_symmetry_space_group_name_H-M   'P 1'
_cell_length_a   7.52857830
_cell_length_b   7.49506887
_cell_length_c   7.49843377
_cell_angle_alpha   127.97952095
_cell_angle_beta   122.18959565
_cell_angle_gamma   81.49991132
_symmetry_Int_Tables_number   1
_chemical_formula_structural   Ti6VAs6Ru5
_chemical_formula_sum   'Ti6 V1 As6 Ru5'
_cell_volume   271.77702088
_cell_formula_units_Z   1
loop_
 _symmetry_equiv_pos_site_id
 _symmetry_equiv_pos_as_xyz
  1  'x, y, z'
loop_
 _atom_site_type_symbol
 _atom_site_label
 _atom_site_symmetry_multiplicity
 _atom_site_fract_x
 _atom_site_fract_y
 _atom_site_fract_z
 _atom_site_occupancy
  Ti  Ti0  1  0.469795  0.249539  0.287836  1
  Ti  Ti1  1  0.534190  0.808593  0.782766  1
  Ti  Ti2  1  0.747349  0.659185  0.406461  1
  Ti  Ti3  1  0.258369  0.666203  0.918431  1
  Ti  Ti4  1  0.048588  0.839593  0.284095  1
  Ti  Ti5  1  0.945946  0.249692  0.797809  1
  V  V6  1  0.652688  0.493696  0.897041  1
  As  As7  1  0.835545  0.581509  0.750103  1
  As  As8  1  0.165580  0.913176  0.743453  1
  As  As9  1  0.672772  0.910164  0.248994  1
  As  As10  1  0.332456  0.579020  0.245800  1
  As  As11  1  0.278384  0.263127  0.486782  1
  As  As12  1  0.713319  0.234064  0.014616  1
  Ru  Ru13  1  0.330595  0.247107  0.831270  1
  Ru  Ru14  1  0.915295  0.250616  0.411916  1
  Ru  Ru15  1  0.085785  0.498768  0.330419  1
  Ru  Ru16  1  0.988324  0.002578  0.982731  1
  Ru  Ru17  1  0.525020  0.993767  0.519876  1
