# generated using pymatgen
data_NaBr35
_symmetry_space_group_name_H-M   'P 1'
_cell_length_a   15.98197694
_cell_length_b   11.40028128
_cell_length_c   10.79188300
_cell_angle_alpha   88.81408278
_cell_angle_beta   66.02770512
_cell_angle_gamma   92.31545406
_symmetry_Int_Tables_number   1
_chemical_formula_structural   NaBr35
_chemical_formula_sum   'Na1 Br35'
_cell_volume   1793.71352310
_cell_formula_units_Z   1
loop_
 _symmetry_equiv_pos_site_id
 _symmetry_equiv_pos_as_xyz
  1  'x, y, z'
loop_
 _atom_site_type_symbol
 _atom_site_label
 _atom_site_symmetry_multiplicity
 _atom_site_fract_x
 _atom_site_fract_y
 _atom_site_fract_z
 _atom_site_occupancy
  Na  Na0  1  0.295848  0.332187  0.497233  1
  Br  Br1  1  0.468931  0.290004  0.520706  1
  Br  Br2  1  0.732704  0.581514  0.608421  1
  Br  Br3  1  0.461856  0.687592  0.762816  1
  Br  Br4  1  0.061630  0.846714  0.808928  1
  Br  Br5  1  0.928874  0.142504  0.046891  1
  Br  Br6  1  0.594153  0.337980  0.292969  1
  Br  Br7  1  0.580658  0.325333  0.889505  1
  Br  Br8  1  0.315272  0.757581  0.722977  1
  Br  Br9  1  0.438098  0.701985  0.200222  1
  Br  Br10  1  0.667864  0.166614  0.770952  1
  Br  Br11  1  0.882505  0.526645  0.422869  1
  Br  Br12  1  0.081153  0.892440  0.572263  1
  Br  Br13  1  0.859285  0.101176  0.293544  1
  Br  Br14  1  0.010949  0.197315  0.777076  1
  Br  Br15  1  0.674610  0.052368  0.121811  1
  Br  Br16  1  0.037366  0.801082  0.063459  1
  Br  Br17  1  0.351779  0.964742  0.722574  1
  Br  Br18  1  0.866531  0.316314  0.367245  1
  Br  Br19  1  0.907964  0.934259  0.606089  1
  Br  Br20  1  0.835624  0.607098  0.883598  1
  Br  Br21  1  0.310772  0.087208  0.240461  1
  Br  Br22  1  0.247131  0.284336  0.267499  1
  Br  Br23  1  0.594599  0.644640  0.815471  1
  Br  Br24  1  0.166901  0.502686  0.312020  1
  Br  Br25  1  0.752315  0.969156  0.625211  1
  Br  Br26  1  0.915831  0.435016  0.832217  1
  Br  Br27  1  0.516609  0.063400  0.177964  1
  Br  Br28  1  0.172903  0.211247  0.763663  1
  Br  Br29  1  0.686192  0.774342  0.286636  1
  Br  Br30  1  0.865593  0.785988  0.175607  1
  Br  Br31  1  0.337622  0.233328  0.765986  1
  Br  Br32  1  0.228776  0.530912  0.741218  1
  Br  Br33  1  0.640434  0.561621  0.295576  1
  Br  Br34  1  0.191621  0.532895  0.530098  1
  Br  Br35  1  0.319049  0.819780  0.218227  1
