# generated using pymatgen
data_ErLu9(GaTe)4
_symmetry_space_group_name_H-M   'P 1'
_cell_length_a   8.47277846
_cell_length_b   8.47802445
_cell_length_c   7.76899500
_cell_angle_alpha   89.99072782
_cell_angle_beta   89.98102488
_cell_angle_gamma   125.47616589
_symmetry_Int_Tables_number   1
_chemical_formula_structural   ErLu9(GaTe)4
_chemical_formula_sum   'Er1 Lu9 Ga4 Te4'
_cell_volume   454.46467616
_cell_formula_units_Z   1
loop_
 _symmetry_equiv_pos_site_id
 _symmetry_equiv_pos_as_xyz
  1  'x, y, z'
loop_
 _atom_site_type_symbol
 _atom_site_label
 _atom_site_symmetry_multiplicity
 _atom_site_fract_x
 _atom_site_fract_y
 _atom_site_fract_z
 _atom_site_occupancy
  Er  Er0  1  0.294858  0.041150  0.332053  1
  Lu  Lu1  1  0.041619  0.291606  0.332456  1
  Lu  Lu2  1  0.958453  0.708570  0.667362  1
  Lu  Lu3  1  0.458037  0.208414  0.832480  1
  Lu  Lu4  1  0.791751  0.541932  0.167532  1
  Lu  Lu5  1  0.541263  0.791558  0.167189  1
  Lu  Lu6  1  0.207846  0.457891  0.832690  1
  Lu  Lu7  1  0.707170  0.958196  0.667413  1
  Lu  Lu8  1  0.999599  0.999977  0.999697  1
  Lu  Lu9  1  0.500269  0.500216  0.500083  1
  Ga  Ga10  1  0.369265  0.370377  0.129123  1
  Ga  Ga11  1  0.630406  0.630473  0.870464  1
  Ga  Ga12  1  0.129787  0.130364  0.630107  1
  Ga  Ga13  1  0.868401  0.869300  0.370583  1
  Te  Te14  1  0.792911  0.206499  0.000296  1
  Te  Te15  1  0.206331  0.792940  0.998493  1
  Te  Te16  1  0.709042  0.295820  0.501090  1
  Te  Te17  1  0.292991  0.704718  0.500890  1
