# generated using pymatgen
data_PrEr(CuP)3
_symmetry_space_group_name_H-M   'P 1'
_cell_length_a   3.93505400
_cell_length_b   10.76672800
_cell_length_c   12.94011300
_cell_angle_alpha   90.00000000
_cell_angle_beta   90.00000000
_cell_angle_gamma   90.00000000
_symmetry_Int_Tables_number   1
_chemical_formula_structural   PrEr(CuP)3
_chemical_formula_sum   'Pr4 Er4 Cu12 P12'
_cell_volume   548.24225726
_cell_formula_units_Z   4
loop_
 _symmetry_equiv_pos_site_id
 _symmetry_equiv_pos_as_xyz
  1  'x, y, z'
loop_
 _atom_site_type_symbol
 _atom_site_label
 _atom_site_symmetry_multiplicity
 _atom_site_fract_x
 _atom_site_fract_y
 _atom_site_fract_z
 _atom_site_occupancy
  Pr  Pr0  1  0.250000  0.932548  0.792603  1
  Pr  Pr1  1  0.750000  0.432548  0.707397  1
  Pr  Pr2  1  0.250000  0.567452  0.292603  1
  Pr  Pr3  1  0.750000  0.067452  0.207397  1
  Er  Er4  1  0.250000  0.842590  0.502346  1
  Er  Er5  1  0.750000  0.342590  0.997654  1
  Er  Er6  1  0.250000  0.657410  0.002346  1
  Er  Er7  1  0.750000  0.157410  0.497654  1
  Cu  Cu8  1  0.250000  0.402860  0.512077  1
  Cu  Cu9  1  0.750000  0.902860  0.987923  1
  Cu  Cu10  1  0.250000  0.097140  0.012077  1
  Cu  Cu11  1  0.750000  0.597140  0.487923  1
  Cu  Cu12  1  0.250000  0.270030  0.331658  1
  Cu  Cu13  1  0.750000  0.770030  0.168342  1
  Cu  Cu14  1  0.250000  0.229970  0.831658  1
  Cu  Cu15  1  0.750000  0.729970  0.668342  1
  Cu  Cu16  1  0.250000  0.858498  0.281174  1
  Cu  Cu17  1  0.750000  0.358498  0.218826  1
  Cu  Cu18  1  0.250000  0.641502  0.781174  1
  Cu  Cu19  1  0.750000  0.141502  0.718826  1
  P  P20  1  0.250000  0.236593  0.641688  1
  P  P21  1  0.750000  0.736593  0.858312  1
  P  P22  1  0.250000  0.263407  0.141688  1
  P  P23  1  0.750000  0.763407  0.358312  1
  P  P24  1  0.250000  0.608720  0.598900  1
  P  P25  1  0.750000  0.108720  0.901100  1
  P  P26  1  0.250000  0.891280  0.098900  1
  P  P27  1  0.750000  0.391280  0.401100  1
  P  P28  1  0.250000  0.057108  0.374935  1
  P  P29  1  0.750000  0.557108  0.125065  1
  P  P30  1  0.250000  0.442892  0.874935  1
  P  P31  1  0.750000  0.942892  0.625065  1
