# generated using pymatgen
data_TbY2ZnIn3Pt2
_symmetry_space_group_name_H-M   'P 1'
_cell_length_a   7.71796550
_cell_length_b   7.71796663
_cell_length_c   3.87467700
_cell_angle_alpha   90.00000000
_cell_angle_beta   90.00000000
_cell_angle_gamma   119.80217651
_symmetry_Int_Tables_number   1
_chemical_formula_structural   TbY2ZnIn3Pt2
_chemical_formula_sum   'Tb1 Y2 Zn1 In3 Pt2'
_cell_volume   200.27841323
_cell_formula_units_Z   1
loop_
 _symmetry_equiv_pos_site_id
 _symmetry_equiv_pos_as_xyz
  1  'x, y, z'
loop_
 _atom_site_type_symbol
 _atom_site_label
 _atom_site_symmetry_multiplicity
 _atom_site_fract_x
 _atom_site_fract_y
 _atom_site_fract_z
 _atom_site_occupancy
  Tb  Tb0  1  0.591600  0.591600  0.000000  1
  Y  Y1  1  0.408137  0.999893  0.000000  1
  Y  Y2  1  0.999893  0.408137  0.000000  1
  Zn  Zn3  1  0.000192  0.000192  0.000000  1
  In  In4  1  0.259671  0.259671  0.500000  1
  In  In5  1  0.999881  0.740147  0.500000  1
  In  In6  1  0.740147  0.999881  0.500000  1
  Pt  Pt7  1  0.666611  0.333868  0.500000  1
  Pt  Pt8  1  0.333868  0.666611  0.500000  1
